ALP-POS-c59291d4-4
  -OEChem-08232013473D

 46 49  0     0  0  0  0  0  0999 V2000
    9.2320   -4.9190   25.7740 N   0  0  0  0  0  0  0  0  0  0  0  0
    8.1760   -5.3000   26.6870 C   0  0  0  0  0  0  0  0  0  0  0  0
    9.1870    1.1500   21.0630 O   0  0  0  0  0  0  0  0  0  0  0  0
    9.2850   -3.7090   25.1090 C   0  0  0  0  0  0  0  0  0  0  0  0
    9.4200   -0.0840   22.9530 N   0  0  0  0  0  0  0  0  0  0  0  0
    8.3310   -2.7170   25.3430 C   0  0  0  0  0  0  0  0  0  0  0  0
    7.2210   -0.4620   20.0350 N   0  0  0  0  0  0  0  0  0  0  0  0
    8.3510   -1.5420   24.6110 C   0  0  0  0  0  0  0  0  0  0  0  0
    7.6830   -0.5170   18.7600 N   0  0  0  0  0  0  0  0  0  0  0  0
    9.3300   -1.3350   23.6390 C   0  0  0  0  0  0  0  0  0  0  0  0
    6.9440    0.2550   18.0100 N   0  0  0  0  0  0  0  0  0  0  0  0
   10.2760   -2.3270   23.4020 C   0  0  0  0  0  0  0  0  0  0  0  0
   10.2570   -3.5000   24.1350 C   0  0  0  0  0  0  0  0  0  0  0  0
   10.0220    1.0430   23.6570 C   0  0  0  0  0  0  0  0  0  0  0  0
   11.4770    1.2590   23.3320 C   0  0  0  0  0  0  0  0  0  0  0  0
   12.0480    2.4320   22.7530 C   0  0  0  0  0  0  0  0  0  0  0  0
   13.4100    2.3370   22.5750 C   0  0  0  0  0  0  0  0  0  0  0  0
   12.4210    0.3060   23.5780 C   0  0  0  0  0  0  0  0  0  0  0  0
    8.9510    0.1280   21.6880 C   0  0  0  0  0  0  0  0  0  0  0  0
    8.0810   -0.9750   21.0820 C   0  0  0  0  0  0  0  0  0  0  0  0
    5.9810    0.8330   18.8060 C   0  0  0  0  0  0  0  0  0  0  0  0
    4.9400    1.7060   18.5060 C   0  0  0  0  0  0  0  0  0  0  0  0
    4.0980    2.1130   19.5350 C   0  0  0  0  0  0  0  0  0  0  0  0
    4.2970    1.6690   20.8430 C   0  0  0  0  0  0  0  0  0  0  0  0
    5.3360    0.8000   21.1530 C   0  0  0  0  0  0  0  0  0  0  0  0
    6.1600    0.3870   20.1140 C   0  0  0  0  0  0  0  0  0  0  0  0
   13.9820    0.8020   23.1200 S   0  0  0  0  0  0  0  0  0  0  0  0
   10.1294   -5.2881   26.0158 H   0  0  0  0  0  0  0  0  0  0  0  0
    8.3744   -6.3091   27.0773 H   0  0  0  0  0  0  0  0  0  0  0  0
    8.1377   -4.5850   27.5220 H   0  0  0  0  0  0  0  0  0  0  0  0
    7.2128   -5.2953   26.1558 H   0  0  0  0  0  0  0  0  0  0  0  0
    7.5739   -2.8668   26.0985 H   0  0  0  0  0  0  0  0  0  0  0  0
    7.6053   -0.7823   24.7933 H   0  0  0  0  0  0  0  0  0  0  0  0
   11.0291   -2.1806   22.6419 H   0  0  0  0  0  0  0  0  0  0  0  0
   11.0022   -4.2595   23.9500 H   0  0  0  0  0  0  0  0  0  0  0  0
    9.4682    1.9547   23.3887 H   0  0  0  0  0  0  0  0  0  0  0  0
    9.9316    0.8640   24.7386 H   0  0  0  0  0  0  0  0  0  0  0  0
   11.4712    3.3041   22.4824 H   0  0  0  0  0  0  0  0  0  0  0  0
   14.0323    3.1128   22.1541 H   0  0  0  0  0  0  0  0  0  0  0  0
   12.2016   -0.6569   24.0152 H   0  0  0  0  0  0  0  0  0  0  0  0
    7.4562   -1.4126   21.8746 H   0  0  0  0  0  0  0  0  0  0  0  0
    8.7340   -1.7524   20.6586 H   0  0  0  0  0  0  0  0  0  0  0  0
    4.7893    2.0595   17.4967 H   0  0  0  0  0  0  0  0  0  0  0  0
    3.2784    2.7822   19.3189 H   0  0  0  0  0  0  0  0  0  0  0  0
    3.6336    2.0058   21.6259 H   0  0  0  0  0  0  0  0  0  0  0  0
    5.4969    0.4582   22.1648 H   0  0  0  0  0  0  0  0  0  0  0  0
  1  2  1  0  0  0  0
  1  4  1  0  0  0  0
  3 19  2  0  0  0  0
  4  6  2  0  0  0  0
  4 13  1  0  0  0  0
  5 10  1  0  0  0  0
  5 14  1  0  0  0  0
  5 19  1  0  0  0  0
  6  8  1  0  0  0  0
  7  9  1  0  0  0  0
  7 20  1  0  0  0  0
  7 26  1  0  0  0  0
  8 10  2  0  0  0  0
  9 11  2  0  0  0  0
 10 12  1  0  0  0  0
 11 21  1  0  0  0  0
 12 13  2  0  0  0  0
 14 15  1  0  0  0  0
 15 16  1  0  0  0  0
 15 18  2  0  0  0  0
 16 17  2  0  0  0  0
 17 27  1  0  0  0  0
 18 27  1  0  0  0  0
 19 20  1  0  0  0  0
 21 22  2  0  0  0  0
 21 26  1  0  0  0  0
 22 23  1  0  0  0  0
 23 24  2  0  0  0  0
 24 25  1  0  0  0  0
 25 26  2  0  0  0  0
  1 28  1  0  0  0  0
  2 29  1  0  0  0  0
  2 30  1  0  0  0  0
  2 31  1  0  0  0  0
  6 32  1  0  0  0  0
  8 33  1  0  0  0  0
 12 34  1  0  0  0  0
 13 35  1  0  0  0  0
 14 36  1  0  0  0  0
 14 37  1  0  0  0  0
 16 38  1  0  0  0  0
 17 39  1  0  0  0  0
 18 40  1  0  0  0  0
 20 41  1  0  0  0  0
 20 42  1  0  0  0  0
 22 43  1  0  0  0  0
 23 44  1  0  0  0  0
 24 45  1  0  0  0  0
 25 46  1  0  0  0  0
M  END
> <canonical_CID>
ALP-POS-c59291d4-4

> <r_inhibition_at_20_uM>

> <r_inhibition_at_50_uM>
70.4921969469493

> <r_avg_IC50>
18.6768767768832

> <f_inhibition_at_20_uM>
57.123395

> <f_inhibition_at_50_uM>
82.620135

> <f_avg_IC50>
4.32892722638383

> <f_avg_pIC50>
5.36361971505208

> <relative_solubility_at_20_uM>
0.99

> <relative_solubility_at_100_uM>
0.77

> <trypsin_IC50>
99.0

> <NMR_std_ratio>

> <acrylamide>
False

> <chloroacetamide>
False

> <series>
3-aminopyridine-like

> <clash_score>
0.0

$$$$
BENZO_1_1
  -OEChem-08232013473D

 51 54  0     0  0  0  0  0  0999 V2000
   14.3601    0.8733   23.4330 C   0  0  0  0  0  0  0  0  0  0  0  0
   13.6986    0.2273   24.4774 C   0  0  0  0  0  0  0  0  0  0  0  0
   13.6307    1.5790   22.4761 C   0  0  0  0  0  0  0  0  0  0  0  0
    4.0980    2.1130   19.5350 C   0  0  0  0  0  0  0  0  0  0  0  0
    4.2970    1.6690   20.8430 C   0  0  0  0  0  0  0  0  0  0  0  0
   12.3078    0.2869   24.5648 C   0  0  0  0  0  0  0  0  0  0  0  0
   12.2398    1.6386   22.5635 C   0  0  0  0  0  0  0  0  0  0  0  0
    4.9400    1.7060   18.5060 C   0  0  0  0  0  0  0  0  0  0  0  0
    5.3360    0.8000   21.1530 C   0  0  0  0  0  0  0  0  0  0  0  0
    8.3510   -1.5420   24.6110 C   0  0  0  0  0  0  0  0  0  0  0  0
   10.2760   -2.3270   23.4020 C   0  0  0  0  0  0  0  0  0  0  0  0
    8.3310   -2.7170   25.3430 C   0  0  0  0  0  0  0  0  0  0  0  0
   10.2570   -3.5000   24.1350 C   0  0  0  0  0  0  0  0  0  0  0  0
   11.5784    0.9926   23.6079 C   0  0  0  0  0  0  0  0  0  0  0  0
    5.9810    0.8330   18.8060 C   0  0  0  0  0  0  0  0  0  0  0  0
    6.1600    0.3870   20.1140 C   0  0  0  0  0  0  0  0  0  0  0  0
    9.3300   -1.3350   23.6390 C   0  0  0  0  0  0  0  0  0  0  0  0
    9.2850   -3.7090   25.1090 C   0  0  0  0  0  0  0  0  0  0  0  0
    8.9510    0.1280   21.6880 C   0  0  0  0  0  0  0  0  0  0  0  0
    8.2493   -5.1167   26.8639 C   0  0  0  0  0  0  0  0  0  0  0  0
   10.2428   -5.9410   25.6009 C   0  0  0  0  0  0  0  0  0  0  0  0
   10.0813    1.0569   23.7013 C   0  0  0  0  0  0  0  0  0  0  0  0
    6.9440    0.2550   18.0100 N   0  0  0  0  0  0  0  0  0  0  0  0
    7.6830   -0.5170   18.7600 N   0  0  0  0  0  0  0  0  0  0  0  0
    7.2210   -0.4620   20.0350 N   0  0  0  0  0  0  0  0  0  0  0  0
    8.0810   -0.9750   21.0820 N   0  0  0  0  0  0  0  0  0  0  0  0
    9.4200   -0.0840   22.9530 N   0  0  0  0  0  0  0  0  0  0  0  0
    9.2624   -4.9028   25.8498 N   0  0  0  0  0  0  0  0  0  0  0  0
    9.1870    1.1500   21.0630 O   0  0  0  0  0  0  0  0  0  0  0  0
   15.4431    0.8280   23.3658 H   0  0  0  0  0  0  0  0  0  0  0  0
   14.2665   -0.3213   25.2232 H   0  0  0  0  0  0  0  0  0  0  0  0
   14.1454    2.0830   21.6634 H   0  0  0  0  0  0  0  0  0  0  0  0
    3.2714    2.7876   19.3199 H   0  0  0  0  0  0  0  0  0  0  0  0
    3.6283    2.0091   21.6296 H   0  0  0  0  0  0  0  0  0  0  0  0
   11.8009   -0.2197   25.3819 H   0  0  0  0  0  0  0  0  0  0  0  0
   11.6798    2.1907   21.8134 H   0  0  0  0  0  0  0  0  0  0  0  0
    4.7824    2.0670   17.4883 H   0  0  0  0  0  0  0  0  0  0  0  0
    5.4937    0.4574   22.1805 H   0  0  0  0  0  0  0  0  0  0  0  0
    7.5947   -0.7787   24.7997 H   0  0  0  0  0  0  0  0  0  0  0  0
   11.0404   -2.1861   22.6352 H   0  0  0  0  0  0  0  0  0  0  0  0
    7.5641   -2.8632   26.1047 H   0  0  0  0  0  0  0  0  0  0  0  0
   11.0135   -4.2647   23.9425 H   0  0  0  0  0  0  0  0  0  0  0  0
    8.3982   -6.1020   27.3296 H   0  0  0  0  0  0  0  0  0  0  0  0
    8.3279   -4.3328   27.6316 H   0  0  0  0  0  0  0  0  0  0  0  0
    7.2526   -5.0773   26.4003 H   0  0  0  0  0  0  0  0  0  0  0  0
   10.0593   -6.7889   26.2772 H   0  0  0  0  0  0  0  0  0  0  0  0
   10.1609   -6.2799   24.5576 H   0  0  0  0  0  0  0  0  0  0  0  0
   11.2523   -5.5421   25.7787 H   0  0  0  0  0  0  0  0  0  0  0  0
    9.7577    1.0183   24.7472 H   0  0  0  0  0  0  0  0  0  0  0  0
    9.7009    1.9923   23.2775 H   0  0  0  0  0  0  0  0  0  0  0  0
    8.1044   -1.8183   21.3422 H   0  0  0  0  0  0  0  0  0  0  0  0
  1  2  1  0  0  0  0
  1  3  2  0  0  0  0
  2  6  2  0  0  0  0
  3  7  1  0  0  0  0
  4  5  1  0  0  0  0
  4  8  2  0  0  0  0
  5  9  2  0  0  0  0
  6 14  1  0  0  0  0
  7 14  2  0  0  0  0
  8 15  1  0  0  0  0
  9 16  1  0  0  0  0
 10 12  2  0  0  0  0
 10 17  1  0  0  0  0
 11 13  1  0  0  0  0
 11 17  2  0  0  0  0
 12 18  1  0  0  0  0
 13 18  2  0  0  0  0
 14 22  1  0  0  0  0
 15 16  2  0  0  0  0
 15 23  1  0  0  0  0
 16 25  1  0  0  0  0
 17 27  1  0  0  0  0
 18 28  1  0  0  0  0
 19 26  1  0  0  0  0
 19 27  1  0  0  0  0
 19 29  2  0  0  0  0
 20 28  1  0  0  0  0
 21 28  1  0  0  0  0
 22 27  1  0  0  0  0
 23 24  2  0  0  0  0
 24 25  1  0  0  0  0
 25 26  1  0  0  0  0
  1 30  1  0  0  0  0
  2 31  1  0  0  0  0
  3 32  1  0  0  0  0
  4 33  1  0  0  0  0
  5 34  1  0  0  0  0
  6 35  1  0  0  0  0
  7 36  1  0  0  0  0
  8 37  1  0  0  0  0
  9 38  1  0  0  0  0
 10 39  1  0  0  0  0
 11 40  1  0  0  0  0
 12 41  1  0  0  0  0
 13 42  1  0  0  0  0
 20 43  1  0  0  0  0
 20 44  1  0  0  0  0
 20 45  1  0  0  0  0
 21 46  1  0  0  0  0
 21 47  1  0  0  0  0
 21 48  1  0  0  0  0
 22 49  1  0  0  0  0
 22 50  1  0  0  0  0
 26 51  1  0  0  0  0
M  END
> <clash_score>
0

> <docking_score>
-9.382715225219727

> <overlap_score>
1.001629114151001

$$$$
BENZO_3_1
  -OEChem-08232013473D

 51 54  0     0  0  0  0  0  0999 V2000
    4.0980    2.1130   19.5350 C   0  0  0  0  0  0  0  0  0  0  0  0
    4.2970    1.6690   20.8430 C   0  0  0  0  0  0  0  0  0  0  0  0
    4.9400    1.7060   18.5060 C   0  0  0  0  0  0  0  0  0  0  0  0
    5.3360    0.8000   21.1530 C   0  0  0  0  0  0  0  0  0  0  0  0
    8.3510   -1.5420   24.6110 C   0  0  0  0  0  0  0  0  0  0  0  0
   10.2760   -2.3270   23.4020 C   0  0  0  0  0  0  0  0  0  0  0  0
    8.3310   -2.7170   25.3430 C   0  0  0  0  0  0  0  0  0  0  0  0
   10.2570   -3.5000   24.1350 C   0  0  0  0  0  0  0  0  0  0  0  0
   12.5230    1.6974   24.3778 C   0  0  0  0  0  0  0  0  0  0  0  0
   12.3340    0.2290   22.7520 C   0  0  0  0  0  0  0  0  0  0  0  0
   11.5784    0.9926   23.6079 C   0  0  0  0  0  0  0  0  0  0  0  0
    5.9810    0.8330   18.8060 C   0  0  0  0  0  0  0  0  0  0  0  0
    6.1600    0.3870   20.1140 C   0  0  0  0  0  0  0  0  0  0  0  0
    9.3300   -1.3350   23.6390 C   0  0  0  0  0  0  0  0  0  0  0  0
    9.2850   -3.7090   25.1090 C   0  0  0  0  0  0  0  0  0  0  0  0
    8.9510    0.1280   21.6880 C   0  0  0  0  0  0  0  0  0  0  0  0
   14.8007   -0.0508   22.4122 C   0  0  0  0  0  0  0  0  0  0  0  0
    8.2493   -5.1167   26.8639 C   0  0  0  0  0  0  0  0  0  0  0  0
   10.2428   -5.9410   25.6009 C   0  0  0  0  0  0  0  0  0  0  0  0
   10.0813    1.0569   23.7013 C   0  0  0  0  0  0  0  0  0  0  0  0
   13.7825    1.4073   24.0409 N   0  0  0  0  0  0  0  0  0  0  0  0
    6.9440    0.2550   18.0100 N   0  0  0  0  0  0  0  0  0  0  0  0
    7.6830   -0.5170   18.7600 N   0  0  0  0  0  0  0  0  0  0  0  0
   13.6346    0.5117   23.0499 N   0  0  0  0  0  0  0  0  0  0  0  0
    7.2210   -0.4620   20.0350 N   0  0  0  0  0  0  0  0  0  0  0  0
    8.0810   -0.9750   21.0820 N   0  0  0  0  0  0  0  0  0  0  0  0
    9.4200   -0.0840   22.9530 N   0  0  0  0  0  0  0  0  0  0  0  0
    9.2624   -4.9028   25.8498 N   0  0  0  0  0  0  0  0  0  0  0  0
    9.1870    1.1500   21.0630 O   0  0  0  0  0  0  0  0  0  0  0  0
    3.2714    2.7876   19.3199 H   0  0  0  0  0  0  0  0  0  0  0  0
    3.6283    2.0091   21.6296 H   0  0  0  0  0  0  0  0  0  0  0  0
    4.7824    2.0670   17.4883 H   0  0  0  0  0  0  0  0  0  0  0  0
    5.4937    0.4574   22.1805 H   0  0  0  0  0  0  0  0  0  0  0  0
    7.5947   -0.7787   24.7997 H   0  0  0  0  0  0  0  0  0  0  0  0
   11.0404   -2.1861   22.6352 H   0  0  0  0  0  0  0  0  0  0  0  0
    7.5641   -2.8632   26.1047 H   0  0  0  0  0  0  0  0  0  0  0  0
   11.0135   -4.2647   23.9425 H   0  0  0  0  0  0  0  0  0  0  0  0
   12.3485    2.4102   25.1714 H   0  0  0  0  0  0  0  0  0  0  0  0
   12.0637   -0.4749   21.9765 H   0  0  0  0  0  0  0  0  0  0  0  0
   15.0649    0.5899   21.5668 H   0  0  0  0  0  0  0  0  0  0  0  0
   15.6237   -0.0939   23.1311 H   0  0  0  0  0  0  0  0  0  0  0  0
   14.5717   -1.0635   22.0688 H   0  0  0  0  0  0  0  0  0  0  0  0
    8.3982   -6.1020   27.3296 H   0  0  0  0  0  0  0  0  0  0  0  0
    8.3279   -4.3328   27.6316 H   0  0  0  0  0  0  0  0  0  0  0  0
    7.2526   -5.0773   26.4003 H   0  0  0  0  0  0  0  0  0  0  0  0
   10.0593   -6.7889   26.2772 H   0  0  0  0  0  0  0  0  0  0  0  0
   10.1609   -6.2799   24.5576 H   0  0  0  0  0  0  0  0  0  0  0  0
   11.2523   -5.5421   25.7787 H   0  0  0  0  0  0  0  0  0  0  0  0
    9.7577    1.0183   24.7472 H   0  0  0  0  0  0  0  0  0  0  0  0
    9.7009    1.9923   23.2775 H   0  0  0  0  0  0  0  0  0  0  0  0
    8.1044   -1.8183   21.3422 H   0  0  0  0  0  0  0  0  0  0  0  0
  1  2  1  0  0  0  0
  1  3  2  0  0  0  0
  2  4  2  0  0  0  0
  3 12  1  0  0  0  0
  4 13  1  0  0  0  0
  5  7  2  0  0  0  0
  5 14  1  0  0  0  0
  6  8  1  0  0  0  0
  6 14  2  0  0  0  0
  7 15  1  0  0  0  0
  8 15  2  0  0  0  0
  9 11  1  0  0  0  0
  9 21  2  0  0  0  0
 10 11  2  0  0  0  0
 10 24  1  0  0  0  0
 11 20  1  0  0  0  0
 12 13  2  0  0  0  0
 12 22  1  0  0  0  0
 13 25  1  0  0  0  0
 14 27  1  0  0  0  0
 15 28  1  0  0  0  0
 16 26  1  0  0  0  0
 16 27  1  0  0  0  0
 16 29  2  0  0  0  0
 17 24  1  0  0  0  0
 18 28  1  0  0  0  0
 19 28  1  0  0  0  0
 20 27  1  0  0  0  0
 21 24  1  0  0  0  0
 22 23  2  0  0  0  0
 23 25  1  0  0  0  0
 25 26  1  0  0  0  0
  1 30  1  0  0  0  0
  2 31  1  0  0  0  0
  3 32  1  0  0  0  0
  4 33  1  0  0  0  0
  5 34  1  0  0  0  0
  6 35  1  0  0  0  0
  7 36  1  0  0  0  0
  8 37  1  0  0  0  0
  9 38  1  0  0  0  0
 10 39  1  0  0  0  0
 17 40  1  0  0  0  0
 17 41  1  0  0  0  0
 17 42  1  0  0  0  0
 18 43  1  0  0  0  0
 18 44  1  0  0  0  0
 18 45  1  0  0  0  0
 19 46  1  0  0  0  0
 19 47  1  0  0  0  0
 19 48  1  0  0  0  0
 20 49  1  0  0  0  0
 20 50  1  0  0  0  0
 26 51  1  0  0  0  0
M  END
> <clash_score>
0

> <docking_score>
-9.565011024475098

> <overlap_score>
0.9865097403526306

$$$$
BENZO_5_1
  -OEChem-08232013473D

 53 56  0     0  0  0  0  0  0999 V2000
   14.3601    0.8733   23.4330 C   0  0  0  0  0  0  0  0  0  0  0  0
   13.6986    0.2273   24.4774 C   0  0  0  0  0  0  0  0  0  0  0  0
   13.6307    1.5790   22.4761 C   0  0  0  0  0  0  0  0  0  0  0  0
    4.0980    2.1130   19.5350 C   0  0  0  0  0  0  0  0  0  0  0  0
    4.2970    1.6690   20.8430 C   0  0  0  0  0  0  0  0  0  0  0  0
   12.3078    0.2869   24.5648 C   0  0  0  0  0  0  0  0  0  0  0  0
   12.2398    1.6386   22.5635 C   0  0  0  0  0  0  0  0  0  0  0  0
    4.9400    1.7060   18.5060 C   0  0  0  0  0  0  0  0  0  0  0  0
    5.3360    0.8000   21.1530 C   0  0  0  0  0  0  0  0  0  0  0  0
    8.3310   -2.7170   25.3430 C   0  0  0  0  0  0  0  0  0  0  0  0
   10.2570   -3.5000   24.1350 C   0  0  0  0  0  0  0  0  0  0  0  0
    8.3510   -1.5420   24.6110 C   0  0  0  0  0  0  0  0  0  0  0  0
   10.2760   -2.3270   23.4020 C   0  0  0  0  0  0  0  0  0  0  0  0
   11.5784    0.9926   23.6079 C   0  0  0  0  0  0  0  0  0  0  0  0
    5.9810    0.8330   18.8060 C   0  0  0  0  0  0  0  0  0  0  0  0
    6.1600    0.3870   20.1140 C   0  0  0  0  0  0  0  0  0  0  0  0
    9.2850   -3.7090   25.1090 C   0  0  0  0  0  0  0  0  0  0  0  0
    9.3300   -1.3350   23.6390 C   0  0  0  0  0  0  0  0  0  0  0  0
    9.6847   -6.1679   25.4389 C   0  0  0  0  0  0  0  0  0  0  0  0
    8.9510    0.1280   21.6880 C   0  0  0  0  0  0  0  0  0  0  0  0
    8.0403   -7.2916   27.0007 C   0  0  0  0  0  0  0  0  0  0  0  0
   10.0813    1.0569   23.7013 C   0  0  0  0  0  0  0  0  0  0  0  0
    9.4865   -7.1875   26.5507 C   0  0  0  0  0  0  0  0  0  0  0  0
    6.9440    0.2550   18.0100 N   0  0  0  0  0  0  0  0  0  0  0  0
    7.6830   -0.5170   18.7600 N   0  0  0  0  0  0  0  0  0  0  0  0
    7.2210   -0.4620   20.0350 N   0  0  0  0  0  0  0  0  0  0  0  0
    9.2630   -4.8902   25.8410 N   0  0  0  0  0  0  0  0  0  0  0  0
    8.0810   -0.9750   21.0820 N   0  0  0  0  0  0  0  0  0  0  0  0
    9.4200   -0.0840   22.9530 N   0  0  0  0  0  0  0  0  0  0  0  0
   10.1571   -6.4766   24.3498 O   0  0  0  0  0  0  0  0  0  0  0  0
    9.1870    1.1500   21.0630 O   0  0  0  0  0  0  0  0  0  0  0  0
   15.4431    0.8280   23.3658 H   0  0  0  0  0  0  0  0  0  0  0  0
   14.2665   -0.3213   25.2232 H   0  0  0  0  0  0  0  0  0  0  0  0
   14.1454    2.0830   21.6634 H   0  0  0  0  0  0  0  0  0  0  0  0
    3.2714    2.7876   19.3199 H   0  0  0  0  0  0  0  0  0  0  0  0
    3.6283    2.0091   21.6296 H   0  0  0  0  0  0  0  0  0  0  0  0
   11.8009   -0.2197   25.3819 H   0  0  0  0  0  0  0  0  0  0  0  0
   11.6798    2.1907   21.8134 H   0  0  0  0  0  0  0  0  0  0  0  0
    4.7824    2.0670   17.4883 H   0  0  0  0  0  0  0  0  0  0  0  0
    5.4937    0.4574   22.1805 H   0  0  0  0  0  0  0  0  0  0  0  0
    7.5639   -2.8621   26.1045 H   0  0  0  0  0  0  0  0  0  0  0  0
   11.0141   -4.2644   23.9422 H   0  0  0  0  0  0  0  0  0  0  0  0
    7.5950   -0.7788   24.8007 H   0  0  0  0  0  0  0  0  0  0  0  0
   11.0408   -2.1861   22.6359 H   0  0  0  0  0  0  0  0  0  0  0  0
    7.6717   -6.3274   27.3659 H   0  0  0  0  0  0  0  0  0  0  0  0
    7.9445   -8.0228   27.8092 H   0  0  0  0  0  0  0  0  0  0  0  0
    7.3936   -7.6075   26.1754 H   0  0  0  0  0  0  0  0  0  0  0  0
    9.7577    1.0183   24.7472 H   0  0  0  0  0  0  0  0  0  0  0  0
    9.7009    1.9923   23.2775 H   0  0  0  0  0  0  0  0  0  0  0  0
    9.8285   -8.1648   26.1910 H   0  0  0  0  0  0  0  0  0  0  0  0
   10.1145   -6.9001   27.4018 H   0  0  0  0  0  0  0  0  0  0  0  0
    8.8930   -4.8275   26.7966 H   0  0  0  0  0  0  0  0  0  0  0  0
    8.1044   -1.8183   21.3422 H   0  0  0  0  0  0  0  0  0  0  0  0
  1  2  1  0  0  0  0
  1  3  2  0  0  0  0
  2  6  2  0  0  0  0
  3  7  1  0  0  0  0
  4  5  1  0  0  0  0
  4  8  2  0  0  0  0
  5  9  2  0  0  0  0
  6 14  1  0  0  0  0
  7 14  2  0  0  0  0
  8 15  1  0  0  0  0
  9 16  1  0  0  0  0
 10 12  2  0  0  0  0
 10 17  1  0  0  0  0
 11 13  1  0  0  0  0
 11 17  2  0  0  0  0
 12 18  1  0  0  0  0
 13 18  2  0  0  0  0
 14 22  1  0  0  0  0
 15 16  2  0  0  0  0
 15 24  1  0  0  0  0
 16 26  1  0  0  0  0
 17 27  1  0  0  0  0
 18 29  1  0  0  0  0
 19 23  1  0  0  0  0
 19 27  1  0  0  0  0
 19 30  2  0  0  0  0
 20 28  1  0  0  0  0
 20 29  1  0  0  0  0
 20 31  2  0  0  0  0
 21 23  1  0  0  0  0
 22 29  1  0  0  0  0
 24 25  2  0  0  0  0
 25 26  1  0  0  0  0
 26 28  1  0  0  0  0
  1 32  1  0  0  0  0
  2 33  1  0  0  0  0
  3 34  1  0  0  0  0
  4 35  1  0  0  0  0
  5 36  1  0  0  0  0
  6 37  1  0  0  0  0
  7 38  1  0  0  0  0
  8 39  1  0  0  0  0
  9 40  1  0  0  0  0
 10 41  1  0  0  0  0
 11 42  1  0  0  0  0
 12 43  1  0  0  0  0
 13 44  1  0  0  0  0
 21 45  1  0  0  0  0
 21 46  1  0  0  0  0
 21 47  1  0  0  0  0
 22 48  1  0  0  0  0
 22 49  1  0  0  0  0
 23 50  1  0  0  0  0
 23 51  1  0  0  0  0
 27 52  1  0  0  0  0
 28 53  1  0  0  0  0
M  END
> <clash_score>
1.3338359424528714

> <docking_score>
-5.862585067749023

> <overlap_score>
0.9856859445571899

$$$$
BENZO_0_1
  -OEChem-08232013473D

 48 51  0     0  0  0  0  0  0999 V2000
    4.0980    2.1130   19.5350 C   0  0  0  0  0  0  0  0  0  0  0  0
    4.2970    1.6690   20.8430 C   0  0  0  0  0  0  0  0  0  0  0  0
    4.9400    1.7060   18.5060 C   0  0  0  0  0  0  0  0  0  0  0  0
    5.3360    0.8000   21.1530 C   0  0  0  0  0  0  0  0  0  0  0  0
    8.3510   -1.5420   24.6110 C   0  0  0  0  0  0  0  0  0  0  0  0
   10.2760   -2.3270   23.4020 C   0  0  0  0  0  0  0  0  0  0  0  0
    8.3310   -2.7170   25.3430 C   0  0  0  0  0  0  0  0  0  0  0  0
   10.2570   -3.5000   24.1350 C   0  0  0  0  0  0  0  0  0  0  0  0
   12.2998    1.0221   22.3796 C   0  0  0  0  0  0  0  0  0  0  0  0
   13.6611    0.9485   22.5771 C   0  0  0  0  0  0  0  0  0  0  0  0
   12.4159    0.8972   24.6976 C   0  0  0  0  0  0  0  0  0  0  0  0
   11.5784    0.9926   23.6079 C   0  0  0  0  0  0  0  0  0  0  0  0
    5.9810    0.8330   18.8060 C   0  0  0  0  0  0  0  0  0  0  0  0
    6.1600    0.3870   20.1140 C   0  0  0  0  0  0  0  0  0  0  0  0
    9.3300   -1.3350   23.6390 C   0  0  0  0  0  0  0  0  0  0  0  0
    9.2850   -3.7090   25.1090 C   0  0  0  0  0  0  0  0  0  0  0  0
    8.9510    0.1280   21.6880 C   0  0  0  0  0  0  0  0  0  0  0  0
    8.2493   -5.1167   26.8639 C   0  0  0  0  0  0  0  0  0  0  0  0
   10.2428   -5.9410   25.6009 C   0  0  0  0  0  0  0  0  0  0  0  0
   10.0813    1.0569   23.7013 C   0  0  0  0  0  0  0  0  0  0  0  0
    6.9440    0.2550   18.0100 N   0  0  0  0  0  0  0  0  0  0  0  0
    7.6830   -0.5170   18.7600 N   0  0  0  0  0  0  0  0  0  0  0  0
    7.2210   -0.4620   20.0350 N   0  0  0  0  0  0  0  0  0  0  0  0
    8.0810   -0.9750   21.0820 N   0  0  0  0  0  0  0  0  0  0  0  0
    9.4200   -0.0840   22.9530 N   0  0  0  0  0  0  0  0  0  0  0  0
    9.2624   -4.9028   25.8498 N   0  0  0  0  0  0  0  0  0  0  0  0
    9.1870    1.1500   21.0630 O   0  0  0  0  0  0  0  0  0  0  0  0
   14.0646    0.8440   24.2381 S   0  0  0  0  0  0  0  0  0  0  0  0
    3.2714    2.7876   19.3199 H   0  0  0  0  0  0  0  0  0  0  0  0
    3.6283    2.0091   21.6296 H   0  0  0  0  0  0  0  0  0  0  0  0
    4.7824    2.0670   17.4883 H   0  0  0  0  0  0  0  0  0  0  0  0
    5.4937    0.4574   22.1805 H   0  0  0  0  0  0  0  0  0  0  0  0
    7.5947   -0.7787   24.7997 H   0  0  0  0  0  0  0  0  0  0  0  0
   11.0404   -2.1861   22.6352 H   0  0  0  0  0  0  0  0  0  0  0  0
    7.5641   -2.8632   26.1047 H   0  0  0  0  0  0  0  0  0  0  0  0
   11.0135   -4.2647   23.9425 H   0  0  0  0  0  0  0  0  0  0  0  0
   11.8472    1.0933   21.3986 H   0  0  0  0  0  0  0  0  0  0  0  0
   14.4380    0.9502   21.8257 H   0  0  0  0  0  0  0  0  0  0  0  0
   12.1426    0.8547   25.7429 H   0  0  0  0  0  0  0  0  0  0  0  0
    8.3982   -6.1020   27.3296 H   0  0  0  0  0  0  0  0  0  0  0  0
    8.3279   -4.3328   27.6316 H   0  0  0  0  0  0  0  0  0  0  0  0
    7.2526   -5.0773   26.4003 H   0  0  0  0  0  0  0  0  0  0  0  0
   10.0593   -6.7889   26.2772 H   0  0  0  0  0  0  0  0  0  0  0  0
   10.1609   -6.2799   24.5576 H   0  0  0  0  0  0  0  0  0  0  0  0
   11.2523   -5.5421   25.7787 H   0  0  0  0  0  0  0  0  0  0  0  0
    9.7577    1.0183   24.7472 H   0  0  0  0  0  0  0  0  0  0  0  0
    9.7009    1.9923   23.2775 H   0  0  0  0  0  0  0  0  0  0  0  0
    8.1044   -1.8183   21.3422 H   0  0  0  0  0  0  0  0  0  0  0  0
  1  2  1  0  0  0  0
  1  3  2  0  0  0  0
  2  4  2  0  0  0  0
  3 13  1  0  0  0  0
  4 14  1  0  0  0  0
  5  7  2  0  0  0  0
  5 15  1  0  0  0  0
  6  8  1  0  0  0  0
  6 15  2  0  0  0  0
  7 16  1  0  0  0  0
  8 16  2  0  0  0  0
  9 10  2  0  0  0  0
  9 12  1  0  0  0  0
 10 28  1  0  0  0  0
 11 12  2  0  0  0  0
 11 28  1  0  0  0  0
 12 20  1  0  0  0  0
 13 14  2  0  0  0  0
 13 21  1  0  0  0  0
 14 23  1  0  0  0  0
 15 25  1  0  0  0  0
 16 26  1  0  0  0  0
 17 24  1  0  0  0  0
 17 25  1  0  0  0  0
 17 27  2  0  0  0  0
 18 26  1  0  0  0  0
 19 26  1  0  0  0  0
 20 25  1  0  0  0  0
 21 22  2  0  0  0  0
 22 23  1  0  0  0  0
 23 24  1  0  0  0  0
  1 29  1  0  0  0  0
  2 30  1  0  0  0  0
  3 31  1  0  0  0  0
  4 32  1  0  0  0  0
  5 33  1  0  0  0  0
  6 34  1  0  0  0  0
  7 35  1  0  0  0  0
  8 36  1  0  0  0  0
  9 37  1  0  0  0  0
 10 38  1  0  0  0  0
 11 39  1  0  0  0  0
 18 40  1  0  0  0  0
 18 41  1  0  0  0  0
 18 42  1  0  0  0  0
 19 43  1  0  0  0  0
 19 44  1  0  0  0  0
 19 45  1  0  0  0  0
 20 46  1  0  0  0  0
 20 47  1  0  0  0  0
 24 48  1  0  0  0  0
M  END
> <clash_score>
0

> <docking_score>
-9.677247047424316

> <overlap_score>
0.9757803082466125

$$$$
BENZO_2_1
  -OEChem-08232013473D

 51 54  0     0  0  0  0  0  0999 V2000
    4.0980    2.1130   19.5350 C   0  0  0  0  0  0  0  0  0  0  0  0
    4.2970    1.6690   20.8430 C   0  0  0  0  0  0  0  0  0  0  0  0
   13.7546    1.7090   24.3744 C   0  0  0  0  0  0  0  0  0  0  0  0
   12.3637    1.7692   24.4599 C   0  0  0  0  0  0  0  0  0  0  0  0
    4.9400    1.7060   18.5060 C   0  0  0  0  0  0  0  0  0  0  0  0
    5.3360    0.8000   21.1530 C   0  0  0  0  0  0  0  0  0  0  0  0
    8.3510   -1.5420   24.6110 C   0  0  0  0  0  0  0  0  0  0  0  0
   10.2760   -2.3270   23.4020 C   0  0  0  0  0  0  0  0  0  0  0  0
    8.3310   -2.7170   25.3430 C   0  0  0  0  0  0  0  0  0  0  0  0
   10.2570   -3.5000   24.1350 C   0  0  0  0  0  0  0  0  0  0  0  0
   14.3602    0.8723   23.4369 C   0  0  0  0  0  0  0  0  0  0  0  0
   12.1840    0.1558   22.6704 C   0  0  0  0  0  0  0  0  0  0  0  0
   11.5784    0.9926   23.6079 C   0  0  0  0  0  0  0  0  0  0  0  0
    5.9810    0.8330   18.8060 C   0  0  0  0  0  0  0  0  0  0  0  0
    6.1600    0.3870   20.1140 C   0  0  0  0  0  0  0  0  0  0  0  0
    9.3300   -1.3350   23.6390 C   0  0  0  0  0  0  0  0  0  0  0  0
    9.2850   -3.7090   25.1090 C   0  0  0  0  0  0  0  0  0  0  0  0
   13.5749    0.0957   22.5849 C   0  0  0  0  0  0  0  0  0  0  0  0
    8.9510    0.1280   21.6880 C   0  0  0  0  0  0  0  0  0  0  0  0
    8.2493   -5.1167   26.8639 C   0  0  0  0  0  0  0  0  0  0  0  0
   10.2428   -5.9410   25.6009 C   0  0  0  0  0  0  0  0  0  0  0  0
   10.0813    1.0569   23.7013 C   0  0  0  0  0  0  0  0  0  0  0  0
    6.9440    0.2550   18.0100 N   0  0  0  0  0  0  0  0  0  0  0  0
    7.6830   -0.5170   18.7600 N   0  0  0  0  0  0  0  0  0  0  0  0
    7.2210   -0.4620   20.0350 N   0  0  0  0  0  0  0  0  0  0  0  0
    8.0810   -0.9750   21.0820 N   0  0  0  0  0  0  0  0  0  0  0  0
    9.4200   -0.0840   22.9530 N   0  0  0  0  0  0  0  0  0  0  0  0
    9.2624   -4.9028   25.8498 N   0  0  0  0  0  0  0  0  0  0  0  0
    9.1870    1.1500   21.0630 O   0  0  0  0  0  0  0  0  0  0  0  0
   14.3227   -0.9372   21.4293 Cl  0  0  0  0  0  0  0  0  0  0  0  0
    3.2714    2.7876   19.3199 H   0  0  0  0  0  0  0  0  0  0  0  0
    3.6283    2.0091   21.6296 H   0  0  0  0  0  0  0  0  0  0  0  0
   14.3658    2.3138   25.0381 H   0  0  0  0  0  0  0  0  0  0  0  0
   11.9004    2.4238   25.1934 H   0  0  0  0  0  0  0  0  0  0  0  0
    4.7824    2.0670   17.4883 H   0  0  0  0  0  0  0  0  0  0  0  0
    5.4937    0.4574   22.1805 H   0  0  0  0  0  0  0  0  0  0  0  0
    7.5947   -0.7787   24.7997 H   0  0  0  0  0  0  0  0  0  0  0  0
   11.0404   -2.1861   22.6352 H   0  0  0  0  0  0  0  0  0  0  0  0
    7.5641   -2.8632   26.1047 H   0  0  0  0  0  0  0  0  0  0  0  0
   11.0135   -4.2647   23.9425 H   0  0  0  0  0  0  0  0  0  0  0  0
   15.4454    0.8354   23.3817 H   0  0  0  0  0  0  0  0  0  0  0  0
   11.5673   -0.4473   22.0081 H   0  0  0  0  0  0  0  0  0  0  0  0
    8.3982   -6.1020   27.3296 H   0  0  0  0  0  0  0  0  0  0  0  0
    8.3279   -4.3328   27.6316 H   0  0  0  0  0  0  0  0  0  0  0  0
    7.2526   -5.0773   26.4003 H   0  0  0  0  0  0  0  0  0  0  0  0
   10.0593   -6.7889   26.2772 H   0  0  0  0  0  0  0  0  0  0  0  0
   10.1609   -6.2799   24.5576 H   0  0  0  0  0  0  0  0  0  0  0  0
   11.2523   -5.5421   25.7787 H   0  0  0  0  0  0  0  0  0  0  0  0
    9.7577    1.0183   24.7472 H   0  0  0  0  0  0  0  0  0  0  0  0
    9.7009    1.9923   23.2775 H   0  0  0  0  0  0  0  0  0  0  0  0
    8.1044   -1.8183   21.3422 H   0  0  0  0  0  0  0  0  0  0  0  0
  1  2  1  0  0  0  0
  1  5  2  0  0  0  0
  2  6  2  0  0  0  0
  3  4  2  0  0  0  0
  3 11  1  0  0  0  0
  4 13  1  0  0  0  0
  5 14  1  0  0  0  0
  6 15  1  0  0  0  0
  7  9  2  0  0  0  0
  7 16  1  0  0  0  0
  8 10  1  0  0  0  0
  8 16  2  0  0  0  0
  9 17  1  0  0  0  0
 10 17  2  0  0  0  0
 11 18  2  0  0  0  0
 12 13  2  0  0  0  0
 12 18  1  0  0  0  0
 13 22  1  0  0  0  0
 14 15  2  0  0  0  0
 14 23  1  0  0  0  0
 15 25  1  0  0  0  0
 16 27  1  0  0  0  0
 17 28  1  0  0  0  0
 18 30  1  0  0  0  0
 19 26  1  0  0  0  0
 19 27  1  0  0  0  0
 19 29  2  0  0  0  0
 20 28  1  0  0  0  0
 21 28  1  0  0  0  0
 22 27  1  0  0  0  0
 23 24  2  0  0  0  0
 24 25  1  0  0  0  0
 25 26  1  0  0  0  0
  1 31  1  0  0  0  0
  2 32  1  0  0  0  0
  3 33  1  0  0  0  0
  4 34  1  0  0  0  0
  5 35  1  0  0  0  0
  6 36  1  0  0  0  0
  7 37  1  0  0  0  0
  8 38  1  0  0  0  0
  9 39  1  0  0  0  0
 10 40  1  0  0  0  0
 11 41  1  0  0  0  0
 12 42  1  0  0  0  0
 20 43  1  0  0  0  0
 20 44  1  0  0  0  0
 20 45  1  0  0  0  0
 21 46  1  0  0  0  0
 21 47  1  0  0  0  0
 21 48  1  0  0  0  0
 22 49  1  0  0  0  0
 22 50  1  0  0  0  0
 26 51  1  0  0  0  0
M  END
> <clash_score>
0

> <docking_score>
-8.724993705749512

> <overlap_score>
0.981443464756012

$$$$
BENZO_4_1
  -OEChem-08232013473D

 50 53  0     0  0  0  0  0  0999 V2000
    4.0980    2.1130   19.5350 C   0  0  0  0  0  0  0  0  0  0  0  0
    4.2970    1.6690   20.8430 C   0  0  0  0  0  0  0  0  0  0  0  0
    4.9400    1.7060   18.5060 C   0  0  0  0  0  0  0  0  0  0  0  0
    5.3360    0.8000   21.1530 C   0  0  0  0  0  0  0  0  0  0  0  0
    8.3310   -2.7170   25.3430 C   0  0  0  0  0  0  0  0  0  0  0  0
   10.2570   -3.5000   24.1350 C   0  0  0  0  0  0  0  0  0  0  0  0
    8.3510   -1.5420   24.6110 C   0  0  0  0  0  0  0  0  0  0  0  0
   10.2760   -2.3270   23.4020 C   0  0  0  0  0  0  0  0  0  0  0  0
   12.2998    1.0221   22.3796 C   0  0  0  0  0  0  0  0  0  0  0  0
   13.6611    0.9485   22.5771 C   0  0  0  0  0  0  0  0  0  0  0  0
   12.4159    0.8972   24.6976 C   0  0  0  0  0  0  0  0  0  0  0  0
   11.5784    0.9926   23.6079 C   0  0  0  0  0  0  0  0  0  0  0  0
    5.9810    0.8330   18.8060 C   0  0  0  0  0  0  0  0  0  0  0  0
    6.1600    0.3870   20.1140 C   0  0  0  0  0  0  0  0  0  0  0  0
    9.2850   -3.7090   25.1090 C   0  0  0  0  0  0  0  0  0  0  0  0
    9.3300   -1.3350   23.6390 C   0  0  0  0  0  0  0  0  0  0  0  0
    9.6847   -6.1679   25.4389 C   0  0  0  0  0  0  0  0  0  0  0  0
    8.9510    0.1280   21.6880 C   0  0  0  0  0  0  0  0  0  0  0  0
    8.0403   -7.2916   27.0007 C   0  0  0  0  0  0  0  0  0  0  0  0
   10.0813    1.0569   23.7013 C   0  0  0  0  0  0  0  0  0  0  0  0
    9.4865   -7.1875   26.5507 C   0  0  0  0  0  0  0  0  0  0  0  0
    6.9440    0.2550   18.0100 N   0  0  0  0  0  0  0  0  0  0  0  0
    7.6830   -0.5170   18.7600 N   0  0  0  0  0  0  0  0  0  0  0  0
    7.2210   -0.4620   20.0350 N   0  0  0  0  0  0  0  0  0  0  0  0
    9.2630   -4.8902   25.8410 N   0  0  0  0  0  0  0  0  0  0  0  0
    8.0810   -0.9750   21.0820 N   0  0  0  0  0  0  0  0  0  0  0  0
    9.4200   -0.0840   22.9530 N   0  0  0  0  0  0  0  0  0  0  0  0
   10.1571   -6.4766   24.3498 O   0  0  0  0  0  0  0  0  0  0  0  0
    9.1870    1.1500   21.0630 O   0  0  0  0  0  0  0  0  0  0  0  0
   14.0646    0.8440   24.2381 S   0  0  0  0  0  0  0  0  0  0  0  0
    3.2714    2.7876   19.3199 H   0  0  0  0  0  0  0  0  0  0  0  0
    3.6283    2.0091   21.6296 H   0  0  0  0  0  0  0  0  0  0  0  0
    4.7824    2.0670   17.4883 H   0  0  0  0  0  0  0  0  0  0  0  0
    5.4937    0.4574   22.1805 H   0  0  0  0  0  0  0  0  0  0  0  0
    7.5639   -2.8621   26.1045 H   0  0  0  0  0  0  0  0  0  0  0  0
   11.0141   -4.2644   23.9422 H   0  0  0  0  0  0  0  0  0  0  0  0
    7.5950   -0.7788   24.8007 H   0  0  0  0  0  0  0  0  0  0  0  0
   11.0408   -2.1861   22.6359 H   0  0  0  0  0  0  0  0  0  0  0  0
   11.8472    1.0933   21.3986 H   0  0  0  0  0  0  0  0  0  0  0  0
   14.4380    0.9502   21.8257 H   0  0  0  0  0  0  0  0  0  0  0  0
   12.1426    0.8547   25.7429 H   0  0  0  0  0  0  0  0  0  0  0  0
    7.6717   -6.3274   27.3659 H   0  0  0  0  0  0  0  0  0  0  0  0
    7.9445   -8.0228   27.8092 H   0  0  0  0  0  0  0  0  0  0  0  0
    7.3936   -7.6075   26.1754 H   0  0  0  0  0  0  0  0  0  0  0  0
    9.7577    1.0183   24.7472 H   0  0  0  0  0  0  0  0  0  0  0  0
    9.7009    1.9923   23.2775 H   0  0  0  0  0  0  0  0  0  0  0  0
    9.8285   -8.1648   26.1910 H   0  0  0  0  0  0  0  0  0  0  0  0
   10.1145   -6.9001   27.4018 H   0  0  0  0  0  0  0  0  0  0  0  0
    8.8930   -4.8275   26.7966 H   0  0  0  0  0  0  0  0  0  0  0  0
    8.1044   -1.8183   21.3422 H   0  0  0  0  0  0  0  0  0  0  0  0
  1  2  1  0  0  0  0
  1  3  2  0  0  0  0
  2  4  2  0  0  0  0
  3 13  1  0  0  0  0
  4 14  1  0  0  0  0
  5  7  2  0  0  0  0
  5 15  1  0  0  0  0
  6  8  1  0  0  0  0
  6 15  2  0  0  0  0
  7 16  1  0  0  0  0
  8 16  2  0  0  0  0
  9 10  2  0  0  0  0
  9 12  1  0  0  0  0
 10 30  1  0  0  0  0
 11 12  2  0  0  0  0
 11 30  1  0  0  0  0
 12 20  1  0  0  0  0
 13 14  2  0  0  0  0
 13 22  1  0  0  0  0
 14 24  1  0  0  0  0
 15 25  1  0  0  0  0
 16 27  1  0  0  0  0
 17 21  1  0  0  0  0
 17 25  1  0  0  0  0
 17 28  2  0  0  0  0
 18 26  1  0  0  0  0
 18 27  1  0  0  0  0
 18 29  2  0  0  0  0
 19 21  1  0  0  0  0
 20 27  1  0  0  0  0
 22 23  2  0  0  0  0
 23 24  1  0  0  0  0
 24 26  1  0  0  0  0
  1 31  1  0  0  0  0
  2 32  1  0  0  0  0
  3 33  1  0  0  0  0
  4 34  1  0  0  0  0
  5 35  1  0  0  0  0
  6 36  1  0  0  0  0
  7 37  1  0  0  0  0
  8 38  1  0  0  0  0
  9 39  1  0  0  0  0
 10 40  1  0  0  0  0
 11 41  1  0  0  0  0
 19 42  1  0  0  0  0
 19 43  1  0  0  0  0
 19 44  1  0  0  0  0
 20 45  1  0  0  0  0
 20 46  1  0  0  0  0
 21 47  1  0  0  0  0
 21 48  1  0  0  0  0
 25 49  1  0  0  0  0
 26 50  1  0  0  0  0
M  END
> <clash_score>
1.3338359424528714

> <docking_score>
-6.1571149826049805

> <overlap_score>
0.9598879814147949

$$$$
BENZO_7_1
  -OEChem-08232013473D

 53 56  0     0  0  0  0  0  0999 V2000
    4.0980    2.1130   19.5350 C   0  0  0  0  0  0  0  0  0  0  0  0
    4.2970    1.6690   20.8430 C   0  0  0  0  0  0  0  0  0  0  0  0
    4.9400    1.7060   18.5060 C   0  0  0  0  0  0  0  0  0  0  0  0
    5.3360    0.8000   21.1530 C   0  0  0  0  0  0  0  0  0  0  0  0
    8.3310   -2.7170   25.3430 C   0  0  0  0  0  0  0  0  0  0  0  0
   10.2570   -3.5000   24.1350 C   0  0  0  0  0  0  0  0  0  0  0  0
    8.3510   -1.5420   24.6110 C   0  0  0  0  0  0  0  0  0  0  0  0
   10.2760   -2.3270   23.4020 C   0  0  0  0  0  0  0  0  0  0  0  0
   12.4288    1.7820   22.8108 C   0  0  0  0  0  0  0  0  0  0  0  0
   12.4262    0.1502   24.2847 C   0  0  0  0  0  0  0  0  0  0  0  0
   11.5784    0.9926   23.6079 C   0  0  0  0  0  0  0  0  0  0  0  0
    5.9810    0.8330   18.8060 C   0  0  0  0  0  0  0  0  0  0  0  0
    6.1600    0.3870   20.1140 C   0  0  0  0  0  0  0  0  0  0  0  0
    9.2850   -3.7090   25.1090 C   0  0  0  0  0  0  0  0  0  0  0  0
    9.3300   -1.3350   23.6390 C   0  0  0  0  0  0  0  0  0  0  0  0
    9.6847   -6.1679   25.4389 C   0  0  0  0  0  0  0  0  0  0  0  0
    8.9510    0.1280   21.6880 C   0  0  0  0  0  0  0  0  0  0  0  0
    8.0403   -7.2916   27.0007 C   0  0  0  0  0  0  0  0  0  0  0  0
   14.9148   -0.1421   24.3029 C   0  0  0  0  0  0  0  0  0  0  0  0
   10.0813    1.0569   23.7013 C   0  0  0  0  0  0  0  0  0  0  0  0
    9.4865   -7.1875   26.5507 C   0  0  0  0  0  0  0  0  0  0  0  0
   13.7181    1.4691   22.9659 N   0  0  0  0  0  0  0  0  0  0  0  0
    6.9440    0.2550   18.0100 N   0  0  0  0  0  0  0  0  0  0  0  0
    7.6830   -0.5170   18.7600 N   0  0  0  0  0  0  0  0  0  0  0  0
   13.6840    0.4738   23.8683 N   0  0  0  0  0  0  0  0  0  0  0  0
    7.2210   -0.4620   20.0350 N   0  0  0  0  0  0  0  0  0  0  0  0
    9.2630   -4.8902   25.8410 N   0  0  0  0  0  0  0  0  0  0  0  0
    8.0810   -0.9750   21.0820 N   0  0  0  0  0  0  0  0  0  0  0  0
    9.4200   -0.0840   22.9530 N   0  0  0  0  0  0  0  0  0  0  0  0
   10.1571   -6.4766   24.3498 O   0  0  0  0  0  0  0  0  0  0  0  0
    9.1870    1.1500   21.0630 O   0  0  0  0  0  0  0  0  0  0  0  0
    3.2714    2.7876   19.3199 H   0  0  0  0  0  0  0  0  0  0  0  0
    3.6283    2.0091   21.6296 H   0  0  0  0  0  0  0  0  0  0  0  0
    4.7824    2.0670   17.4883 H   0  0  0  0  0  0  0  0  0  0  0  0
    5.4937    0.4574   22.1805 H   0  0  0  0  0  0  0  0  0  0  0  0
    7.5639   -2.8621   26.1045 H   0  0  0  0  0  0  0  0  0  0  0  0
   11.0141   -4.2644   23.9422 H   0  0  0  0  0  0  0  0  0  0  0  0
    7.5950   -0.7788   24.8007 H   0  0  0  0  0  0  0  0  0  0  0  0
   11.0408   -2.1861   22.6359 H   0  0  0  0  0  0  0  0  0  0  0  0
   12.1654    2.5733   22.1234 H   0  0  0  0  0  0  0  0  0  0  0  0
   12.2462   -0.6317   25.0100 H   0  0  0  0  0  0  0  0  0  0  0  0
    7.6717   -6.3274   27.3659 H   0  0  0  0  0  0  0  0  0  0  0  0
    7.9445   -8.0228   27.8092 H   0  0  0  0  0  0  0  0  0  0  0  0
    7.3936   -7.6075   26.1754 H   0  0  0  0  0  0  0  0  0  0  0  0
   15.1264   -0.9810   23.6347 H   0  0  0  0  0  0  0  0  0  0  0  0
   15.7238    0.5926   24.2623 H   0  0  0  0  0  0  0  0  0  0  0  0
   14.7999   -0.4917   25.3327 H   0  0  0  0  0  0  0  0  0  0  0  0
    9.7577    1.0183   24.7472 H   0  0  0  0  0  0  0  0  0  0  0  0
    9.7009    1.9923   23.2775 H   0  0  0  0  0  0  0  0  0  0  0  0
    9.8285   -8.1648   26.1910 H   0  0  0  0  0  0  0  0  0  0  0  0
   10.1145   -6.9001   27.4018 H   0  0  0  0  0  0  0  0  0  0  0  0
    8.8930   -4.8275   26.7966 H   0  0  0  0  0  0  0  0  0  0  0  0
    8.1044   -1.8183   21.3422 H   0  0  0  0  0  0  0  0  0  0  0  0
  1  2  1  0  0  0  0
  1  3  2  0  0  0  0
  2  4  2  0  0  0  0
  3 12  1  0  0  0  0
  4 13  1  0  0  0  0
  5  7  2  0  0  0  0
  5 14  1  0  0  0  0
  6  8  1  0  0  0  0
  6 14  2  0  0  0  0
  7 15  1  0  0  0  0
  8 15  2  0  0  0  0
  9 11  1  0  0  0  0
  9 22  2  0  0  0  0
 10 11  2  0  0  0  0
 10 25  1  0  0  0  0
 11 20  1  0  0  0  0
 12 13  2  0  0  0  0
 12 23  1  0  0  0  0
 13 26  1  0  0  0  0
 14 27  1  0  0  0  0
 15 29  1  0  0  0  0
 16 21  1  0  0  0  0
 16 27  1  0  0  0  0
 16 30  2  0  0  0  0
 17 28  1  0  0  0  0
 17 29  1  0  0  0  0
 17 31  2  0  0  0  0
 18 21  1  0  0  0  0
 19 25  1  0  0  0  0
 20 29  1  0  0  0  0
 22 25  1  0  0  0  0
 23 24  2  0  0  0  0
 24 26  1  0  0  0  0
 26 28  1  0  0  0  0
  1 32  1  0  0  0  0
  2 33  1  0  0  0  0
  3 34  1  0  0  0  0
  4 35  1  0  0  0  0
  5 36  1  0  0  0  0
  6 37  1  0  0  0  0
  7 38  1  0  0  0  0
  8 39  1  0  0  0  0
  9 40  1  0  0  0  0
 10 41  1  0  0  0  0
 18 42  1  0  0  0  0
 18 43  1  0  0  0  0
 18 44  1  0  0  0  0
 19 45  1  0  0  0  0
 19 46  1  0  0  0  0
 19 47  1  0  0  0  0
 20 48  1  0  0  0  0
 20 49  1  0  0  0  0
 21 50  1  0  0  0  0
 21 51  1  0  0  0  0
 27 52  1  0  0  0  0
 28 53  1  0  0  0  0
M  END
> <clash_score>
1.3338359424528714

> <docking_score>
-5.703064441680908

> <overlap_score>
0.9866306781768799

$$$$
BENZO_6_1
  -OEChem-08232013473D

 53 56  0     0  0  0  0  0  0999 V2000
    4.0980    2.1130   19.5350 C   0  0  0  0  0  0  0  0  0  0  0  0
    4.2970    1.6690   20.8430 C   0  0  0  0  0  0  0  0  0  0  0  0
   13.6523    1.8026   22.6701 C   0  0  0  0  0  0  0  0  0  0  0  0
   12.2614    1.8611   22.7565 C   0  0  0  0  0  0  0  0  0  0  0  0
    4.9400    1.7060   18.5060 C   0  0  0  0  0  0  0  0  0  0  0  0
    5.3360    0.8000   21.1530 C   0  0  0  0  0  0  0  0  0  0  0  0
    8.3310   -2.7170   25.3430 C   0  0  0  0  0  0  0  0  0  0  0  0
   10.2570   -3.5000   24.1350 C   0  0  0  0  0  0  0  0  0  0  0  0
    8.3510   -1.5420   24.6110 C   0  0  0  0  0  0  0  0  0  0  0  0
   10.2760   -2.3270   23.4020 C   0  0  0  0  0  0  0  0  0  0  0  0
   14.3603    0.8755   23.4350 C   0  0  0  0  0  0  0  0  0  0  0  0
   12.2863    0.0655   24.3729 C   0  0  0  0  0  0  0  0  0  0  0  0
   11.5784    0.9926   23.6079 C   0  0  0  0  0  0  0  0  0  0  0  0
    5.9810    0.8330   18.8060 C   0  0  0  0  0  0  0  0  0  0  0  0
    6.1600    0.3870   20.1140 C   0  0  0  0  0  0  0  0  0  0  0  0
    9.2850   -3.7090   25.1090 C   0  0  0  0  0  0  0  0  0  0  0  0
    9.3300   -1.3350   23.6390 C   0  0  0  0  0  0  0  0  0  0  0  0
   13.6773    0.0070   24.2864 C   0  0  0  0  0  0  0  0  0  0  0  0
    9.6847   -6.1679   25.4389 C   0  0  0  0  0  0  0  0  0  0  0  0
    8.9510    0.1280   21.6880 C   0  0  0  0  0  0  0  0  0  0  0  0
    8.0403   -7.2916   27.0007 C   0  0  0  0  0  0  0  0  0  0  0  0
   10.0813    1.0569   23.7013 C   0  0  0  0  0  0  0  0  0  0  0  0
    9.4865   -7.1875   26.5507 C   0  0  0  0  0  0  0  0  0  0  0  0
    6.9440    0.2550   18.0100 N   0  0  0  0  0  0  0  0  0  0  0  0
    7.6830   -0.5170   18.7600 N   0  0  0  0  0  0  0  0  0  0  0  0
    7.2210   -0.4620   20.0350 N   0  0  0  0  0  0  0  0  0  0  0  0
    9.2630   -4.8902   25.8410 N   0  0  0  0  0  0  0  0  0  0  0  0
    8.0810   -0.9750   21.0820 N   0  0  0  0  0  0  0  0  0  0  0  0
    9.4200   -0.0840   22.9530 N   0  0  0  0  0  0  0  0  0  0  0  0
   10.1571   -6.4766   24.3498 O   0  0  0  0  0  0  0  0  0  0  0  0
    9.1870    1.1500   21.0630 O   0  0  0  0  0  0  0  0  0  0  0  0
   14.5514   -1.1357   25.2308 Cl  0  0  0  0  0  0  0  0  0  0  0  0
    3.2714    2.7876   19.3199 H   0  0  0  0  0  0  0  0  0  0  0  0
    3.6283    2.0091   21.6296 H   0  0  0  0  0  0  0  0  0  0  0  0
   14.1838    2.4792   22.0071 H   0  0  0  0  0  0  0  0  0  0  0  0
   11.7179    2.5867   22.1569 H   0  0  0  0  0  0  0  0  0  0  0  0
    4.7824    2.0670   17.4883 H   0  0  0  0  0  0  0  0  0  0  0  0
    5.4937    0.4574   22.1805 H   0  0  0  0  0  0  0  0  0  0  0  0
    7.5639   -2.8621   26.1045 H   0  0  0  0  0  0  0  0  0  0  0  0
   11.0141   -4.2644   23.9422 H   0  0  0  0  0  0  0  0  0  0  0  0
    7.5950   -0.7788   24.8007 H   0  0  0  0  0  0  0  0  0  0  0  0
   11.0408   -2.1861   22.6359 H   0  0  0  0  0  0  0  0  0  0  0  0
   15.4442    0.8415   23.3577 H   0  0  0  0  0  0  0  0  0  0  0  0
   11.7491   -0.6098   25.0348 H   0  0  0  0  0  0  0  0  0  0  0  0
    7.6717   -6.3274   27.3659 H   0  0  0  0  0  0  0  0  0  0  0  0
    7.9445   -8.0228   27.8092 H   0  0  0  0  0  0  0  0  0  0  0  0
    7.3936   -7.6075   26.1754 H   0  0  0  0  0  0  0  0  0  0  0  0
    9.7577    1.0183   24.7472 H   0  0  0  0  0  0  0  0  0  0  0  0
    9.7009    1.9923   23.2775 H   0  0  0  0  0  0  0  0  0  0  0  0
    9.8285   -8.1648   26.1910 H   0  0  0  0  0  0  0  0  0  0  0  0
   10.1145   -6.9001   27.4018 H   0  0  0  0  0  0  0  0  0  0  0  0
    8.8930   -4.8275   26.7966 H   0  0  0  0  0  0  0  0  0  0  0  0
    8.1044   -1.8183   21.3422 H   0  0  0  0  0  0  0  0  0  0  0  0
  1  2  1  0  0  0  0
  1  5  2  0  0  0  0
  2  6  2  0  0  0  0
  3  4  2  0  0  0  0
  3 11  1  0  0  0  0
  4 13  1  0  0  0  0
  5 14  1  0  0  0  0
  6 15  1  0  0  0  0
  7  9  2  0  0  0  0
  7 16  1  0  0  0  0
  8 10  1  0  0  0  0
  8 16  2  0  0  0  0
  9 17  1  0  0  0  0
 10 17  2  0  0  0  0
 11 18  2  0  0  0  0
 12 13  2  0  0  0  0
 12 18  1  0  0  0  0
 13 22  1  0  0  0  0
 14 15  2  0  0  0  0
 14 24  1  0  0  0  0
 15 26  1  0  0  0  0
 16 27  1  0  0  0  0
 17 29  1  0  0  0  0
 18 32  1  0  0  0  0
 19 23  1  0  0  0  0
 19 27  1  0  0  0  0
 19 30  2  0  0  0  0
 20 28  1  0  0  0  0
 20 29  1  0  0  0  0
 20 31  2  0  0  0  0
 21 23  1  0  0  0  0
 22 29  1  0  0  0  0
 24 25  2  0  0  0  0
 25 26  1  0  0  0  0
 26 28  1  0  0  0  0
  1 33  1  0  0  0  0
  2 34  1  0  0  0  0
  3 35  1  0  0  0  0
  4 36  1  0  0  0  0
  5 37  1  0  0  0  0
  6 38  1  0  0  0  0
  7 39  1  0  0  0  0
  8 40  1  0  0  0  0
  9 41  1  0  0  0  0
 10 42  1  0  0  0  0
 11 43  1  0  0  0  0
 12 44  1  0  0  0  0
 21 45  1  0  0  0  0
 21 46  1  0  0  0  0
 21 47  1  0  0  0  0
 22 48  1  0  0  0  0
 22 49  1  0  0  0  0
 23 50  1  0  0  0  0
 23 51  1  0  0  0  0
 27 52  1  0  0  0  0
 28 53  1  0  0  0  0
M  END
> <clash_score>
2.1252961881158994

> <docking_score>
-5.058300018310547

> <overlap_score>
0.9905419945716858

$$$$
BENZO_13_1
  -OEChem-08232013473D

 46 49  0     0  0  0  0  0  0999 V2000
   14.3601    0.8733   23.4330 C   0  0  0  0  0  0  0  0  0  0  0  0
   13.6986    0.2273   24.4774 C   0  0  0  0  0  0  0  0  0  0  0  0
   13.6307    1.5790   22.4761 C   0  0  0  0  0  0  0  0  0  0  0  0
    4.0980    2.1130   19.5350 C   0  0  0  0  0  0  0  0  0  0  0  0
    4.2970    1.6690   20.8430 C   0  0  0  0  0  0  0  0  0  0  0  0
   12.3078    0.2869   24.5648 C   0  0  0  0  0  0  0  0  0  0  0  0
   12.2398    1.6386   22.5635 C   0  0  0  0  0  0  0  0  0  0  0  0
    8.3310   -2.7170   25.3430 C   0  0  0  0  0  0  0  0  0  0  0  0
   10.2570   -3.5000   24.1350 C   0  0  0  0  0  0  0  0  0  0  0  0
    4.9400    1.7060   18.5060 C   0  0  0  0  0  0  0  0  0  0  0  0
    5.3360    0.8000   21.1530 C   0  0  0  0  0  0  0  0  0  0  0  0
    8.3510   -1.5420   24.6110 C   0  0  0  0  0  0  0  0  0  0  0  0
   10.2760   -2.3270   23.4020 C   0  0  0  0  0  0  0  0  0  0  0  0
    9.2850   -3.7090   25.1090 C   0  0  0  0  0  0  0  0  0  0  0  0
   11.5784    0.9926   23.6079 C   0  0  0  0  0  0  0  0  0  0  0  0
    5.9810    0.8330   18.8060 C   0  0  0  0  0  0  0  0  0  0  0  0
    6.1600    0.3870   20.1140 C   0  0  0  0  0  0  0  0  0  0  0  0
    9.3300   -1.3350   23.6390 C   0  0  0  0  0  0  0  0  0  0  0  0
    8.9510    0.1280   21.6880 C   0  0  0  0  0  0  0  0  0  0  0  0
    9.2610   -4.9721   25.8916 C   0  0  0  0  0  0  0  0  0  0  0  0
   10.0813    1.0569   23.7013 C   0  0  0  0  0  0  0  0  0  0  0  0
    6.9440    0.2550   18.0100 N   0  0  0  0  0  0  0  0  0  0  0  0
    7.6830   -0.5170   18.7600 N   0  0  0  0  0  0  0  0  0  0  0  0
    7.2210   -0.4620   20.0350 N   0  0  0  0  0  0  0  0  0  0  0  0
    8.0810   -0.9750   21.0820 N   0  0  0  0  0  0  0  0  0  0  0  0
    9.4200   -0.0840   22.9530 N   0  0  0  0  0  0  0  0  0  0  0  0
    9.1870    1.1500   21.0630 O   0  0  0  0  0  0  0  0  0  0  0  0
   15.4431    0.8280   23.3658 H   0  0  0  0  0  0  0  0  0  0  0  0
   14.2665   -0.3213   25.2232 H   0  0  0  0  0  0  0  0  0  0  0  0
   14.1454    2.0830   21.6634 H   0  0  0  0  0  0  0  0  0  0  0  0
    3.2714    2.7876   19.3199 H   0  0  0  0  0  0  0  0  0  0  0  0
    3.6283    2.0091   21.6296 H   0  0  0  0  0  0  0  0  0  0  0  0
   11.8009   -0.2197   25.3819 H   0  0  0  0  0  0  0  0  0  0  0  0
   11.6798    2.1907   21.8134 H   0  0  0  0  0  0  0  0  0  0  0  0
    7.5665   -2.8638   26.1066 H   0  0  0  0  0  0  0  0  0  0  0  0
   11.0137   -4.2652   23.9447 H   0  0  0  0  0  0  0  0  0  0  0  0
    4.7824    2.0670   17.4883 H   0  0  0  0  0  0  0  0  0  0  0  0
    5.4937    0.4574   22.1805 H   0  0  0  0  0  0  0  0  0  0  0  0
    7.5948   -0.7788   24.7997 H   0  0  0  0  0  0  0  0  0  0  0  0
   11.0411   -2.1856   22.6358 H   0  0  0  0  0  0  0  0  0  0  0  0
    8.6398   -5.7223   25.3871 H   0  0  0  0  0  0  0  0  0  0  0  0
   10.2715   -5.3829   26.0145 H   0  0  0  0  0  0  0  0  0  0  0  0
    8.8596   -4.8092   26.9004 H   0  0  0  0  0  0  0  0  0  0  0  0
    9.7577    1.0183   24.7472 H   0  0  0  0  0  0  0  0  0  0  0  0
    9.7009    1.9923   23.2775 H   0  0  0  0  0  0  0  0  0  0  0  0
    8.1044   -1.8183   21.3422 H   0  0  0  0  0  0  0  0  0  0  0  0
  1  2  1  0  0  0  0
  1  3  2  0  0  0  0
  2  6  2  0  0  0  0
  3  7  1  0  0  0  0
  4  5  1  0  0  0  0
  4 10  2  0  0  0  0
  5 11  2  0  0  0  0
  6 15  1  0  0  0  0
  7 15  2  0  0  0  0
  8 12  2  0  0  0  0
  8 14  1  0  0  0  0
  9 13  1  0  0  0  0
  9 14  2  0  0  0  0
 10 16  1  0  0  0  0
 11 17  1  0  0  0  0
 12 18  1  0  0  0  0
 13 18  2  0  0  0  0
 14 20  1  0  0  0  0
 15 21  1  0  0  0  0
 16 17  2  0  0  0  0
 16 22  1  0  0  0  0
 17 24  1  0  0  0  0
 18 26  1  0  0  0  0
 19 25  1  0  0  0  0
 19 26  1  0  0  0  0
 19 27  2  0  0  0  0
 21 26  1  0  0  0  0
 22 23  2  0  0  0  0
 23 24  1  0  0  0  0
 24 25  1  0  0  0  0
  1 28  1  0  0  0  0
  2 29  1  0  0  0  0
  3 30  1  0  0  0  0
  4 31  1  0  0  0  0
  5 32  1  0  0  0  0
  6 33  1  0  0  0  0
  7 34  1  0  0  0  0
  8 35  1  0  0  0  0
  9 36  1  0  0  0  0
 10 37  1  0  0  0  0
 11 38  1  0  0  0  0
 12 39  1  0  0  0  0
 13 40  1  0  0  0  0
 20 41  1  0  0  0  0
 20 42  1  0  0  0  0
 20 43  1  0  0  0  0
 21 44  1  0  0  0  0
 21 45  1  0  0  0  0
 25 46  1  0  0  0  0
M  END
> <clash_score>
0

> <docking_score>
-9.05255126953125

> <overlap_score>
0.9703067541122437

$$$$
BENZO_9_1
  -OEChem-08232013473D

 58 62  0     0  0  0  0  0  0999 V2000
   14.3513    0.8024   23.3715 C   0  0  0  0  0  0  0  0  0  0  0  0
   13.6891    0.1921   24.4367 C   0  0  0  0  0  0  0  0  0  0  0  0
   13.6252    1.5026   22.4080 C   0  0  0  0  0  0  0  0  0  0  0  0
    4.0980    2.1130   19.5350 C   0  0  0  0  0  0  0  0  0  0  0  0
    4.2970    1.6690   20.8430 C   0  0  0  0  0  0  0  0  0  0  0  0
   12.3009    0.2819   24.5384 C   0  0  0  0  0  0  0  0  0  0  0  0
   12.2370    1.5924   22.5097 C   0  0  0  0  0  0  0  0  0  0  0  0
    4.9400    1.7060   18.5060 C   0  0  0  0  0  0  0  0  0  0  0  0
    5.3360    0.8000   21.1530 C   0  0  0  0  0  0  0  0  0  0  0  0
    8.3310   -2.7170   25.3430 C   0  0  0  0  0  0  0  0  0  0  0  0
   10.2570   -3.5000   24.1350 C   0  0  0  0  0  0  0  0  0  0  0  0
    8.3510   -1.5420   24.6110 C   0  0  0  0  0  0  0  0  0  0  0  0
   10.2760   -2.3270   23.4020 C   0  0  0  0  0  0  0  0  0  0  0  0
   11.5748    0.9821   23.5749 C   0  0  0  0  0  0  0  0  0  0  0  0
    5.9810    0.8330   18.8060 C   0  0  0  0  0  0  0  0  0  0  0  0
    6.1600    0.3870   20.1140 C   0  0  0  0  0  0  0  0  0  0  0  0
    9.2850   -3.7090   25.1090 C   0  0  0  0  0  0  0  0  0  0  0  0
    9.3300   -1.3350   23.6390 C   0  0  0  0  0  0  0  0  0  0  0  0
    8.9510    0.1280   21.6880 C   0  0  0  0  0  0  0  0  0  0  0  0
    7.3162   -6.8834   26.5210 C   0  0  0  0  0  0  0  0  0  0  0  0
    7.3507   -5.5245   27.2240 C   0  0  0  0  0  0  0  0  0  0  0  0
    7.9375   -6.8069   25.1245 C   0  0  0  0  0  0  0  0  0  0  0  0
    8.7638   -4.9418   27.2163 C   0  0  0  0  0  0  0  0  0  0  0  0
    9.3378   -6.1874   25.1659 C   0  0  0  0  0  0  0  0  0  0  0  0
   10.0805    1.0790   23.6836 C   0  0  0  0  0  0  0  0  0  0  0  0
    6.9440    0.2550   18.0100 N   0  0  0  0  0  0  0  0  0  0  0  0
    7.6830   -0.5170   18.7600 N   0  0  0  0  0  0  0  0  0  0  0  0
    7.2210   -0.4620   20.0350 N   0  0  0  0  0  0  0  0  0  0  0  0
    9.2639   -4.8860   25.8399 N   0  0  0  0  0  0  0  0  0  0  0  0
    8.0810   -0.9750   21.0820 N   0  0  0  0  0  0  0  0  0  0  0  0
    9.4200   -0.0840   22.9530 N   0  0  0  0  0  0  0  0  0  0  0  0
    9.1870    1.1500   21.0630 O   0  0  0  0  0  0  0  0  0  0  0  0
   15.4324    0.7335   23.2932 H   0  0  0  0  0  0  0  0  0  0  0  0
   14.2544   -0.3522   25.1876 H   0  0  0  0  0  0  0  0  0  0  0  0
   14.1406    1.9788   21.5791 H   0  0  0  0  0  0  0  0  0  0  0  0
    3.2714    2.7876   19.3199 H   0  0  0  0  0  0  0  0  0  0  0  0
    3.6283    2.0091   21.6296 H   0  0  0  0  0  0  0  0  0  0  0  0
   11.7933   -0.1969   25.3717 H   0  0  0  0  0  0  0  0  0  0  0  0
   11.6796    2.1399   21.7542 H   0  0  0  0  0  0  0  0  0  0  0  0
    4.7824    2.0670   17.4883 H   0  0  0  0  0  0  0  0  0  0  0  0
    5.4937    0.4574   22.1805 H   0  0  0  0  0  0  0  0  0  0  0  0
    7.5647   -2.8621   26.1053 H   0  0  0  0  0  0  0  0  0  0  0  0
   11.0144   -4.2642   23.9425 H   0  0  0  0  0  0  0  0  0  0  0  0
    7.5958   -0.7779   24.8006 H   0  0  0  0  0  0  0  0  0  0  0  0
   11.0406   -2.1848   22.6356 H   0  0  0  0  0  0  0  0  0  0  0  0
    7.8578   -7.6261   27.1266 H   0  0  0  0  0  0  0  0  0  0  0  0
    6.2773   -7.2358   26.4459 H   0  0  0  0  0  0  0  0  0  0  0  0
    6.6663   -4.8351   26.7223 H   0  0  0  0  0  0  0  0  0  0  0  0
    7.0044   -5.6368   28.2534 H   0  0  0  0  0  0  0  0  0  0  0  0
    7.9946   -7.8119   24.6937 H   0  0  0  0  0  0  0  0  0  0  0  0
    7.2929   -6.2123   24.4668 H   0  0  0  0  0  0  0  0  0  0  0  0
    8.7343   -3.9408   27.6542 H   0  0  0  0  0  0  0  0  0  0  0  0
    9.4243   -5.5632   27.8278 H   0  0  0  0  0  0  0  0  0  0  0  0
   10.0200   -6.8490   25.7011 H   0  0  0  0  0  0  0  0  0  0  0  0
    9.6984   -6.0694   24.1436 H   0  0  0  0  0  0  0  0  0  0  0  0
    9.7679    1.0633   24.7334 H   0  0  0  0  0  0  0  0  0  0  0  0
    9.7147    2.0153   23.2493 H   0  0  0  0  0  0  0  0  0  0  0  0
    8.1334   -1.7991   21.3673 H   0  0  0  0  0  0  0  0  0  0  0  0
  1  2  1  0  0  0  0
  1  3  2  0  0  0  0
  2  6  2  0  0  0  0
  3  7  1  0  0  0  0
  4  5  1  0  0  0  0
  4  8  2  0  0  0  0
  5  9  2  0  0  0  0
  6 14  1  0  0  0  0
  7 14  2  0  0  0  0
  8 15  1  0  0  0  0
  9 16  1  0  0  0  0
 10 12  2  0  0  0  0
 10 17  1  0  0  0  0
 11 13  1  0  0  0  0
 11 17  2  0  0  0  0
 12 18  1  0  0  0  0
 13 18  2  0  0  0  0
 14 25  1  0  0  0  0
 15 16  2  0  0  0  0
 15 26  1  0  0  0  0
 16 28  1  0  0  0  0
 17 29  1  0  0  0  0
 18 31  1  0  0  0  0
 19 30  1  0  0  0  0
 19 31  1  0  0  0  0
 19 32  2  0  0  0  0
 20 21  1  0  0  0  0
 20 22  1  0  0  0  0
 21 23  1  0  0  0  0
 22 24  1  0  0  0  0
 23 29  1  0  0  0  0
 24 29  1  0  0  0  0
 25 31  1  0  0  0  0
 26 27  2  0  0  0  0
 27 28  1  0  0  0  0
 28 30  1  0  0  0  0
  1 33  1  0  0  0  0
  2 34  1  0  0  0  0
  3 35  1  0  0  0  0
  4 36  1  0  0  0  0
  5 37  1  0  0  0  0
  6 38  1  0  0  0  0
  7 39  1  0  0  0  0
  8 40  1  0  0  0  0
  9 41  1  0  0  0  0
 10 42  1  0  0  0  0
 11 43  1  0  0  0  0
 12 44  1  0  0  0  0
 13 45  1  0  0  0  0
 20 46  1  0  0  0  0
 20 47  1  0  0  0  0
 21 48  1  0  0  0  0
 21 49  1  0  0  0  0
 22 50  1  0  0  0  0
 22 51  1  0  0  0  0
 23 52  1  0  0  0  0
 23 53  1  0  0  0  0
 24 54  1  0  0  0  0
 24 55  1  0  0  0  0
 25 56  1  0  0  0  0
 25 57  1  0  0  0  0
 30 58  1  0  0  0  0
M  END
> <clash_score>
0

> <docking_score>
-8.034476280212402

> <overlap_score>
1.0137771368026733

$$$$
BENZO_12_1
  -OEChem-08232013473D

 43 46  0     0  0  0  0  0  0999 V2000
    4.0980    2.1130   19.5350 C   0  0  0  0  0  0  0  0  0  0  0  0
    4.2970    1.6690   20.8430 C   0  0  0  0  0  0  0  0  0  0  0  0
    8.3310   -2.7170   25.3430 C   0  0  0  0  0  0  0  0  0  0  0  0
   10.2570   -3.5000   24.1350 C   0  0  0  0  0  0  0  0  0  0  0  0
    4.9400    1.7060   18.5060 C   0  0  0  0  0  0  0  0  0  0  0  0
    5.3360    0.8000   21.1530 C   0  0  0  0  0  0  0  0  0  0  0  0
    8.3510   -1.5420   24.6110 C   0  0  0  0  0  0  0  0  0  0  0  0
   10.2760   -2.3270   23.4020 C   0  0  0  0  0  0  0  0  0  0  0  0
   12.2998    1.0221   22.3796 C   0  0  0  0  0  0  0  0  0  0  0  0
   13.6611    0.9485   22.5771 C   0  0  0  0  0  0  0  0  0  0  0  0
   12.4159    0.8972   24.6976 C   0  0  0  0  0  0  0  0  0  0  0  0
    9.2850   -3.7090   25.1090 C   0  0  0  0  0  0  0  0  0  0  0  0
   11.5784    0.9926   23.6079 C   0  0  0  0  0  0  0  0  0  0  0  0
    5.9810    0.8330   18.8060 C   0  0  0  0  0  0  0  0  0  0  0  0
    6.1600    0.3870   20.1140 C   0  0  0  0  0  0  0  0  0  0  0  0
    9.3300   -1.3350   23.6390 C   0  0  0  0  0  0  0  0  0  0  0  0
    8.9510    0.1280   21.6880 C   0  0  0  0  0  0  0  0  0  0  0  0
    9.2610   -4.9721   25.8916 C   0  0  0  0  0  0  0  0  0  0  0  0
   10.0813    1.0569   23.7013 C   0  0  0  0  0  0  0  0  0  0  0  0
    6.9440    0.2550   18.0100 N   0  0  0  0  0  0  0  0  0  0  0  0
    7.6830   -0.5170   18.7600 N   0  0  0  0  0  0  0  0  0  0  0  0
    7.2210   -0.4620   20.0350 N   0  0  0  0  0  0  0  0  0  0  0  0
    8.0810   -0.9750   21.0820 N   0  0  0  0  0  0  0  0  0  0  0  0
    9.4200   -0.0840   22.9530 N   0  0  0  0  0  0  0  0  0  0  0  0
    9.1870    1.1500   21.0630 O   0  0  0  0  0  0  0  0  0  0  0  0
   14.0646    0.8440   24.2381 S   0  0  0  0  0  0  0  0  0  0  0  0
    3.2714    2.7876   19.3199 H   0  0  0  0  0  0  0  0  0  0  0  0
    3.6283    2.0091   21.6296 H   0  0  0  0  0  0  0  0  0  0  0  0
    7.5665   -2.8638   26.1066 H   0  0  0  0  0  0  0  0  0  0  0  0
   11.0137   -4.2652   23.9447 H   0  0  0  0  0  0  0  0  0  0  0  0
    4.7824    2.0670   17.4883 H   0  0  0  0  0  0  0  0  0  0  0  0
    5.4937    0.4574   22.1805 H   0  0  0  0  0  0  0  0  0  0  0  0
    7.5948   -0.7788   24.7997 H   0  0  0  0  0  0  0  0  0  0  0  0
   11.0411   -2.1856   22.6358 H   0  0  0  0  0  0  0  0  0  0  0  0
   11.8472    1.0933   21.3986 H   0  0  0  0  0  0  0  0  0  0  0  0
   14.4380    0.9502   21.8257 H   0  0  0  0  0  0  0  0  0  0  0  0
   12.1426    0.8547   25.7429 H   0  0  0  0  0  0  0  0  0  0  0  0
    8.6398   -5.7223   25.3871 H   0  0  0  0  0  0  0  0  0  0  0  0
   10.2715   -5.3829   26.0145 H   0  0  0  0  0  0  0  0  0  0  0  0
    8.8596   -4.8092   26.9004 H   0  0  0  0  0  0  0  0  0  0  0  0
    9.7577    1.0183   24.7472 H   0  0  0  0  0  0  0  0  0  0  0  0
    9.7009    1.9923   23.2775 H   0  0  0  0  0  0  0  0  0  0  0  0
    8.1044   -1.8183   21.3422 H   0  0  0  0  0  0  0  0  0  0  0  0
  1  2  1  0  0  0  0
  1  5  2  0  0  0  0
  2  6  2  0  0  0  0
  3  7  2  0  0  0  0
  3 12  1  0  0  0  0
  4  8  1  0  0  0  0
  4 12  2  0  0  0  0
  5 14  1  0  0  0  0
  6 15  1  0  0  0  0
  7 16  1  0  0  0  0
  8 16  2  0  0  0  0
  9 10  2  0  0  0  0
  9 13  1  0  0  0  0
 10 26  1  0  0  0  0
 11 13  2  0  0  0  0
 11 26  1  0  0  0  0
 12 18  1  0  0  0  0
 13 19  1  0  0  0  0
 14 15  2  0  0  0  0
 14 20  1  0  0  0  0
 15 22  1  0  0  0  0
 16 24  1  0  0  0  0
 17 23  1  0  0  0  0
 17 24  1  0  0  0  0
 17 25  2  0  0  0  0
 19 24  1  0  0  0  0
 20 21  2  0  0  0  0
 21 22  1  0  0  0  0
 22 23  1  0  0  0  0
  1 27  1  0  0  0  0
  2 28  1  0  0  0  0
  3 29  1  0  0  0  0
  4 30  1  0  0  0  0
  5 31  1  0  0  0  0
  6 32  1  0  0  0  0
  7 33  1  0  0  0  0
  8 34  1  0  0  0  0
  9 35  1  0  0  0  0
 10 36  1  0  0  0  0
 11 37  1  0  0  0  0
 18 38  1  0  0  0  0
 18 39  1  0  0  0  0
 18 40  1  0  0  0  0
 19 41  1  0  0  0  0
 19 42  1  0  0  0  0
 23 43  1  0  0  0  0
M  END
> <clash_score>
0

> <docking_score>
-9.347084045410156

> <overlap_score>
0.9442899227142334

$$$$
BENZO_8_1
  -OEChem-08232013473D

 55 59  0     0  0  0  0  0  0999 V2000
    4.0980    2.1130   19.5350 C   0  0  0  0  0  0  0  0  0  0  0  0
    4.2970    1.6690   20.8430 C   0  0  0  0  0  0  0  0  0  0  0  0
    4.9400    1.7060   18.5060 C   0  0  0  0  0  0  0  0  0  0  0  0
    5.3360    0.8000   21.1530 C   0  0  0  0  0  0  0  0  0  0  0  0
    8.3310   -2.7170   25.3430 C   0  0  0  0  0  0  0  0  0  0  0  0
   10.2570   -3.5000   24.1350 C   0  0  0  0  0  0  0  0  0  0  0  0
    8.3510   -1.5420   24.6110 C   0  0  0  0  0  0  0  0  0  0  0  0
   10.2760   -2.3270   23.4020 C   0  0  0  0  0  0  0  0  0  0  0  0
   12.2829    0.9776   22.3384 C   0  0  0  0  0  0  0  0  0  0  0  0
   13.6445    0.8787   22.5222 C   0  0  0  0  0  0  0  0  0  0  0  0
   12.4223    0.8862   24.6567 C   0  0  0  0  0  0  0  0  0  0  0  0
   11.5748    0.9821   23.5749 C   0  0  0  0  0  0  0  0  0  0  0  0
    5.9810    0.8330   18.8060 C   0  0  0  0  0  0  0  0  0  0  0  0
    6.1600    0.3870   20.1140 C   0  0  0  0  0  0  0  0  0  0  0  0
    9.2850   -3.7090   25.1090 C   0  0  0  0  0  0  0  0  0  0  0  0
    9.3300   -1.3350   23.6390 C   0  0  0  0  0  0  0  0  0  0  0  0
    8.9510    0.1280   21.6880 C   0  0  0  0  0  0  0  0  0  0  0  0
    7.3162   -6.8834   26.5210 C   0  0  0  0  0  0  0  0  0  0  0  0
    7.3507   -5.5245   27.2240 C   0  0  0  0  0  0  0  0  0  0  0  0
    7.9375   -6.8069   25.1245 C   0  0  0  0  0  0  0  0  0  0  0  0
    8.7638   -4.9418   27.2163 C   0  0  0  0  0  0  0  0  0  0  0  0
    9.3378   -6.1874   25.1659 C   0  0  0  0  0  0  0  0  0  0  0  0
   10.0805    1.0790   23.6836 C   0  0  0  0  0  0  0  0  0  0  0  0
    6.9440    0.2550   18.0100 N   0  0  0  0  0  0  0  0  0  0  0  0
    7.6830   -0.5170   18.7600 N   0  0  0  0  0  0  0  0  0  0  0  0
    7.2210   -0.4620   20.0350 N   0  0  0  0  0  0  0  0  0  0  0  0
    9.2639   -4.8860   25.8399 N   0  0  0  0  0  0  0  0  0  0  0  0
    8.0810   -0.9750   21.0820 N   0  0  0  0  0  0  0  0  0  0  0  0
    9.4200   -0.0840   22.9530 N   0  0  0  0  0  0  0  0  0  0  0  0
    9.1870    1.1500   21.0630 O   0  0  0  0  0  0  0  0  0  0  0  0
   14.0643    0.7917   24.1801 S   0  0  0  0  0  0  0  0  0  0  0  0
    3.2714    2.7876   19.3199 H   0  0  0  0  0  0  0  0  0  0  0  0
    3.6283    2.0091   21.6296 H   0  0  0  0  0  0  0  0  0  0  0  0
    4.7824    2.0670   17.4883 H   0  0  0  0  0  0  0  0  0  0  0  0
    5.4937    0.4574   22.1805 H   0  0  0  0  0  0  0  0  0  0  0  0
    7.5647   -2.8621   26.1053 H   0  0  0  0  0  0  0  0  0  0  0  0
   11.0144   -4.2642   23.9425 H   0  0  0  0  0  0  0  0  0  0  0  0
    7.5958   -0.7779   24.8006 H   0  0  0  0  0  0  0  0  0  0  0  0
   11.0406   -2.1848   22.6356 H   0  0  0  0  0  0  0  0  0  0  0  0
   11.8208    1.0429   21.3614 H   0  0  0  0  0  0  0  0  0  0  0  0
   14.4127    0.8527   21.7624 H   0  0  0  0  0  0  0  0  0  0  0  0
   12.1600    0.8657   25.7054 H   0  0  0  0  0  0  0  0  0  0  0  0
    7.8578   -7.6261   27.1266 H   0  0  0  0  0  0  0  0  0  0  0  0
    6.2773   -7.2358   26.4459 H   0  0  0  0  0  0  0  0  0  0  0  0
    6.6663   -4.8351   26.7223 H   0  0  0  0  0  0  0  0  0  0  0  0
    7.0044   -5.6368   28.2534 H   0  0  0  0  0  0  0  0  0  0  0  0
    7.9946   -7.8119   24.6937 H   0  0  0  0  0  0  0  0  0  0  0  0
    7.2929   -6.2123   24.4668 H   0  0  0  0  0  0  0  0  0  0  0  0
    8.7343   -3.9408   27.6542 H   0  0  0  0  0  0  0  0  0  0  0  0
    9.4243   -5.5632   27.8278 H   0  0  0  0  0  0  0  0  0  0  0  0
   10.0200   -6.8490   25.7011 H   0  0  0  0  0  0  0  0  0  0  0  0
    9.6984   -6.0694   24.1436 H   0  0  0  0  0  0  0  0  0  0  0  0
    9.7679    1.0633   24.7334 H   0  0  0  0  0  0  0  0  0  0  0  0
    9.7147    2.0153   23.2493 H   0  0  0  0  0  0  0  0  0  0  0  0
    8.1334   -1.7991   21.3673 H   0  0  0  0  0  0  0  0  0  0  0  0
  1  2  1  0  0  0  0
  1  3  2  0  0  0  0
  2  4  2  0  0  0  0
  3 13  1  0  0  0  0
  4 14  1  0  0  0  0
  5  7  2  0  0  0  0
  5 15  1  0  0  0  0
  6  8  1  0  0  0  0
  6 15  2  0  0  0  0
  7 16  1  0  0  0  0
  8 16  2  0  0  0  0
  9 10  2  0  0  0  0
  9 12  1  0  0  0  0
 10 31  1  0  0  0  0
 11 12  2  0  0  0  0
 11 31  1  0  0  0  0
 12 23  1  0  0  0  0
 13 14  2  0  0  0  0
 13 24  1  0  0  0  0
 14 26  1  0  0  0  0
 15 27  1  0  0  0  0
 16 29  1  0  0  0  0
 17 28  1  0  0  0  0
 17 29  1  0  0  0  0
 17 30  2  0  0  0  0
 18 19  1  0  0  0  0
 18 20  1  0  0  0  0
 19 21  1  0  0  0  0
 20 22  1  0  0  0  0
 21 27  1  0  0  0  0
 22 27  1  0  0  0  0
 23 29  1  0  0  0  0
 24 25  2  0  0  0  0
 25 26  1  0  0  0  0
 26 28  1  0  0  0  0
  1 32  1  0  0  0  0
  2 33  1  0  0  0  0
  3 34  1  0  0  0  0
  4 35  1  0  0  0  0
  5 36  1  0  0  0  0
  6 37  1  0  0  0  0
  7 38  1  0  0  0  0
  8 39  1  0  0  0  0
  9 40  1  0  0  0  0
 10 41  1  0  0  0  0
 11 42  1  0  0  0  0
 18 43  1  0  0  0  0
 18 44  1  0  0  0  0
 19 45  1  0  0  0  0
 19 46  1  0  0  0  0
 20 47  1  0  0  0  0
 20 48  1  0  0  0  0
 21 49  1  0  0  0  0
 21 50  1  0  0  0  0
 22 51  1  0  0  0  0
 22 52  1  0  0  0  0
 23 53  1  0  0  0  0
 23 54  1  0  0  0  0
 28 55  1  0  0  0  0
M  END
> <clash_score>
0

> <docking_score>
-8.320686340332031

> <overlap_score>
0.9880418181419373

$$$$
BENZO_15_1
  -OEChem-08232013473D

 46 49  0     0  0  0  0  0  0999 V2000
    4.0980    2.1130   19.5350 C   0  0  0  0  0  0  0  0  0  0  0  0
    4.2970    1.6690   20.8430 C   0  0  0  0  0  0  0  0  0  0  0  0
    8.3310   -2.7170   25.3430 C   0  0  0  0  0  0  0  0  0  0  0  0
   10.2570   -3.5000   24.1350 C   0  0  0  0  0  0  0  0  0  0  0  0
    4.9400    1.7060   18.5060 C   0  0  0  0  0  0  0  0  0  0  0  0
    5.3360    0.8000   21.1530 C   0  0  0  0  0  0  0  0  0  0  0  0
    8.3510   -1.5420   24.6110 C   0  0  0  0  0  0  0  0  0  0  0  0
   10.2760   -2.3270   23.4020 C   0  0  0  0  0  0  0  0  0  0  0  0
   12.4288    1.7820   22.8108 C   0  0  0  0  0  0  0  0  0  0  0  0
   12.4262    0.1502   24.2847 C   0  0  0  0  0  0  0  0  0  0  0  0
    9.2850   -3.7090   25.1090 C   0  0  0  0  0  0  0  0  0  0  0  0
   11.5784    0.9926   23.6079 C   0  0  0  0  0  0  0  0  0  0  0  0
    5.9810    0.8330   18.8060 C   0  0  0  0  0  0  0  0  0  0  0  0
    6.1600    0.3870   20.1140 C   0  0  0  0  0  0  0  0  0  0  0  0
    9.3300   -1.3350   23.6390 C   0  0  0  0  0  0  0  0  0  0  0  0
    8.9510    0.1280   21.6880 C   0  0  0  0  0  0  0  0  0  0  0  0
    9.2610   -4.9721   25.8916 C   0  0  0  0  0  0  0  0  0  0  0  0
   14.9148   -0.1421   24.3029 C   0  0  0  0  0  0  0  0  0  0  0  0
   10.0813    1.0569   23.7013 C   0  0  0  0  0  0  0  0  0  0  0  0
   13.7181    1.4691   22.9659 N   0  0  0  0  0  0  0  0  0  0  0  0
    6.9440    0.2550   18.0100 N   0  0  0  0  0  0  0  0  0  0  0  0
    7.6830   -0.5170   18.7600 N   0  0  0  0  0  0  0  0  0  0  0  0
   13.6840    0.4738   23.8683 N   0  0  0  0  0  0  0  0  0  0  0  0
    7.2210   -0.4620   20.0350 N   0  0  0  0  0  0  0  0  0  0  0  0
    8.0810   -0.9750   21.0820 N   0  0  0  0  0  0  0  0  0  0  0  0
    9.4200   -0.0840   22.9530 N   0  0  0  0  0  0  0  0  0  0  0  0
    9.1870    1.1500   21.0630 O   0  0  0  0  0  0  0  0  0  0  0  0
    3.2714    2.7876   19.3199 H   0  0  0  0  0  0  0  0  0  0  0  0
    3.6283    2.0091   21.6296 H   0  0  0  0  0  0  0  0  0  0  0  0
    7.5665   -2.8638   26.1066 H   0  0  0  0  0  0  0  0  0  0  0  0
   11.0137   -4.2652   23.9447 H   0  0  0  0  0  0  0  0  0  0  0  0
    4.7824    2.0670   17.4883 H   0  0  0  0  0  0  0  0  0  0  0  0
    5.4937    0.4574   22.1805 H   0  0  0  0  0  0  0  0  0  0  0  0
    7.5948   -0.7788   24.7997 H   0  0  0  0  0  0  0  0  0  0  0  0
   11.0411   -2.1856   22.6358 H   0  0  0  0  0  0  0  0  0  0  0  0
   12.1654    2.5733   22.1234 H   0  0  0  0  0  0  0  0  0  0  0  0
   12.2462   -0.6317   25.0100 H   0  0  0  0  0  0  0  0  0  0  0  0
    8.6398   -5.7223   25.3871 H   0  0  0  0  0  0  0  0  0  0  0  0
   10.2715   -5.3829   26.0145 H   0  0  0  0  0  0  0  0  0  0  0  0
    8.8596   -4.8092   26.9004 H   0  0  0  0  0  0  0  0  0  0  0  0
   15.1264   -0.9810   23.6347 H   0  0  0  0  0  0  0  0  0  0  0  0
   15.7238    0.5926   24.2623 H   0  0  0  0  0  0  0  0  0  0  0  0
   14.7999   -0.4917   25.3327 H   0  0  0  0  0  0  0  0  0  0  0  0
    9.7577    1.0183   24.7472 H   0  0  0  0  0  0  0  0  0  0  0  0
    9.7009    1.9923   23.2775 H   0  0  0  0  0  0  0  0  0  0  0  0
    8.1044   -1.8183   21.3422 H   0  0  0  0  0  0  0  0  0  0  0  0
  1  2  1  0  0  0  0
  1  5  2  0  0  0  0
  2  6  2  0  0  0  0
  3  7  2  0  0  0  0
  3 11  1  0  0  0  0
  4  8  1  0  0  0  0
  4 11  2  0  0  0  0
  5 13  1  0  0  0  0
  6 14  1  0  0  0  0
  7 15  1  0  0  0  0
  8 15  2  0  0  0  0
  9 12  1  0  0  0  0
  9 20  2  0  0  0  0
 10 12  2  0  0  0  0
 10 23  1  0  0  0  0
 11 17  1  0  0  0  0
 12 19  1  0  0  0  0
 13 14  2  0  0  0  0
 13 21  1  0  0  0  0
 14 24  1  0  0  0  0
 15 26  1  0  0  0  0
 16 25  1  0  0  0  0
 16 26  1  0  0  0  0
 16 27  2  0  0  0  0
 18 23  1  0  0  0  0
 19 26  1  0  0  0  0
 20 23  1  0  0  0  0
 21 22  2  0  0  0  0
 22 24  1  0  0  0  0
 24 25  1  0  0  0  0
  1 28  1  0  0  0  0
  2 29  1  0  0  0  0
  3 30  1  0  0  0  0
  4 31  1  0  0  0  0
  5 32  1  0  0  0  0
  6 33  1  0  0  0  0
  7 34  1  0  0  0  0
  8 35  1  0  0  0  0
  9 36  1  0  0  0  0
 10 37  1  0  0  0  0
 17 38  1  0  0  0  0
 17 39  1  0  0  0  0
 17 40  1  0  0  0  0
 18 41  1  0  0  0  0
 18 42  1  0  0  0  0
 18 43  1  0  0  0  0
 19 44  1  0  0  0  0
 19 45  1  0  0  0  0
 25 46  1  0  0  0  0
M  END
> <clash_score>
0

> <docking_score>
-8.893031120300293

> <overlap_score>
0.9712631702423096

$$$$
BENZO_14_1
  -OEChem-08232013473D

 46 49  0     0  0  0  0  0  0999 V2000
    4.0980    2.1130   19.5350 C   0  0  0  0  0  0  0  0  0  0  0  0
    4.2970    1.6690   20.8430 C   0  0  0  0  0  0  0  0  0  0  0  0
   13.6523    1.8026   22.6701 C   0  0  0  0  0  0  0  0  0  0  0  0
   12.2614    1.8611   22.7565 C   0  0  0  0  0  0  0  0  0  0  0  0
    8.3310   -2.7170   25.3430 C   0  0  0  0  0  0  0  0  0  0  0  0
   10.2570   -3.5000   24.1350 C   0  0  0  0  0  0  0  0  0  0  0  0
    4.9400    1.7060   18.5060 C   0  0  0  0  0  0  0  0  0  0  0  0
    5.3360    0.8000   21.1530 C   0  0  0  0  0  0  0  0  0  0  0  0
    8.3510   -1.5420   24.6110 C   0  0  0  0  0  0  0  0  0  0  0  0
   10.2760   -2.3270   23.4020 C   0  0  0  0  0  0  0  0  0  0  0  0
   14.3603    0.8755   23.4350 C   0  0  0  0  0  0  0  0  0  0  0  0
   12.2863    0.0655   24.3729 C   0  0  0  0  0  0  0  0  0  0  0  0
    9.2850   -3.7090   25.1090 C   0  0  0  0  0  0  0  0  0  0  0  0
   11.5784    0.9926   23.6079 C   0  0  0  0  0  0  0  0  0  0  0  0
    5.9810    0.8330   18.8060 C   0  0  0  0  0  0  0  0  0  0  0  0
    6.1600    0.3870   20.1140 C   0  0  0  0  0  0  0  0  0  0  0  0
    9.3300   -1.3350   23.6390 C   0  0  0  0  0  0  0  0  0  0  0  0
   13.6773    0.0070   24.2864 C   0  0  0  0  0  0  0  0  0  0  0  0
    8.9510    0.1280   21.6880 C   0  0  0  0  0  0  0  0  0  0  0  0
    9.2610   -4.9721   25.8916 C   0  0  0  0  0  0  0  0  0  0  0  0
   10.0813    1.0569   23.7013 C   0  0  0  0  0  0  0  0  0  0  0  0
    6.9440    0.2550   18.0100 N   0  0  0  0  0  0  0  0  0  0  0  0
    7.6830   -0.5170   18.7600 N   0  0  0  0  0  0  0  0  0  0  0  0
    7.2210   -0.4620   20.0350 N   0  0  0  0  0  0  0  0  0  0  0  0
    8.0810   -0.9750   21.0820 N   0  0  0  0  0  0  0  0  0  0  0  0
    9.4200   -0.0840   22.9530 N   0  0  0  0  0  0  0  0  0  0  0  0
    9.1870    1.1500   21.0630 O   0  0  0  0  0  0  0  0  0  0  0  0
   14.5514   -1.1357   25.2308 Cl  0  0  0  0  0  0  0  0  0  0  0  0
    3.2714    2.7876   19.3199 H   0  0  0  0  0  0  0  0  0  0  0  0
    3.6283    2.0091   21.6296 H   0  0  0  0  0  0  0  0  0  0  0  0
   14.1838    2.4792   22.0071 H   0  0  0  0  0  0  0  0  0  0  0  0
   11.7179    2.5867   22.1569 H   0  0  0  0  0  0  0  0  0  0  0  0
    7.5665   -2.8638   26.1066 H   0  0  0  0  0  0  0  0  0  0  0  0
   11.0137   -4.2652   23.9447 H   0  0  0  0  0  0  0  0  0  0  0  0
    4.7824    2.0670   17.4883 H   0  0  0  0  0  0  0  0  0  0  0  0
    5.4937    0.4574   22.1805 H   0  0  0  0  0  0  0  0  0  0  0  0
    7.5948   -0.7788   24.7997 H   0  0  0  0  0  0  0  0  0  0  0  0
   11.0411   -2.1856   22.6358 H   0  0  0  0  0  0  0  0  0  0  0  0
   15.4442    0.8415   23.3577 H   0  0  0  0  0  0  0  0  0  0  0  0
   11.7491   -0.6098   25.0348 H   0  0  0  0  0  0  0  0  0  0  0  0
    8.6398   -5.7223   25.3871 H   0  0  0  0  0  0  0  0  0  0  0  0
   10.2715   -5.3829   26.0145 H   0  0  0  0  0  0  0  0  0  0  0  0
    8.8596   -4.8092   26.9004 H   0  0  0  0  0  0  0  0  0  0  0  0
    9.7577    1.0183   24.7472 H   0  0  0  0  0  0  0  0  0  0  0  0
    9.7009    1.9923   23.2775 H   0  0  0  0  0  0  0  0  0  0  0  0
    8.1044   -1.8183   21.3422 H   0  0  0  0  0  0  0  0  0  0  0  0
  1  2  1  0  0  0  0
  1  7  2  0  0  0  0
  2  8  2  0  0  0  0
  3  4  2  0  0  0  0
  3 11  1  0  0  0  0
  4 14  1  0  0  0  0
  5  9  2  0  0  0  0
  5 13  1  0  0  0  0
  6 10  1  0  0  0  0
  6 13  2  0  0  0  0
  7 15  1  0  0  0  0
  8 16  1  0  0  0  0
  9 17  1  0  0  0  0
 10 17  2  0  0  0  0
 11 18  2  0  0  0  0
 12 14  2  0  0  0  0
 12 18  1  0  0  0  0
 13 20  1  0  0  0  0
 14 21  1  0  0  0  0
 15 16  2  0  0  0  0
 15 22  1  0  0  0  0
 16 24  1  0  0  0  0
 17 26  1  0  0  0  0
 18 28  1  0  0  0  0
 19 25  1  0  0  0  0
 19 26  1  0  0  0  0
 19 27  2  0  0  0  0
 21 26  1  0  0  0  0
 22 23  2  0  0  0  0
 23 24  1  0  0  0  0
 24 25  1  0  0  0  0
  1 29  1  0  0  0  0
  2 30  1  0  0  0  0
  3 31  1  0  0  0  0
  4 32  1  0  0  0  0
  5 33  1  0  0  0  0
  6 34  1  0  0  0  0
  7 35  1  0  0  0  0
  8 36  1  0  0  0  0
  9 37  1  0  0  0  0
 10 38  1  0  0  0  0
 11 39  1  0  0  0  0
 12 40  1  0  0  0  0
 20 41  1  0  0  0  0
 20 42  1  0  0  0  0
 20 43  1  0  0  0  0
 21 44  1  0  0  0  0
 21 45  1  0  0  0  0
 25 46  1  0  0  0  0
M  END
> <clash_score>
0.791460245663028

> <docking_score>
-8.248266220092773

> <overlap_score>
0.9752189517021179

$$$$
BENZO_11_1
  -OEChem-08232013473D

 58 62  0     0  0  0  0  0  0999 V2000
    4.0980    2.1130   19.5350 C   0  0  0  0  0  0  0  0  0  0  0  0
    4.2970    1.6690   20.8430 C   0  0  0  0  0  0  0  0  0  0  0  0
    4.9400    1.7060   18.5060 C   0  0  0  0  0  0  0  0  0  0  0  0
    5.3360    0.8000   21.1530 C   0  0  0  0  0  0  0  0  0  0  0  0
    8.3310   -2.7170   25.3430 C   0  0  0  0  0  0  0  0  0  0  0  0
   10.2570   -3.5000   24.1350 C   0  0  0  0  0  0  0  0  0  0  0  0
    8.3510   -1.5420   24.6110 C   0  0  0  0  0  0  0  0  0  0  0  0
   10.2760   -2.3270   23.4020 C   0  0  0  0  0  0  0  0  0  0  0  0
   12.5423    1.6790   24.3232 C   0  0  0  0  0  0  0  0  0  0  0  0
   12.3048    0.1898   22.7229 C   0  0  0  0  0  0  0  0  0  0  0  0
   11.5748    0.9821   23.5749 C   0  0  0  0  0  0  0  0  0  0  0  0
    5.9810    0.8330   18.8060 C   0  0  0  0  0  0  0  0  0  0  0  0
    6.1600    0.3870   20.1140 C   0  0  0  0  0  0  0  0  0  0  0  0
    9.2850   -3.7090   25.1090 C   0  0  0  0  0  0  0  0  0  0  0  0
    9.3300   -1.3350   23.6390 C   0  0  0  0  0  0  0  0  0  0  0  0
    8.9510    0.1280   21.6880 C   0  0  0  0  0  0  0  0  0  0  0  0
    7.3162   -6.8834   26.5210 C   0  0  0  0  0  0  0  0  0  0  0  0
    7.3507   -5.5245   27.2240 C   0  0  0  0  0  0  0  0  0  0  0  0
    7.9375   -6.8069   25.1245 C   0  0  0  0  0  0  0  0  0  0  0  0
    8.7638   -4.9418   27.2163 C   0  0  0  0  0  0  0  0  0  0  0  0
    9.3378   -6.1874   25.1659 C   0  0  0  0  0  0  0  0  0  0  0  0
   14.7613   -0.1464   22.3606 C   0  0  0  0  0  0  0  0  0  0  0  0
   10.0805    1.0790   23.6836 C   0  0  0  0  0  0  0  0  0  0  0  0
   13.7917    1.3576   23.9771 N   0  0  0  0  0  0  0  0  0  0  0  0
    6.9440    0.2550   18.0100 N   0  0  0  0  0  0  0  0  0  0  0  0
    7.6830   -0.5170   18.7600 N   0  0  0  0  0  0  0  0  0  0  0  0
   13.6142    0.4500   23.0021 N   0  0  0  0  0  0  0  0  0  0  0  0
    7.2210   -0.4620   20.0350 N   0  0  0  0  0  0  0  0  0  0  0  0
    9.2639   -4.8860   25.8399 N   0  0  0  0  0  0  0  0  0  0  0  0
    8.0810   -0.9750   21.0820 N   0  0  0  0  0  0  0  0  0  0  0  0
    9.4200   -0.0840   22.9530 N   0  0  0  0  0  0  0  0  0  0  0  0
    9.1870    1.1500   21.0630 O   0  0  0  0  0  0  0  0  0  0  0  0
    3.2714    2.7876   19.3199 H   0  0  0  0  0  0  0  0  0  0  0  0
    3.6283    2.0091   21.6296 H   0  0  0  0  0  0  0  0  0  0  0  0
    4.7824    2.0670   17.4883 H   0  0  0  0  0  0  0  0  0  0  0  0
    5.4937    0.4574   22.1805 H   0  0  0  0  0  0  0  0  0  0  0  0
    7.5647   -2.8621   26.1053 H   0  0  0  0  0  0  0  0  0  0  0  0
   11.0144   -4.2642   23.9425 H   0  0  0  0  0  0  0  0  0  0  0  0
    7.5958   -0.7779   24.8006 H   0  0  0  0  0  0  0  0  0  0  0  0
   11.0406   -2.1848   22.6356 H   0  0  0  0  0  0  0  0  0  0  0  0
   12.3915    2.4075   25.1073 H   0  0  0  0  0  0  0  0  0  0  0  0
   12.0114   -0.5203   21.9616 H   0  0  0  0  0  0  0  0  0  0  0  0
    7.8578   -7.6261   27.1266 H   0  0  0  0  0  0  0  0  0  0  0  0
    6.2773   -7.2358   26.4459 H   0  0  0  0  0  0  0  0  0  0  0  0
    6.6663   -4.8351   26.7223 H   0  0  0  0  0  0  0  0  0  0  0  0
    7.0044   -5.6368   28.2534 H   0  0  0  0  0  0  0  0  0  0  0  0
    7.9946   -7.8119   24.6937 H   0  0  0  0  0  0  0  0  0  0  0  0
    7.2929   -6.2123   24.4668 H   0  0  0  0  0  0  0  0  0  0  0  0
    8.7343   -3.9408   27.6542 H   0  0  0  0  0  0  0  0  0  0  0  0
    9.4243   -5.5632   27.8278 H   0  0  0  0  0  0  0  0  0  0  0  0
   10.0200   -6.8490   25.7011 H   0  0  0  0  0  0  0  0  0  0  0  0
    9.6984   -6.0694   24.1436 H   0  0  0  0  0  0  0  0  0  0  0  0
   15.0291    0.4755   21.5024 H   0  0  0  0  0  0  0  0  0  0  0  0
   15.5912   -0.1955   23.0710 H   0  0  0  0  0  0  0  0  0  0  0  0
   14.5077   -1.1594   22.0358 H   0  0  0  0  0  0  0  0  0  0  0  0
    9.7679    1.0633   24.7334 H   0  0  0  0  0  0  0  0  0  0  0  0
    9.7147    2.0153   23.2493 H   0  0  0  0  0  0  0  0  0  0  0  0
    8.1334   -1.7991   21.3673 H   0  0  0  0  0  0  0  0  0  0  0  0
  1  2  1  0  0  0  0
  1  3  2  0  0  0  0
  2  4  2  0  0  0  0
  3 12  1  0  0  0  0
  4 13  1  0  0  0  0
  5  7  2  0  0  0  0
  5 14  1  0  0  0  0
  6  8  1  0  0  0  0
  6 14  2  0  0  0  0
  7 15  1  0  0  0  0
  8 15  2  0  0  0  0
  9 11  1  0  0  0  0
  9 24  2  0  0  0  0
 10 11  2  0  0  0  0
 10 27  1  0  0  0  0
 11 23  1  0  0  0  0
 12 13  2  0  0  0  0
 12 25  1  0  0  0  0
 13 28  1  0  0  0  0
 14 29  1  0  0  0  0
 15 31  1  0  0  0  0
 16 30  1  0  0  0  0
 16 31  1  0  0  0  0
 16 32  2  0  0  0  0
 17 18  1  0  0  0  0
 17 19  1  0  0  0  0
 18 20  1  0  0  0  0
 19 21  1  0  0  0  0
 20 29  1  0  0  0  0
 21 29  1  0  0  0  0
 22 27  1  0  0  0  0
 23 31  1  0  0  0  0
 24 27  1  0  0  0  0
 25 26  2  0  0  0  0
 26 28  1  0  0  0  0
 28 30  1  0  0  0  0
  1 33  1  0  0  0  0
  2 34  1  0  0  0  0
  3 35  1  0  0  0  0
  4 36  1  0  0  0  0
  5 37  1  0  0  0  0
  6 38  1  0  0  0  0
  7 39  1  0  0  0  0
  8 40  1  0  0  0  0
  9 41  1  0  0  0  0
 10 42  1  0  0  0  0
 17 43  1  0  0  0  0
 17 44  1  0  0  0  0
 18 45  1  0  0  0  0
 18 46  1  0  0  0  0
 19 47  1  0  0  0  0
 19 48  1  0  0  0  0
 20 49  1  0  0  0  0
 20 50  1  0  0  0  0
 21 51  1  0  0  0  0
 21 52  1  0  0  0  0
 22 53  1  0  0  0  0
 22 54  1  0  0  0  0
 22 55  1  0  0  0  0
 23 56  1  0  0  0  0
 23 57  1  0  0  0  0
 30 58  1  0  0  0  0
M  END
> <clash_score>
0

> <docking_score>
-8.264731407165527

> <overlap_score>
0.9994141459465027

$$$$
BENZO_10_1
  -OEChem-08232013473D

 58 62  0     0  0  0  0  0  0999 V2000
    4.0980    2.1130   19.5350 C   0  0  0  0  0  0  0  0  0  0  0  0
    4.2970    1.6690   20.8430 C   0  0  0  0  0  0  0  0  0  0  0  0
   13.7738    1.6650   24.3062 C   0  0  0  0  0  0  0  0  0  0  0  0
   12.3855    1.7553   24.4058 C   0  0  0  0  0  0  0  0  0  0  0  0
    4.9400    1.7060   18.5060 C   0  0  0  0  0  0  0  0  0  0  0  0
    5.3360    0.8000   21.1530 C   0  0  0  0  0  0  0  0  0  0  0  0
    8.3310   -2.7170   25.3430 C   0  0  0  0  0  0  0  0  0  0  0  0
   10.2570   -3.5000   24.1350 C   0  0  0  0  0  0  0  0  0  0  0  0
    8.3510   -1.5420   24.6110 C   0  0  0  0  0  0  0  0  0  0  0  0
   10.2760   -2.3270   23.4020 C   0  0  0  0  0  0  0  0  0  0  0  0
   14.3515    0.8014   23.3754 C   0  0  0  0  0  0  0  0  0  0  0  0
   12.1524    0.1185   22.6441 C   0  0  0  0  0  0  0  0  0  0  0  0
   11.5748    0.9821   23.5749 C   0  0  0  0  0  0  0  0  0  0  0  0
    5.9810    0.8330   18.8060 C   0  0  0  0  0  0  0  0  0  0  0  0
    6.1600    0.3870   20.1140 C   0  0  0  0  0  0  0  0  0  0  0  0
    9.2850   -3.7090   25.1090 C   0  0  0  0  0  0  0  0  0  0  0  0
    9.3300   -1.3350   23.6390 C   0  0  0  0  0  0  0  0  0  0  0  0
   13.5408    0.0282   22.5444 C   0  0  0  0  0  0  0  0  0  0  0  0
    8.9510    0.1280   21.6880 C   0  0  0  0  0  0  0  0  0  0  0  0
    7.3162   -6.8834   26.5210 C   0  0  0  0  0  0  0  0  0  0  0  0
    7.3507   -5.5245   27.2240 C   0  0  0  0  0  0  0  0  0  0  0  0
    7.9375   -6.8069   25.1245 C   0  0  0  0  0  0  0  0  0  0  0  0
    8.7638   -4.9418   27.2163 C   0  0  0  0  0  0  0  0  0  0  0  0
    9.3378   -6.1874   25.1659 C   0  0  0  0  0  0  0  0  0  0  0  0
   10.0805    1.0790   23.6836 C   0  0  0  0  0  0  0  0  0  0  0  0
    6.9440    0.2550   18.0100 N   0  0  0  0  0  0  0  0  0  0  0  0
    7.6830   -0.5170   18.7600 N   0  0  0  0  0  0  0  0  0  0  0  0
    7.2210   -0.4620   20.0350 N   0  0  0  0  0  0  0  0  0  0  0  0
    9.2639   -4.8860   25.8399 N   0  0  0  0  0  0  0  0  0  0  0  0
    8.0810   -0.9750   21.0820 N   0  0  0  0  0  0  0  0  0  0  0  0
    9.4200   -0.0840   22.9530 N   0  0  0  0  0  0  0  0  0  0  0  0
    9.1870    1.1500   21.0630 O   0  0  0  0  0  0  0  0  0  0  0  0
   14.2541   -1.0379   21.3971 Cl  0  0  0  0  0  0  0  0  0  0  0  0
    3.2714    2.7876   19.3199 H   0  0  0  0  0  0  0  0  0  0  0  0
    3.6283    2.0091   21.6296 H   0  0  0  0  0  0  0  0  0  0  0  0
   14.4047    2.2672   24.9535 H   0  0  0  0  0  0  0  0  0  0  0  0
   11.9440    2.4308   25.1340 H   0  0  0  0  0  0  0  0  0  0  0  0
    4.7824    2.0670   17.4883 H   0  0  0  0  0  0  0  0  0  0  0  0
    5.4937    0.4574   22.1805 H   0  0  0  0  0  0  0  0  0  0  0  0
    7.5647   -2.8621   26.1053 H   0  0  0  0  0  0  0  0  0  0  0  0
   11.0144   -4.2642   23.9425 H   0  0  0  0  0  0  0  0  0  0  0  0
    7.5958   -0.7779   24.8006 H   0  0  0  0  0  0  0  0  0  0  0  0
   11.0406   -2.1848   22.6356 H   0  0  0  0  0  0  0  0  0  0  0  0
   15.4350    0.7411   23.3090 H   0  0  0  0  0  0  0  0  0  0  0  0
   11.5160   -0.4819   21.9981 H   0  0  0  0  0  0  0  0  0  0  0  0
    7.8578   -7.6261   27.1266 H   0  0  0  0  0  0  0  0  0  0  0  0
    6.2773   -7.2358   26.4459 H   0  0  0  0  0  0  0  0  0  0  0  0
    6.6663   -4.8351   26.7223 H   0  0  0  0  0  0  0  0  0  0  0  0
    7.0044   -5.6368   28.2534 H   0  0  0  0  0  0  0  0  0  0  0  0
    7.9946   -7.8119   24.6937 H   0  0  0  0  0  0  0  0  0  0  0  0
    7.2929   -6.2123   24.4668 H   0  0  0  0  0  0  0  0  0  0  0  0
    8.7343   -3.9408   27.6542 H   0  0  0  0  0  0  0  0  0  0  0  0
    9.4243   -5.5632   27.8278 H   0  0  0  0  0  0  0  0  0  0  0  0
   10.0200   -6.8490   25.7011 H   0  0  0  0  0  0  0  0  0  0  0  0
    9.6984   -6.0694   24.1436 H   0  0  0  0  0  0  0  0  0  0  0  0
    9.7679    1.0633   24.7334 H   0  0  0  0  0  0  0  0  0  0  0  0
    9.7147    2.0153   23.2493 H   0  0  0  0  0  0  0  0  0  0  0  0
    8.1334   -1.7991   21.3673 H   0  0  0  0  0  0  0  0  0  0  0  0
  1  2  1  0  0  0  0
  1  5  2  0  0  0  0
  2  6  2  0  0  0  0
  3  4  2  0  0  0  0
  3 11  1  0  0  0  0
  4 13  1  0  0  0  0
  5 14  1  0  0  0  0
  6 15  1  0  0  0  0
  7  9  2  0  0  0  0
  7 16  1  0  0  0  0
  8 10  1  0  0  0  0
  8 16  2  0  0  0  0
  9 17  1  0  0  0  0
 10 17  2  0  0  0  0
 11 18  2  0  0  0  0
 12 13  2  0  0  0  0
 12 18  1  0  0  0  0
 13 25  1  0  0  0  0
 14 15  2  0  0  0  0
 14 26  1  0  0  0  0
 15 28  1  0  0  0  0
 16 29  1  0  0  0  0
 17 31  1  0  0  0  0
 18 33  1  0  0  0  0
 19 30  1  0  0  0  0
 19 31  1  0  0  0  0
 19 32  2  0  0  0  0
 20 21  1  0  0  0  0
 20 22  1  0  0  0  0
 21 23  1  0  0  0  0
 22 24  1  0  0  0  0
 23 29  1  0  0  0  0
 24 29  1  0  0  0  0
 25 31  1  0  0  0  0
 26 27  2  0  0  0  0
 27 28  1  0  0  0  0
 28 30  1  0  0  0  0
  1 34  1  0  0  0  0
  2 35  1  0  0  0  0
  3 36  1  0  0  0  0
  4 37  1  0  0  0  0
  5 38  1  0  0  0  0
  6 39  1  0  0  0  0
  7 40  1  0  0  0  0
  8 41  1  0  0  0  0
  9 42  1  0  0  0  0
 10 43  1  0  0  0  0
 11 44  1  0  0  0  0
 12 45  1  0  0  0  0
 20 46  1  0  0  0  0
 20 47  1  0  0  0  0
 21 48  1  0  0  0  0
 21 49  1  0  0  0  0
 22 50  1  0  0  0  0
 22 51  1  0  0  0  0
 23 52  1  0  0  0  0
 23 53  1  0  0  0  0
 24 54  1  0  0  0  0
 24 55  1  0  0  0  0
 25 56  1  0  0  0  0
 25 57  1  0  0  0  0
 30 58  1  0  0  0  0
M  END
> <clash_score>
0

> <docking_score>
-7.5835676193237305

> <overlap_score>
0.9945139288902283

$$$$
BENZO_17_1
  -OEChem-08232013473D

 47 50  0     0  0  0  0  0  0999 V2000
   14.3601    0.8733   23.4330 C   0  0  0  0  0  0  0  0  0  0  0  0
   13.6986    0.2273   24.4774 C   0  0  0  0  0  0  0  0  0  0  0  0
   13.6307    1.5790   22.4761 C   0  0  0  0  0  0  0  0  0  0  0  0
    4.0980    2.1130   19.5350 C   0  0  0  0  0  0  0  0  0  0  0  0
    4.2970    1.6690   20.8430 C   0  0  0  0  0  0  0  0  0  0  0  0
   12.3078    0.2869   24.5648 C   0  0  0  0  0  0  0  0  0  0  0  0
   12.2398    1.6386   22.5635 C   0  0  0  0  0  0  0  0  0  0  0  0
    4.9400    1.7060   18.5060 C   0  0  0  0  0  0  0  0  0  0  0  0
    5.3360    0.8000   21.1530 C   0  0  0  0  0  0  0  0  0  0  0  0
    8.3510   -1.5420   24.6110 C   0  0  0  0  0  0  0  0  0  0  0  0
   10.2760   -2.3270   23.4020 C   0  0  0  0  0  0  0  0  0  0  0  0
    8.3310   -2.7170   25.3430 C   0  0  0  0  0  0  0  0  0  0  0  0
   10.2570   -3.5000   24.1350 C   0  0  0  0  0  0  0  0  0  0  0  0
   11.5784    0.9926   23.6079 C   0  0  0  0  0  0  0  0  0  0  0  0
    5.9810    0.8330   18.8060 C   0  0  0  0  0  0  0  0  0  0  0  0
    6.1600    0.3870   20.1140 C   0  0  0  0  0  0  0  0  0  0  0  0
    9.3300   -1.3350   23.6390 C   0  0  0  0  0  0  0  0  0  0  0  0
    9.2850   -3.7090   25.1090 C   0  0  0  0  0  0  0  0  0  0  0  0
    8.9510    0.1280   21.6880 C   0  0  0  0  0  0  0  0  0  0  0  0
    8.2346   -4.9976   26.8023 C   0  0  0  0  0  0  0  0  0  0  0  0
   10.0813    1.0569   23.7013 C   0  0  0  0  0  0  0  0  0  0  0  0
    6.9440    0.2550   18.0100 N   0  0  0  0  0  0  0  0  0  0  0  0
    7.6830   -0.5170   18.7600 N   0  0  0  0  0  0  0  0  0  0  0  0
    7.2210   -0.4620   20.0350 N   0  0  0  0  0  0  0  0  0  0  0  0
    8.0810   -0.9750   21.0820 N   0  0  0  0  0  0  0  0  0  0  0  0
    9.4200   -0.0840   22.9530 N   0  0  0  0  0  0  0  0  0  0  0  0
    9.1870    1.1500   21.0630 O   0  0  0  0  0  0  0  0  0  0  0  0
    9.2631   -4.8614   25.8229 O   0  0  0  0  0  0  0  0  0  0  0  0
   15.4431    0.8280   23.3658 H   0  0  0  0  0  0  0  0  0  0  0  0
   14.2665   -0.3213   25.2232 H   0  0  0  0  0  0  0  0  0  0  0  0
   14.1454    2.0830   21.6634 H   0  0  0  0  0  0  0  0  0  0  0  0
    3.2714    2.7876   19.3199 H   0  0  0  0  0  0  0  0  0  0  0  0
    3.6283    2.0091   21.6296 H   0  0  0  0  0  0  0  0  0  0  0  0
   11.8009   -0.2197   25.3819 H   0  0  0  0  0  0  0  0  0  0  0  0
   11.6798    2.1907   21.8134 H   0  0  0  0  0  0  0  0  0  0  0  0
    4.7824    2.0670   17.4883 H   0  0  0  0  0  0  0  0  0  0  0  0
    5.4937    0.4574   22.1805 H   0  0  0  0  0  0  0  0  0  0  0  0
    7.5951   -0.7786   24.8000 H   0  0  0  0  0  0  0  0  0  0  0  0
   11.0406   -2.1866   22.6351 H   0  0  0  0  0  0  0  0  0  0  0  0
    7.5664   -2.8674   26.1055 H   0  0  0  0  0  0  0  0  0  0  0  0
   11.0119   -4.2671   23.9461 H   0  0  0  0  0  0  0  0  0  0  0  0
    8.3309   -5.9652   27.3009 H   0  0  0  0  0  0  0  0  0  0  0  0
    7.2574   -4.9205   26.3189 H   0  0  0  0  0  0  0  0  0  0  0  0
    8.3380   -4.1983   27.5400 H   0  0  0  0  0  0  0  0  0  0  0  0
    9.7577    1.0183   24.7472 H   0  0  0  0  0  0  0  0  0  0  0  0
    9.7009    1.9923   23.2775 H   0  0  0  0  0  0  0  0  0  0  0  0
    8.1044   -1.8183   21.3422 H   0  0  0  0  0  0  0  0  0  0  0  0
  1  2  1  0  0  0  0
  1  3  2  0  0  0  0
  2  6  2  0  0  0  0
  3  7  1  0  0  0  0
  4  5  1  0  0  0  0
  4  8  2  0  0  0  0
  5  9  2  0  0  0  0
  6 14  1  0  0  0  0
  7 14  2  0  0  0  0
  8 15  1  0  0  0  0
  9 16  1  0  0  0  0
 10 12  2  0  0  0  0
 10 17  1  0  0  0  0
 11 13  1  0  0  0  0
 11 17  2  0  0  0  0
 12 18  1  0  0  0  0
 13 18  2  0  0  0  0
 14 21  1  0  0  0  0
 15 16  2  0  0  0  0
 15 22  1  0  0  0  0
 16 24  1  0  0  0  0
 17 26  1  0  0  0  0
 18 28  1  0  0  0  0
 19 25  1  0  0  0  0
 19 26  1  0  0  0  0
 19 27  2  0  0  0  0
 20 28  1  0  0  0  0
 21 26  1  0  0  0  0
 22 23  2  0  0  0  0
 23 24  1  0  0  0  0
 24 25  1  0  0  0  0
  1 29  1  0  0  0  0
  2 30  1  0  0  0  0
  3 31  1  0  0  0  0
  4 32  1  0  0  0  0
  5 33  1  0  0  0  0
  6 34  1  0  0  0  0
  7 35  1  0  0  0  0
  8 36  1  0  0  0  0
  9 37  1  0  0  0  0
 10 38  1  0  0  0  0
 11 39  1  0  0  0  0
 12 40  1  0  0  0  0
 13 41  1  0  0  0  0
 20 42  1  0  0  0  0
 20 43  1  0  0  0  0
 20 44  1  0  0  0  0
 21 45  1  0  0  0  0
 21 46  1  0  0  0  0
 25 47  1  0  0  0  0
M  END
> <clash_score>
0

> <docking_score>
-8.761578559875488

> <overlap_score>
0.9941948056221008

$$$$
BENZO_16_1
  -OEChem-08232013473D

 44 47  0     0  0  0  0  0  0999 V2000
    4.0980    2.1130   19.5350 C   0  0  0  0  0  0  0  0  0  0  0  0
    4.2970    1.6690   20.8430 C   0  0  0  0  0  0  0  0  0  0  0  0
    4.9400    1.7060   18.5060 C   0  0  0  0  0  0  0  0  0  0  0  0
    5.3360    0.8000   21.1530 C   0  0  0  0  0  0  0  0  0  0  0  0
    8.3510   -1.5420   24.6110 C   0  0  0  0  0  0  0  0  0  0  0  0
   10.2760   -2.3270   23.4020 C   0  0  0  0  0  0  0  0  0  0  0  0
    8.3310   -2.7170   25.3430 C   0  0  0  0  0  0  0  0  0  0  0  0
   10.2570   -3.5000   24.1350 C   0  0  0  0  0  0  0  0  0  0  0  0
   12.2998    1.0221   22.3796 C   0  0  0  0  0  0  0  0  0  0  0  0
   13.6611    0.9485   22.5771 C   0  0  0  0  0  0  0  0  0  0  0  0
   12.4159    0.8972   24.6976 C   0  0  0  0  0  0  0  0  0  0  0  0
   11.5784    0.9926   23.6079 C   0  0  0  0  0  0  0  0  0  0  0  0
    5.9810    0.8330   18.8060 C   0  0  0  0  0  0  0  0  0  0  0  0
    6.1600    0.3870   20.1140 C   0  0  0  0  0  0  0  0  0  0  0  0
    9.3300   -1.3350   23.6390 C   0  0  0  0  0  0  0  0  0  0  0  0
    9.2850   -3.7090   25.1090 C   0  0  0  0  0  0  0  0  0  0  0  0
    8.9510    0.1280   21.6880 C   0  0  0  0  0  0  0  0  0  0  0  0
    8.2346   -4.9976   26.8023 C   0  0  0  0  0  0  0  0  0  0  0  0
   10.0813    1.0569   23.7013 C   0  0  0  0  0  0  0  0  0  0  0  0
    6.9440    0.2550   18.0100 N   0  0  0  0  0  0  0  0  0  0  0  0
    7.6830   -0.5170   18.7600 N   0  0  0  0  0  0  0  0  0  0  0  0
    7.2210   -0.4620   20.0350 N   0  0  0  0  0  0  0  0  0  0  0  0
    8.0810   -0.9750   21.0820 N   0  0  0  0  0  0  0  0  0  0  0  0
    9.4200   -0.0840   22.9530 N   0  0  0  0  0  0  0  0  0  0  0  0
    9.1870    1.1500   21.0630 O   0  0  0  0  0  0  0  0  0  0  0  0
    9.2631   -4.8614   25.8229 O   0  0  0  0  0  0  0  0  0  0  0  0
   14.0646    0.8440   24.2381 S   0  0  0  0  0  0  0  0  0  0  0  0
    3.2714    2.7876   19.3199 H   0  0  0  0  0  0  0  0  0  0  0  0
    3.6283    2.0091   21.6296 H   0  0  0  0  0  0  0  0  0  0  0  0
    4.7824    2.0670   17.4883 H   0  0  0  0  0  0  0  0  0  0  0  0
    5.4937    0.4574   22.1805 H   0  0  0  0  0  0  0  0  0  0  0  0
    7.5951   -0.7786   24.8000 H   0  0  0  0  0  0  0  0  0  0  0  0
   11.0406   -2.1866   22.6351 H   0  0  0  0  0  0  0  0  0  0  0  0
    7.5664   -2.8674   26.1055 H   0  0  0  0  0  0  0  0  0  0  0  0
   11.0119   -4.2671   23.9461 H   0  0  0  0  0  0  0  0  0  0  0  0
   11.8472    1.0933   21.3986 H   0  0  0  0  0  0  0  0  0  0  0  0
   14.4380    0.9502   21.8257 H   0  0  0  0  0  0  0  0  0  0  0  0
   12.1426    0.8547   25.7429 H   0  0  0  0  0  0  0  0  0  0  0  0
    8.3309   -5.9652   27.3009 H   0  0  0  0  0  0  0  0  0  0  0  0
    7.2574   -4.9205   26.3189 H   0  0  0  0  0  0  0  0  0  0  0  0
    8.3380   -4.1983   27.5400 H   0  0  0  0  0  0  0  0  0  0  0  0
    9.7577    1.0183   24.7472 H   0  0  0  0  0  0  0  0  0  0  0  0
    9.7009    1.9923   23.2775 H   0  0  0  0  0  0  0  0  0  0  0  0
    8.1044   -1.8183   21.3422 H   0  0  0  0  0  0  0  0  0  0  0  0
  1  2  1  0  0  0  0
  1  3  2  0  0  0  0
  2  4  2  0  0  0  0
  3 13  1  0  0  0  0
  4 14  1  0  0  0  0
  5  7  2  0  0  0  0
  5 15  1  0  0  0  0
  6  8  1  0  0  0  0
  6 15  2  0  0  0  0
  7 16  1  0  0  0  0
  8 16  2  0  0  0  0
  9 10  2  0  0  0  0
  9 12  1  0  0  0  0
 10 27  1  0  0  0  0
 11 12  2  0  0  0  0
 11 27  1  0  0  0  0
 12 19  1  0  0  0  0
 13 14  2  0  0  0  0
 13 20  1  0  0  0  0
 14 22  1  0  0  0  0
 15 24  1  0  0  0  0
 16 26  1  0  0  0  0
 17 23  1  0  0  0  0
 17 24  1  0  0  0  0
 17 25  2  0  0  0  0
 18 26  1  0  0  0  0
 19 24  1  0  0  0  0
 20 21  2  0  0  0  0
 21 22  1  0  0  0  0
 22 23  1  0  0  0  0
  1 28  1  0  0  0  0
  2 29  1  0  0  0  0
  3 30  1  0  0  0  0
  4 31  1  0  0  0  0
  5 32  1  0  0  0  0
  6 33  1  0  0  0  0
  7 34  1  0  0  0  0
  8 35  1  0  0  0  0
  9 36  1  0  0  0  0
 10 37  1  0  0  0  0
 11 38  1  0  0  0  0
 18 39  1  0  0  0  0
 18 40  1  0  0  0  0
 18 41  1  0  0  0  0
 19 42  1  0  0  0  0
 19 43  1  0  0  0  0
 23 44  1  0  0  0  0
M  END
> <clash_score>
0

> <docking_score>
-9.056109428405762

> <overlap_score>
0.968285322189331

$$$$
BENZO_19_1
  -OEChem-08232013473D

 47 50  0     0  0  0  0  0  0999 V2000
    4.0980    2.1130   19.5350 C   0  0  0  0  0  0  0  0  0  0  0  0
    4.2970    1.6690   20.8430 C   0  0  0  0  0  0  0  0  0  0  0  0
    4.9400    1.7060   18.5060 C   0  0  0  0  0  0  0  0  0  0  0  0
    5.3360    0.8000   21.1530 C   0  0  0  0  0  0  0  0  0  0  0  0
    8.3510   -1.5420   24.6110 C   0  0  0  0  0  0  0  0  0  0  0  0
   10.2760   -2.3270   23.4020 C   0  0  0  0  0  0  0  0  0  0  0  0
    8.3310   -2.7170   25.3430 C   0  0  0  0  0  0  0  0  0  0  0  0
   10.2570   -3.5000   24.1350 C   0  0  0  0  0  0  0  0  0  0  0  0
   12.5230    1.6974   24.3778 C   0  0  0  0  0  0  0  0  0  0  0  0
   12.3340    0.2290   22.7520 C   0  0  0  0  0  0  0  0  0  0  0  0
   11.5784    0.9926   23.6079 C   0  0  0  0  0  0  0  0  0  0  0  0
    5.9810    0.8330   18.8060 C   0  0  0  0  0  0  0  0  0  0  0  0
    6.1600    0.3870   20.1140 C   0  0  0  0  0  0  0  0  0  0  0  0
    9.3300   -1.3350   23.6390 C   0  0  0  0  0  0  0  0  0  0  0  0
    9.2850   -3.7090   25.1090 C   0  0  0  0  0  0  0  0  0  0  0  0
    8.9510    0.1280   21.6880 C   0  0  0  0  0  0  0  0  0  0  0  0
   14.8007   -0.0508   22.4122 C   0  0  0  0  0  0  0  0  0  0  0  0
    8.2346   -4.9976   26.8023 C   0  0  0  0  0  0  0  0  0  0  0  0
   10.0813    1.0569   23.7013 C   0  0  0  0  0  0  0  0  0  0  0  0
   13.7825    1.4073   24.0409 N   0  0  0  0  0  0  0  0  0  0  0  0
    6.9440    0.2550   18.0100 N   0  0  0  0  0  0  0  0  0  0  0  0
    7.6830   -0.5170   18.7600 N   0  0  0  0  0  0  0  0  0  0  0  0
   13.6346    0.5117   23.0499 N   0  0  0  0  0  0  0  0  0  0  0  0
    7.2210   -0.4620   20.0350 N   0  0  0  0  0  0  0  0  0  0  0  0
    8.0810   -0.9750   21.0820 N   0  0  0  0  0  0  0  0  0  0  0  0
    9.4200   -0.0840   22.9530 N   0  0  0  0  0  0  0  0  0  0  0  0
    9.1870    1.1500   21.0630 O   0  0  0  0  0  0  0  0  0  0  0  0
    9.2631   -4.8614   25.8229 O   0  0  0  0  0  0  0  0  0  0  0  0
    3.2714    2.7876   19.3199 H   0  0  0  0  0  0  0  0  0  0  0  0
    3.6283    2.0091   21.6296 H   0  0  0  0  0  0  0  0  0  0  0  0
    4.7824    2.0670   17.4883 H   0  0  0  0  0  0  0  0  0  0  0  0
    5.4937    0.4574   22.1805 H   0  0  0  0  0  0  0  0  0  0  0  0
    7.5951   -0.7786   24.8000 H   0  0  0  0  0  0  0  0  0  0  0  0
   11.0406   -2.1866   22.6351 H   0  0  0  0  0  0  0  0  0  0  0  0
    7.5664   -2.8674   26.1055 H   0  0  0  0  0  0  0  0  0  0  0  0
   11.0119   -4.2671   23.9461 H   0  0  0  0  0  0  0  0  0  0  0  0
   12.3485    2.4102   25.1714 H   0  0  0  0  0  0  0  0  0  0  0  0
   12.0637   -0.4749   21.9765 H   0  0  0  0  0  0  0  0  0  0  0  0
   15.0649    0.5899   21.5668 H   0  0  0  0  0  0  0  0  0  0  0  0
   15.6237   -0.0939   23.1311 H   0  0  0  0  0  0  0  0  0  0  0  0
   14.5717   -1.0635   22.0688 H   0  0  0  0  0  0  0  0  0  0  0  0
    8.3309   -5.9652   27.3009 H   0  0  0  0  0  0  0  0  0  0  0  0
    7.2574   -4.9205   26.3189 H   0  0  0  0  0  0  0  0  0  0  0  0
    8.3380   -4.1983   27.5400 H   0  0  0  0  0  0  0  0  0  0  0  0
    9.7577    1.0183   24.7472 H   0  0  0  0  0  0  0  0  0  0  0  0
    9.7009    1.9923   23.2775 H   0  0  0  0  0  0  0  0  0  0  0  0
    8.1044   -1.8183   21.3422 H   0  0  0  0  0  0  0  0  0  0  0  0
  1  2  1  0  0  0  0
  1  3  2  0  0  0  0
  2  4  2  0  0  0  0
  3 12  1  0  0  0  0
  4 13  1  0  0  0  0
  5  7  2  0  0  0  0
  5 14  1  0  0  0  0
  6  8  1  0  0  0  0
  6 14  2  0  0  0  0
  7 15  1  0  0  0  0
  8 15  2  0  0  0  0
  9 11  1  0  0  0  0
  9 20  2  0  0  0  0
 10 11  2  0  0  0  0
 10 23  1  0  0  0  0
 11 19  1  0  0  0  0
 12 13  2  0  0  0  0
 12 21  1  0  0  0  0
 13 24  1  0  0  0  0
 14 26  1  0  0  0  0
 15 28  1  0  0  0  0
 16 25  1  0  0  0  0
 16 26  1  0  0  0  0
 16 27  2  0  0  0  0
 17 23  1  0  0  0  0
 18 28  1  0  0  0  0
 19 26  1  0  0  0  0
 20 23  1  0  0  0  0
 21 22  2  0  0  0  0
 22 24  1  0  0  0  0
 24 25  1  0  0  0  0
  1 29  1  0  0  0  0
  2 30  1  0  0  0  0
  3 31  1  0  0  0  0
  4 32  1  0  0  0  0
  5 33  1  0  0  0  0
  6 34  1  0  0  0  0
  7 35  1  0  0  0  0
  8 36  1  0  0  0  0
  9 37  1  0  0  0  0
 10 38  1  0  0  0  0
 17 39  1  0  0  0  0
 17 40  1  0  0  0  0
 17 41  1  0  0  0  0
 18 42  1  0  0  0  0
 18 43  1  0  0  0  0
 18 44  1  0  0  0  0
 19 45  1  0  0  0  0
 19 46  1  0  0  0  0
 25 47  1  0  0  0  0
M  END
> <clash_score>
0

> <docking_score>
-8.943873405456543

> <overlap_score>
0.979053258895874

$$$$
BENZO_18_1
  -OEChem-08232013473D

 47 50  0     0  0  0  0  0  0999 V2000
    4.0980    2.1130   19.5350 C   0  0  0  0  0  0  0  0  0  0  0  0
    4.2970    1.6690   20.8430 C   0  0  0  0  0  0  0  0  0  0  0  0
   13.7546    1.7090   24.3744 C   0  0  0  0  0  0  0  0  0  0  0  0
   12.3637    1.7692   24.4599 C   0  0  0  0  0  0  0  0  0  0  0  0
    4.9400    1.7060   18.5060 C   0  0  0  0  0  0  0  0  0  0  0  0
    5.3360    0.8000   21.1530 C   0  0  0  0  0  0  0  0  0  0  0  0
    8.3510   -1.5420   24.6110 C   0  0  0  0  0  0  0  0  0  0  0  0
   10.2760   -2.3270   23.4020 C   0  0  0  0  0  0  0  0  0  0  0  0
    8.3310   -2.7170   25.3430 C   0  0  0  0  0  0  0  0  0  0  0  0
   10.2570   -3.5000   24.1350 C   0  0  0  0  0  0  0  0  0  0  0  0
   14.3602    0.8723   23.4369 C   0  0  0  0  0  0  0  0  0  0  0  0
   12.1840    0.1558   22.6704 C   0  0  0  0  0  0  0  0  0  0  0  0
   11.5784    0.9926   23.6079 C   0  0  0  0  0  0  0  0  0  0  0  0
    5.9810    0.8330   18.8060 C   0  0  0  0  0  0  0  0  0  0  0  0
    6.1600    0.3870   20.1140 C   0  0  0  0  0  0  0  0  0  0  0  0
    9.3300   -1.3350   23.6390 C   0  0  0  0  0  0  0  0  0  0  0  0
    9.2850   -3.7090   25.1090 C   0  0  0  0  0  0  0  0  0  0  0  0
   13.5749    0.0957   22.5849 C   0  0  0  0  0  0  0  0  0  0  0  0
    8.9510    0.1280   21.6880 C   0  0  0  0  0  0  0  0  0  0  0  0
    8.2346   -4.9976   26.8023 C   0  0  0  0  0  0  0  0  0  0  0  0
   10.0813    1.0569   23.7013 C   0  0  0  0  0  0  0  0  0  0  0  0
    6.9440    0.2550   18.0100 N   0  0  0  0  0  0  0  0  0  0  0  0
    7.6830   -0.5170   18.7600 N   0  0  0  0  0  0  0  0  0  0  0  0
    7.2210   -0.4620   20.0350 N   0  0  0  0  0  0  0  0  0  0  0  0
    8.0810   -0.9750   21.0820 N   0  0  0  0  0  0  0  0  0  0  0  0
    9.4200   -0.0840   22.9530 N   0  0  0  0  0  0  0  0  0  0  0  0
    9.1870    1.1500   21.0630 O   0  0  0  0  0  0  0  0  0  0  0  0
    9.2631   -4.8614   25.8229 O   0  0  0  0  0  0  0  0  0  0  0  0
   14.3227   -0.9372   21.4293 Cl  0  0  0  0  0  0  0  0  0  0  0  0
    3.2714    2.7876   19.3199 H   0  0  0  0  0  0  0  0  0  0  0  0
    3.6283    2.0091   21.6296 H   0  0  0  0  0  0  0  0  0  0  0  0
   14.3658    2.3138   25.0381 H   0  0  0  0  0  0  0  0  0  0  0  0
   11.9004    2.4238   25.1934 H   0  0  0  0  0  0  0  0  0  0  0  0
    4.7824    2.0670   17.4883 H   0  0  0  0  0  0  0  0  0  0  0  0
    5.4937    0.4574   22.1805 H   0  0  0  0  0  0  0  0  0  0  0  0
    7.5951   -0.7786   24.8000 H   0  0  0  0  0  0  0  0  0  0  0  0
   11.0406   -2.1866   22.6351 H   0  0  0  0  0  0  0  0  0  0  0  0
    7.5664   -2.8674   26.1055 H   0  0  0  0  0  0  0  0  0  0  0  0
   11.0119   -4.2671   23.9461 H   0  0  0  0  0  0  0  0  0  0  0  0
   15.4454    0.8354   23.3817 H   0  0  0  0  0  0  0  0  0  0  0  0
   11.5673   -0.4473   22.0081 H   0  0  0  0  0  0  0  0  0  0  0  0
    8.3309   -5.9652   27.3009 H   0  0  0  0  0  0  0  0  0  0  0  0
    7.2574   -4.9205   26.3189 H   0  0  0  0  0  0  0  0  0  0  0  0
    8.3380   -4.1983   27.5400 H   0  0  0  0  0  0  0  0  0  0  0  0
    9.7577    1.0183   24.7472 H   0  0  0  0  0  0  0  0  0  0  0  0
    9.7009    1.9923   23.2775 H   0  0  0  0  0  0  0  0  0  0  0  0
    8.1044   -1.8183   21.3422 H   0  0  0  0  0  0  0  0  0  0  0  0
  1  2  1  0  0  0  0
  1  5  2  0  0  0  0
  2  6  2  0  0  0  0
  3  4  2  0  0  0  0
  3 11  1  0  0  0  0
  4 13  1  0  0  0  0
  5 14  1  0  0  0  0
  6 15  1  0  0  0  0
  7  9  2  0  0  0  0
  7 16  1  0  0  0  0
  8 10  1  0  0  0  0
  8 16  2  0  0  0  0
  9 17  1  0  0  0  0
 10 17  2  0  0  0  0
 11 18  2  0  0  0  0
 12 13  2  0  0  0  0
 12 18  1  0  0  0  0
 13 21  1  0  0  0  0
 14 15  2  0  0  0  0
 14 22  1  0  0  0  0
 15 24  1  0  0  0  0
 16 26  1  0  0  0  0
 17 28  1  0  0  0  0
 18 29  1  0  0  0  0
 19 25  1  0  0  0  0
 19 26  1  0  0  0  0
 19 27  2  0  0  0  0
 20 28  1  0  0  0  0
 21 26  1  0  0  0  0
 22 23  2  0  0  0  0
 23 24  1  0  0  0  0
 24 25  1  0  0  0  0
  1 30  1  0  0  0  0
  2 31  1  0  0  0  0
  3 32  1  0  0  0  0
  4 33  1  0  0  0  0
  5 34  1  0  0  0  0
  6 35  1  0  0  0  0
  7 36  1  0  0  0  0
  8 37  1  0  0  0  0
  9 38  1  0  0  0  0
 10 39  1  0  0  0  0
 11 40  1  0  0  0  0
 12 41  1  0  0  0  0
 20 42  1  0  0  0  0
 20 43  1  0  0  0  0
 20 44  1  0  0  0  0
 21 45  1  0  0  0  0
 21 46  1  0  0  0  0
 25 47  1  0  0  0  0
M  END
> <clash_score>
0

> <docking_score>
-8.10385799407959

> <overlap_score>
0.9739869236946106

$$$$
BENZO_21_1
  -OEChem-08232013473D

 57 61  0     0  0  0  0  0  0999 V2000
   14.3601    0.8574   23.4604 C   0  0  0  0  0  0  0  0  0  0  0  0
   13.6842    0.2431   24.5146 C   0  0  0  0  0  0  0  0  0  0  0  0
   13.6449    1.5438   22.4790 C   0  0  0  0  0  0  0  0  0  0  0  0
    4.0980    2.1130   19.5350 C   0  0  0  0  0  0  0  0  0  0  0  0
    4.2970    1.6690   20.8430 C   0  0  0  0  0  0  0  0  0  0  0  0
   12.2931    0.3150   24.5874 C   0  0  0  0  0  0  0  0  0  0  0  0
   12.2538    1.6157   22.5518 C   0  0  0  0  0  0  0  0  0  0  0  0
    4.9400    1.7060   18.5060 C   0  0  0  0  0  0  0  0  0  0  0  0
    5.3360    0.8000   21.1530 C   0  0  0  0  0  0  0  0  0  0  0  0
    8.3310   -2.7170   25.3430 C   0  0  0  0  0  0  0  0  0  0  0  0
   10.2570   -3.5000   24.1350 C   0  0  0  0  0  0  0  0  0  0  0  0
    8.3510   -1.5420   24.6110 C   0  0  0  0  0  0  0  0  0  0  0  0
   10.2760   -2.3270   23.4020 C   0  0  0  0  0  0  0  0  0  0  0  0
   11.5778    1.0013   23.6060 C   0  0  0  0  0  0  0  0  0  0  0  0
    5.9810    0.8330   18.8060 C   0  0  0  0  0  0  0  0  0  0  0  0
    6.1600    0.3870   20.1140 C   0  0  0  0  0  0  0  0  0  0  0  0
    9.2850   -3.7090   25.1090 C   0  0  0  0  0  0  0  0  0  0  0  0
    9.3300   -1.3350   23.6390 C   0  0  0  0  0  0  0  0  0  0  0  0
    8.0635   -5.4710   26.3667 C   0  0  0  0  0  0  0  0  0  0  0  0
    8.9510    0.1280   21.6880 C   0  0  0  0  0  0  0  0  0  0  0  0
    8.2626   -6.7580   27.1475 C   0  0  0  0  0  0  0  0  0  0  0  0
    9.4048   -6.6156   28.1380 C   0  0  0  0  0  0  0  0  0  0  0  0
   10.6949   -6.1500   27.4702 C   0  0  0  0  0  0  0  0  0  0  0  0
   10.4942   -5.7069   26.0219 C   0  0  0  0  0  0  0  0  0  0  0  0
   10.0805    1.0790   23.6836 C   0  0  0  0  0  0  0  0  0  0  0  0
    6.9440    0.2550   18.0100 N   0  0  0  0  0  0  0  0  0  0  0  0
    7.6830   -0.5170   18.7600 N   0  0  0  0  0  0  0  0  0  0  0  0
    7.2210   -0.4620   20.0350 N   0  0  0  0  0  0  0  0  0  0  0  0
    9.2623   -4.9266   25.8635 N   0  0  0  0  0  0  0  0  0  0  0  0
    8.0810   -0.9750   21.0820 N   0  0  0  0  0  0  0  0  0  0  0  0
    9.4200   -0.0840   22.9530 N   0  0  0  0  0  0  0  0  0  0  0  0
    6.9244   -5.0476   26.1739 O   0  0  0  0  0  0  0  0  0  0  0  0
    9.1870    1.1500   21.0630 O   0  0  0  0  0  0  0  0  0  0  0  0
   15.4433    0.8024   23.4047 H   0  0  0  0  0  0  0  0  0  0  0  0
   14.2409   -0.2905   25.2794 H   0  0  0  0  0  0  0  0  0  0  0  0
   14.1709    2.0232   21.6588 H   0  0  0  0  0  0  0  0  0  0  0  0
    3.2714    2.7876   19.3199 H   0  0  0  0  0  0  0  0  0  0  0  0
    3.6283    2.0091   21.6296 H   0  0  0  0  0  0  0  0  0  0  0  0
   11.7748   -0.1669   25.4123 H   0  0  0  0  0  0  0  0  0  0  0  0
   11.7049    2.1526   21.7826 H   0  0  0  0  0  0  0  0  0  0  0  0
    4.7824    2.0670   17.4883 H   0  0  0  0  0  0  0  0  0  0  0  0
    5.4937    0.4574   22.1805 H   0  0  0  0  0  0  0  0  0  0  0  0
    7.5639   -2.8621   26.1045 H   0  0  0  0  0  0  0  0  0  0  0  0
   11.0141   -4.2644   23.9422 H   0  0  0  0  0  0  0  0  0  0  0  0
    7.5950   -0.7788   24.8007 H   0  0  0  0  0  0  0  0  0  0  0  0
   11.0408   -2.1861   22.6359 H   0  0  0  0  0  0  0  0  0  0  0  0
    7.3516   -6.9810   27.6812 H   0  0  0  0  0  0  0  0  0  0  0  0
    8.4757   -7.5428   26.4371 H   0  0  0  0  0  0  0  0  0  0  0  0
    9.1234   -5.9016   28.9400 H   0  0  0  0  0  0  0  0  0  0  0  0
    9.5778   -7.5840   28.6491 H   0  0  0  0  0  0  0  0  0  0  0  0
   11.1305   -5.3108   28.0523 H   0  0  0  0  0  0  0  0  0  0  0  0
   11.4565   -6.9587   27.5131 H   0  0  0  0  0  0  0  0  0  0  0  0
   11.3212   -5.0729   25.7168 H   0  0  0  0  0  0  0  0  0  0  0  0
   10.4483   -6.5796   25.3796 H   0  0  0  0  0  0  0  0  0  0  0  0
    9.7447    1.0292   24.7251 H   0  0  0  0  0  0  0  0  0  0  0  0
    9.7139    2.0237   23.2685 H   0  0  0  0  0  0  0  0  0  0  0  0
    8.1334   -1.7991   21.3673 H   0  0  0  0  0  0  0  0  0  0  0  0
  1  2  1  0  0  0  0
  1  3  2  0  0  0  0
  2  6  2  0  0  0  0
  3  7  1  0  0  0  0
  4  5  1  0  0  0  0
  4  8  2  0  0  0  0
  5  9  2  0  0  0  0
  6 14  1  0  0  0  0
  7 14  2  0  0  0  0
  8 15  1  0  0  0  0
  9 16  1  0  0  0  0
 10 12  2  0  0  0  0
 10 17  1  0  0  0  0
 11 13  1  0  0  0  0
 11 17  2  0  0  0  0
 12 18  1  0  0  0  0
 13 18  2  0  0  0  0
 14 25  1  0  0  0  0
 15 16  2  0  0  0  0
 15 26  1  0  0  0  0
 16 28  1  0  0  0  0
 17 29  1  0  0  0  0
 18 31  1  0  0  0  0
 19 21  1  0  0  0  0
 19 29  1  0  0  0  0
 19 32  2  0  0  0  0
 20 30  1  0  0  0  0
 20 31  1  0  0  0  0
 20 33  2  0  0  0  0
 21 22  1  0  0  0  0
 22 23  1  0  0  0  0
 23 24  1  0  0  0  0
 24 29  1  0  0  0  0
 25 31  1  0  0  0  0
 26 27  2  0  0  0  0
 27 28  1  0  0  0  0
 28 30  1  0  0  0  0
  1 34  1  0  0  0  0
  2 35  1  0  0  0  0
  3 36  1  0  0  0  0
  4 37  1  0  0  0  0
  5 38  1  0  0  0  0
  6 39  1  0  0  0  0
  7 40  1  0  0  0  0
  8 41  1  0  0  0  0
  9 42  1  0  0  0  0
 10 43  1  0  0  0  0
 11 44  1  0  0  0  0
 12 45  1  0  0  0  0
 13 46  1  0  0  0  0
 21 47  1  0  0  0  0
 21 48  1  0  0  0  0
 22 49  1  0  0  0  0
 22 50  1  0  0  0  0
 23 51  1  0  0  0  0
 23 52  1  0  0  0  0
 24 53  1  0  0  0  0
 24 54  1  0  0  0  0
 25 55  1  0  0  0  0
 25 56  1  0  0  0  0
 30 57  1  0  0  0  0
M  END
> <clash_score>
1.2727800107838716

> <docking_score>
-7.246953010559082

> <overlap_score>
1.0134845972061157

$$$$
BENZO_20_1
  -OEChem-08232013473D

 54 58  0     0  0  0  0  0  0999 V2000
    4.0980    2.1130   19.5350 C   0  0  0  0  0  0  0  0  0  0  0  0
    4.2970    1.6690   20.8430 C   0  0  0  0  0  0  0  0  0  0  0  0
    4.9400    1.7060   18.5060 C   0  0  0  0  0  0  0  0  0  0  0  0
    5.3360    0.8000   21.1530 C   0  0  0  0  0  0  0  0  0  0  0  0
    8.3310   -2.7170   25.3430 C   0  0  0  0  0  0  0  0  0  0  0  0
   10.2570   -3.5000   24.1350 C   0  0  0  0  0  0  0  0  0  0  0  0
    8.3510   -1.5420   24.6110 C   0  0  0  0  0  0  0  0  0  0  0  0
   10.2760   -2.3270   23.4020 C   0  0  0  0  0  0  0  0  0  0  0  0
   12.3134    1.0407   22.3863 C   0  0  0  0  0  0  0  0  0  0  0  0
   13.6716    0.9511   22.5980 C   0  0  0  0  0  0  0  0  0  0  0  0
   12.4020    0.8829   24.7035 C   0  0  0  0  0  0  0  0  0  0  0  0
   11.5778    1.0013   23.6060 C   0  0  0  0  0  0  0  0  0  0  0  0
    5.9810    0.8330   18.8060 C   0  0  0  0  0  0  0  0  0  0  0  0
    6.1600    0.3870   20.1140 C   0  0  0  0  0  0  0  0  0  0  0  0
    9.2850   -3.7090   25.1090 C   0  0  0  0  0  0  0  0  0  0  0  0
    9.3300   -1.3350   23.6390 C   0  0  0  0  0  0  0  0  0  0  0  0
    8.0635   -5.4710   26.3667 C   0  0  0  0  0  0  0  0  0  0  0  0
    8.9510    0.1280   21.6880 C   0  0  0  0  0  0  0  0  0  0  0  0
    8.2626   -6.7580   27.1475 C   0  0  0  0  0  0  0  0  0  0  0  0
    9.4048   -6.6156   28.1380 C   0  0  0  0  0  0  0  0  0  0  0  0
   10.6949   -6.1500   27.4702 C   0  0  0  0  0  0  0  0  0  0  0  0
   10.4942   -5.7069   26.0219 C   0  0  0  0  0  0  0  0  0  0  0  0
   10.0805    1.0790   23.6836 C   0  0  0  0  0  0  0  0  0  0  0  0
    6.9440    0.2550   18.0100 N   0  0  0  0  0  0  0  0  0  0  0  0
    7.6830   -0.5170   18.7600 N   0  0  0  0  0  0  0  0  0  0  0  0
    7.2210   -0.4620   20.0350 N   0  0  0  0  0  0  0  0  0  0  0  0
    9.2623   -4.9266   25.8635 N   0  0  0  0  0  0  0  0  0  0  0  0
    8.0810   -0.9750   21.0820 N   0  0  0  0  0  0  0  0  0  0  0  0
    9.4200   -0.0840   22.9530 N   0  0  0  0  0  0  0  0  0  0  0  0
    6.9244   -5.0476   26.1739 O   0  0  0  0  0  0  0  0  0  0  0  0
    9.1870    1.1500   21.0630 O   0  0  0  0  0  0  0  0  0  0  0  0
   14.0552    0.8200   24.2617 S   0  0  0  0  0  0  0  0  0  0  0  0
    3.2714    2.7876   19.3199 H   0  0  0  0  0  0  0  0  0  0  0  0
    3.6283    2.0091   21.6296 H   0  0  0  0  0  0  0  0  0  0  0  0
    4.7824    2.0670   17.4883 H   0  0  0  0  0  0  0  0  0  0  0  0
    5.4937    0.4574   22.1805 H   0  0  0  0  0  0  0  0  0  0  0  0
    7.5639   -2.8621   26.1045 H   0  0  0  0  0  0  0  0  0  0  0  0
   11.0141   -4.2644   23.9422 H   0  0  0  0  0  0  0  0  0  0  0  0
    7.5950   -0.7788   24.8007 H   0  0  0  0  0  0  0  0  0  0  0  0
   11.0408   -2.1861   22.6359 H   0  0  0  0  0  0  0  0  0  0  0  0
   11.8726    1.1298   21.4014 H   0  0  0  0  0  0  0  0  0  0  0  0
   14.4569    0.9556   21.8554 H   0  0  0  0  0  0  0  0  0  0  0  0
   12.1166    0.8287   25.7450 H   0  0  0  0  0  0  0  0  0  0  0  0
    7.3516   -6.9810   27.6812 H   0  0  0  0  0  0  0  0  0  0  0  0
    8.4757   -7.5428   26.4371 H   0  0  0  0  0  0  0  0  0  0  0  0
    9.1234   -5.9016   28.9400 H   0  0  0  0  0  0  0  0  0  0  0  0
    9.5778   -7.5840   28.6491 H   0  0  0  0  0  0  0  0  0  0  0  0
   11.1305   -5.3108   28.0523 H   0  0  0  0  0  0  0  0  0  0  0  0
   11.4565   -6.9587   27.5131 H   0  0  0  0  0  0  0  0  0  0  0  0
   11.3212   -5.0729   25.7168 H   0  0  0  0  0  0  0  0  0  0  0  0
   10.4483   -6.5796   25.3796 H   0  0  0  0  0  0  0  0  0  0  0  0
    9.7447    1.0292   24.7251 H   0  0  0  0  0  0  0  0  0  0  0  0
    9.7139    2.0237   23.2685 H   0  0  0  0  0  0  0  0  0  0  0  0
    8.1334   -1.7991   21.3673 H   0  0  0  0  0  0  0  0  0  0  0  0
  1  2  1  0  0  0  0
  1  3  2  0  0  0  0
  2  4  2  0  0  0  0
  3 13  1  0  0  0  0
  4 14  1  0  0  0  0
  5  7  2  0  0  0  0
  5 15  1  0  0  0  0
  6  8  1  0  0  0  0
  6 15  2  0  0  0  0
  7 16  1  0  0  0  0
  8 16  2  0  0  0  0
  9 10  2  0  0  0  0
  9 12  1  0  0  0  0
 10 32  1  0  0  0  0
 11 12  2  0  0  0  0
 11 32  1  0  0  0  0
 12 23  1  0  0  0  0
 13 14  2  0  0  0  0
 13 24  1  0  0  0  0
 14 26  1  0  0  0  0
 15 27  1  0  0  0  0
 16 29  1  0  0  0  0
 17 19  1  0  0  0  0
 17 27  1  0  0  0  0
 17 30  2  0  0  0  0
 18 28  1  0  0  0  0
 18 29  1  0  0  0  0
 18 31  2  0  0  0  0
 19 20  1  0  0  0  0
 20 21  1  0  0  0  0
 21 22  1  0  0  0  0
 22 27  1  0  0  0  0
 23 29  1  0  0  0  0
 24 25  2  0  0  0  0
 25 26  1  0  0  0  0
 26 28  1  0  0  0  0
  1 33  1  0  0  0  0
  2 34  1  0  0  0  0
  3 35  1  0  0  0  0
  4 36  1  0  0  0  0
  5 37  1  0  0  0  0
  6 38  1  0  0  0  0
  7 39  1  0  0  0  0
  8 40  1  0  0  0  0
  9 41  1  0  0  0  0
 10 42  1  0  0  0  0
 11 43  1  0  0  0  0
 19 44  1  0  0  0  0
 19 45  1  0  0  0  0
 20 46  1  0  0  0  0
 20 47  1  0  0  0  0
 21 48  1  0  0  0  0
 21 49  1  0  0  0  0
 22 50  1  0  0  0  0
 22 51  1  0  0  0  0
 23 52  1  0  0  0  0
 23 53  1  0  0  0  0
 28 54  1  0  0  0  0
M  END
> <clash_score>
1.2727800107838716

> <docking_score>
-7.567419052124023

> <overlap_score>
0.9890045523643494

$$$$
BENZO_23_1
  -OEChem-08232013473D

 57 61  0     0  0  0  0  0  0999 V2000
    4.0980    2.1130   19.5350 C   0  0  0  0  0  0  0  0  0  0  0  0
    4.2970    1.6690   20.8430 C   0  0  0  0  0  0  0  0  0  0  0  0
    4.9400    1.7060   18.5060 C   0  0  0  0  0  0  0  0  0  0  0  0
    5.3360    0.8000   21.1530 C   0  0  0  0  0  0  0  0  0  0  0  0
    8.3310   -2.7170   25.3430 C   0  0  0  0  0  0  0  0  0  0  0  0
   10.2570   -3.5000   24.1350 C   0  0  0  0  0  0  0  0  0  0  0  0
    8.3510   -1.5420   24.6110 C   0  0  0  0  0  0  0  0  0  0  0  0
   10.2760   -2.3270   23.4020 C   0  0  0  0  0  0  0  0  0  0  0  0
   12.5204    1.6863   24.3960 C   0  0  0  0  0  0  0  0  0  0  0  0
   12.3357    0.2423   22.7481 C   0  0  0  0  0  0  0  0  0  0  0  0
   11.5778    1.0013   23.6060 C   0  0  0  0  0  0  0  0  0  0  0  0
    5.9810    0.8330   18.8060 C   0  0  0  0  0  0  0  0  0  0  0  0
    6.1600    0.3870   20.1140 C   0  0  0  0  0  0  0  0  0  0  0  0
    9.2850   -3.7090   25.1090 C   0  0  0  0  0  0  0  0  0  0  0  0
    9.3300   -1.3350   23.6390 C   0  0  0  0  0  0  0  0  0  0  0  0
    8.2930   -5.1714   26.8572 C   0  0  0  0  0  0  0  0  0  0  0  0
    8.9510    0.1280   21.6880 C   0  0  0  0  0  0  0  0  0  0  0  0
    8.4552   -6.5156   27.5444 C   0  0  0  0  0  0  0  0  0  0  0  0
    9.9019   -6.7444   27.9450 C   0  0  0  0  0  0  0  0  0  0  0  0
   10.8597   -6.5882   26.7680 C   0  0  0  0  0  0  0  0  0  0  0  0
   10.1895   -6.0108   25.5223 C   0  0  0  0  0  0  0  0  0  0  0  0
   14.8034   -0.0568   22.4320 C   0  0  0  0  0  0  0  0  0  0  0  0
   10.0805    1.0790   23.6836 C   0  0  0  0  0  0  0  0  0  0  0  0
   13.7808    1.3887   24.0692 N   0  0  0  0  0  0  0  0  0  0  0  0
    6.9440    0.2550   18.0100 N   0  0  0  0  0  0  0  0  0  0  0  0
    7.6830   -0.5170   18.7600 N   0  0  0  0  0  0  0  0  0  0  0  0
   13.6355    0.5082   23.0643 N   0  0  0  0  0  0  0  0  0  0  0  0
    7.2210   -0.4620   20.0350 N   0  0  0  0  0  0  0  0  0  0  0  0
    9.2623   -4.9266   25.8635 N   0  0  0  0  0  0  0  0  0  0  0  0
    8.0810   -0.9750   21.0820 N   0  0  0  0  0  0  0  0  0  0  0  0
    9.4200   -0.0840   22.9530 N   0  0  0  0  0  0  0  0  0  0  0  0
    7.3370   -4.4528   27.1463 O   0  0  0  0  0  0  0  0  0  0  0  0
    9.1870    1.1500   21.0630 O   0  0  0  0  0  0  0  0  0  0  0  0
    3.2714    2.7876   19.3199 H   0  0  0  0  0  0  0  0  0  0  0  0
    3.6283    2.0091   21.6296 H   0  0  0  0  0  0  0  0  0  0  0  0
    4.7824    2.0670   17.4883 H   0  0  0  0  0  0  0  0  0  0  0  0
    5.4937    0.4574   22.1805 H   0  0  0  0  0  0  0  0  0  0  0  0
    7.5639   -2.8621   26.1045 H   0  0  0  0  0  0  0  0  0  0  0  0
   11.0141   -4.2644   23.9422 H   0  0  0  0  0  0  0  0  0  0  0  0
    7.5950   -0.7788   24.8007 H   0  0  0  0  0  0  0  0  0  0  0  0
   11.0408   -2.1861   22.6359 H   0  0  0  0  0  0  0  0  0  0  0  0
   12.3438    2.3898   25.1974 H   0  0  0  0  0  0  0  0  0  0  0  0
   12.0675   -0.4482   21.9600 H   0  0  0  0  0  0  0  0  0  0  0  0
    7.8332   -6.5283   28.4263 H   0  0  0  0  0  0  0  0  0  0  0  0
    8.1305   -7.2788   26.8530 H   0  0  0  0  0  0  0  0  0  0  0  0
   10.1875   -6.0379   28.7521 H   0  0  0  0  0  0  0  0  0  0  0  0
   10.0116   -7.7568   28.3834 H   0  0  0  0  0  0  0  0  0  0  0  0
   11.7061   -5.9337   27.0644 H   0  0  0  0  0  0  0  0  0  0  0  0
   11.3230   -7.5689   26.5243 H   0  0  0  0  0  0  0  0  0  0  0  0
   10.9445   -5.5959   24.8614 H   0  0  0  0  0  0  0  0  0  0  0  0
    9.6461   -6.7954   25.0072 H   0  0  0  0  0  0  0  0  0  0  0  0
   15.0832    0.5928   21.5985 H   0  0  0  0  0  0  0  0  0  0  0  0
   15.6177   -0.1178   23.1593 H   0  0  0  0  0  0  0  0  0  0  0  0
   14.5686   -1.0625   22.0721 H   0  0  0  0  0  0  0  0  0  0  0  0
    9.7447    1.0292   24.7251 H   0  0  0  0  0  0  0  0  0  0  0  0
    9.7139    2.0237   23.2685 H   0  0  0  0  0  0  0  0  0  0  0  0
    8.1334   -1.7991   21.3673 H   0  0  0  0  0  0  0  0  0  0  0  0
  1  2  1  0  0  0  0
  1  3  2  0  0  0  0
  2  4  2  0  0  0  0
  3 12  1  0  0  0  0
  4 13  1  0  0  0  0
  5  7  2  0  0  0  0
  5 14  1  0  0  0  0
  6  8  1  0  0  0  0
  6 14  2  0  0  0  0
  7 15  1  0  0  0  0
  8 15  2  0  0  0  0
  9 11  1  0  0  0  0
  9 24  2  0  0  0  0
 10 11  2  0  0  0  0
 10 27  1  0  0  0  0
 11 23  1  0  0  0  0
 12 13  2  0  0  0  0
 12 25  1  0  0  0  0
 13 28  1  0  0  0  0
 14 29  1  0  0  0  0
 15 31  1  0  0  0  0
 16 18  1  0  0  0  0
 16 29  1  0  0  0  0
 16 32  2  0  0  0  0
 17 30  1  0  0  0  0
 17 31  1  0  0  0  0
 17 33  2  0  0  0  0
 18 19  1  0  0  0  0
 19 20  1  0  0  0  0
 20 21  1  0  0  0  0
 21 29  1  0  0  0  0
 22 27  1  0  0  0  0
 23 31  1  0  0  0  0
 24 27  1  0  0  0  0
 25 26  2  0  0  0  0
 26 28  1  0  0  0  0
 28 30  1  0  0  0  0
  1 34  1  0  0  0  0
  2 35  1  0  0  0  0
  3 36  1  0  0  0  0
  4 37  1  0  0  0  0
  5 38  1  0  0  0  0
  6 39  1  0  0  0  0
  7 40  1  0  0  0  0
  8 41  1  0  0  0  0
  9 42  1  0  0  0  0
 10 43  1  0  0  0  0
 18 44  1  0  0  0  0
 18 45  1  0  0  0  0
 19 46  1  0  0  0  0
 19 47  1  0  0  0  0
 20 48  1  0  0  0  0
 20 49  1  0  0  0  0
 21 50  1  0  0  0  0
 21 51  1  0  0  0  0
 22 52  1  0  0  0  0
 22 53  1  0  0  0  0
 22 54  1  0  0  0  0
 23 55  1  0  0  0  0
 23 56  1  0  0  0  0
 30 57  1  0  0  0  0
M  END
> <clash_score>
2.059694439777861

> <docking_score>
-7.491632461547852

> <overlap_score>
0.9997527599334717

$$$$
BENZO_22_1
  -OEChem-08232013473D

 57 61  0     0  0  0  0  0  0999 V2000
    4.0980    2.1130   19.5350 C   0  0  0  0  0  0  0  0  0  0  0  0
    4.2970    1.6690   20.8430 C   0  0  0  0  0  0  0  0  0  0  0  0
   13.6699    1.8040   22.7027 C   0  0  0  0  0  0  0  0  0  0  0  0
   12.2787    1.8748   22.7744 C   0  0  0  0  0  0  0  0  0  0  0  0
    4.9400    1.7060   18.5060 C   0  0  0  0  0  0  0  0  0  0  0  0
    5.3360    0.8000   21.1530 C   0  0  0  0  0  0  0  0  0  0  0  0
    8.3310   -2.7170   25.3430 C   0  0  0  0  0  0  0  0  0  0  0  0
   10.2570   -3.5000   24.1350 C   0  0  0  0  0  0  0  0  0  0  0  0
    8.3510   -1.5420   24.6110 C   0  0  0  0  0  0  0  0  0  0  0  0
   10.2760   -2.3270   23.4020 C   0  0  0  0  0  0  0  0  0  0  0  0
   14.3603    0.8596   23.4625 C   0  0  0  0  0  0  0  0  0  0  0  0
   12.2682    0.0571   24.3659 C   0  0  0  0  0  0  0  0  0  0  0  0
   11.5778    1.0013   23.6060 C   0  0  0  0  0  0  0  0  0  0  0  0
    5.9810    0.8330   18.8060 C   0  0  0  0  0  0  0  0  0  0  0  0
    6.1600    0.3870   20.1140 C   0  0  0  0  0  0  0  0  0  0  0  0
    9.2850   -3.7090   25.1090 C   0  0  0  0  0  0  0  0  0  0  0  0
    9.3300   -1.3350   23.6390 C   0  0  0  0  0  0  0  0  0  0  0  0
   13.6594   -0.0138   24.2942 C   0  0  0  0  0  0  0  0  0  0  0  0
    8.2930   -5.1714   26.8572 C   0  0  0  0  0  0  0  0  0  0  0  0
    8.9510    0.1280   21.6880 C   0  0  0  0  0  0  0  0  0  0  0  0
    8.4552   -6.5156   27.5444 C   0  0  0  0  0  0  0  0  0  0  0  0
    9.9019   -6.7444   27.9450 C   0  0  0  0  0  0  0  0  0  0  0  0
   10.8597   -6.5882   26.7680 C   0  0  0  0  0  0  0  0  0  0  0  0
   10.1895   -6.0108   25.5223 C   0  0  0  0  0  0  0  0  0  0  0  0
   10.0805    1.0790   23.6836 C   0  0  0  0  0  0  0  0  0  0  0  0
    6.9440    0.2550   18.0100 N   0  0  0  0  0  0  0  0  0  0  0  0
    7.6830   -0.5170   18.7600 N   0  0  0  0  0  0  0  0  0  0  0  0
    7.2210   -0.4620   20.0350 N   0  0  0  0  0  0  0  0  0  0  0  0
    9.2623   -4.9266   25.8635 N   0  0  0  0  0  0  0  0  0  0  0  0
    8.0810   -0.9750   21.0820 N   0  0  0  0  0  0  0  0  0  0  0  0
    9.4200   -0.0840   22.9530 N   0  0  0  0  0  0  0  0  0  0  0  0
    7.3370   -4.4528   27.1463 O   0  0  0  0  0  0  0  0  0  0  0  0
    9.1870    1.1500   21.0630 O   0  0  0  0  0  0  0  0  0  0  0  0
   14.5118   -1.1778   25.2323 Cl  0  0  0  0  0  0  0  0  0  0  0  0
    3.2714    2.7876   19.3199 H   0  0  0  0  0  0  0  0  0  0  0  0
    3.6283    2.0091   21.6296 H   0  0  0  0  0  0  0  0  0  0  0  0
   14.2153    2.4844   22.0551 H   0  0  0  0  0  0  0  0  0  0  0  0
   11.7490    2.6137   22.1788 H   0  0  0  0  0  0  0  0  0  0  0  0
    4.7824    2.0670   17.4883 H   0  0  0  0  0  0  0  0  0  0  0  0
    5.4937    0.4574   22.1805 H   0  0  0  0  0  0  0  0  0  0  0  0
    7.5639   -2.8621   26.1045 H   0  0  0  0  0  0  0  0  0  0  0  0
   11.0141   -4.2644   23.9422 H   0  0  0  0  0  0  0  0  0  0  0  0
    7.5950   -0.7788   24.8007 H   0  0  0  0  0  0  0  0  0  0  0  0
   11.0408   -2.1861   22.6359 H   0  0  0  0  0  0  0  0  0  0  0  0
   15.4446    0.8161   23.3968 H   0  0  0  0  0  0  0  0  0  0  0  0
   11.7171   -0.6220   25.0124 H   0  0  0  0  0  0  0  0  0  0  0  0
    7.8332   -6.5283   28.4263 H   0  0  0  0  0  0  0  0  0  0  0  0
    8.1305   -7.2788   26.8530 H   0  0  0  0  0  0  0  0  0  0  0  0
   10.1875   -6.0379   28.7521 H   0  0  0  0  0  0  0  0  0  0  0  0
   10.0116   -7.7568   28.3834 H   0  0  0  0  0  0  0  0  0  0  0  0
   11.7061   -5.9337   27.0644 H   0  0  0  0  0  0  0  0  0  0  0  0
   11.3230   -7.5689   26.5243 H   0  0  0  0  0  0  0  0  0  0  0  0
   10.9445   -5.5959   24.8614 H   0  0  0  0  0  0  0  0  0  0  0  0
    9.6461   -6.7954   25.0072 H   0  0  0  0  0  0  0  0  0  0  0  0
    9.7447    1.0292   24.7251 H   0  0  0  0  0  0  0  0  0  0  0  0
    9.7139    2.0237   23.2685 H   0  0  0  0  0  0  0  0  0  0  0  0
    8.1334   -1.7991   21.3673 H   0  0  0  0  0  0  0  0  0  0  0  0
  1  2  1  0  0  0  0
  1  5  2  0  0  0  0
  2  6  2  0  0  0  0
  3  4  2  0  0  0  0
  3 11  1  0  0  0  0
  4 13  1  0  0  0  0
  5 14  1  0  0  0  0
  6 15  1  0  0  0  0
  7  9  2  0  0  0  0
  7 16  1  0  0  0  0
  8 10  1  0  0  0  0
  8 16  2  0  0  0  0
  9 17  1  0  0  0  0
 10 17  2  0  0  0  0
 11 18  2  0  0  0  0
 12 13  2  0  0  0  0
 12 18  1  0  0  0  0
 13 25  1  0  0  0  0
 14 15  2  0  0  0  0
 14 26  1  0  0  0  0
 15 28  1  0  0  0  0
 16 29  1  0  0  0  0
 17 31  1  0  0  0  0
 18 34  1  0  0  0  0
 19 21  1  0  0  0  0
 19 29  1  0  0  0  0
 19 32  2  0  0  0  0
 20 30  1  0  0  0  0
 20 31  1  0  0  0  0
 20 33  2  0  0  0  0
 21 22  1  0  0  0  0
 22 23  1  0  0  0  0
 23 24  1  0  0  0  0
 24 29  1  0  0  0  0
 25 31  1  0  0  0  0
 26 27  2  0  0  0  0
 27 28  1  0  0  0  0
 28 30  1  0  0  0  0
  1 35  1  0  0  0  0
  2 36  1  0  0  0  0
  3 37  1  0  0  0  0
  4 38  1  0  0  0  0
  5 39  1  0  0  0  0
  6 40  1  0  0  0  0
  7 41  1  0  0  0  0
  8 42  1  0  0  0  0
  9 43  1  0  0  0  0
 10 44  1  0  0  0  0
 11 45  1  0  0  0  0
 12 46  1  0  0  0  0
 21 47  1  0  0  0  0
 21 48  1  0  0  0  0
 22 49  1  0  0  0  0
 22 50  1  0  0  0  0
 23 51  1  0  0  0  0
 23 52  1  0  0  0  0
 24 53  1  0  0  0  0
 24 54  1  0  0  0  0
 25 55  1  0  0  0  0
 25 56  1  0  0  0  0
 30 57  1  0  0  0  0
M  END
> <clash_score>
2.8647215471778944

> <docking_score>
-6.458491325378418

> <overlap_score>
1.019769310951233

$$$$
BENZO_25_1
  -OEChem-08232013473D

 56 60  0     0  0  0  0  0  0999 V2000
   14.3563    0.9294   23.3536 C   0  0  0  0  0  0  0  0  0  0  0  0
   13.7161    0.2898   24.4150 C   0  0  0  0  0  0  0  0  0  0  0  0
   13.6066    1.6177   22.3997 C   0  0  0  0  0  0  0  0  0  0  0  0
    4.0980    2.1130   19.5350 C   0  0  0  0  0  0  0  0  0  0  0  0
    4.2970    1.6690   20.8430 C   0  0  0  0  0  0  0  0  0  0  0  0
   12.3263    0.3383   24.5225 C   0  0  0  0  0  0  0  0  0  0  0  0
   12.2167    1.6663   22.5072 C   0  0  0  0  0  0  0  0  0  0  0  0
    4.9400    1.7060   18.5060 C   0  0  0  0  0  0  0  0  0  0  0  0
    5.3360    0.8000   21.1530 C   0  0  0  0  0  0  0  0  0  0  0  0
    8.3310   -2.7170   25.3430 C   0  0  0  0  0  0  0  0  0  0  0  0
   10.2570   -3.5000   24.1350 C   0  0  0  0  0  0  0  0  0  0  0  0
    8.3510   -1.5420   24.6110 C   0  0  0  0  0  0  0  0  0  0  0  0
   10.2760   -2.3270   23.4020 C   0  0  0  0  0  0  0  0  0  0  0  0
   11.5765    1.0265   23.5686 C   0  0  0  0  0  0  0  0  0  0  0  0
    5.9810    0.8330   18.8060 C   0  0  0  0  0  0  0  0  0  0  0  0
    6.1600    0.3870   20.1140 C   0  0  0  0  0  0  0  0  0  0  0  0
    9.2850   -3.7090   25.1090 C   0  0  0  0  0  0  0  0  0  0  0  0
    9.3300   -1.3350   23.6390 C   0  0  0  0  0  0  0  0  0  0  0  0
    8.9510    0.1280   21.6880 C   0  0  0  0  0  0  0  0  0  0  0  0
    8.7666   -4.9523   27.2147 C   0  0  0  0  0  0  0  0  0  0  0  0
    9.3034   -6.1866   25.1651 C   0  0  0  0  0  0  0  0  0  0  0  0
    7.3827   -5.5925   27.1999 C   0  0  0  0  0  0  0  0  0  0  0  0
    7.9024   -6.7967   25.2263 C   0  0  0  0  0  0  0  0  0  0  0  0
   10.0805    1.0790   23.6836 C   0  0  0  0  0  0  0  0  0  0  0  0
    6.9440    0.2550   18.0100 N   0  0  0  0  0  0  0  0  0  0  0  0
    7.6830   -0.5170   18.7600 N   0  0  0  0  0  0  0  0  0  0  0  0
    7.2210   -0.4620   20.0350 N   0  0  0  0  0  0  0  0  0  0  0  0
    9.2640   -4.8844   25.8389 N   0  0  0  0  0  0  0  0  0  0  0  0
    8.0810   -0.9750   21.0820 N   0  0  0  0  0  0  0  0  0  0  0  0
    9.4200   -0.0840   22.9530 N   0  0  0  0  0  0  0  0  0  0  0  0
    9.1870    1.1500   21.0630 O   0  0  0  0  0  0  0  0  0  0  0  0
    7.4483   -6.8833   26.5817 O   0  0  0  0  0  0  0  0  0  0  0  0
   15.4386    0.8927   23.2707 H   0  0  0  0  0  0  0  0  0  0  0  0
   14.2998   -0.2453   25.1584 H   0  0  0  0  0  0  0  0  0  0  0  0
   14.1047    2.1168   21.5738 H   0  0  0  0  0  0  0  0  0  0  0  0
    3.2714    2.7876   19.3199 H   0  0  0  0  0  0  0  0  0  0  0  0
    3.6283    2.0091   21.6296 H   0  0  0  0  0  0  0  0  0  0  0  0
   11.8360   -0.1632   25.3528 H   0  0  0  0  0  0  0  0  0  0  0  0
   11.6407    2.2048   21.7592 H   0  0  0  0  0  0  0  0  0  0  0  0
    4.7824    2.0670   17.4883 H   0  0  0  0  0  0  0  0  0  0  0  0
    5.4937    0.4574   22.1805 H   0  0  0  0  0  0  0  0  0  0  0  0
    7.5647   -2.8621   26.1053 H   0  0  0  0  0  0  0  0  0  0  0  0
   11.0144   -4.2642   23.9425 H   0  0  0  0  0  0  0  0  0  0  0  0
    7.5958   -0.7779   24.8006 H   0  0  0  0  0  0  0  0  0  0  0  0
   11.0406   -2.1848   22.6356 H   0  0  0  0  0  0  0  0  0  0  0  0
    8.7030   -3.9561   27.6574 H   0  0  0  0  0  0  0  0  0  0  0  0
    9.4460   -5.5639   27.8143 H   0  0  0  0  0  0  0  0  0  0  0  0
   10.0083   -6.8392   25.6817 H   0  0  0  0  0  0  0  0  0  0  0  0
    9.6089   -6.0802   24.1251 H   0  0  0  0  0  0  0  0  0  0  0  0
    7.0281   -5.7334   28.2231 H   0  0  0  0  0  0  0  0  0  0  0  0
    6.6541   -4.9678   26.6754 H   0  0  0  0  0  0  0  0  0  0  0  0
    7.1860   -6.2177   24.6318 H   0  0  0  0  0  0  0  0  0  0  0  0
    7.9246   -7.8119   24.8187 H   0  0  0  0  0  0  0  0  0  0  0  0
    9.7736    1.0716   24.7351 H   0  0  0  0  0  0  0  0  0  0  0  0
    9.6838    1.9960   23.2354 H   0  0  0  0  0  0  0  0  0  0  0  0
    8.1334   -1.7991   21.3673 H   0  0  0  0  0  0  0  0  0  0  0  0
  1  2  1  0  0  0  0
  1  3  2  0  0  0  0
  2  6  2  0  0  0  0
  3  7  1  0  0  0  0
  4  5  1  0  0  0  0
  4  8  2  0  0  0  0
  5  9  2  0  0  0  0
  6 14  1  0  0  0  0
  7 14  2  0  0  0  0
  8 15  1  0  0  0  0
  9 16  1  0  0  0  0
 10 12  2  0  0  0  0
 10 17  1  0  0  0  0
 11 13  1  0  0  0  0
 11 17  2  0  0  0  0
 12 18  1  0  0  0  0
 13 18  2  0  0  0  0
 14 24  1  0  0  0  0
 15 16  2  0  0  0  0
 15 25  1  0  0  0  0
 16 27  1  0  0  0  0
 17 28  1  0  0  0  0
 18 30  1  0  0  0  0
 19 29  1  0  0  0  0
 19 30  1  0  0  0  0
 19 31  2  0  0  0  0
 20 22  1  0  0  0  0
 20 28  1  0  0  0  0
 21 23  1  0  0  0  0
 21 28  1  0  0  0  0
 22 32  1  0  0  0  0
 23 32  1  0  0  0  0
 24 30  1  0  0  0  0
 25 26  2  0  0  0  0
 26 27  1  0  0  0  0
 27 29  1  0  0  0  0
  1 33  1  0  0  0  0
  2 34  1  0  0  0  0
  3 35  1  0  0  0  0
  4 36  1  0  0  0  0
  5 37  1  0  0  0  0
  6 38  1  0  0  0  0
  7 39  1  0  0  0  0
  8 40  1  0  0  0  0
  9 41  1  0  0  0  0
 10 42  1  0  0  0  0
 11 43  1  0  0  0  0
 12 44  1  0  0  0  0
 13 45  1  0  0  0  0
 20 46  1  0  0  0  0
 20 47  1  0  0  0  0
 21 48  1  0  0  0  0
 21 49  1  0  0  0  0
 22 50  1  0  0  0  0
 22 51  1  0  0  0  0
 23 52  1  0  0  0  0
 23 53  1  0  0  0  0
 24 54  1  0  0  0  0
 24 55  1  0  0  0  0
 29 56  1  0  0  0  0
M  END
> <clash_score>
0

> <docking_score>
-8.438325881958008

> <overlap_score>
1.0167715549468994

$$$$
BENZO_24_1
  -OEChem-08232013473D

 53 57  0     0  0  0  0  0  0999 V2000
    4.0980    2.1130   19.5350 C   0  0  0  0  0  0  0  0  0  0  0  0
    4.2970    1.6690   20.8430 C   0  0  0  0  0  0  0  0  0  0  0  0
    4.9400    1.7060   18.5060 C   0  0  0  0  0  0  0  0  0  0  0  0
    5.3360    0.8000   21.1530 C   0  0  0  0  0  0  0  0  0  0  0  0
    8.3310   -2.7170   25.3430 C   0  0  0  0  0  0  0  0  0  0  0  0
   10.2570   -3.5000   24.1350 C   0  0  0  0  0  0  0  0  0  0  0  0
    8.3510   -1.5420   24.6110 C   0  0  0  0  0  0  0  0  0  0  0  0
   10.2760   -2.3270   23.4020 C   0  0  0  0  0  0  0  0  0  0  0  0
   12.2785    1.0229   22.3287 C   0  0  0  0  0  0  0  0  0  0  0  0
   13.6434    0.9694   22.5069 C   0  0  0  0  0  0  0  0  0  0  0  0
   12.4318    0.9754   24.6474 C   0  0  0  0  0  0  0  0  0  0  0  0
   11.5765    1.0265   23.5686 C   0  0  0  0  0  0  0  0  0  0  0  0
    5.9810    0.8330   18.8060 C   0  0  0  0  0  0  0  0  0  0  0  0
    6.1600    0.3870   20.1140 C   0  0  0  0  0  0  0  0  0  0  0  0
    9.2850   -3.7090   25.1090 C   0  0  0  0  0  0  0  0  0  0  0  0
    9.3300   -1.3350   23.6390 C   0  0  0  0  0  0  0  0  0  0  0  0
    8.9510    0.1280   21.6880 C   0  0  0  0  0  0  0  0  0  0  0  0
    8.7666   -4.9523   27.2147 C   0  0  0  0  0  0  0  0  0  0  0  0
    9.3034   -6.1866   25.1651 C   0  0  0  0  0  0  0  0  0  0  0  0
    7.3827   -5.5925   27.1999 C   0  0  0  0  0  0  0  0  0  0  0  0
    7.9024   -6.7967   25.2263 C   0  0  0  0  0  0  0  0  0  0  0  0
   10.0805    1.0790   23.6836 C   0  0  0  0  0  0  0  0  0  0  0  0
    6.9440    0.2550   18.0100 N   0  0  0  0  0  0  0  0  0  0  0  0
    7.6830   -0.5170   18.7600 N   0  0  0  0  0  0  0  0  0  0  0  0
    7.2210   -0.4620   20.0350 N   0  0  0  0  0  0  0  0  0  0  0  0
    9.2640   -4.8844   25.8389 N   0  0  0  0  0  0  0  0  0  0  0  0
    8.0810   -0.9750   21.0820 N   0  0  0  0  0  0  0  0  0  0  0  0
    9.4200   -0.0840   22.9530 N   0  0  0  0  0  0  0  0  0  0  0  0
    9.1870    1.1500   21.0630 O   0  0  0  0  0  0  0  0  0  0  0  0
    7.4483   -6.8833   26.5817 O   0  0  0  0  0  0  0  0  0  0  0  0
   14.0736    0.9236   24.1638 S   0  0  0  0  0  0  0  0  0  0  0  0
    3.2714    2.7876   19.3199 H   0  0  0  0  0  0  0  0  0  0  0  0
    3.6283    2.0091   21.6296 H   0  0  0  0  0  0  0  0  0  0  0  0
    4.7824    2.0670   17.4883 H   0  0  0  0  0  0  0  0  0  0  0  0
    5.4937    0.4574   22.1805 H   0  0  0  0  0  0  0  0  0  0  0  0
    7.5647   -2.8621   26.1053 H   0  0  0  0  0  0  0  0  0  0  0  0
   11.0144   -4.2642   23.9425 H   0  0  0  0  0  0  0  0  0  0  0  0
    7.5958   -0.7779   24.8006 H   0  0  0  0  0  0  0  0  0  0  0  0
   11.0406   -2.1848   22.6356 H   0  0  0  0  0  0  0  0  0  0  0  0
   11.8100    1.0572   21.3532 H   0  0  0  0  0  0  0  0  0  0  0  0
   14.4084    0.9542   21.7436 H   0  0  0  0  0  0  0  0  0  0  0  0
   12.1752    0.9646   25.6977 H   0  0  0  0  0  0  0  0  0  0  0  0
    8.7030   -3.9561   27.6574 H   0  0  0  0  0  0  0  0  0  0  0  0
    9.4460   -5.5639   27.8143 H   0  0  0  0  0  0  0  0  0  0  0  0
   10.0083   -6.8392   25.6817 H   0  0  0  0  0  0  0  0  0  0  0  0
    9.6089   -6.0802   24.1251 H   0  0  0  0  0  0  0  0  0  0  0  0
    7.0281   -5.7334   28.2231 H   0  0  0  0  0  0  0  0  0  0  0  0
    6.6541   -4.9678   26.6754 H   0  0  0  0  0  0  0  0  0  0  0  0
    7.1860   -6.2177   24.6318 H   0  0  0  0  0  0  0  0  0  0  0  0
    7.9246   -7.8119   24.8187 H   0  0  0  0  0  0  0  0  0  0  0  0
    9.7736    1.0716   24.7351 H   0  0  0  0  0  0  0  0  0  0  0  0
    9.6838    1.9960   23.2354 H   0  0  0  0  0  0  0  0  0  0  0  0
    8.1334   -1.7991   21.3673 H   0  0  0  0  0  0  0  0  0  0  0  0
  1  2  1  0  0  0  0
  1  3  2  0  0  0  0
  2  4  2  0  0  0  0
  3 13  1  0  0  0  0
  4 14  1  0  0  0  0
  5  7  2  0  0  0  0
  5 15  1  0  0  0  0
  6  8  1  0  0  0  0
  6 15  2  0  0  0  0
  7 16  1  0  0  0  0
  8 16  2  0  0  0  0
  9 10  2  0  0  0  0
  9 12  1  0  0  0  0
 10 31  1  0  0  0  0
 11 12  2  0  0  0  0
 11 31  1  0  0  0  0
 12 22  1  0  0  0  0
 13 14  2  0  0  0  0
 13 23  1  0  0  0  0
 14 25  1  0  0  0  0
 15 26  1  0  0  0  0
 16 28  1  0  0  0  0
 17 27  1  0  0  0  0
 17 28  1  0  0  0  0
 17 29  2  0  0  0  0
 18 20  1  0  0  0  0
 18 26  1  0  0  0  0
 19 21  1  0  0  0  0
 19 26  1  0  0  0  0
 20 30  1  0  0  0  0
 21 30  1  0  0  0  0
 22 28  1  0  0  0  0
 23 24  2  0  0  0  0
 24 25  1  0  0  0  0
 25 27  1  0  0  0  0
  1 32  1  0  0  0  0
  2 33  1  0  0  0  0
  3 34  1  0  0  0  0
  4 35  1  0  0  0  0
  5 36  1  0  0  0  0
  6 37  1  0  0  0  0
  7 38  1  0  0  0  0
  8 39  1  0  0  0  0
  9 40  1  0  0  0  0
 10 41  1  0  0  0  0
 11 42  1  0  0  0  0
 18 43  1  0  0  0  0
 18 44  1  0  0  0  0
 19 45  1  0  0  0  0
 19 46  1  0  0  0  0
 20 47  1  0  0  0  0
 20 48  1  0  0  0  0
 21 49  1  0  0  0  0
 21 50  1  0  0  0  0
 22 51  1  0  0  0  0
 22 52  1  0  0  0  0
 27 53  1  0  0  0  0
M  END
> <clash_score>
0

> <docking_score>
-8.676335334777832

> <overlap_score>
0.9902320504188538

$$$$
BENZO_29_1
  -OEChem-08232013473D

 52 55  0     0  0  0  0  0  0999 V2000
   14.3629    0.9103   23.4566 C   0  0  0  0  0  0  0  0  0  0  0  0
   13.7013    0.2582   24.4971 C   0  0  0  0  0  0  0  0  0  0  0  0
   13.6328    1.6101   22.4959 C   0  0  0  0  0  0  0  0  0  0  0  0
    4.0980    2.1130   19.5350 C   0  0  0  0  0  0  0  0  0  0  0  0
    4.2970    1.6690   20.8430 C   0  0  0  0  0  0  0  0  0  0  0  0
   12.3095    0.3058   24.5769 C   0  0  0  0  0  0  0  0  0  0  0  0
   12.2410    1.6577   22.5757 C   0  0  0  0  0  0  0  0  0  0  0  0
    4.9400    1.7060   18.5060 C   0  0  0  0  0  0  0  0  0  0  0  0
    5.3360    0.8000   21.1530 C   0  0  0  0  0  0  0  0  0  0  0  0
    8.3510   -1.5420   24.6110 C   0  0  0  0  0  0  0  0  0  0  0  0
   10.2760   -2.3270   23.4020 C   0  0  0  0  0  0  0  0  0  0  0  0
    8.3310   -2.7170   25.3430 C   0  0  0  0  0  0  0  0  0  0  0  0
   10.2570   -3.5000   24.1350 C   0  0  0  0  0  0  0  0  0  0  0  0
    7.6830   -0.5170   18.7600 C   0  0  0  0  0  0  0  0  0  0  0  0
   11.5794    1.0055   23.6162 C   0  0  0  0  0  0  0  0  0  0  0  0
    5.9810    0.8330   18.8060 C   0  0  0  0  0  0  0  0  0  0  0  0
    6.1600    0.3870   20.1140 C   0  0  0  0  0  0  0  0  0  0  0  0
    9.3300   -1.3350   23.6390 C   0  0  0  0  0  0  0  0  0  0  0  0
    9.2850   -3.7090   25.1090 C   0  0  0  0  0  0  0  0  0  0  0  0
    8.9510    0.1280   21.6880 C   0  0  0  0  0  0  0  0  0  0  0  0
    8.2498   -5.1179   26.8642 C   0  0  0  0  0  0  0  0  0  0  0  0
   10.2421   -5.9411   25.5986 C   0  0  0  0  0  0  0  0  0  0  0  0
   10.0813    1.0569   23.7013 C   0  0  0  0  0  0  0  0  0  0  0  0
    6.9440    0.2550   18.0100 N   0  0  0  0  0  0  0  0  0  0  0  0
    7.2210   -0.4620   20.0350 N   0  0  0  0  0  0  0  0  0  0  0  0
    8.0810   -0.9750   21.0820 N   0  0  0  0  0  0  0  0  0  0  0  0
    9.4200   -0.0840   22.9530 N   0  0  0  0  0  0  0  0  0  0  0  0
    9.2624   -4.9028   25.8498 N   0  0  0  0  0  0  0  0  0  0  0  0
    9.1870    1.1500   21.0630 O   0  0  0  0  0  0  0  0  0  0  0  0
   15.4467    0.8743   23.3954 H   0  0  0  0  0  0  0  0  0  0  0  0
   14.2697   -0.2858   25.2458 H   0  0  0  0  0  0  0  0  0  0  0  0
   14.1476    2.1189   21.6863 H   0  0  0  0  0  0  0  0  0  0  0  0
    3.2711    2.7870   19.3201 H   0  0  0  0  0  0  0  0  0  0  0  0
    3.6262    2.0082   21.6284 H   0  0  0  0  0  0  0  0  0  0  0  0
   11.8025   -0.2055   25.3909 H   0  0  0  0  0  0  0  0  0  0  0  0
   11.6804    2.2052   21.8227 H   0  0  0  0  0  0  0  0  0  0  0  0
    4.7816    2.0660   17.4901 H   0  0  0  0  0  0  0  0  0  0  0  0
    5.4934    0.4579   22.1787 H   0  0  0  0  0  0  0  0  0  0  0  0
    7.5947   -0.7787   24.7997 H   0  0  0  0  0  0  0  0  0  0  0  0
   11.0404   -2.1861   22.6352 H   0  0  0  0  0  0  0  0  0  0  0  0
    7.5641   -2.8632   26.1047 H   0  0  0  0  0  0  0  0  0  0  0  0
   11.0135   -4.2647   23.9425 H   0  0  0  0  0  0  0  0  0  0  0  0
    8.5166   -1.1054   18.4533 H   0  0  0  0  0  0  0  0  0  0  0  0
    8.3986   -6.1041   27.3281 H   0  0  0  0  0  0  0  0  0  0  0  0
    8.3293   -4.3353   27.6331 H   0  0  0  0  0  0  0  0  0  0  0  0
    7.2528   -5.0772   26.4012 H   0  0  0  0  0  0  0  0  0  0  0  0
   10.0587   -6.7900   26.2736 H   0  0  0  0  0  0  0  0  0  0  0  0
   10.1594   -6.2782   24.5548 H   0  0  0  0  0  0  0  0  0  0  0  0
   11.2520   -5.5429   25.7764 H   0  0  0  0  0  0  0  0  0  0  0  0
    9.7520    1.0102   24.7451 H   0  0  0  0  0  0  0  0  0  0  0  0
    9.6956    1.9913   23.2801 H   0  0  0  0  0  0  0  0  0  0  0  0
    8.0998   -1.8216   21.3383 H   0  0  0  0  0  0  0  0  0  0  0  0
  1  2  1  0  0  0  0
  1  3  2  0  0  0  0
  2  6  2  0  0  0  0
  3  7  1  0  0  0  0
  4  5  1  0  0  0  0
  4  8  2  0  0  0  0
  5  9  2  0  0  0  0
  6 15  1  0  0  0  0
  7 15  2  0  0  0  0
  8 16  1  0  0  0  0
  9 17  1  0  0  0  0
 10 12  2  0  0  0  0
 10 18  1  0  0  0  0
 11 13  1  0  0  0  0
 11 18  2  0  0  0  0
 12 19  1  0  0  0  0
 13 19  2  0  0  0  0
 14 24  2  0  0  0  0
 14 25  1  0  0  0  0
 15 23  1  0  0  0  0
 16 17  2  0  0  0  0
 16 24  1  0  0  0  0
 17 25  1  0  0  0  0
 18 27  1  0  0  0  0
 19 28  1  0  0  0  0
 20 26  1  0  0  0  0
 20 27  1  0  0  0  0
 20 29  2  0  0  0  0
 21 28  1  0  0  0  0
 22 28  1  0  0  0  0
 23 27  1  0  0  0  0
 25 26  1  0  0  0  0
  1 30  1  0  0  0  0
  2 31  1  0  0  0  0
  3 32  1  0  0  0  0
  4 33  1  0  0  0  0
  5 34  1  0  0  0  0
  6 35  1  0  0  0  0
  7 36  1  0  0  0  0
  8 37  1  0  0  0  0
  9 38  1  0  0  0  0
 10 39  1  0  0  0  0
 11 40  1  0  0  0  0
 12 41  1  0  0  0  0
 13 42  1  0  0  0  0
 14 43  1  0  0  0  0
 21 44  1  0  0  0  0
 21 45  1  0  0  0  0
 21 46  1  0  0  0  0
 22 47  1  0  0  0  0
 22 48  1  0  0  0  0
 22 49  1  0  0  0  0
 23 50  1  0  0  0  0
 23 51  1  0  0  0  0
 26 52  1  0  0  0  0
M  END
> <clash_score>
0

> <docking_score>
-9.845386505126953

> <overlap_score>
1.00165855884552

$$$$
BENZO_28_1
  -OEChem-08232013473D

 49 52  0     0  0  0  0  0  0999 V2000
    4.0980    2.1130   19.5350 C   0  0  0  0  0  0  0  0  0  0  0  0
    4.2970    1.6690   20.8430 C   0  0  0  0  0  0  0  0  0  0  0  0
    4.9400    1.7060   18.5060 C   0  0  0  0  0  0  0  0  0  0  0  0
    5.3360    0.8000   21.1530 C   0  0  0  0  0  0  0  0  0  0  0  0
    8.3510   -1.5420   24.6110 C   0  0  0  0  0  0  0  0  0  0  0  0
   10.2760   -2.3270   23.4020 C   0  0  0  0  0  0  0  0  0  0  0  0
    8.3310   -2.7170   25.3430 C   0  0  0  0  0  0  0  0  0  0  0  0
   10.2570   -3.5000   24.1350 C   0  0  0  0  0  0  0  0  0  0  0  0
   12.3075    1.0475   22.3922 C   0  0  0  0  0  0  0  0  0  0  0  0
   13.6682    0.9841   22.5972 C   0  0  0  0  0  0  0  0  0  0  0  0
   12.4114    0.9114   24.7102 C   0  0  0  0  0  0  0  0  0  0  0  0
    7.6830   -0.5170   18.7600 C   0  0  0  0  0  0  0  0  0  0  0  0
   11.5794    1.0055   23.6162 C   0  0  0  0  0  0  0  0  0  0  0  0
    5.9810    0.8330   18.8060 C   0  0  0  0  0  0  0  0  0  0  0  0
    6.1600    0.3870   20.1140 C   0  0  0  0  0  0  0  0  0  0  0  0
    9.3300   -1.3350   23.6390 C   0  0  0  0  0  0  0  0  0  0  0  0
    9.2850   -3.7090   25.1090 C   0  0  0  0  0  0  0  0  0  0  0  0
    8.9510    0.1280   21.6880 C   0  0  0  0  0  0  0  0  0  0  0  0
    8.2498   -5.1179   26.8642 C   0  0  0  0  0  0  0  0  0  0  0  0
   10.2421   -5.9411   25.5986 C   0  0  0  0  0  0  0  0  0  0  0  0
   10.0813    1.0569   23.7013 C   0  0  0  0  0  0  0  0  0  0  0  0
    6.9440    0.2550   18.0100 N   0  0  0  0  0  0  0  0  0  0  0  0
    7.2210   -0.4620   20.0350 N   0  0  0  0  0  0  0  0  0  0  0  0
    8.0810   -0.9750   21.0820 N   0  0  0  0  0  0  0  0  0  0  0  0
    9.4200   -0.0840   22.9530 N   0  0  0  0  0  0  0  0  0  0  0  0
    9.2624   -4.9028   25.8498 N   0  0  0  0  0  0  0  0  0  0  0  0
    9.1870    1.1500   21.0630 O   0  0  0  0  0  0  0  0  0  0  0  0
   14.0631    0.8744   24.2598 S   0  0  0  0  0  0  0  0  0  0  0  0
    3.2711    2.7870   19.3201 H   0  0  0  0  0  0  0  0  0  0  0  0
    3.6262    2.0082   21.6284 H   0  0  0  0  0  0  0  0  0  0  0  0
    4.7816    2.0660   17.4901 H   0  0  0  0  0  0  0  0  0  0  0  0
    5.4934    0.4579   22.1787 H   0  0  0  0  0  0  0  0  0  0  0  0
    7.5947   -0.7787   24.7997 H   0  0  0  0  0  0  0  0  0  0  0  0
   11.0404   -2.1861   22.6352 H   0  0  0  0  0  0  0  0  0  0  0  0
    7.5641   -2.8632   26.1047 H   0  0  0  0  0  0  0  0  0  0  0  0
   11.0135   -4.2647   23.9425 H   0  0  0  0  0  0  0  0  0  0  0  0
   11.8600    1.1200   21.4090 H   0  0  0  0  0  0  0  0  0  0  0  0
   14.4493    0.9962   21.8502 H   0  0  0  0  0  0  0  0  0  0  0  0
   12.1325    0.8613   25.7536 H   0  0  0  0  0  0  0  0  0  0  0  0
    8.5166   -1.1054   18.4533 H   0  0  0  0  0  0  0  0  0  0  0  0
    8.3986   -6.1041   27.3281 H   0  0  0  0  0  0  0  0  0  0  0  0
    8.3293   -4.3353   27.6331 H   0  0  0  0  0  0  0  0  0  0  0  0
    7.2528   -5.0772   26.4012 H   0  0  0  0  0  0  0  0  0  0  0  0
   10.0587   -6.7900   26.2736 H   0  0  0  0  0  0  0  0  0  0  0  0
   10.1594   -6.2782   24.5548 H   0  0  0  0  0  0  0  0  0  0  0  0
   11.2520   -5.5429   25.7764 H   0  0  0  0  0  0  0  0  0  0  0  0
    9.7520    1.0102   24.7451 H   0  0  0  0  0  0  0  0  0  0  0  0
    9.6956    1.9913   23.2801 H   0  0  0  0  0  0  0  0  0  0  0  0
    8.0998   -1.8216   21.3383 H   0  0  0  0  0  0  0  0  0  0  0  0
  1  2  1  0  0  0  0
  1  3  2  0  0  0  0
  2  4  2  0  0  0  0
  3 14  1  0  0  0  0
  4 15  1  0  0  0  0
  5  7  2  0  0  0  0
  5 16  1  0  0  0  0
  6  8  1  0  0  0  0
  6 16  2  0  0  0  0
  7 17  1  0  0  0  0
  8 17  2  0  0  0  0
  9 10  2  0  0  0  0
  9 13  1  0  0  0  0
 10 28  1  0  0  0  0
 11 13  2  0  0  0  0
 11 28  1  0  0  0  0
 12 22  2  0  0  0  0
 12 23  1  0  0  0  0
 13 21  1  0  0  0  0
 14 15  2  0  0  0  0
 14 22  1  0  0  0  0
 15 23  1  0  0  0  0
 16 25  1  0  0  0  0
 17 26  1  0  0  0  0
 18 24  1  0  0  0  0
 18 25  1  0  0  0  0
 18 27  2  0  0  0  0
 19 26  1  0  0  0  0
 20 26  1  0  0  0  0
 21 25  1  0  0  0  0
 23 24  1  0  0  0  0
  1 29  1  0  0  0  0
  2 30  1  0  0  0  0
  3 31  1  0  0  0  0
  4 32  1  0  0  0  0
  5 33  1  0  0  0  0
  6 34  1  0  0  0  0
  7 35  1  0  0  0  0
  8 36  1  0  0  0  0
  9 37  1  0  0  0  0
 10 38  1  0  0  0  0
 11 39  1  0  0  0  0
 12 40  1  0  0  0  0
 19 41  1  0  0  0  0
 19 42  1  0  0  0  0
 19 43  1  0  0  0  0
 20 44  1  0  0  0  0
 20 45  1  0  0  0  0
 20 46  1  0  0  0  0
 21 47  1  0  0  0  0
 21 48  1  0  0  0  0
 24 49  1  0  0  0  0
M  END
> <clash_score>
0

> <docking_score>
-10.145364761352539

> <overlap_score>
0.9760873913764954

$$$$
BENZO_26_1
  -OEChem-08232013473D

 56 60  0     0  0  0  0  0  0999 V2000
    4.0980    2.1130   19.5350 C   0  0  0  0  0  0  0  0  0  0  0  0
    4.2970    1.6690   20.8430 C   0  0  0  0  0  0  0  0  0  0  0  0
   13.7567    1.7895   24.2766 C   0  0  0  0  0  0  0  0  0  0  0  0
   12.3668    1.8385   24.3821 C   0  0  0  0  0  0  0  0  0  0  0  0
    4.9400    1.7060   18.5060 C   0  0  0  0  0  0  0  0  0  0  0  0
    5.3360    0.8000   21.1530 C   0  0  0  0  0  0  0  0  0  0  0  0
    8.3310   -2.7170   25.3430 C   0  0  0  0  0  0  0  0  0  0  0  0
   10.2570   -3.5000   24.1350 C   0  0  0  0  0  0  0  0  0  0  0  0
    8.3510   -1.5420   24.6110 C   0  0  0  0  0  0  0  0  0  0  0  0
   10.2760   -2.3270   23.4020 C   0  0  0  0  0  0  0  0  0  0  0  0
   14.3565    0.9285   23.3575 C   0  0  0  0  0  0  0  0  0  0  0  0
   12.1763    0.1655   22.6495 C   0  0  0  0  0  0  0  0  0  0  0  0
   11.5765    1.0265   23.5686 C   0  0  0  0  0  0  0  0  0  0  0  0
    5.9810    0.8330   18.8060 C   0  0  0  0  0  0  0  0  0  0  0  0
    6.1600    0.3870   20.1140 C   0  0  0  0  0  0  0  0  0  0  0  0
    9.2850   -3.7090   25.1090 C   0  0  0  0  0  0  0  0  0  0  0  0
    9.3300   -1.3350   23.6390 C   0  0  0  0  0  0  0  0  0  0  0  0
   13.5663    0.1165   22.5440 C   0  0  0  0  0  0  0  0  0  0  0  0
    8.9510    0.1280   21.6880 C   0  0  0  0  0  0  0  0  0  0  0  0
    8.7666   -4.9523   27.2147 C   0  0  0  0  0  0  0  0  0  0  0  0
    9.3034   -6.1866   25.1651 C   0  0  0  0  0  0  0  0  0  0  0  0
    7.3827   -5.5925   27.1999 C   0  0  0  0  0  0  0  0  0  0  0  0
    7.9024   -6.7967   25.2263 C   0  0  0  0  0  0  0  0  0  0  0  0
   10.0805    1.0790   23.6836 C   0  0  0  0  0  0  0  0  0  0  0  0
    6.9440    0.2550   18.0100 N   0  0  0  0  0  0  0  0  0  0  0  0
    7.6830   -0.5170   18.7600 N   0  0  0  0  0  0  0  0  0  0  0  0
    7.2210   -0.4620   20.0350 N   0  0  0  0  0  0  0  0  0  0  0  0
    9.2640   -4.8844   25.8389 N   0  0  0  0  0  0  0  0  0  0  0  0
    8.0810   -0.9750   21.0820 N   0  0  0  0  0  0  0  0  0  0  0  0
    9.4200   -0.0840   22.9530 N   0  0  0  0  0  0  0  0  0  0  0  0
    9.1870    1.1500   21.0630 O   0  0  0  0  0  0  0  0  0  0  0  0
    7.4483   -6.8833   26.5817 O   0  0  0  0  0  0  0  0  0  0  0  0
   14.3069   -0.9464   21.4111 Cl  0  0  0  0  0  0  0  0  0  0  0  0
    3.2714    2.7876   19.3199 H   0  0  0  0  0  0  0  0  0  0  0  0
    3.6283    2.0091   21.6296 H   0  0  0  0  0  0  0  0  0  0  0  0
   14.3718    2.4219   24.9104 H   0  0  0  0  0  0  0  0  0  0  0  0
   11.9080    2.5123   25.1011 H   0  0  0  0  0  0  0  0  0  0  0  0
    4.7824    2.0670   17.4883 H   0  0  0  0  0  0  0  0  0  0  0  0
    5.4937    0.4574   22.1805 H   0  0  0  0  0  0  0  0  0  0  0  0
    7.5647   -2.8621   26.1053 H   0  0  0  0  0  0  0  0  0  0  0  0
   11.0144   -4.2642   23.9425 H   0  0  0  0  0  0  0  0  0  0  0  0
    7.5958   -0.7779   24.8006 H   0  0  0  0  0  0  0  0  0  0  0  0
   11.0406   -2.1848   22.6356 H   0  0  0  0  0  0  0  0  0  0  0  0
   15.4411    0.9007   23.2864 H   0  0  0  0  0  0  0  0  0  0  0  0
   11.5557   -0.4652   22.0171 H   0  0  0  0  0  0  0  0  0  0  0  0
    8.7030   -3.9561   27.6574 H   0  0  0  0  0  0  0  0  0  0  0  0
    9.4460   -5.5639   27.8143 H   0  0  0  0  0  0  0  0  0  0  0  0
   10.0083   -6.8392   25.6817 H   0  0  0  0  0  0  0  0  0  0  0  0
    9.6089   -6.0802   24.1251 H   0  0  0  0  0  0  0  0  0  0  0  0
    7.0281   -5.7334   28.2231 H   0  0  0  0  0  0  0  0  0  0  0  0
    6.6541   -4.9678   26.6754 H   0  0  0  0  0  0  0  0  0  0  0  0
    7.1860   -6.2177   24.6318 H   0  0  0  0  0  0  0  0  0  0  0  0
    7.9246   -7.8119   24.8187 H   0  0  0  0  0  0  0  0  0  0  0  0
    9.7736    1.0716   24.7351 H   0  0  0  0  0  0  0  0  0  0  0  0
    9.6838    1.9960   23.2354 H   0  0  0  0  0  0  0  0  0  0  0  0
    8.1334   -1.7991   21.3673 H   0  0  0  0  0  0  0  0  0  0  0  0
  1  2  1  0  0  0  0
  1  5  2  0  0  0  0
  2  6  2  0  0  0  0
  3  4  2  0  0  0  0
  3 11  1  0  0  0  0
  4 13  1  0  0  0  0
  5 14  1  0  0  0  0
  6 15  1  0  0  0  0
  7  9  2  0  0  0  0
  7 16  1  0  0  0  0
  8 10  1  0  0  0  0
  8 16  2  0  0  0  0
  9 17  1  0  0  0  0
 10 17  2  0  0  0  0
 11 18  2  0  0  0  0
 12 13  2  0  0  0  0
 12 18  1  0  0  0  0
 13 24  1  0  0  0  0
 14 15  2  0  0  0  0
 14 25  1  0  0  0  0
 15 27  1  0  0  0  0
 16 28  1  0  0  0  0
 17 30  1  0  0  0  0
 18 33  1  0  0  0  0
 19 29  1  0  0  0  0
 19 30  1  0  0  0  0
 19 31  2  0  0  0  0
 20 22  1  0  0  0  0
 20 28  1  0  0  0  0
 21 23  1  0  0  0  0
 21 28  1  0  0  0  0
 22 32  1  0  0  0  0
 23 32  1  0  0  0  0
 24 30  1  0  0  0  0
 25 26  2  0  0  0  0
 26 27  1  0  0  0  0
 27 29  1  0  0  0  0
  1 34  1  0  0  0  0
  2 35  1  0  0  0  0
  3 36  1  0  0  0  0
  4 37  1  0  0  0  0
  5 38  1  0  0  0  0
  6 39  1  0  0  0  0
  7 40  1  0  0  0  0
  8 41  1  0  0  0  0
  9 42  1  0  0  0  0
 10 43  1  0  0  0  0
 11 44  1  0  0  0  0
 12 45  1  0  0  0  0
 20 46  1  0  0  0  0
 20 47  1  0  0  0  0
 21 48  1  0  0  0  0
 21 49  1  0  0  0  0
 22 50  1  0  0  0  0
 22 51  1  0  0  0  0
 23 52  1  0  0  0  0
 23 53  1  0  0  0  0
 24 54  1  0  0  0  0
 24 55  1  0  0  0  0
 29 56  1  0  0  0  0
M  END
> <clash_score>
0

> <docking_score>
-7.925382614135742

> <overlap_score>
0.9978266954421997

$$$$
BENZO_27_1
  -OEChem-08232013473D

 56 60  0     0  0  0  0  0  0999 V2000
    4.0980    2.1130   19.5350 C   0  0  0  0  0  0  0  0  0  0  0  0
    4.2970    1.6690   20.8430 C   0  0  0  0  0  0  0  0  0  0  0  0
    4.9400    1.7060   18.5060 C   0  0  0  0  0  0  0  0  0  0  0  0
    5.3360    0.8000   21.1530 C   0  0  0  0  0  0  0  0  0  0  0  0
    8.3310   -2.7170   25.3430 C   0  0  0  0  0  0  0  0  0  0  0  0
   10.2570   -3.5000   24.1350 C   0  0  0  0  0  0  0  0  0  0  0  0
    8.3510   -1.5420   24.6110 C   0  0  0  0  0  0  0  0  0  0  0  0
   10.2760   -2.3270   23.4020 C   0  0  0  0  0  0  0  0  0  0  0  0
   12.5255    1.7657   24.2999 C   0  0  0  0  0  0  0  0  0  0  0  0
   12.3267    0.2428   22.7263 C   0  0  0  0  0  0  0  0  0  0  0  0
   11.5765    1.0265   23.5686 C   0  0  0  0  0  0  0  0  0  0  0  0
    5.9810    0.8330   18.8060 C   0  0  0  0  0  0  0  0  0  0  0  0
    6.1600    0.3870   20.1140 C   0  0  0  0  0  0  0  0  0  0  0  0
    9.2850   -3.7090   25.1090 C   0  0  0  0  0  0  0  0  0  0  0  0
    9.3300   -1.3350   23.6390 C   0  0  0  0  0  0  0  0  0  0  0  0
    8.9510    0.1280   21.6880 C   0  0  0  0  0  0  0  0  0  0  0  0
    8.7666   -4.9523   27.2147 C   0  0  0  0  0  0  0  0  0  0  0  0
    9.3034   -6.1866   25.1651 C   0  0  0  0  0  0  0  0  0  0  0  0
    7.3827   -5.5925   27.1999 C   0  0  0  0  0  0  0  0  0  0  0  0
    7.9024   -6.7967   25.2263 C   0  0  0  0  0  0  0  0  0  0  0  0
   14.7907   -0.0234   22.3567 C   0  0  0  0  0  0  0  0  0  0  0  0
   10.0805    1.0790   23.6836 C   0  0  0  0  0  0  0  0  0  0  0  0
   13.7826    1.4773   23.9527 N   0  0  0  0  0  0  0  0  0  0  0  0
    6.9440    0.2550   18.0100 N   0  0  0  0  0  0  0  0  0  0  0  0
    7.6830   -0.5170   18.7600 N   0  0  0  0  0  0  0  0  0  0  0  0
   13.6288    0.5481   22.9941 N   0  0  0  0  0  0  0  0  0  0  0  0
    7.2210   -0.4620   20.0350 N   0  0  0  0  0  0  0  0  0  0  0  0
    9.2640   -4.8844   25.8389 N   0  0  0  0  0  0  0  0  0  0  0  0
    8.0810   -0.9750   21.0820 N   0  0  0  0  0  0  0  0  0  0  0  0
    9.4200   -0.0840   22.9530 N   0  0  0  0  0  0  0  0  0  0  0  0
    9.1870    1.1500   21.0630 O   0  0  0  0  0  0  0  0  0  0  0  0
    7.4483   -6.8833   26.5817 O   0  0  0  0  0  0  0  0  0  0  0  0
    3.2714    2.7876   19.3199 H   0  0  0  0  0  0  0  0  0  0  0  0
    3.6283    2.0091   21.6296 H   0  0  0  0  0  0  0  0  0  0  0  0
    4.7824    2.0670   17.4883 H   0  0  0  0  0  0  0  0  0  0  0  0
    5.4937    0.4574   22.1805 H   0  0  0  0  0  0  0  0  0  0  0  0
    7.5647   -2.8621   26.1053 H   0  0  0  0  0  0  0  0  0  0  0  0
   11.0144   -4.2642   23.9425 H   0  0  0  0  0  0  0  0  0  0  0  0
    7.5958   -0.7779   24.8006 H   0  0  0  0  0  0  0  0  0  0  0  0
   11.0406   -2.1848   22.6356 H   0  0  0  0  0  0  0  0  0  0  0  0
   12.3559    2.5024   25.0724 H   0  0  0  0  0  0  0  0  0  0  0  0
   12.0519   -0.4888   21.9787 H   0  0  0  0  0  0  0  0  0  0  0  0
    8.7030   -3.9561   27.6574 H   0  0  0  0  0  0  0  0  0  0  0  0
    9.4460   -5.5639   27.8143 H   0  0  0  0  0  0  0  0  0  0  0  0
   10.0083   -6.8392   25.6817 H   0  0  0  0  0  0  0  0  0  0  0  0
    9.6089   -6.0802   24.1251 H   0  0  0  0  0  0  0  0  0  0  0  0
    7.0281   -5.7334   28.2231 H   0  0  0  0  0  0  0  0  0  0  0  0
    6.6541   -4.9678   26.6754 H   0  0  0  0  0  0  0  0  0  0  0  0
    7.1860   -6.2177   24.6318 H   0  0  0  0  0  0  0  0  0  0  0  0
    7.9246   -7.8119   24.8187 H   0  0  0  0  0  0  0  0  0  0  0  0
   15.0350    0.5918   21.4867 H   0  0  0  0  0  0  0  0  0  0  0  0
   15.6251   -0.0346   23.0635 H   0  0  0  0  0  0  0  0  0  0  0  0
   14.5671   -1.0491   22.0504 H   0  0  0  0  0  0  0  0  0  0  0  0
    9.7736    1.0716   24.7351 H   0  0  0  0  0  0  0  0  0  0  0  0
    9.6838    1.9960   23.2354 H   0  0  0  0  0  0  0  0  0  0  0  0
    8.1334   -1.7991   21.3673 H   0  0  0  0  0  0  0  0  0  0  0  0
  1  2  1  0  0  0  0
  1  3  2  0  0  0  0
  2  4  2  0  0  0  0
  3 12  1  0  0  0  0
  4 13  1  0  0  0  0
  5  7  2  0  0  0  0
  5 14  1  0  0  0  0
  6  8  1  0  0  0  0
  6 14  2  0  0  0  0
  7 15  1  0  0  0  0
  8 15  2  0  0  0  0
  9 11  1  0  0  0  0
  9 23  2  0  0  0  0
 10 11  2  0  0  0  0
 10 26  1  0  0  0  0
 11 22  1  0  0  0  0
 12 13  2  0  0  0  0
 12 24  1  0  0  0  0
 13 27  1  0  0  0  0
 14 28  1  0  0  0  0
 15 30  1  0  0  0  0
 16 29  1  0  0  0  0
 16 30  1  0  0  0  0
 16 31  2  0  0  0  0
 17 19  1  0  0  0  0
 17 28  1  0  0  0  0
 18 20  1  0  0  0  0
 18 28  1  0  0  0  0
 19 32  1  0  0  0  0
 20 32  1  0  0  0  0
 21 26  1  0  0  0  0
 22 30  1  0  0  0  0
 23 26  1  0  0  0  0
 24 25  2  0  0  0  0
 25 27  1  0  0  0  0
 27 29  1  0  0  0  0
  1 33  1  0  0  0  0
  2 34  1  0  0  0  0
  3 35  1  0  0  0  0
  4 36  1  0  0  0  0
  5 37  1  0  0  0  0
  6 38  1  0  0  0  0
  7 39  1  0  0  0  0
  8 40  1  0  0  0  0
  9 41  1  0  0  0  0
 10 42  1  0  0  0  0
 17 43  1  0  0  0  0
 17 44  1  0  0  0  0
 18 45  1  0  0  0  0
 18 46  1  0  0  0  0
 19 47  1  0  0  0  0
 19 48  1  0  0  0  0
 20 49  1  0  0  0  0
 20 50  1  0  0  0  0
 21 51  1  0  0  0  0
 21 52  1  0  0  0  0
 21 53  1  0  0  0  0
 22 54  1  0  0  0  0
 22 55  1  0  0  0  0
 29 56  1  0  0  0  0
M  END
> <clash_score>
0

> <docking_score>
-8.608464241027832

> <overlap_score>
1.0027791261672974

$$$$
BENZO_31_1
  -OEChem-08232013473D

 52 55  0     0  0  0  0  0  0999 V2000
    4.0980    2.1130   19.5350 C   0  0  0  0  0  0  0  0  0  0  0  0
    4.2970    1.6690   20.8430 C   0  0  0  0  0  0  0  0  0  0  0  0
    4.9400    1.7060   18.5060 C   0  0  0  0  0  0  0  0  0  0  0  0
    5.3360    0.8000   21.1530 C   0  0  0  0  0  0  0  0  0  0  0  0
    8.3510   -1.5420   24.6110 C   0  0  0  0  0  0  0  0  0  0  0  0
   10.2760   -2.3270   23.4020 C   0  0  0  0  0  0  0  0  0  0  0  0
    8.3310   -2.7170   25.3430 C   0  0  0  0  0  0  0  0  0  0  0  0
   10.2570   -3.5000   24.1350 C   0  0  0  0  0  0  0  0  0  0  0  0
   12.5136    1.7142   24.3951 C   0  0  0  0  0  0  0  0  0  0  0  0
   12.3462    0.2527   22.7607 C   0  0  0  0  0  0  0  0  0  0  0  0
    7.6830   -0.5170   18.7600 C   0  0  0  0  0  0  0  0  0  0  0  0
   11.5794    1.0055   23.6162 C   0  0  0  0  0  0  0  0  0  0  0  0
    5.9810    0.8330   18.8060 C   0  0  0  0  0  0  0  0  0  0  0  0
    6.1600    0.3870   20.1140 C   0  0  0  0  0  0  0  0  0  0  0  0
    9.3300   -1.3350   23.6390 C   0  0  0  0  0  0  0  0  0  0  0  0
    9.2850   -3.7090   25.1090 C   0  0  0  0  0  0  0  0  0  0  0  0
    8.9510    0.1280   21.6880 C   0  0  0  0  0  0  0  0  0  0  0  0
   14.8171   -0.0048   22.4336 C   0  0  0  0  0  0  0  0  0  0  0  0
    8.2498   -5.1179   26.8642 C   0  0  0  0  0  0  0  0  0  0  0  0
   10.2421   -5.9411   25.5986 C   0  0  0  0  0  0  0  0  0  0  0  0
   10.0813    1.0569   23.7013 C   0  0  0  0  0  0  0  0  0  0  0  0
   13.7774    1.4363   24.0639 N   0  0  0  0  0  0  0  0  0  0  0  0
    6.9440    0.2550   18.0100 N   0  0  0  0  0  0  0  0  0  0  0  0
   13.6426    0.5446   23.0675 N   0  0  0  0  0  0  0  0  0  0  0  0
    7.2210   -0.4620   20.0350 N   0  0  0  0  0  0  0  0  0  0  0  0
    8.0810   -0.9750   21.0820 N   0  0  0  0  0  0  0  0  0  0  0  0
    9.4200   -0.0840   22.9530 N   0  0  0  0  0  0  0  0  0  0  0  0
    9.2624   -4.9028   25.8498 N   0  0  0  0  0  0  0  0  0  0  0  0
    9.1870    1.1500   21.0630 O   0  0  0  0  0  0  0  0  0  0  0  0
    3.2711    2.7870   19.3201 H   0  0  0  0  0  0  0  0  0  0  0  0
    3.6262    2.0082   21.6284 H   0  0  0  0  0  0  0  0  0  0  0  0
    4.7816    2.0660   17.4901 H   0  0  0  0  0  0  0  0  0  0  0  0
    5.4934    0.4579   22.1787 H   0  0  0  0  0  0  0  0  0  0  0  0
    7.5947   -0.7787   24.7997 H   0  0  0  0  0  0  0  0  0  0  0  0
   11.0404   -2.1861   22.6352 H   0  0  0  0  0  0  0  0  0  0  0  0
    7.5641   -2.8632   26.1047 H   0  0  0  0  0  0  0  0  0  0  0  0
   11.0135   -4.2647   23.9425 H   0  0  0  0  0  0  0  0  0  0  0  0
   12.3287    2.4213   25.1913 H   0  0  0  0  0  0  0  0  0  0  0  0
   12.0862   -0.4493   21.9801 H   0  0  0  0  0  0  0  0  0  0  0  0
    8.5166   -1.1054   18.4533 H   0  0  0  0  0  0  0  0  0  0  0  0
   15.0807    0.6425   21.5931 H   0  0  0  0  0  0  0  0  0  0  0  0
   15.6362   -0.0448   23.1569 H   0  0  0  0  0  0  0  0  0  0  0  0
   14.5985   -1.0176   22.0837 H   0  0  0  0  0  0  0  0  0  0  0  0
    8.3986   -6.1041   27.3281 H   0  0  0  0  0  0  0  0  0  0  0  0
    8.3293   -4.3353   27.6331 H   0  0  0  0  0  0  0  0  0  0  0  0
    7.2528   -5.0772   26.4012 H   0  0  0  0  0  0  0  0  0  0  0  0
   10.0587   -6.7900   26.2736 H   0  0  0  0  0  0  0  0  0  0  0  0
   10.1594   -6.2782   24.5548 H   0  0  0  0  0  0  0  0  0  0  0  0
   11.2520   -5.5429   25.7764 H   0  0  0  0  0  0  0  0  0  0  0  0
    9.7520    1.0102   24.7451 H   0  0  0  0  0  0  0  0  0  0  0  0
    9.6956    1.9913   23.2801 H   0  0  0  0  0  0  0  0  0  0  0  0
    8.0998   -1.8216   21.3383 H   0  0  0  0  0  0  0  0  0  0  0  0
  1  2  1  0  0  0  0
  1  3  2  0  0  0  0
  2  4  2  0  0  0  0
  3 13  1  0  0  0  0
  4 14  1  0  0  0  0
  5  7  2  0  0  0  0
  5 15  1  0  0  0  0
  6  8  1  0  0  0  0
  6 15  2  0  0  0  0
  7 16  1  0  0  0  0
  8 16  2  0  0  0  0
  9 12  1  0  0  0  0
  9 22  2  0  0  0  0
 10 12  2  0  0  0  0
 10 24  1  0  0  0  0
 11 23  2  0  0  0  0
 11 25  1  0  0  0  0
 12 21  1  0  0  0  0
 13 14  2  0  0  0  0
 13 23  1  0  0  0  0
 14 25  1  0  0  0  0
 15 27  1  0  0  0  0
 16 28  1  0  0  0  0
 17 26  1  0  0  0  0
 17 27  1  0  0  0  0
 17 29  2  0  0  0  0
 18 24  1  0  0  0  0
 19 28  1  0  0  0  0
 20 28  1  0  0  0  0
 21 27  1  0  0  0  0
 22 24  1  0  0  0  0
 25 26  1  0  0  0  0
  1 30  1  0  0  0  0
  2 31  1  0  0  0  0
  3 32  1  0  0  0  0
  4 33  1  0  0  0  0
  5 34  1  0  0  0  0
  6 35  1  0  0  0  0
  7 36  1  0  0  0  0
  8 37  1  0  0  0  0
  9 38  1  0  0  0  0
 10 39  1  0  0  0  0
 11 40  1  0  0  0  0
 18 41  1  0  0  0  0
 18 42  1  0  0  0  0
 18 43  1  0  0  0  0
 19 44  1  0  0  0  0
 19 45  1  0  0  0  0
 19 46  1  0  0  0  0
 20 47  1  0  0  0  0
 20 48  1  0  0  0  0
 20 49  1  0  0  0  0
 21 50  1  0  0  0  0
 21 51  1  0  0  0  0
 26 52  1  0  0  0  0
M  END
> <clash_score>
0

> <docking_score>
-10.024168968200684

> <overlap_score>
0.9866480231285095

$$$$
BENZO_30_1
  -OEChem-08232013473D

 52 55  0     0  0  0  0  0  0999 V2000
    4.0980    2.1130   19.5350 C   0  0  0  0  0  0  0  0  0  0  0  0
    4.2970    1.6690   20.8430 C   0  0  0  0  0  0  0  0  0  0  0  0
   13.7451    1.7360   24.3988 C   0  0  0  0  0  0  0  0  0  0  0  0
   12.3533    1.7842   24.4766 C   0  0  0  0  0  0  0  0  0  0  0  0
    4.9400    1.7060   18.5060 C   0  0  0  0  0  0  0  0  0  0  0  0
    5.3360    0.8000   21.1530 C   0  0  0  0  0  0  0  0  0  0  0  0
    8.3510   -1.5420   24.6110 C   0  0  0  0  0  0  0  0  0  0  0  0
   10.2760   -2.3270   23.4020 C   0  0  0  0  0  0  0  0  0  0  0  0
    8.3310   -2.7170   25.3430 C   0  0  0  0  0  0  0  0  0  0  0  0
   10.2570   -3.5000   24.1350 C   0  0  0  0  0  0  0  0  0  0  0  0
   14.3631    0.9093   23.4605 C   0  0  0  0  0  0  0  0  0  0  0  0
   12.1973    0.1787   22.6779 C   0  0  0  0  0  0  0  0  0  0  0  0
    7.6830   -0.5170   18.7600 C   0  0  0  0  0  0  0  0  0  0  0  0
   11.5794    1.0055   23.6162 C   0  0  0  0  0  0  0  0  0  0  0  0
    5.9810    0.8330   18.8060 C   0  0  0  0  0  0  0  0  0  0  0  0
    6.1600    0.3870   20.1140 C   0  0  0  0  0  0  0  0  0  0  0  0
    9.3300   -1.3350   23.6390 C   0  0  0  0  0  0  0  0  0  0  0  0
    9.2850   -3.7090   25.1090 C   0  0  0  0  0  0  0  0  0  0  0  0
   13.5891    0.1306   22.6001 C   0  0  0  0  0  0  0  0  0  0  0  0
    8.9510    0.1280   21.6880 C   0  0  0  0  0  0  0  0  0  0  0  0
    8.2498   -5.1179   26.8642 C   0  0  0  0  0  0  0  0  0  0  0  0
   10.2421   -5.9411   25.5986 C   0  0  0  0  0  0  0  0  0  0  0  0
   10.0813    1.0569   23.7013 C   0  0  0  0  0  0  0  0  0  0  0  0
    6.9440    0.2550   18.0100 N   0  0  0  0  0  0  0  0  0  0  0  0
    7.2210   -0.4620   20.0350 N   0  0  0  0  0  0  0  0  0  0  0  0
    8.0810   -0.9750   21.0820 N   0  0  0  0  0  0  0  0  0  0  0  0
    9.4200   -0.0840   22.9530 N   0  0  0  0  0  0  0  0  0  0  0  0
    9.2624   -4.9028   25.8498 N   0  0  0  0  0  0  0  0  0  0  0  0
    9.1870    1.1500   21.0630 O   0  0  0  0  0  0  0  0  0  0  0  0
   14.3521   -0.8900   21.4434 Cl  0  0  0  0  0  0  0  0  0  0  0  0
    3.2711    2.7870   19.3201 H   0  0  0  0  0  0  0  0  0  0  0  0
    3.6262    2.0082   21.6284 H   0  0  0  0  0  0  0  0  0  0  0  0
   14.3474    2.3424   25.0691 H   0  0  0  0  0  0  0  0  0  0  0  0
   11.8803    2.4311   25.2108 H   0  0  0  0  0  0  0  0  0  0  0  0
    4.7816    2.0660   17.4901 H   0  0  0  0  0  0  0  0  0  0  0  0
    5.4934    0.4579   22.1787 H   0  0  0  0  0  0  0  0  0  0  0  0
    7.5947   -0.7787   24.7997 H   0  0  0  0  0  0  0  0  0  0  0  0
   11.0404   -2.1861   22.6352 H   0  0  0  0  0  0  0  0  0  0  0  0
    7.5641   -2.8632   26.1047 H   0  0  0  0  0  0  0  0  0  0  0  0
   11.0135   -4.2647   23.9425 H   0  0  0  0  0  0  0  0  0  0  0  0
   15.4488    0.8817   23.4114 H   0  0  0  0  0  0  0  0  0  0  0  0
   11.5894   -0.4261   22.0089 H   0  0  0  0  0  0  0  0  0  0  0  0
    8.5166   -1.1054   18.4533 H   0  0  0  0  0  0  0  0  0  0  0  0
    8.3986   -6.1041   27.3281 H   0  0  0  0  0  0  0  0  0  0  0  0
    8.3293   -4.3353   27.6331 H   0  0  0  0  0  0  0  0  0  0  0  0
    7.2528   -5.0772   26.4012 H   0  0  0  0  0  0  0  0  0  0  0  0
   10.0587   -6.7900   26.2736 H   0  0  0  0  0  0  0  0  0  0  0  0
   10.1594   -6.2782   24.5548 H   0  0  0  0  0  0  0  0  0  0  0  0
   11.2520   -5.5429   25.7764 H   0  0  0  0  0  0  0  0  0  0  0  0
    9.7520    1.0102   24.7451 H   0  0  0  0  0  0  0  0  0  0  0  0
    9.6956    1.9913   23.2801 H   0  0  0  0  0  0  0  0  0  0  0  0
    8.0998   -1.8216   21.3383 H   0  0  0  0  0  0  0  0  0  0  0  0
  1  2  1  0  0  0  0
  1  5  2  0  0  0  0
  2  6  2  0  0  0  0
  3  4  2  0  0  0  0
  3 11  1  0  0  0  0
  4 14  1  0  0  0  0
  5 15  1  0  0  0  0
  6 16  1  0  0  0  0
  7  9  2  0  0  0  0
  7 17  1  0  0  0  0
  8 10  1  0  0  0  0
  8 17  2  0  0  0  0
  9 18  1  0  0  0  0
 10 18  2  0  0  0  0
 11 19  2  0  0  0  0
 12 14  2  0  0  0  0
 12 19  1  0  0  0  0
 13 24  2  0  0  0  0
 13 25  1  0  0  0  0
 14 23  1  0  0  0  0
 15 16  2  0  0  0  0
 15 24  1  0  0  0  0
 16 25  1  0  0  0  0
 17 27  1  0  0  0  0
 18 28  1  0  0  0  0
 19 30  1  0  0  0  0
 20 26  1  0  0  0  0
 20 27  1  0  0  0  0
 20 29  2  0  0  0  0
 21 28  1  0  0  0  0
 22 28  1  0  0  0  0
 23 27  1  0  0  0  0
 25 26  1  0  0  0  0
  1 31  1  0  0  0  0
  2 32  1  0  0  0  0
  3 33  1  0  0  0  0
  4 34  1  0  0  0  0
  5 35  1  0  0  0  0
  6 36  1  0  0  0  0
  7 37  1  0  0  0  0
  8 38  1  0  0  0  0
  9 39  1  0  0  0  0
 10 40  1  0  0  0  0
 11 41  1  0  0  0  0
 12 42  1  0  0  0  0
 13 43  1  0  0  0  0
 21 44  1  0  0  0  0
 21 45  1  0  0  0  0
 21 46  1  0  0  0  0
 22 47  1  0  0  0  0
 22 48  1  0  0  0  0
 22 49  1  0  0  0  0
 23 50  1  0  0  0  0
 23 51  1  0  0  0  0
 26 52  1  0  0  0  0
M  END
> <clash_score>
0

> <docking_score>
-9.111472129821777

> <overlap_score>
0.9815418720245361

$$$$
BENZO_33_1
  -OEChem-08232013473D

 54 57  0     0  0  0  0  0  0999 V2000
   14.3629    0.9103   23.4566 C   0  0  0  0  0  0  0  0  0  0  0  0
   13.7013    0.2582   24.4971 C   0  0  0  0  0  0  0  0  0  0  0  0
   13.6328    1.6101   22.4959 C   0  0  0  0  0  0  0  0  0  0  0  0
    4.0980    2.1130   19.5350 C   0  0  0  0  0  0  0  0  0  0  0  0
    4.2970    1.6690   20.8430 C   0  0  0  0  0  0  0  0  0  0  0  0
   12.3095    0.3058   24.5769 C   0  0  0  0  0  0  0  0  0  0  0  0
   12.2410    1.6577   22.5757 C   0  0  0  0  0  0  0  0  0  0  0  0
    4.9400    1.7060   18.5060 C   0  0  0  0  0  0  0  0  0  0  0  0
    5.3360    0.8000   21.1530 C   0  0  0  0  0  0  0  0  0  0  0  0
    8.3310   -2.7170   25.3430 C   0  0  0  0  0  0  0  0  0  0  0  0
   10.2570   -3.5000   24.1350 C   0  0  0  0  0  0  0  0  0  0  0  0
    8.3510   -1.5420   24.6110 C   0  0  0  0  0  0  0  0  0  0  0  0
   10.2760   -2.3270   23.4020 C   0  0  0  0  0  0  0  0  0  0  0  0
    7.6830   -0.5170   18.7600 C   0  0  0  0  0  0  0  0  0  0  0  0
   11.5794    1.0055   23.6162 C   0  0  0  0  0  0  0  0  0  0  0  0
    5.9810    0.8330   18.8060 C   0  0  0  0  0  0  0  0  0  0  0  0
    6.1600    0.3870   20.1140 C   0  0  0  0  0  0  0  0  0  0  0  0
    9.2850   -3.7090   25.1090 C   0  0  0  0  0  0  0  0  0  0  0  0
    9.3300   -1.3350   23.6390 C   0  0  0  0  0  0  0  0  0  0  0  0
    9.6839   -6.1690   25.4414 C   0  0  0  0  0  0  0  0  0  0  0  0
    8.9510    0.1280   21.6880 C   0  0  0  0  0  0  0  0  0  0  0  0
    8.0382   -7.2886   27.0047 C   0  0  0  0  0  0  0  0  0  0  0  0
   10.0813    1.0569   23.7013 C   0  0  0  0  0  0  0  0  0  0  0  0
    9.4846   -7.1863   26.5550 C   0  0  0  0  0  0  0  0  0  0  0  0
    6.9440    0.2550   18.0100 N   0  0  0  0  0  0  0  0  0  0  0  0
    7.2210   -0.4620   20.0350 N   0  0  0  0  0  0  0  0  0  0  0  0
    9.2630   -4.8902   25.8410 N   0  0  0  0  0  0  0  0  0  0  0  0
    8.0810   -0.9750   21.0820 N   0  0  0  0  0  0  0  0  0  0  0  0
    9.4200   -0.0840   22.9530 N   0  0  0  0  0  0  0  0  0  0  0  0
   10.1566   -6.4800   24.3532 O   0  0  0  0  0  0  0  0  0  0  0  0
    9.1870    1.1500   21.0630 O   0  0  0  0  0  0  0  0  0  0  0  0
   15.4467    0.8743   23.3954 H   0  0  0  0  0  0  0  0  0  0  0  0
   14.2697   -0.2858   25.2458 H   0  0  0  0  0  0  0  0  0  0  0  0
   14.1476    2.1189   21.6863 H   0  0  0  0  0  0  0  0  0  0  0  0
    3.2711    2.7870   19.3201 H   0  0  0  0  0  0  0  0  0  0  0  0
    3.6262    2.0082   21.6284 H   0  0  0  0  0  0  0  0  0  0  0  0
   11.8025   -0.2055   25.3909 H   0  0  0  0  0  0  0  0  0  0  0  0
   11.6804    2.2052   21.8227 H   0  0  0  0  0  0  0  0  0  0  0  0
    4.7816    2.0660   17.4901 H   0  0  0  0  0  0  0  0  0  0  0  0
    5.4934    0.4579   22.1787 H   0  0  0  0  0  0  0  0  0  0  0  0
    7.5639   -2.8621   26.1045 H   0  0  0  0  0  0  0  0  0  0  0  0
   11.0141   -4.2644   23.9422 H   0  0  0  0  0  0  0  0  0  0  0  0
    7.5950   -0.7788   24.8007 H   0  0  0  0  0  0  0  0  0  0  0  0
   11.0408   -2.1861   22.6359 H   0  0  0  0  0  0  0  0  0  0  0  0
    8.5166   -1.1054   18.4533 H   0  0  0  0  0  0  0  0  0  0  0  0
    7.6701   -6.3234   27.3679 H   0  0  0  0  0  0  0  0  0  0  0  0
    7.9415   -8.0182   27.8146 H   0  0  0  0  0  0  0  0  0  0  0  0
    7.3916   -7.6056   26.1798 H   0  0  0  0  0  0  0  0  0  0  0  0
    9.7520    1.0102   24.7451 H   0  0  0  0  0  0  0  0  0  0  0  0
    9.6956    1.9913   23.2801 H   0  0  0  0  0  0  0  0  0  0  0  0
    9.8261   -8.1645   26.1973 H   0  0  0  0  0  0  0  0  0  0  0  0
   10.1125   -6.8978   27.4059 H   0  0  0  0  0  0  0  0  0  0  0  0
    8.8927   -4.8255   26.7964 H   0  0  0  0  0  0  0  0  0  0  0  0
    8.0998   -1.8216   21.3383 H   0  0  0  0  0  0  0  0  0  0  0  0
  1  2  1  0  0  0  0
  1  3  2  0  0  0  0
  2  6  2  0  0  0  0
  3  7  1  0  0  0  0
  4  5  1  0  0  0  0
  4  8  2  0  0  0  0
  5  9  2  0  0  0  0
  6 15  1  0  0  0  0
  7 15  2  0  0  0  0
  8 16  1  0  0  0  0
  9 17  1  0  0  0  0
 10 12  2  0  0  0  0
 10 18  1  0  0  0  0
 11 13  1  0  0  0  0
 11 18  2  0  0  0  0
 12 19  1  0  0  0  0
 13 19  2  0  0  0  0
 14 25  2  0  0  0  0
 14 26  1  0  0  0  0
 15 23  1  0  0  0  0
 16 17  2  0  0  0  0
 16 25  1  0  0  0  0
 17 26  1  0  0  0  0
 18 27  1  0  0  0  0
 19 29  1  0  0  0  0
 20 24  1  0  0  0  0
 20 27  1  0  0  0  0
 20 30  2  0  0  0  0
 21 28  1  0  0  0  0
 21 29  1  0  0  0  0
 21 31  2  0  0  0  0
 22 24  1  0  0  0  0
 23 29  1  0  0  0  0
 26 28  1  0  0  0  0
  1 32  1  0  0  0  0
  2 33  1  0  0  0  0
  3 34  1  0  0  0  0
  4 35  1  0  0  0  0
  5 36  1  0  0  0  0
  6 37  1  0  0  0  0
  7 38  1  0  0  0  0
  8 39  1  0  0  0  0
  9 40  1  0  0  0  0
 10 41  1  0  0  0  0
 11 42  1  0  0  0  0
 12 43  1  0  0  0  0
 13 44  1  0  0  0  0
 14 45  1  0  0  0  0
 22 46  1  0  0  0  0
 22 47  1  0  0  0  0
 22 48  1  0  0  0  0
 23 49  1  0  0  0  0
 23 50  1  0  0  0  0
 24 51  1  0  0  0  0
 24 52  1  0  0  0  0
 27 53  1  0  0  0  0
 28 54  1  0  0  0  0
M  END
> <clash_score>
1.3333632944556628

> <docking_score>
-6.3229804039001465

> <overlap_score>
0.9857286810874939

$$$$
BENZO_32_1
  -OEChem-08232013473D

 51 54  0     0  0  0  0  0  0999 V2000
    4.0980    2.1130   19.5350 C   0  0  0  0  0  0  0  0  0  0  0  0
    4.2970    1.6690   20.8430 C   0  0  0  0  0  0  0  0  0  0  0  0
    4.9400    1.7060   18.5060 C   0  0  0  0  0  0  0  0  0  0  0  0
    5.3360    0.8000   21.1530 C   0  0  0  0  0  0  0  0  0  0  0  0
    8.3310   -2.7170   25.3430 C   0  0  0  0  0  0  0  0  0  0  0  0
   10.2570   -3.5000   24.1350 C   0  0  0  0  0  0  0  0  0  0  0  0
    8.3510   -1.5420   24.6110 C   0  0  0  0  0  0  0  0  0  0  0  0
   10.2760   -2.3270   23.4020 C   0  0  0  0  0  0  0  0  0  0  0  0
   12.3075    1.0475   22.3922 C   0  0  0  0  0  0  0  0  0  0  0  0
   13.6682    0.9841   22.5972 C   0  0  0  0  0  0  0  0  0  0  0  0
   12.4114    0.9114   24.7102 C   0  0  0  0  0  0  0  0  0  0  0  0
    7.6830   -0.5170   18.7600 C   0  0  0  0  0  0  0  0  0  0  0  0
   11.5794    1.0055   23.6162 C   0  0  0  0  0  0  0  0  0  0  0  0
    5.9810    0.8330   18.8060 C   0  0  0  0  0  0  0  0  0  0  0  0
    6.1600    0.3870   20.1140 C   0  0  0  0  0  0  0  0  0  0  0  0
    9.2850   -3.7090   25.1090 C   0  0  0  0  0  0  0  0  0  0  0  0
    9.3300   -1.3350   23.6390 C   0  0  0  0  0  0  0  0  0  0  0  0
    9.6839   -6.1690   25.4414 C   0  0  0  0  0  0  0  0  0  0  0  0
    8.9510    0.1280   21.6880 C   0  0  0  0  0  0  0  0  0  0  0  0
    8.0382   -7.2886   27.0047 C   0  0  0  0  0  0  0  0  0  0  0  0
   10.0813    1.0569   23.7013 C   0  0  0  0  0  0  0  0  0  0  0  0
    9.4846   -7.1863   26.5550 C   0  0  0  0  0  0  0  0  0  0  0  0
    6.9440    0.2550   18.0100 N   0  0  0  0  0  0  0  0  0  0  0  0
    7.2210   -0.4620   20.0350 N   0  0  0  0  0  0  0  0  0  0  0  0
    9.2630   -4.8902   25.8410 N   0  0  0  0  0  0  0  0  0  0  0  0
    8.0810   -0.9750   21.0820 N   0  0  0  0  0  0  0  0  0  0  0  0
    9.4200   -0.0840   22.9530 N   0  0  0  0  0  0  0  0  0  0  0  0
   10.1566   -6.4800   24.3532 O   0  0  0  0  0  0  0  0  0  0  0  0
    9.1870    1.1500   21.0630 O   0  0  0  0  0  0  0  0  0  0  0  0
   14.0631    0.8744   24.2598 S   0  0  0  0  0  0  0  0  0  0  0  0
    3.2711    2.7870   19.3201 H   0  0  0  0  0  0  0  0  0  0  0  0
    3.6262    2.0082   21.6284 H   0  0  0  0  0  0  0  0  0  0  0  0
    4.7816    2.0660   17.4901 H   0  0  0  0  0  0  0  0  0  0  0  0
    5.4934    0.4579   22.1787 H   0  0  0  0  0  0  0  0  0  0  0  0
    7.5639   -2.8621   26.1045 H   0  0  0  0  0  0  0  0  0  0  0  0
   11.0141   -4.2644   23.9422 H   0  0  0  0  0  0  0  0  0  0  0  0
    7.5950   -0.7788   24.8007 H   0  0  0  0  0  0  0  0  0  0  0  0
   11.0408   -2.1861   22.6359 H   0  0  0  0  0  0  0  0  0  0  0  0
   11.8600    1.1200   21.4090 H   0  0  0  0  0  0  0  0  0  0  0  0
   14.4493    0.9962   21.8502 H   0  0  0  0  0  0  0  0  0  0  0  0
   12.1325    0.8613   25.7536 H   0  0  0  0  0  0  0  0  0  0  0  0
    8.5166   -1.1054   18.4533 H   0  0  0  0  0  0  0  0  0  0  0  0
    7.6701   -6.3234   27.3679 H   0  0  0  0  0  0  0  0  0  0  0  0
    7.9415   -8.0182   27.8146 H   0  0  0  0  0  0  0  0  0  0  0  0
    7.3916   -7.6056   26.1798 H   0  0  0  0  0  0  0  0  0  0  0  0
    9.7520    1.0102   24.7451 H   0  0  0  0  0  0  0  0  0  0  0  0
    9.6956    1.9913   23.2801 H   0  0  0  0  0  0  0  0  0  0  0  0
    9.8261   -8.1645   26.1973 H   0  0  0  0  0  0  0  0  0  0  0  0
   10.1125   -6.8978   27.4059 H   0  0  0  0  0  0  0  0  0  0  0  0
    8.8927   -4.8255   26.7964 H   0  0  0  0  0  0  0  0  0  0  0  0
    8.0998   -1.8216   21.3383 H   0  0  0  0  0  0  0  0  0  0  0  0
  1  2  1  0  0  0  0
  1  3  2  0  0  0  0
  2  4  2  0  0  0  0
  3 14  1  0  0  0  0
  4 15  1  0  0  0  0
  5  7  2  0  0  0  0
  5 16  1  0  0  0  0
  6  8  1  0  0  0  0
  6 16  2  0  0  0  0
  7 17  1  0  0  0  0
  8 17  2  0  0  0  0
  9 10  2  0  0  0  0
  9 13  1  0  0  0  0
 10 30  1  0  0  0  0
 11 13  2  0  0  0  0
 11 30  1  0  0  0  0
 12 23  2  0  0  0  0
 12 24  1  0  0  0  0
 13 21  1  0  0  0  0
 14 15  2  0  0  0  0
 14 23  1  0  0  0  0
 15 24  1  0  0  0  0
 16 25  1  0  0  0  0
 17 27  1  0  0  0  0
 18 22  1  0  0  0  0
 18 25  1  0  0  0  0
 18 28  2  0  0  0  0
 19 26  1  0  0  0  0
 19 27  1  0  0  0  0
 19 29  2  0  0  0  0
 20 22  1  0  0  0  0
 21 27  1  0  0  0  0
 24 26  1  0  0  0  0
  1 31  1  0  0  0  0
  2 32  1  0  0  0  0
  3 33  1  0  0  0  0
  4 34  1  0  0  0  0
  5 35  1  0  0  0  0
  6 36  1  0  0  0  0
  7 37  1  0  0  0  0
  8 38  1  0  0  0  0
  9 39  1  0  0  0  0
 10 40  1  0  0  0  0
 11 41  1  0  0  0  0
 12 42  1  0  0  0  0
 20 43  1  0  0  0  0
 20 44  1  0  0  0  0
 20 45  1  0  0  0  0
 21 46  1  0  0  0  0
 21 47  1  0  0  0  0
 22 48  1  0  0  0  0
 22 49  1  0  0  0  0
 25 50  1  0  0  0  0
 26 51  1  0  0  0  0
M  END
> <clash_score>
1.3333632944556628

> <docking_score>
-6.622960090637207

> <overlap_score>
0.9602073431015015

$$$$
BENZO_34_1
  -OEChem-08232013473D

 54 57  0     0  0  0  0  0  0999 V2000
    4.0980    2.1130   19.5350 C   0  0  0  0  0  0  0  0  0  0  0  0
    4.2970    1.6690   20.8430 C   0  0  0  0  0  0  0  0  0  0  0  0
   13.6517    1.8376   22.6945 C   0  0  0  0  0  0  0  0  0  0  0  0
   12.2599    1.8841   22.7732 C   0  0  0  0  0  0  0  0  0  0  0  0
    4.9400    1.7060   18.5060 C   0  0  0  0  0  0  0  0  0  0  0  0
    5.3360    0.8000   21.1530 C   0  0  0  0  0  0  0  0  0  0  0  0
    8.3310   -2.7170   25.3430 C   0  0  0  0  0  0  0  0  0  0  0  0
   10.2570   -3.5000   24.1350 C   0  0  0  0  0  0  0  0  0  0  0  0
    8.3510   -1.5420   24.6110 C   0  0  0  0  0  0  0  0  0  0  0  0
   10.2760   -2.3270   23.4020 C   0  0  0  0  0  0  0  0  0  0  0  0
   14.3631    0.9125   23.4587 C   0  0  0  0  0  0  0  0  0  0  0  0
   12.2906    0.0804   24.3804 C   0  0  0  0  0  0  0  0  0  0  0  0
    7.6830   -0.5170   18.7600 C   0  0  0  0  0  0  0  0  0  0  0  0
   11.5794    1.0055   23.6162 C   0  0  0  0  0  0  0  0  0  0  0  0
    5.9810    0.8330   18.8060 C   0  0  0  0  0  0  0  0  0  0  0  0
    6.1600    0.3870   20.1140 C   0  0  0  0  0  0  0  0  0  0  0  0
    9.2850   -3.7090   25.1090 C   0  0  0  0  0  0  0  0  0  0  0  0
    9.3300   -1.3350   23.6390 C   0  0  0  0  0  0  0  0  0  0  0  0
   13.6825    0.0340   24.3016 C   0  0  0  0  0  0  0  0  0  0  0  0
    9.6839   -6.1690   25.4414 C   0  0  0  0  0  0  0  0  0  0  0  0
    8.9510    0.1280   21.6880 C   0  0  0  0  0  0  0  0  0  0  0  0
    8.0382   -7.2886   27.0047 C   0  0  0  0  0  0  0  0  0  0  0  0
   10.0813    1.0569   23.7013 C   0  0  0  0  0  0  0  0  0  0  0  0
    9.4846   -7.1863   26.5550 C   0  0  0  0  0  0  0  0  0  0  0  0
    6.9440    0.2550   18.0100 N   0  0  0  0  0  0  0  0  0  0  0  0
    7.2210   -0.4620   20.0350 N   0  0  0  0  0  0  0  0  0  0  0  0
    9.2630   -4.8902   25.8410 N   0  0  0  0  0  0  0  0  0  0  0  0
    8.0810   -0.9750   21.0820 N   0  0  0  0  0  0  0  0  0  0  0  0
    9.4200   -0.0840   22.9530 N   0  0  0  0  0  0  0  0  0  0  0  0
   10.1566   -6.4800   24.3532 O   0  0  0  0  0  0  0  0  0  0  0  0
    9.1870    1.1500   21.0630 O   0  0  0  0  0  0  0  0  0  0  0  0
   14.5607   -1.1064   25.2451 Cl  0  0  0  0  0  0  0  0  0  0  0  0
    3.2711    2.7870   19.3201 H   0  0  0  0  0  0  0  0  0  0  0  0
    3.6262    2.0082   21.6284 H   0  0  0  0  0  0  0  0  0  0  0  0
   14.1813    2.5221   22.0380 H   0  0  0  0  0  0  0  0  0  0  0  0
   11.7138    2.6082   22.1742 H   0  0  0  0  0  0  0  0  0  0  0  0
    4.7816    2.0660   17.4901 H   0  0  0  0  0  0  0  0  0  0  0  0
    5.4934    0.4579   22.1787 H   0  0  0  0  0  0  0  0  0  0  0  0
    7.5639   -2.8621   26.1045 H   0  0  0  0  0  0  0  0  0  0  0  0
   11.0141   -4.2644   23.9422 H   0  0  0  0  0  0  0  0  0  0  0  0
    7.5950   -0.7788   24.8007 H   0  0  0  0  0  0  0  0  0  0  0  0
   11.0408   -2.1861   22.6359 H   0  0  0  0  0  0  0  0  0  0  0  0
   15.4477    0.8879   23.3874 H   0  0  0  0  0  0  0  0  0  0  0  0
   11.7553   -0.6028   25.0357 H   0  0  0  0  0  0  0  0  0  0  0  0
    8.5166   -1.1054   18.4533 H   0  0  0  0  0  0  0  0  0  0  0  0
    7.6701   -6.3234   27.3679 H   0  0  0  0  0  0  0  0  0  0  0  0
    7.9415   -8.0182   27.8146 H   0  0  0  0  0  0  0  0  0  0  0  0
    7.3916   -7.6056   26.1798 H   0  0  0  0  0  0  0  0  0  0  0  0
    9.7520    1.0102   24.7451 H   0  0  0  0  0  0  0  0  0  0  0  0
    9.6956    1.9913   23.2801 H   0  0  0  0  0  0  0  0  0  0  0  0
    9.8261   -8.1645   26.1973 H   0  0  0  0  0  0  0  0  0  0  0  0
   10.1125   -6.8978   27.4059 H   0  0  0  0  0  0  0  0  0  0  0  0
    8.8927   -4.8255   26.7964 H   0  0  0  0  0  0  0  0  0  0  0  0
    8.0998   -1.8216   21.3383 H   0  0  0  0  0  0  0  0  0  0  0  0
  1  2  1  0  0  0  0
  1  5  2  0  0  0  0
  2  6  2  0  0  0  0
  3  4  2  0  0  0  0
  3 11  1  0  0  0  0
  4 14  1  0  0  0  0
  5 15  1  0  0  0  0
  6 16  1  0  0  0  0
  7  9  2  0  0  0  0
  7 17  1  0  0  0  0
  8 10  1  0  0  0  0
  8 17  2  0  0  0  0
  9 18  1  0  0  0  0
 10 18  2  0  0  0  0
 11 19  2  0  0  0  0
 12 14  2  0  0  0  0
 12 19  1  0  0  0  0
 13 25  2  0  0  0  0
 13 26  1  0  0  0  0
 14 23  1  0  0  0  0
 15 16  2  0  0  0  0
 15 25  1  0  0  0  0
 16 26  1  0  0  0  0
 17 27  1  0  0  0  0
 18 29  1  0  0  0  0
 19 32  1  0  0  0  0
 20 24  1  0  0  0  0
 20 27  1  0  0  0  0
 20 30  2  0  0  0  0
 21 28  1  0  0  0  0
 21 29  1  0  0  0  0
 21 31  2  0  0  0  0
 22 24  1  0  0  0  0
 23 29  1  0  0  0  0
 26 28  1  0  0  0  0
  1 33  1  0  0  0  0
  2 34  1  0  0  0  0
  3 35  1  0  0  0  0
  4 36  1  0  0  0  0
  5 37  1  0  0  0  0
  6 38  1  0  0  0  0
  7 39  1  0  0  0  0
  8 40  1  0  0  0  0
  9 41  1  0  0  0  0
 10 42  1  0  0  0  0
 11 43  1  0  0  0  0
 12 44  1  0  0  0  0
 13 45  1  0  0  0  0
 22 46  1  0  0  0  0
 22 47  1  0  0  0  0
 22 48  1  0  0  0  0
 23 49  1  0  0  0  0
 23 50  1  0  0  0  0
 24 51  1  0  0  0  0
 24 52  1  0  0  0  0
 27 53  1  0  0  0  0
 28 54  1  0  0  0  0
M  END
> <clash_score>
2.115838267100843

> <docking_score>
-5.495494842529297

> <overlap_score>
0.9904747605323792

$$$$
BENZO_37_1
  -OEChem-08232013473D

 59 63  0     0  0  0  0  0  0999 V2000
   14.3513    0.8024   23.3715 C   0  0  0  0  0  0  0  0  0  0  0  0
   13.6891    0.1921   24.4367 C   0  0  0  0  0  0  0  0  0  0  0  0
   13.6252    1.5026   22.4080 C   0  0  0  0  0  0  0  0  0  0  0  0
    4.0980    2.1130   19.5350 C   0  0  0  0  0  0  0  0  0  0  0  0
    4.2970    1.6690   20.8430 C   0  0  0  0  0  0  0  0  0  0  0  0
   12.3009    0.2819   24.5384 C   0  0  0  0  0  0  0  0  0  0  0  0
   12.2370    1.5924   22.5097 C   0  0  0  0  0  0  0  0  0  0  0  0
    4.9400    1.7060   18.5060 C   0  0  0  0  0  0  0  0  0  0  0  0
    5.3360    0.8000   21.1530 C   0  0  0  0  0  0  0  0  0  0  0  0
    8.3310   -2.7170   25.3430 C   0  0  0  0  0  0  0  0  0  0  0  0
   10.2570   -3.5000   24.1350 C   0  0  0  0  0  0  0  0  0  0  0  0
    8.3510   -1.5420   24.6110 C   0  0  0  0  0  0  0  0  0  0  0  0
   10.2760   -2.3270   23.4020 C   0  0  0  0  0  0  0  0  0  0  0  0
    7.6830   -0.5170   18.7600 C   0  0  0  0  0  0  0  0  0  0  0  0
   11.5748    0.9821   23.5749 C   0  0  0  0  0  0  0  0  0  0  0  0
    5.9810    0.8330   18.8060 C   0  0  0  0  0  0  0  0  0  0  0  0
    6.1600    0.3870   20.1140 C   0  0  0  0  0  0  0  0  0  0  0  0
    9.2850   -3.7090   25.1090 C   0  0  0  0  0  0  0  0  0  0  0  0
    9.3300   -1.3350   23.6390 C   0  0  0  0  0  0  0  0  0  0  0  0
    8.9510    0.1280   21.6880 C   0  0  0  0  0  0  0  0  0  0  0  0
    7.3162   -6.8834   26.5210 C   0  0  0  0  0  0  0  0  0  0  0  0
    7.3507   -5.5245   27.2240 C   0  0  0  0  0  0  0  0  0  0  0  0
    7.9375   -6.8069   25.1245 C   0  0  0  0  0  0  0  0  0  0  0  0
    8.7638   -4.9418   27.2163 C   0  0  0  0  0  0  0  0  0  0  0  0
    9.3378   -6.1874   25.1659 C   0  0  0  0  0  0  0  0  0  0  0  0
   10.0805    1.0790   23.6836 C   0  0  0  0  0  0  0  0  0  0  0  0
    6.9440    0.2550   18.0100 N   0  0  0  0  0  0  0  0  0  0  0  0
    7.2210   -0.4620   20.0350 N   0  0  0  0  0  0  0  0  0  0  0  0
    9.2639   -4.8860   25.8399 N   0  0  0  0  0  0  0  0  0  0  0  0
    8.0810   -0.9750   21.0820 N   0  0  0  0  0  0  0  0  0  0  0  0
    9.4200   -0.0840   22.9530 N   0  0  0  0  0  0  0  0  0  0  0  0
    9.1870    1.1500   21.0630 O   0  0  0  0  0  0  0  0  0  0  0  0
   15.4324    0.7335   23.2932 H   0  0  0  0  0  0  0  0  0  0  0  0
   14.2544   -0.3522   25.1876 H   0  0  0  0  0  0  0  0  0  0  0  0
   14.1406    1.9788   21.5791 H   0  0  0  0  0  0  0  0  0  0  0  0
    3.2711    2.7870   19.3201 H   0  0  0  0  0  0  0  0  0  0  0  0
    3.6262    2.0082   21.6284 H   0  0  0  0  0  0  0  0  0  0  0  0
   11.7933   -0.1969   25.3717 H   0  0  0  0  0  0  0  0  0  0  0  0
   11.6796    2.1399   21.7542 H   0  0  0  0  0  0  0  0  0  0  0  0
    4.7816    2.0660   17.4901 H   0  0  0  0  0  0  0  0  0  0  0  0
    5.4934    0.4579   22.1787 H   0  0  0  0  0  0  0  0  0  0  0  0
    7.5647   -2.8621   26.1053 H   0  0  0  0  0  0  0  0  0  0  0  0
   11.0144   -4.2642   23.9425 H   0  0  0  0  0  0  0  0  0  0  0  0
    7.5958   -0.7779   24.8006 H   0  0  0  0  0  0  0  0  0  0  0  0
   11.0406   -2.1848   22.6356 H   0  0  0  0  0  0  0  0  0  0  0  0
    8.5166   -1.1054   18.4533 H   0  0  0  0  0  0  0  0  0  0  0  0
    7.8578   -7.6261   27.1266 H   0  0  0  0  0  0  0  0  0  0  0  0
    6.2773   -7.2358   26.4459 H   0  0  0  0  0  0  0  0  0  0  0  0
    6.6663   -4.8351   26.7223 H   0  0  0  0  0  0  0  0  0  0  0  0
    7.0044   -5.6368   28.2534 H   0  0  0  0  0  0  0  0  0  0  0  0
    7.9946   -7.8119   24.6937 H   0  0  0  0  0  0  0  0  0  0  0  0
    7.2929   -6.2123   24.4668 H   0  0  0  0  0  0  0  0  0  0  0  0
    8.7343   -3.9408   27.6542 H   0  0  0  0  0  0  0  0  0  0  0  0
    9.4243   -5.5632   27.8278 H   0  0  0  0  0  0  0  0  0  0  0  0
   10.0200   -6.8490   25.7011 H   0  0  0  0  0  0  0  0  0  0  0  0
    9.6984   -6.0694   24.1436 H   0  0  0  0  0  0  0  0  0  0  0  0
    9.7679    1.0633   24.7334 H   0  0  0  0  0  0  0  0  0  0  0  0
    9.7147    2.0153   23.2493 H   0  0  0  0  0  0  0  0  0  0  0  0
    8.1334   -1.7991   21.3673 H   0  0  0  0  0  0  0  0  0  0  0  0
  1  2  1  0  0  0  0
  1  3  2  0  0  0  0
  2  6  2  0  0  0  0
  3  7  1  0  0  0  0
  4  5  1  0  0  0  0
  4  8  2  0  0  0  0
  5  9  2  0  0  0  0
  6 15  1  0  0  0  0
  7 15  2  0  0  0  0
  8 16  1  0  0  0  0
  9 17  1  0  0  0  0
 10 12  2  0  0  0  0
 10 18  1  0  0  0  0
 11 13  1  0  0  0  0
 11 18  2  0  0  0  0
 12 19  1  0  0  0  0
 13 19  2  0  0  0  0
 14 27  2  0  0  0  0
 14 28  1  0  0  0  0
 15 26  1  0  0  0  0
 16 17  2  0  0  0  0
 16 27  1  0  0  0  0
 17 28  1  0  0  0  0
 18 29  1  0  0  0  0
 19 31  1  0  0  0  0
 20 30  1  0  0  0  0
 20 31  1  0  0  0  0
 20 32  2  0  0  0  0
 21 22  1  0  0  0  0
 21 23  1  0  0  0  0
 22 24  1  0  0  0  0
 23 25  1  0  0  0  0
 24 29  1  0  0  0  0
 25 29  1  0  0  0  0
 26 31  1  0  0  0  0
 28 30  1  0  0  0  0
  1 33  1  0  0  0  0
  2 34  1  0  0  0  0
  3 35  1  0  0  0  0
  4 36  1  0  0  0  0
  5 37  1  0  0  0  0
  6 38  1  0  0  0  0
  7 39  1  0  0  0  0
  8 40  1  0  0  0  0
  9 41  1  0  0  0  0
 10 42  1  0  0  0  0
 11 43  1  0  0  0  0
 12 44  1  0  0  0  0
 13 45  1  0  0  0  0
 14 46  1  0  0  0  0
 21 47  1  0  0  0  0
 21 48  1  0  0  0  0
 22 49  1  0  0  0  0
 22 50  1  0  0  0  0
 23 51  1  0  0  0  0
 23 52  1  0  0  0  0
 24 53  1  0  0  0  0
 24 54  1  0  0  0  0
 25 55  1  0  0  0  0
 25 56  1  0  0  0  0
 26 57  1  0  0  0  0
 26 58  1  0  0  0  0
 30 59  1  0  0  0  0
M  END
> <clash_score>
0

> <docking_score>
-8.480013847351074

> <overlap_score>
1.0137771368026733

$$$$
BENZO_35_1
  -OEChem-08232013473D

 54 57  0     0  0  0  0  0  0999 V2000
    4.0980    2.1130   19.5350 C   0  0  0  0  0  0  0  0  0  0  0  0
    4.2970    1.6690   20.8430 C   0  0  0  0  0  0  0  0  0  0  0  0
    4.9400    1.7060   18.5060 C   0  0  0  0  0  0  0  0  0  0  0  0
    5.3360    0.8000   21.1530 C   0  0  0  0  0  0  0  0  0  0  0  0
    8.3310   -2.7170   25.3430 C   0  0  0  0  0  0  0  0  0  0  0  0
   10.2570   -3.5000   24.1350 C   0  0  0  0  0  0  0  0  0  0  0  0
    8.3510   -1.5420   24.6110 C   0  0  0  0  0  0  0  0  0  0  0  0
   10.2760   -2.3270   23.4020 C   0  0  0  0  0  0  0  0  0  0  0  0
   12.4277    1.8061   22.8281 C   0  0  0  0  0  0  0  0  0  0  0  0
   12.4303    0.1667   24.2934 C   0  0  0  0  0  0  0  0  0  0  0  0
    7.6830   -0.5170   18.7600 C   0  0  0  0  0  0  0  0  0  0  0  0
   11.5794    1.0055   23.6162 C   0  0  0  0  0  0  0  0  0  0  0  0
    5.9810    0.8330   18.8060 C   0  0  0  0  0  0  0  0  0  0  0  0
    6.1600    0.3870   20.1140 C   0  0  0  0  0  0  0  0  0  0  0  0
    9.2850   -3.7090   25.1090 C   0  0  0  0  0  0  0  0  0  0  0  0
    9.3300   -1.3350   23.6390 C   0  0  0  0  0  0  0  0  0  0  0  0
    9.6839   -6.1690   25.4414 C   0  0  0  0  0  0  0  0  0  0  0  0
    8.9510    0.1280   21.6880 C   0  0  0  0  0  0  0  0  0  0  0  0
    8.0382   -7.2886   27.0047 C   0  0  0  0  0  0  0  0  0  0  0  0
   14.9211   -0.1049   24.3245 C   0  0  0  0  0  0  0  0  0  0  0  0
   10.0813    1.0569   23.7013 C   0  0  0  0  0  0  0  0  0  0  0  0
    9.4846   -7.1863   26.5550 C   0  0  0  0  0  0  0  0  0  0  0  0
   13.7186    1.5032   22.9889 N   0  0  0  0  0  0  0  0  0  0  0  0
    6.9440    0.2550   18.0100 N   0  0  0  0  0  0  0  0  0  0  0  0
   13.6877    0.5030   23.8860 N   0  0  0  0  0  0  0  0  0  0  0  0
    7.2210   -0.4620   20.0350 N   0  0  0  0  0  0  0  0  0  0  0  0
    9.2630   -4.8902   25.8410 N   0  0  0  0  0  0  0  0  0  0  0  0
    8.0810   -0.9750   21.0820 N   0  0  0  0  0  0  0  0  0  0  0  0
    9.4200   -0.0840   22.9530 N   0  0  0  0  0  0  0  0  0  0  0  0
   10.1566   -6.4800   24.3532 O   0  0  0  0  0  0  0  0  0  0  0  0
    9.1870    1.1500   21.0630 O   0  0  0  0  0  0  0  0  0  0  0  0
    3.2711    2.7870   19.3201 H   0  0  0  0  0  0  0  0  0  0  0  0
    3.6262    2.0082   21.6284 H   0  0  0  0  0  0  0  0  0  0  0  0
    4.7816    2.0660   17.4901 H   0  0  0  0  0  0  0  0  0  0  0  0
    5.4934    0.4579   22.1787 H   0  0  0  0  0  0  0  0  0  0  0  0
    7.5639   -2.8621   26.1045 H   0  0  0  0  0  0  0  0  0  0  0  0
   11.0141   -4.2644   23.9422 H   0  0  0  0  0  0  0  0  0  0  0  0
    7.5950   -0.7788   24.8007 H   0  0  0  0  0  0  0  0  0  0  0  0
   11.0408   -2.1861   22.6359 H   0  0  0  0  0  0  0  0  0  0  0  0
   12.1616    2.5988   22.1432 H   0  0  0  0  0  0  0  0  0  0  0  0
   12.2527   -0.6204   25.0137 H   0  0  0  0  0  0  0  0  0  0  0  0
    8.5166   -1.1054   18.4533 H   0  0  0  0  0  0  0  0  0  0  0  0
    7.6701   -6.3234   27.3679 H   0  0  0  0  0  0  0  0  0  0  0  0
    7.9415   -8.0182   27.8146 H   0  0  0  0  0  0  0  0  0  0  0  0
    7.3916   -7.6056   26.1798 H   0  0  0  0  0  0  0  0  0  0  0  0
   15.1436   -0.9386   23.6532 H   0  0  0  0  0  0  0  0  0  0  0  0
   15.7241    0.6366   24.2922 H   0  0  0  0  0  0  0  0  0  0  0  0
   14.8033   -0.4608   25.3518 H   0  0  0  0  0  0  0  0  0  0  0  0
    9.7520    1.0102   24.7451 H   0  0  0  0  0  0  0  0  0  0  0  0
    9.6956    1.9913   23.2801 H   0  0  0  0  0  0  0  0  0  0  0  0
    9.8261   -8.1645   26.1973 H   0  0  0  0  0  0  0  0  0  0  0  0
   10.1125   -6.8978   27.4059 H   0  0  0  0  0  0  0  0  0  0  0  0
    8.8927   -4.8255   26.7964 H   0  0  0  0  0  0  0  0  0  0  0  0
    8.0998   -1.8216   21.3383 H   0  0  0  0  0  0  0  0  0  0  0  0
  1  2  1  0  0  0  0
  1  3  2  0  0  0  0
  2  4  2  0  0  0  0
  3 13  1  0  0  0  0
  4 14  1  0  0  0  0
  5  7  2  0  0  0  0
  5 15  1  0  0  0  0
  6  8  1  0  0  0  0
  6 15  2  0  0  0  0
  7 16  1  0  0  0  0
  8 16  2  0  0  0  0
  9 12  1  0  0  0  0
  9 23  2  0  0  0  0
 10 12  2  0  0  0  0
 10 25  1  0  0  0  0
 11 24  2  0  0  0  0
 11 26  1  0  0  0  0
 12 21  1  0  0  0  0
 13 14  2  0  0  0  0
 13 24  1  0  0  0  0
 14 26  1  0  0  0  0
 15 27  1  0  0  0  0
 16 29  1  0  0  0  0
 17 22  1  0  0  0  0
 17 27  1  0  0  0  0
 17 30  2  0  0  0  0
 18 28  1  0  0  0  0
 18 29  1  0  0  0  0
 18 31  2  0  0  0  0
 19 22  1  0  0  0  0
 20 25  1  0  0  0  0
 21 29  1  0  0  0  0
 23 25  1  0  0  0  0
 26 28  1  0  0  0  0
  1 32  1  0  0  0  0
  2 33  1  0  0  0  0
  3 34  1  0  0  0  0
  4 35  1  0  0  0  0
  5 36  1  0  0  0  0
  6 37  1  0  0  0  0
  7 38  1  0  0  0  0
  8 39  1  0  0  0  0
  9 40  1  0  0  0  0
 10 41  1  0  0  0  0
 11 42  1  0  0  0  0
 19 43  1  0  0  0  0
 19 44  1  0  0  0  0
 19 45  1  0  0  0  0
 20 46  1  0  0  0  0
 20 47  1  0  0  0  0
 20 48  1  0  0  0  0
 21 49  1  0  0  0  0
 21 50  1  0  0  0  0
 22 51  1  0  0  0  0
 22 52  1  0  0  0  0
 27 53  1  0  0  0  0
 28 54  1  0  0  0  0
M  END
> <clash_score>
1.3333632944556628

> <docking_score>
-6.16724157333374

> <overlap_score>
0.9865301847457886

$$$$
BENZO_36_1
  -OEChem-08232013473D

 56 60  0     0  0  0  0  0  0999 V2000
    4.0980    2.1130   19.5350 C   0  0  0  0  0  0  0  0  0  0  0  0
    4.2970    1.6690   20.8430 C   0  0  0  0  0  0  0  0  0  0  0  0
    4.9400    1.7060   18.5060 C   0  0  0  0  0  0  0  0  0  0  0  0
    5.3360    0.8000   21.1530 C   0  0  0  0  0  0  0  0  0  0  0  0
    8.3310   -2.7170   25.3430 C   0  0  0  0  0  0  0  0  0  0  0  0
   10.2570   -3.5000   24.1350 C   0  0  0  0  0  0  0  0  0  0  0  0
    8.3510   -1.5420   24.6110 C   0  0  0  0  0  0  0  0  0  0  0  0
   10.2760   -2.3270   23.4020 C   0  0  0  0  0  0  0  0  0  0  0  0
   12.2829    0.9776   22.3384 C   0  0  0  0  0  0  0  0  0  0  0  0
   13.6445    0.8787   22.5222 C   0  0  0  0  0  0  0  0  0  0  0  0
   12.4223    0.8862   24.6567 C   0  0  0  0  0  0  0  0  0  0  0  0
    7.6830   -0.5170   18.7600 C   0  0  0  0  0  0  0  0  0  0  0  0
   11.5748    0.9821   23.5749 C   0  0  0  0  0  0  0  0  0  0  0  0
    5.9810    0.8330   18.8060 C   0  0  0  0  0  0  0  0  0  0  0  0
    6.1600    0.3870   20.1140 C   0  0  0  0  0  0  0  0  0  0  0  0
    9.2850   -3.7090   25.1090 C   0  0  0  0  0  0  0  0  0  0  0  0
    9.3300   -1.3350   23.6390 C   0  0  0  0  0  0  0  0  0  0  0  0
    8.9510    0.1280   21.6880 C   0  0  0  0  0  0  0  0  0  0  0  0
    7.3162   -6.8834   26.5210 C   0  0  0  0  0  0  0  0  0  0  0  0
    7.3507   -5.5245   27.2240 C   0  0  0  0  0  0  0  0  0  0  0  0
    7.9375   -6.8069   25.1245 C   0  0  0  0  0  0  0  0  0  0  0  0
    8.7638   -4.9418   27.2163 C   0  0  0  0  0  0  0  0  0  0  0  0
    9.3378   -6.1874   25.1659 C   0  0  0  0  0  0  0  0  0  0  0  0
   10.0805    1.0790   23.6836 C   0  0  0  0  0  0  0  0  0  0  0  0
    6.9440    0.2550   18.0100 N   0  0  0  0  0  0  0  0  0  0  0  0
    7.2210   -0.4620   20.0350 N   0  0  0  0  0  0  0  0  0  0  0  0
    9.2639   -4.8860   25.8399 N   0  0  0  0  0  0  0  0  0  0  0  0
    8.0810   -0.9750   21.0820 N   0  0  0  0  0  0  0  0  0  0  0  0
    9.4200   -0.0840   22.9530 N   0  0  0  0  0  0  0  0  0  0  0  0
    9.1870    1.1500   21.0630 O   0  0  0  0  0  0  0  0  0  0  0  0
   14.0643    0.7917   24.1801 S   0  0  0  0  0  0  0  0  0  0  0  0
    3.2711    2.7870   19.3201 H   0  0  0  0  0  0  0  0  0  0  0  0
    3.6262    2.0082   21.6284 H   0  0  0  0  0  0  0  0  0  0  0  0
    4.7816    2.0660   17.4901 H   0  0  0  0  0  0  0  0  0  0  0  0
    5.4934    0.4579   22.1787 H   0  0  0  0  0  0  0  0  0  0  0  0
    7.5647   -2.8621   26.1053 H   0  0  0  0  0  0  0  0  0  0  0  0
   11.0144   -4.2642   23.9425 H   0  0  0  0  0  0  0  0  0  0  0  0
    7.5958   -0.7779   24.8006 H   0  0  0  0  0  0  0  0  0  0  0  0
   11.0406   -2.1848   22.6356 H   0  0  0  0  0  0  0  0  0  0  0  0
   11.8208    1.0429   21.3614 H   0  0  0  0  0  0  0  0  0  0  0  0
   14.4127    0.8527   21.7624 H   0  0  0  0  0  0  0  0  0  0  0  0
   12.1600    0.8657   25.7054 H   0  0  0  0  0  0  0  0  0  0  0  0
    8.5166   -1.1054   18.4533 H   0  0  0  0  0  0  0  0  0  0  0  0
    7.8578   -7.6261   27.1266 H   0  0  0  0  0  0  0  0  0  0  0  0
    6.2773   -7.2358   26.4459 H   0  0  0  0  0  0  0  0  0  0  0  0
    6.6663   -4.8351   26.7223 H   0  0  0  0  0  0  0  0  0  0  0  0
    7.0044   -5.6368   28.2534 H   0  0  0  0  0  0  0  0  0  0  0  0
    7.9946   -7.8119   24.6937 H   0  0  0  0  0  0  0  0  0  0  0  0
    7.2929   -6.2123   24.4668 H   0  0  0  0  0  0  0  0  0  0  0  0
    8.7343   -3.9408   27.6542 H   0  0  0  0  0  0  0  0  0  0  0  0
    9.4243   -5.5632   27.8278 H   0  0  0  0  0  0  0  0  0  0  0  0
   10.0200   -6.8490   25.7011 H   0  0  0  0  0  0  0  0  0  0  0  0
    9.6984   -6.0694   24.1436 H   0  0  0  0  0  0  0  0  0  0  0  0
    9.7679    1.0633   24.7334 H   0  0  0  0  0  0  0  0  0  0  0  0
    9.7147    2.0153   23.2493 H   0  0  0  0  0  0  0  0  0  0  0  0
    8.1334   -1.7991   21.3673 H   0  0  0  0  0  0  0  0  0  0  0  0
  1  2  1  0  0  0  0
  1  3  2  0  0  0  0
  2  4  2  0  0  0  0
  3 14  1  0  0  0  0
  4 15  1  0  0  0  0
  5  7  2  0  0  0  0
  5 16  1  0  0  0  0
  6  8  1  0  0  0  0
  6 16  2  0  0  0  0
  7 17  1  0  0  0  0
  8 17  2  0  0  0  0
  9 10  2  0  0  0  0
  9 13  1  0  0  0  0
 10 31  1  0  0  0  0
 11 13  2  0  0  0  0
 11 31  1  0  0  0  0
 12 25  2  0  0  0  0
 12 26  1  0  0  0  0
 13 24  1  0  0  0  0
 14 15  2  0  0  0  0
 14 25  1  0  0  0  0
 15 26  1  0  0  0  0
 16 27  1  0  0  0  0
 17 29  1  0  0  0  0
 18 28  1  0  0  0  0
 18 29  1  0  0  0  0
 18 30  2  0  0  0  0
 19 20  1  0  0  0  0
 19 21  1  0  0  0  0
 20 22  1  0  0  0  0
 21 23  1  0  0  0  0
 22 27  1  0  0  0  0
 23 27  1  0  0  0  0
 24 29  1  0  0  0  0
 26 28  1  0  0  0  0
  1 32  1  0  0  0  0
  2 33  1  0  0  0  0
  3 34  1  0  0  0  0
  4 35  1  0  0  0  0
  5 36  1  0  0  0  0
  6 37  1  0  0  0  0
  7 38  1  0  0  0  0
  8 39  1  0  0  0  0
  9 40  1  0  0  0  0
 10 41  1  0  0  0  0
 11 42  1  0  0  0  0
 12 43  1  0  0  0  0
 19 44  1  0  0  0  0
 19 45  1  0  0  0  0
 20 46  1  0  0  0  0
 20 47  1  0  0  0  0
 21 48  1  0  0  0  0
 21 49  1  0  0  0  0
 22 50  1  0  0  0  0
 22 51  1  0  0  0  0
 23 52  1  0  0  0  0
 23 53  1  0  0  0  0
 24 54  1  0  0  0  0
 24 55  1  0  0  0  0
 28 56  1  0  0  0  0
M  END
> <clash_score>
0

> <docking_score>
-8.76622486114502

> <overlap_score>
0.9880418181419373

$$$$
BENZO_41_1
  -OEChem-08232013473D

 47 50  0     0  0  0  0  0  0999 V2000
   14.3629    0.9103   23.4566 C   0  0  0  0  0  0  0  0  0  0  0  0
   13.7013    0.2582   24.4971 C   0  0  0  0  0  0  0  0  0  0  0  0
   13.6328    1.6101   22.4959 C   0  0  0  0  0  0  0  0  0  0  0  0
    4.0980    2.1130   19.5350 C   0  0  0  0  0  0  0  0  0  0  0  0
    4.2970    1.6690   20.8430 C   0  0  0  0  0  0  0  0  0  0  0  0
   12.3095    0.3058   24.5769 C   0  0  0  0  0  0  0  0  0  0  0  0
   12.2410    1.6577   22.5757 C   0  0  0  0  0  0  0  0  0  0  0  0
    8.3310   -2.7170   25.3430 C   0  0  0  0  0  0  0  0  0  0  0  0
   10.2570   -3.5000   24.1350 C   0  0  0  0  0  0  0  0  0  0  0  0
    4.9400    1.7060   18.5060 C   0  0  0  0  0  0  0  0  0  0  0  0
    5.3360    0.8000   21.1530 C   0  0  0  0  0  0  0  0  0  0  0  0
    8.3510   -1.5420   24.6110 C   0  0  0  0  0  0  0  0  0  0  0  0
   10.2760   -2.3270   23.4020 C   0  0  0  0  0  0  0  0  0  0  0  0
    7.6830   -0.5170   18.7600 C   0  0  0  0  0  0  0  0  0  0  0  0
    9.2850   -3.7090   25.1090 C   0  0  0  0  0  0  0  0  0  0  0  0
   11.5794    1.0055   23.6162 C   0  0  0  0  0  0  0  0  0  0  0  0
    5.9810    0.8330   18.8060 C   0  0  0  0  0  0  0  0  0  0  0  0
    6.1600    0.3870   20.1140 C   0  0  0  0  0  0  0  0  0  0  0  0
    9.3300   -1.3350   23.6390 C   0  0  0  0  0  0  0  0  0  0  0  0
    8.9510    0.1280   21.6880 C   0  0  0  0  0  0  0  0  0  0  0  0
    9.2610   -4.9721   25.8916 C   0  0  0  0  0  0  0  0  0  0  0  0
   10.0813    1.0569   23.7013 C   0  0  0  0  0  0  0  0  0  0  0  0
    6.9440    0.2550   18.0100 N   0  0  0  0  0  0  0  0  0  0  0  0
    7.2210   -0.4620   20.0350 N   0  0  0  0  0  0  0  0  0  0  0  0
    8.0810   -0.9750   21.0820 N   0  0  0  0  0  0  0  0  0  0  0  0
    9.4200   -0.0840   22.9530 N   0  0  0  0  0  0  0  0  0  0  0  0
    9.1870    1.1500   21.0630 O   0  0  0  0  0  0  0  0  0  0  0  0
   15.4467    0.8743   23.3954 H   0  0  0  0  0  0  0  0  0  0  0  0
   14.2697   -0.2858   25.2458 H   0  0  0  0  0  0  0  0  0  0  0  0
   14.1476    2.1189   21.6863 H   0  0  0  0  0  0  0  0  0  0  0  0
    3.2711    2.7870   19.3201 H   0  0  0  0  0  0  0  0  0  0  0  0
    3.6262    2.0082   21.6284 H   0  0  0  0  0  0  0  0  0  0  0  0
   11.8025   -0.2055   25.3909 H   0  0  0  0  0  0  0  0  0  0  0  0
   11.6804    2.2052   21.8227 H   0  0  0  0  0  0  0  0  0  0  0  0
    7.5665   -2.8638   26.1066 H   0  0  0  0  0  0  0  0  0  0  0  0
   11.0137   -4.2652   23.9447 H   0  0  0  0  0  0  0  0  0  0  0  0
    4.7816    2.0660   17.4901 H   0  0  0  0  0  0  0  0  0  0  0  0
    5.4934    0.4579   22.1787 H   0  0  0  0  0  0  0  0  0  0  0  0
    7.5948   -0.7788   24.7997 H   0  0  0  0  0  0  0  0  0  0  0  0
   11.0411   -2.1856   22.6358 H   0  0  0  0  0  0  0  0  0  0  0  0
    8.5166   -1.1054   18.4533 H   0  0  0  0  0  0  0  0  0  0  0  0
    8.6398   -5.7223   25.3871 H   0  0  0  0  0  0  0  0  0  0  0  0
   10.2715   -5.3829   26.0145 H   0  0  0  0  0  0  0  0  0  0  0  0
    8.8596   -4.8092   26.9004 H   0  0  0  0  0  0  0  0  0  0  0  0
    9.7520    1.0102   24.7451 H   0  0  0  0  0  0  0  0  0  0  0  0
    9.6956    1.9913   23.2801 H   0  0  0  0  0  0  0  0  0  0  0  0
    8.0998   -1.8216   21.3383 H   0  0  0  0  0  0  0  0  0  0  0  0
  1  2  1  0  0  0  0
  1  3  2  0  0  0  0
  2  6  2  0  0  0  0
  3  7  1  0  0  0  0
  4  5  1  0  0  0  0
  4 10  2  0  0  0  0
  5 11  2  0  0  0  0
  6 16  1  0  0  0  0
  7 16  2  0  0  0  0
  8 12  2  0  0  0  0
  8 15  1  0  0  0  0
  9 13  1  0  0  0  0
  9 15  2  0  0  0  0
 10 17  1  0  0  0  0
 11 18  1  0  0  0  0
 12 19  1  0  0  0  0
 13 19  2  0  0  0  0
 14 23  2  0  0  0  0
 14 24  1  0  0  0  0
 15 21  1  0  0  0  0
 16 22  1  0  0  0  0
 17 18  2  0  0  0  0
 17 23  1  0  0  0  0
 18 24  1  0  0  0  0
 19 26  1  0  0  0  0
 20 25  1  0  0  0  0
 20 26  1  0  0  0  0
 20 27  2  0  0  0  0
 22 26  1  0  0  0  0
 24 25  1  0  0  0  0
  1 28  1  0  0  0  0
  2 29  1  0  0  0  0
  3 30  1  0  0  0  0
  4 31  1  0  0  0  0
  5 32  1  0  0  0  0
  6 33  1  0  0  0  0
  7 34  1  0  0  0  0
  8 35  1  0  0  0  0
  9 36  1  0  0  0  0
 10 37  1  0  0  0  0
 11 38  1  0  0  0  0
 12 39  1  0  0  0  0
 13 40  1  0  0  0  0
 14 41  1  0  0  0  0
 21 42  1  0  0  0  0
 21 43  1  0  0  0  0
 21 44  1  0  0  0  0
 22 45  1  0  0  0  0
 22 46  1  0  0  0  0
 25 47  1  0  0  0  0
M  END
> <clash_score>
0

> <docking_score>
-9.514670372009277

> <overlap_score>
0.9703348278999329

$$$$
BENZO_40_1
  -OEChem-08232013473D

 44 47  0     0  0  0  0  0  0999 V2000
    4.0980    2.1130   19.5350 C   0  0  0  0  0  0  0  0  0  0  0  0
    4.2970    1.6690   20.8430 C   0  0  0  0  0  0  0  0  0  0  0  0
    8.3310   -2.7170   25.3430 C   0  0  0  0  0  0  0  0  0  0  0  0
   10.2570   -3.5000   24.1350 C   0  0  0  0  0  0  0  0  0  0  0  0
    4.9400    1.7060   18.5060 C   0  0  0  0  0  0  0  0  0  0  0  0
    5.3360    0.8000   21.1530 C   0  0  0  0  0  0  0  0  0  0  0  0
    8.3510   -1.5420   24.6110 C   0  0  0  0  0  0  0  0  0  0  0  0
   10.2760   -2.3270   23.4020 C   0  0  0  0  0  0  0  0  0  0  0  0
   12.3075    1.0475   22.3922 C   0  0  0  0  0  0  0  0  0  0  0  0
   13.6682    0.9841   22.5972 C   0  0  0  0  0  0  0  0  0  0  0  0
   12.4114    0.9114   24.7102 C   0  0  0  0  0  0  0  0  0  0  0  0
    7.6830   -0.5170   18.7600 C   0  0  0  0  0  0  0  0  0  0  0  0
    9.2850   -3.7090   25.1090 C   0  0  0  0  0  0  0  0  0  0  0  0
   11.5794    1.0055   23.6162 C   0  0  0  0  0  0  0  0  0  0  0  0
    5.9810    0.8330   18.8060 C   0  0  0  0  0  0  0  0  0  0  0  0
    6.1600    0.3870   20.1140 C   0  0  0  0  0  0  0  0  0  0  0  0
    9.3300   -1.3350   23.6390 C   0  0  0  0  0  0  0  0  0  0  0  0
    8.9510    0.1280   21.6880 C   0  0  0  0  0  0  0  0  0  0  0  0
    9.2610   -4.9721   25.8916 C   0  0  0  0  0  0  0  0  0  0  0  0
   10.0813    1.0569   23.7013 C   0  0  0  0  0  0  0  0  0  0  0  0
    6.9440    0.2550   18.0100 N   0  0  0  0  0  0  0  0  0  0  0  0
    7.2210   -0.4620   20.0350 N   0  0  0  0  0  0  0  0  0  0  0  0
    8.0810   -0.9750   21.0820 N   0  0  0  0  0  0  0  0  0  0  0  0
    9.4200   -0.0840   22.9530 N   0  0  0  0  0  0  0  0  0  0  0  0
    9.1870    1.1500   21.0630 O   0  0  0  0  0  0  0  0  0  0  0  0
   14.0631    0.8744   24.2598 S   0  0  0  0  0  0  0  0  0  0  0  0
    3.2711    2.7870   19.3201 H   0  0  0  0  0  0  0  0  0  0  0  0
    3.6262    2.0082   21.6284 H   0  0  0  0  0  0  0  0  0  0  0  0
    7.5665   -2.8638   26.1066 H   0  0  0  0  0  0  0  0  0  0  0  0
   11.0137   -4.2652   23.9447 H   0  0  0  0  0  0  0  0  0  0  0  0
    4.7816    2.0660   17.4901 H   0  0  0  0  0  0  0  0  0  0  0  0
    5.4934    0.4579   22.1787 H   0  0  0  0  0  0  0  0  0  0  0  0
    7.5948   -0.7788   24.7997 H   0  0  0  0  0  0  0  0  0  0  0  0
   11.0411   -2.1856   22.6358 H   0  0  0  0  0  0  0  0  0  0  0  0
   11.8600    1.1200   21.4090 H   0  0  0  0  0  0  0  0  0  0  0  0
   14.4493    0.9962   21.8502 H   0  0  0  0  0  0  0  0  0  0  0  0
   12.1325    0.8613   25.7536 H   0  0  0  0  0  0  0  0  0  0  0  0
    8.5166   -1.1054   18.4533 H   0  0  0  0  0  0  0  0  0  0  0  0
    8.6398   -5.7223   25.3871 H   0  0  0  0  0  0  0  0  0  0  0  0
   10.2715   -5.3829   26.0145 H   0  0  0  0  0  0  0  0  0  0  0  0
    8.8596   -4.8092   26.9004 H   0  0  0  0  0  0  0  0  0  0  0  0
    9.7520    1.0102   24.7451 H   0  0  0  0  0  0  0  0  0  0  0  0
    9.6956    1.9913   23.2801 H   0  0  0  0  0  0  0  0  0  0  0  0
    8.0998   -1.8216   21.3383 H   0  0  0  0  0  0  0  0  0  0  0  0
  1  2  1  0  0  0  0
  1  5  2  0  0  0  0
  2  6  2  0  0  0  0
  3  7  2  0  0  0  0
  3 13  1  0  0  0  0
  4  8  1  0  0  0  0
  4 13  2  0  0  0  0
  5 15  1  0  0  0  0
  6 16  1  0  0  0  0
  7 17  1  0  0  0  0
  8 17  2  0  0  0  0
  9 10  2  0  0  0  0
  9 14  1  0  0  0  0
 10 26  1  0  0  0  0
 11 14  2  0  0  0  0
 11 26  1  0  0  0  0
 12 21  2  0  0  0  0
 12 22  1  0  0  0  0
 13 19  1  0  0  0  0
 14 20  1  0  0  0  0
 15 16  2  0  0  0  0
 15 21  1  0  0  0  0
 16 22  1  0  0  0  0
 17 24  1  0  0  0  0
 18 23  1  0  0  0  0
 18 24  1  0  0  0  0
 18 25  2  0  0  0  0
 20 24  1  0  0  0  0
 22 23  1  0  0  0  0
  1 27  1  0  0  0  0
  2 28  1  0  0  0  0
  3 29  1  0  0  0  0
  4 30  1  0  0  0  0
  5 31  1  0  0  0  0
  6 32  1  0  0  0  0
  7 33  1  0  0  0  0
  8 34  1  0  0  0  0
  9 35  1  0  0  0  0
 10 36  1  0  0  0  0
 11 37  1  0  0  0  0
 12 38  1  0  0  0  0
 19 39  1  0  0  0  0
 19 40  1  0  0  0  0
 19 41  1  0  0  0  0
 20 42  1  0  0  0  0
 20 43  1  0  0  0  0
 23 44  1  0  0  0  0
M  END
> <clash_score>
0

> <docking_score>
-9.814650535583496

> <overlap_score>
0.9445967674255371

$$$$
BENZO_38_1
  -OEChem-08232013473D

 59 63  0     0  0  0  0  0  0999 V2000
    4.0980    2.1130   19.5350 C   0  0  0  0  0  0  0  0  0  0  0  0
    4.2970    1.6690   20.8430 C   0  0  0  0  0  0  0  0  0  0  0  0
   13.7738    1.6650   24.3062 C   0  0  0  0  0  0  0  0  0  0  0  0
   12.3855    1.7553   24.4058 C   0  0  0  0  0  0  0  0  0  0  0  0
    4.9400    1.7060   18.5060 C   0  0  0  0  0  0  0  0  0  0  0  0
    5.3360    0.8000   21.1530 C   0  0  0  0  0  0  0  0  0  0  0  0
    8.3310   -2.7170   25.3430 C   0  0  0  0  0  0  0  0  0  0  0  0
   10.2570   -3.5000   24.1350 C   0  0  0  0  0  0  0  0  0  0  0  0
    8.3510   -1.5420   24.6110 C   0  0  0  0  0  0  0  0  0  0  0  0
   10.2760   -2.3270   23.4020 C   0  0  0  0  0  0  0  0  0  0  0  0
   14.3515    0.8014   23.3754 C   0  0  0  0  0  0  0  0  0  0  0  0
   12.1524    0.1185   22.6441 C   0  0  0  0  0  0  0  0  0  0  0  0
    7.6830   -0.5170   18.7600 C   0  0  0  0  0  0  0  0  0  0  0  0
   11.5748    0.9821   23.5749 C   0  0  0  0  0  0  0  0  0  0  0  0
    5.9810    0.8330   18.8060 C   0  0  0  0  0  0  0  0  0  0  0  0
    6.1600    0.3870   20.1140 C   0  0  0  0  0  0  0  0  0  0  0  0
    9.2850   -3.7090   25.1090 C   0  0  0  0  0  0  0  0  0  0  0  0
    9.3300   -1.3350   23.6390 C   0  0  0  0  0  0  0  0  0  0  0  0
   13.5408    0.0282   22.5444 C   0  0  0  0  0  0  0  0  0  0  0  0
    8.9510    0.1280   21.6880 C   0  0  0  0  0  0  0  0  0  0  0  0
    7.3162   -6.8834   26.5210 C   0  0  0  0  0  0  0  0  0  0  0  0
    7.3507   -5.5245   27.2240 C   0  0  0  0  0  0  0  0  0  0  0  0
    7.9375   -6.8069   25.1245 C   0  0  0  0  0  0  0  0  0  0  0  0
    8.7638   -4.9418   27.2163 C   0  0  0  0  0  0  0  0  0  0  0  0
    9.3378   -6.1874   25.1659 C   0  0  0  0  0  0  0  0  0  0  0  0
   10.0805    1.0790   23.6836 C   0  0  0  0  0  0  0  0  0  0  0  0
    6.9440    0.2550   18.0100 N   0  0  0  0  0  0  0  0  0  0  0  0
    7.2210   -0.4620   20.0350 N   0  0  0  0  0  0  0  0  0  0  0  0
    9.2639   -4.8860   25.8399 N   0  0  0  0  0  0  0  0  0  0  0  0
    8.0810   -0.9750   21.0820 N   0  0  0  0  0  0  0  0  0  0  0  0
    9.4200   -0.0840   22.9530 N   0  0  0  0  0  0  0  0  0  0  0  0
    9.1870    1.1500   21.0630 O   0  0  0  0  0  0  0  0  0  0  0  0
   14.2541   -1.0379   21.3971 Cl  0  0  0  0  0  0  0  0  0  0  0  0
    3.2711    2.7870   19.3201 H   0  0  0  0  0  0  0  0  0  0  0  0
    3.6262    2.0082   21.6284 H   0  0  0  0  0  0  0  0  0  0  0  0
   14.4047    2.2672   24.9535 H   0  0  0  0  0  0  0  0  0  0  0  0
   11.9440    2.4308   25.1340 H   0  0  0  0  0  0  0  0  0  0  0  0
    4.7816    2.0660   17.4901 H   0  0  0  0  0  0  0  0  0  0  0  0
    5.4934    0.4579   22.1787 H   0  0  0  0  0  0  0  0  0  0  0  0
    7.5647   -2.8621   26.1053 H   0  0  0  0  0  0  0  0  0  0  0  0
   11.0144   -4.2642   23.9425 H   0  0  0  0  0  0  0  0  0  0  0  0
    7.5958   -0.7779   24.8006 H   0  0  0  0  0  0  0  0  0  0  0  0
   11.0406   -2.1848   22.6356 H   0  0  0  0  0  0  0  0  0  0  0  0
   15.4350    0.7411   23.3090 H   0  0  0  0  0  0  0  0  0  0  0  0
   11.5160   -0.4819   21.9981 H   0  0  0  0  0  0  0  0  0  0  0  0
    8.5166   -1.1054   18.4533 H   0  0  0  0  0  0  0  0  0  0  0  0
    7.8578   -7.6261   27.1266 H   0  0  0  0  0  0  0  0  0  0  0  0
    6.2773   -7.2358   26.4459 H   0  0  0  0  0  0  0  0  0  0  0  0
    6.6663   -4.8351   26.7223 H   0  0  0  0  0  0  0  0  0  0  0  0
    7.0044   -5.6368   28.2534 H   0  0  0  0  0  0  0  0  0  0  0  0
    7.9946   -7.8119   24.6937 H   0  0  0  0  0  0  0  0  0  0  0  0
    7.2929   -6.2123   24.4668 H   0  0  0  0  0  0  0  0  0  0  0  0
    8.7343   -3.9408   27.6542 H   0  0  0  0  0  0  0  0  0  0  0  0
    9.4243   -5.5632   27.8278 H   0  0  0  0  0  0  0  0  0  0  0  0
   10.0200   -6.8490   25.7011 H   0  0  0  0  0  0  0  0  0  0  0  0
    9.6984   -6.0694   24.1436 H   0  0  0  0  0  0  0  0  0  0  0  0
    9.7679    1.0633   24.7334 H   0  0  0  0  0  0  0  0  0  0  0  0
    9.7147    2.0153   23.2493 H   0  0  0  0  0  0  0  0  0  0  0  0
    8.1334   -1.7991   21.3673 H   0  0  0  0  0  0  0  0  0  0  0  0
  1  2  1  0  0  0  0
  1  5  2  0  0  0  0
  2  6  2  0  0  0  0
  3  4  2  0  0  0  0
  3 11  1  0  0  0  0
  4 14  1  0  0  0  0
  5 15  1  0  0  0  0
  6 16  1  0  0  0  0
  7  9  2  0  0  0  0
  7 17  1  0  0  0  0
  8 10  1  0  0  0  0
  8 17  2  0  0  0  0
  9 18  1  0  0  0  0
 10 18  2  0  0  0  0
 11 19  2  0  0  0  0
 12 14  2  0  0  0  0
 12 19  1  0  0  0  0
 13 27  2  0  0  0  0
 13 28  1  0  0  0  0
 14 26  1  0  0  0  0
 15 16  2  0  0  0  0
 15 27  1  0  0  0  0
 16 28  1  0  0  0  0
 17 29  1  0  0  0  0
 18 31  1  0  0  0  0
 19 33  1  0  0  0  0
 20 30  1  0  0  0  0
 20 31  1  0  0  0  0
 20 32  2  0  0  0  0
 21 22  1  0  0  0  0
 21 23  1  0  0  0  0
 22 24  1  0  0  0  0
 23 25  1  0  0  0  0
 24 29  1  0  0  0  0
 25 29  1  0  0  0  0
 26 31  1  0  0  0  0
 28 30  1  0  0  0  0
  1 34  1  0  0  0  0
  2 35  1  0  0  0  0
  3 36  1  0  0  0  0
  4 37  1  0  0  0  0
  5 38  1  0  0  0  0
  6 39  1  0  0  0  0
  7 40  1  0  0  0  0
  8 41  1  0  0  0  0
  9 42  1  0  0  0  0
 10 43  1  0  0  0  0
 11 44  1  0  0  0  0
 12 45  1  0  0  0  0
 13 46  1  0  0  0  0
 21 47  1  0  0  0  0
 21 48  1  0  0  0  0
 22 49  1  0  0  0  0
 22 50  1  0  0  0  0
 23 51  1  0  0  0  0
 23 52  1  0  0  0  0
 24 53  1  0  0  0  0
 24 54  1  0  0  0  0
 25 55  1  0  0  0  0
 25 56  1  0  0  0  0
 26 57  1  0  0  0  0
 26 58  1  0  0  0  0
 30 59  1  0  0  0  0
M  END
> <clash_score>
0

> <docking_score>
-8.029105186462402

> <overlap_score>
0.9945139288902283

$$$$
BENZO_39_1
  -OEChem-08232013473D

 59 63  0     0  0  0  0  0  0999 V2000
    4.0980    2.1130   19.5350 C   0  0  0  0  0  0  0  0  0  0  0  0
    4.2970    1.6690   20.8430 C   0  0  0  0  0  0  0  0  0  0  0  0
    4.9400    1.7060   18.5060 C   0  0  0  0  0  0  0  0  0  0  0  0
    5.3360    0.8000   21.1530 C   0  0  0  0  0  0  0  0  0  0  0  0
    8.3310   -2.7170   25.3430 C   0  0  0  0  0  0  0  0  0  0  0  0
   10.2570   -3.5000   24.1350 C   0  0  0  0  0  0  0  0  0  0  0  0
    8.3510   -1.5420   24.6110 C   0  0  0  0  0  0  0  0  0  0  0  0
   10.2760   -2.3270   23.4020 C   0  0  0  0  0  0  0  0  0  0  0  0
   12.5423    1.6790   24.3232 C   0  0  0  0  0  0  0  0  0  0  0  0
   12.3048    0.1898   22.7229 C   0  0  0  0  0  0  0  0  0  0  0  0
    7.6830   -0.5170   18.7600 C   0  0  0  0  0  0  0  0  0  0  0  0
   11.5748    0.9821   23.5749 C   0  0  0  0  0  0  0  0  0  0  0  0
    5.9810    0.8330   18.8060 C   0  0  0  0  0  0  0  0  0  0  0  0
    6.1600    0.3870   20.1140 C   0  0  0  0  0  0  0  0  0  0  0  0
    9.2850   -3.7090   25.1090 C   0  0  0  0  0  0  0  0  0  0  0  0
    9.3300   -1.3350   23.6390 C   0  0  0  0  0  0  0  0  0  0  0  0
    8.9510    0.1280   21.6880 C   0  0  0  0  0  0  0  0  0  0  0  0
    7.3162   -6.8834   26.5210 C   0  0  0  0  0  0  0  0  0  0  0  0
    7.3507   -5.5245   27.2240 C   0  0  0  0  0  0  0  0  0  0  0  0
    7.9375   -6.8069   25.1245 C   0  0  0  0  0  0  0  0  0  0  0  0
    8.7638   -4.9418   27.2163 C   0  0  0  0  0  0  0  0  0  0  0  0
    9.3378   -6.1874   25.1659 C   0  0  0  0  0  0  0  0  0  0  0  0
   14.7613   -0.1464   22.3606 C   0  0  0  0  0  0  0  0  0  0  0  0
   10.0805    1.0790   23.6836 C   0  0  0  0  0  0  0  0  0  0  0  0
   13.7917    1.3576   23.9771 N   0  0  0  0  0  0  0  0  0  0  0  0
    6.9440    0.2550   18.0100 N   0  0  0  0  0  0  0  0  0  0  0  0
   13.6142    0.4500   23.0021 N   0  0  0  0  0  0  0  0  0  0  0  0
    7.2210   -0.4620   20.0350 N   0  0  0  0  0  0  0  0  0  0  0  0
    9.2639   -4.8860   25.8399 N   0  0  0  0  0  0  0  0  0  0  0  0
    8.0810   -0.9750   21.0820 N   0  0  0  0  0  0  0  0  0  0  0  0
    9.4200   -0.0840   22.9530 N   0  0  0  0  0  0  0  0  0  0  0  0
    9.1870    1.1500   21.0630 O   0  0  0  0  0  0  0  0  0  0  0  0
    3.2711    2.7870   19.3201 H   0  0  0  0  0  0  0  0  0  0  0  0
    3.6262    2.0082   21.6284 H   0  0  0  0  0  0  0  0  0  0  0  0
    4.7816    2.0660   17.4901 H   0  0  0  0  0  0  0  0  0  0  0  0
    5.4934    0.4579   22.1787 H   0  0  0  0  0  0  0  0  0  0  0  0
    7.5647   -2.8621   26.1053 H   0  0  0  0  0  0  0  0  0  0  0  0
   11.0144   -4.2642   23.9425 H   0  0  0  0  0  0  0  0  0  0  0  0
    7.5958   -0.7779   24.8006 H   0  0  0  0  0  0  0  0  0  0  0  0
   11.0406   -2.1848   22.6356 H   0  0  0  0  0  0  0  0  0  0  0  0
   12.3915    2.4075   25.1073 H   0  0  0  0  0  0  0  0  0  0  0  0
   12.0114   -0.5203   21.9616 H   0  0  0  0  0  0  0  0  0  0  0  0
    8.5166   -1.1054   18.4533 H   0  0  0  0  0  0  0  0  0  0  0  0
    7.8578   -7.6261   27.1266 H   0  0  0  0  0  0  0  0  0  0  0  0
    6.2773   -7.2358   26.4459 H   0  0  0  0  0  0  0  0  0  0  0  0
    6.6663   -4.8351   26.7223 H   0  0  0  0  0  0  0  0  0  0  0  0
    7.0044   -5.6368   28.2534 H   0  0  0  0  0  0  0  0  0  0  0  0
    7.9946   -7.8119   24.6937 H   0  0  0  0  0  0  0  0  0  0  0  0
    7.2929   -6.2123   24.4668 H   0  0  0  0  0  0  0  0  0  0  0  0
    8.7343   -3.9408   27.6542 H   0  0  0  0  0  0  0  0  0  0  0  0
    9.4243   -5.5632   27.8278 H   0  0  0  0  0  0  0  0  0  0  0  0
   10.0200   -6.8490   25.7011 H   0  0  0  0  0  0  0  0  0  0  0  0
    9.6984   -6.0694   24.1436 H   0  0  0  0  0  0  0  0  0  0  0  0
   15.0291    0.4755   21.5024 H   0  0  0  0  0  0  0  0  0  0  0  0
   15.5912   -0.1955   23.0710 H   0  0  0  0  0  0  0  0  0  0  0  0
   14.5077   -1.1594   22.0358 H   0  0  0  0  0  0  0  0  0  0  0  0
    9.7679    1.0633   24.7334 H   0  0  0  0  0  0  0  0  0  0  0  0
    9.7147    2.0153   23.2493 H   0  0  0  0  0  0  0  0  0  0  0  0
    8.1334   -1.7991   21.3673 H   0  0  0  0  0  0  0  0  0  0  0  0
  1  2  1  0  0  0  0
  1  3  2  0  0  0  0
  2  4  2  0  0  0  0
  3 13  1  0  0  0  0
  4 14  1  0  0  0  0
  5  7  2  0  0  0  0
  5 15  1  0  0  0  0
  6  8  1  0  0  0  0
  6 15  2  0  0  0  0
  7 16  1  0  0  0  0
  8 16  2  0  0  0  0
  9 12  1  0  0  0  0
  9 25  2  0  0  0  0
 10 12  2  0  0  0  0
 10 27  1  0  0  0  0
 11 26  2  0  0  0  0
 11 28  1  0  0  0  0
 12 24  1  0  0  0  0
 13 14  2  0  0  0  0
 13 26  1  0  0  0  0
 14 28  1  0  0  0  0
 15 29  1  0  0  0  0
 16 31  1  0  0  0  0
 17 30  1  0  0  0  0
 17 31  1  0  0  0  0
 17 32  2  0  0  0  0
 18 19  1  0  0  0  0
 18 20  1  0  0  0  0
 19 21  1  0  0  0  0
 20 22  1  0  0  0  0
 21 29  1  0  0  0  0
 22 29  1  0  0  0  0
 23 27  1  0  0  0  0
 24 31  1  0  0  0  0
 25 27  1  0  0  0  0
 28 30  1  0  0  0  0
  1 33  1  0  0  0  0
  2 34  1  0  0  0  0
  3 35  1  0  0  0  0
  4 36  1  0  0  0  0
  5 37  1  0  0  0  0
  6 38  1  0  0  0  0
  7 39  1  0  0  0  0
  8 40  1  0  0  0  0
  9 41  1  0  0  0  0
 10 42  1  0  0  0  0
 11 43  1  0  0  0  0
 18 44  1  0  0  0  0
 18 45  1  0  0  0  0
 19 46  1  0  0  0  0
 19 47  1  0  0  0  0
 20 48  1  0  0  0  0
 20 49  1  0  0  0  0
 21 50  1  0  0  0  0
 21 51  1  0  0  0  0
 22 52  1  0  0  0  0
 22 53  1  0  0  0  0
 23 54  1  0  0  0  0
 23 55  1  0  0  0  0
 23 56  1  0  0  0  0
 24 57  1  0  0  0  0
 24 58  1  0  0  0  0
 30 59  1  0  0  0  0
M  END
> <clash_score>
0

> <docking_score>
-8.710270881652832

> <overlap_score>
0.9994141459465027

$$$$
BENZO_43_1
  -OEChem-08232013473D

 47 50  0     0  0  0  0  0  0999 V2000
    4.0980    2.1130   19.5350 C   0  0  0  0  0  0  0  0  0  0  0  0
    4.2970    1.6690   20.8430 C   0  0  0  0  0  0  0  0  0  0  0  0
    8.3310   -2.7170   25.3430 C   0  0  0  0  0  0  0  0  0  0  0  0
   10.2570   -3.5000   24.1350 C   0  0  0  0  0  0  0  0  0  0  0  0
    4.9400    1.7060   18.5060 C   0  0  0  0  0  0  0  0  0  0  0  0
    5.3360    0.8000   21.1530 C   0  0  0  0  0  0  0  0  0  0  0  0
    8.3510   -1.5420   24.6110 C   0  0  0  0  0  0  0  0  0  0  0  0
   10.2760   -2.3270   23.4020 C   0  0  0  0  0  0  0  0  0  0  0  0
   12.4277    1.8061   22.8281 C   0  0  0  0  0  0  0  0  0  0  0  0
   12.4303    0.1667   24.2934 C   0  0  0  0  0  0  0  0  0  0  0  0
    7.6830   -0.5170   18.7600 C   0  0  0  0  0  0  0  0  0  0  0  0
    9.2850   -3.7090   25.1090 C   0  0  0  0  0  0  0  0  0  0  0  0
   11.5794    1.0055   23.6162 C   0  0  0  0  0  0  0  0  0  0  0  0
    5.9810    0.8330   18.8060 C   0  0  0  0  0  0  0  0  0  0  0  0
    6.1600    0.3870   20.1140 C   0  0  0  0  0  0  0  0  0  0  0  0
    9.3300   -1.3350   23.6390 C   0  0  0  0  0  0  0  0  0  0  0  0
    8.9510    0.1280   21.6880 C   0  0  0  0  0  0  0  0  0  0  0  0
    9.2610   -4.9721   25.8916 C   0  0  0  0  0  0  0  0  0  0  0  0
   14.9211   -0.1049   24.3245 C   0  0  0  0  0  0  0  0  0  0  0  0
   10.0813    1.0569   23.7013 C   0  0  0  0  0  0  0  0  0  0  0  0
   13.7186    1.5032   22.9889 N   0  0  0  0  0  0  0  0  0  0  0  0
    6.9440    0.2550   18.0100 N   0  0  0  0  0  0  0  0  0  0  0  0
   13.6877    0.5030   23.8860 N   0  0  0  0  0  0  0  0  0  0  0  0
    7.2210   -0.4620   20.0350 N   0  0  0  0  0  0  0  0  0  0  0  0
    8.0810   -0.9750   21.0820 N   0  0  0  0  0  0  0  0  0  0  0  0
    9.4200   -0.0840   22.9530 N   0  0  0  0  0  0  0  0  0  0  0  0
    9.1870    1.1500   21.0630 O   0  0  0  0  0  0  0  0  0  0  0  0
    3.2711    2.7870   19.3201 H   0  0  0  0  0  0  0  0  0  0  0  0
    3.6262    2.0082   21.6284 H   0  0  0  0  0  0  0  0  0  0  0  0
    7.5665   -2.8638   26.1066 H   0  0  0  0  0  0  0  0  0  0  0  0
   11.0137   -4.2652   23.9447 H   0  0  0  0  0  0  0  0  0  0  0  0
    4.7816    2.0660   17.4901 H   0  0  0  0  0  0  0  0  0  0  0  0
    5.4934    0.4579   22.1787 H   0  0  0  0  0  0  0  0  0  0  0  0
    7.5948   -0.7788   24.7997 H   0  0  0  0  0  0  0  0  0  0  0  0
   11.0411   -2.1856   22.6358 H   0  0  0  0  0  0  0  0  0  0  0  0
   12.1616    2.5988   22.1432 H   0  0  0  0  0  0  0  0  0  0  0  0
   12.2527   -0.6204   25.0137 H   0  0  0  0  0  0  0  0  0  0  0  0
    8.5166   -1.1054   18.4533 H   0  0  0  0  0  0  0  0  0  0  0  0
    8.6398   -5.7223   25.3871 H   0  0  0  0  0  0  0  0  0  0  0  0
   10.2715   -5.3829   26.0145 H   0  0  0  0  0  0  0  0  0  0  0  0
    8.8596   -4.8092   26.9004 H   0  0  0  0  0  0  0  0  0  0  0  0
   15.1436   -0.9386   23.6532 H   0  0  0  0  0  0  0  0  0  0  0  0
   15.7241    0.6366   24.2922 H   0  0  0  0  0  0  0  0  0  0  0  0
   14.8033   -0.4608   25.3518 H   0  0  0  0  0  0  0  0  0  0  0  0
    9.7520    1.0102   24.7451 H   0  0  0  0  0  0  0  0  0  0  0  0
    9.6956    1.9913   23.2801 H   0  0  0  0  0  0  0  0  0  0  0  0
    8.0998   -1.8216   21.3383 H   0  0  0  0  0  0  0  0  0  0  0  0
  1  2  1  0  0  0  0
  1  5  2  0  0  0  0
  2  6  2  0  0  0  0
  3  7  2  0  0  0  0
  3 12  1  0  0  0  0
  4  8  1  0  0  0  0
  4 12  2  0  0  0  0
  5 14  1  0  0  0  0
  6 15  1  0  0  0  0
  7 16  1  0  0  0  0
  8 16  2  0  0  0  0
  9 13  1  0  0  0  0
  9 21  2  0  0  0  0
 10 13  2  0  0  0  0
 10 23  1  0  0  0  0
 11 22  2  0  0  0  0
 11 24  1  0  0  0  0
 12 18  1  0  0  0  0
 13 20  1  0  0  0  0
 14 15  2  0  0  0  0
 14 22  1  0  0  0  0
 15 24  1  0  0  0  0
 16 26  1  0  0  0  0
 17 25  1  0  0  0  0
 17 26  1  0  0  0  0
 17 27  2  0  0  0  0
 19 23  1  0  0  0  0
 20 26  1  0  0  0  0
 21 23  1  0  0  0  0
 24 25  1  0  0  0  0
  1 28  1  0  0  0  0
  2 29  1  0  0  0  0
  3 30  1  0  0  0  0
  4 31  1  0  0  0  0
  5 32  1  0  0  0  0
  6 33  1  0  0  0  0
  7 34  1  0  0  0  0
  8 35  1  0  0  0  0
  9 36  1  0  0  0  0
 10 37  1  0  0  0  0
 11 38  1  0  0  0  0
 18 39  1  0  0  0  0
 18 40  1  0  0  0  0
 18 41  1  0  0  0  0
 19 42  1  0  0  0  0
 19 43  1  0  0  0  0
 19 44  1  0  0  0  0
 20 45  1  0  0  0  0
 20 46  1  0  0  0  0
 25 47  1  0  0  0  0
M  END
> <clash_score>
0

> <docking_score>
-9.35893440246582

> <overlap_score>
0.9711471796035767

$$$$
BENZO_42_1
  -OEChem-08232013473D

 47 50  0     0  0  0  0  0  0999 V2000
    4.0980    2.1130   19.5350 C   0  0  0  0  0  0  0  0  0  0  0  0
    4.2970    1.6690   20.8430 C   0  0  0  0  0  0  0  0  0  0  0  0
   13.6517    1.8376   22.6945 C   0  0  0  0  0  0  0  0  0  0  0  0
   12.2599    1.8841   22.7732 C   0  0  0  0  0  0  0  0  0  0  0  0
    8.3310   -2.7170   25.3430 C   0  0  0  0  0  0  0  0  0  0  0  0
   10.2570   -3.5000   24.1350 C   0  0  0  0  0  0  0  0  0  0  0  0
    4.9400    1.7060   18.5060 C   0  0  0  0  0  0  0  0  0  0  0  0
    5.3360    0.8000   21.1530 C   0  0  0  0  0  0  0  0  0  0  0  0
    8.3510   -1.5420   24.6110 C   0  0  0  0  0  0  0  0  0  0  0  0
   10.2760   -2.3270   23.4020 C   0  0  0  0  0  0  0  0  0  0  0  0
   14.3631    0.9125   23.4587 C   0  0  0  0  0  0  0  0  0  0  0  0
   12.2906    0.0804   24.3804 C   0  0  0  0  0  0  0  0  0  0  0  0
    7.6830   -0.5170   18.7600 C   0  0  0  0  0  0  0  0  0  0  0  0
    9.2850   -3.7090   25.1090 C   0  0  0  0  0  0  0  0  0  0  0  0
   11.5794    1.0055   23.6162 C   0  0  0  0  0  0  0  0  0  0  0  0
    5.9810    0.8330   18.8060 C   0  0  0  0  0  0  0  0  0  0  0  0
    6.1600    0.3870   20.1140 C   0  0  0  0  0  0  0  0  0  0  0  0
    9.3300   -1.3350   23.6390 C   0  0  0  0  0  0  0  0  0  0  0  0
   13.6825    0.0340   24.3016 C   0  0  0  0  0  0  0  0  0  0  0  0
    8.9510    0.1280   21.6880 C   0  0  0  0  0  0  0  0  0  0  0  0
    9.2610   -4.9721   25.8916 C   0  0  0  0  0  0  0  0  0  0  0  0
   10.0813    1.0569   23.7013 C   0  0  0  0  0  0  0  0  0  0  0  0
    6.9440    0.2550   18.0100 N   0  0  0  0  0  0  0  0  0  0  0  0
    7.2210   -0.4620   20.0350 N   0  0  0  0  0  0  0  0  0  0  0  0
    8.0810   -0.9750   21.0820 N   0  0  0  0  0  0  0  0  0  0  0  0
    9.4200   -0.0840   22.9530 N   0  0  0  0  0  0  0  0  0  0  0  0
    9.1870    1.1500   21.0630 O   0  0  0  0  0  0  0  0  0  0  0  0
   14.5607   -1.1064   25.2451 Cl  0  0  0  0  0  0  0  0  0  0  0  0
    3.2711    2.7870   19.3201 H   0  0  0  0  0  0  0  0  0  0  0  0
    3.6262    2.0082   21.6284 H   0  0  0  0  0  0  0  0  0  0  0  0
   14.1813    2.5221   22.0380 H   0  0  0  0  0  0  0  0  0  0  0  0
   11.7138    2.6082   22.1742 H   0  0  0  0  0  0  0  0  0  0  0  0
    7.5665   -2.8638   26.1066 H   0  0  0  0  0  0  0  0  0  0  0  0
   11.0137   -4.2652   23.9447 H   0  0  0  0  0  0  0  0  0  0  0  0
    4.7816    2.0660   17.4901 H   0  0  0  0  0  0  0  0  0  0  0  0
    5.4934    0.4579   22.1787 H   0  0  0  0  0  0  0  0  0  0  0  0
    7.5948   -0.7788   24.7997 H   0  0  0  0  0  0  0  0  0  0  0  0
   11.0411   -2.1856   22.6358 H   0  0  0  0  0  0  0  0  0  0  0  0
   15.4477    0.8879   23.3874 H   0  0  0  0  0  0  0  0  0  0  0  0
   11.7553   -0.6028   25.0357 H   0  0  0  0  0  0  0  0  0  0  0  0
    8.5166   -1.1054   18.4533 H   0  0  0  0  0  0  0  0  0  0  0  0
    8.6398   -5.7223   25.3871 H   0  0  0  0  0  0  0  0  0  0  0  0
   10.2715   -5.3829   26.0145 H   0  0  0  0  0  0  0  0  0  0  0  0
    8.8596   -4.8092   26.9004 H   0  0  0  0  0  0  0  0  0  0  0  0
    9.7520    1.0102   24.7451 H   0  0  0  0  0  0  0  0  0  0  0  0
    9.6956    1.9913   23.2801 H   0  0  0  0  0  0  0  0  0  0  0  0
    8.0998   -1.8216   21.3383 H   0  0  0  0  0  0  0  0  0  0  0  0
  1  2  1  0  0  0  0
  1  7  2  0  0  0  0
  2  8  2  0  0  0  0
  3  4  2  0  0  0  0
  3 11  1  0  0  0  0
  4 15  1  0  0  0  0
  5  9  2  0  0  0  0
  5 14  1  0  0  0  0
  6 10  1  0  0  0  0
  6 14  2  0  0  0  0
  7 16  1  0  0  0  0
  8 17  1  0  0  0  0
  9 18  1  0  0  0  0
 10 18  2  0  0  0  0
 11 19  2  0  0  0  0
 12 15  2  0  0  0  0
 12 19  1  0  0  0  0
 13 23  2  0  0  0  0
 13 24  1  0  0  0  0
 14 21  1  0  0  0  0
 15 22  1  0  0  0  0
 16 17  2  0  0  0  0
 16 23  1  0  0  0  0
 17 24  1  0  0  0  0
 18 26  1  0  0  0  0
 19 28  1  0  0  0  0
 20 25  1  0  0  0  0
 20 26  1  0  0  0  0
 20 27  2  0  0  0  0
 22 26  1  0  0  0  0
 24 25  1  0  0  0  0
  1 29  1  0  0  0  0
  2 30  1  0  0  0  0
  3 31  1  0  0  0  0
  4 32  1  0  0  0  0
  5 33  1  0  0  0  0
  6 34  1  0  0  0  0
  7 35  1  0  0  0  0
  8 36  1  0  0  0  0
  9 37  1  0  0  0  0
 10 38  1  0  0  0  0
 11 39  1  0  0  0  0
 12 40  1  0  0  0  0
 13 41  1  0  0  0  0
 21 42  1  0  0  0  0
 21 43  1  0  0  0  0
 21 44  1  0  0  0  0
 22 45  1  0  0  0  0
 22 46  1  0  0  0  0
 25 47  1  0  0  0  0
M  END
> <clash_score>
0.7824749726451802

> <docking_score>
-8.687186241149902

> <overlap_score>
0.9751365184783936

$$$$
BENZO_45_1
  -OEChem-08232013473D

 48 51  0     0  0  0  0  0  0999 V2000
   14.3629    0.9103   23.4566 C   0  0  0  0  0  0  0  0  0  0  0  0
   13.7013    0.2582   24.4971 C   0  0  0  0  0  0  0  0  0  0  0  0
   13.6328    1.6101   22.4959 C   0  0  0  0  0  0  0  0  0  0  0  0
    4.0980    2.1130   19.5350 C   0  0  0  0  0  0  0  0  0  0  0  0
    4.2970    1.6690   20.8430 C   0  0  0  0  0  0  0  0  0  0  0  0
   12.3095    0.3058   24.5769 C   0  0  0  0  0  0  0  0  0  0  0  0
   12.2410    1.6577   22.5757 C   0  0  0  0  0  0  0  0  0  0  0  0
    4.9400    1.7060   18.5060 C   0  0  0  0  0  0  0  0  0  0  0  0
    5.3360    0.8000   21.1530 C   0  0  0  0  0  0  0  0  0  0  0  0
    8.3510   -1.5420   24.6110 C   0  0  0  0  0  0  0  0  0  0  0  0
   10.2760   -2.3270   23.4020 C   0  0  0  0  0  0  0  0  0  0  0  0
    8.3310   -2.7170   25.3430 C   0  0  0  0  0  0  0  0  0  0  0  0
   10.2570   -3.5000   24.1350 C   0  0  0  0  0  0  0  0  0  0  0  0
    7.6830   -0.5170   18.7600 C   0  0  0  0  0  0  0  0  0  0  0  0
   11.5794    1.0055   23.6162 C   0  0  0  0  0  0  0  0  0  0  0  0
    5.9810    0.8330   18.8060 C   0  0  0  0  0  0  0  0  0  0  0  0
    6.1600    0.3870   20.1140 C   0  0  0  0  0  0  0  0  0  0  0  0
    9.3300   -1.3350   23.6390 C   0  0  0  0  0  0  0  0  0  0  0  0
    9.2850   -3.7090   25.1090 C   0  0  0  0  0  0  0  0  0  0  0  0
    8.9510    0.1280   21.6880 C   0  0  0  0  0  0  0  0  0  0  0  0
    8.2347   -4.9978   26.8024 C   0  0  0  0  0  0  0  0  0  0  0  0
   10.0813    1.0569   23.7013 C   0  0  0  0  0  0  0  0  0  0  0  0
    6.9440    0.2550   18.0100 N   0  0  0  0  0  0  0  0  0  0  0  0
    7.2210   -0.4620   20.0350 N   0  0  0  0  0  0  0  0  0  0  0  0
    8.0810   -0.9750   21.0820 N   0  0  0  0  0  0  0  0  0  0  0  0
    9.4200   -0.0840   22.9530 N   0  0  0  0  0  0  0  0  0  0  0  0
    9.1870    1.1500   21.0630 O   0  0  0  0  0  0  0  0  0  0  0  0
    9.2631   -4.8614   25.8229 O   0  0  0  0  0  0  0  0  0  0  0  0
   15.4467    0.8743   23.3954 H   0  0  0  0  0  0  0  0  0  0  0  0
   14.2697   -0.2858   25.2458 H   0  0  0  0  0  0  0  0  0  0  0  0
   14.1476    2.1189   21.6863 H   0  0  0  0  0  0  0  0  0  0  0  0
    3.2711    2.7870   19.3201 H   0  0  0  0  0  0  0  0  0  0  0  0
    3.6262    2.0082   21.6284 H   0  0  0  0  0  0  0  0  0  0  0  0
   11.8025   -0.2055   25.3909 H   0  0  0  0  0  0  0  0  0  0  0  0
   11.6804    2.2052   21.8227 H   0  0  0  0  0  0  0  0  0  0  0  0
    4.7816    2.0660   17.4901 H   0  0  0  0  0  0  0  0  0  0  0  0
    5.4934    0.4579   22.1787 H   0  0  0  0  0  0  0  0  0  0  0  0
    7.5951   -0.7786   24.8000 H   0  0  0  0  0  0  0  0  0  0  0  0
   11.0406   -2.1866   22.6351 H   0  0  0  0  0  0  0  0  0  0  0  0
    7.5664   -2.8674   26.1055 H   0  0  0  0  0  0  0  0  0  0  0  0
   11.0119   -4.2671   23.9461 H   0  0  0  0  0  0  0  0  0  0  0  0
    8.5166   -1.1054   18.4533 H   0  0  0  0  0  0  0  0  0  0  0  0
    8.3310   -5.9656   27.3006 H   0  0  0  0  0  0  0  0  0  0  0  0
    7.2575   -4.9205   26.3191 H   0  0  0  0  0  0  0  0  0  0  0  0
    8.3382   -4.1987   27.5403 H   0  0  0  0  0  0  0  0  0  0  0  0
    9.7520    1.0102   24.7451 H   0  0  0  0  0  0  0  0  0  0  0  0
    9.6956    1.9913   23.2801 H   0  0  0  0  0  0  0  0  0  0  0  0
    8.0998   -1.8216   21.3383 H   0  0  0  0  0  0  0  0  0  0  0  0
  1  2  1  0  0  0  0
  1  3  2  0  0  0  0
  2  6  2  0  0  0  0
  3  7  1  0  0  0  0
  4  5  1  0  0  0  0
  4  8  2  0  0  0  0
  5  9  2  0  0  0  0
  6 15  1  0  0  0  0
  7 15  2  0  0  0  0
  8 16  1  0  0  0  0
  9 17  1  0  0  0  0
 10 12  2  0  0  0  0
 10 18  1  0  0  0  0
 11 13  1  0  0  0  0
 11 18  2  0  0  0  0
 12 19  1  0  0  0  0
 13 19  2  0  0  0  0
 14 23  2  0  0  0  0
 14 24  1  0  0  0  0
 15 22  1  0  0  0  0
 16 17  2  0  0  0  0
 16 23  1  0  0  0  0
 17 24  1  0  0  0  0
 18 26  1  0  0  0  0
 19 28  1  0  0  0  0
 20 25  1  0  0  0  0
 20 26  1  0  0  0  0
 20 27  2  0  0  0  0
 21 28  1  0  0  0  0
 22 26  1  0  0  0  0
 24 25  1  0  0  0  0
  1 29  1  0  0  0  0
  2 30  1  0  0  0  0
  3 31  1  0  0  0  0
  4 32  1  0  0  0  0
  5 33  1  0  0  0  0
  6 34  1  0  0  0  0
  7 35  1  0  0  0  0
  8 36  1  0  0  0  0
  9 37  1  0  0  0  0
 10 38  1  0  0  0  0
 11 39  1  0  0  0  0
 12 40  1  0  0  0  0
 13 41  1  0  0  0  0
 14 42  1  0  0  0  0
 21 43  1  0  0  0  0
 21 44  1  0  0  0  0
 21 45  1  0  0  0  0
 22 46  1  0  0  0  0
 22 47  1  0  0  0  0
 25 48  1  0  0  0  0
M  END
> <clash_score>
0

> <docking_score>
-9.223752975463867

> <overlap_score>
0.9942229986190796

$$$$
BENZO_44_1
  -OEChem-08232013473D

 45 48  0     0  0  0  0  0  0999 V2000
    4.0980    2.1130   19.5350 C   0  0  0  0  0  0  0  0  0  0  0  0
    4.2970    1.6690   20.8430 C   0  0  0  0  0  0  0  0  0  0  0  0
    4.9400    1.7060   18.5060 C   0  0  0  0  0  0  0  0  0  0  0  0
    5.3360    0.8000   21.1530 C   0  0  0  0  0  0  0  0  0  0  0  0
    8.3510   -1.5420   24.6110 C   0  0  0  0  0  0  0  0  0  0  0  0
   10.2760   -2.3270   23.4020 C   0  0  0  0  0  0  0  0  0  0  0  0
    8.3310   -2.7170   25.3430 C   0  0  0  0  0  0  0  0  0  0  0  0
   10.2570   -3.5000   24.1350 C   0  0  0  0  0  0  0  0  0  0  0  0
   12.3075    1.0475   22.3922 C   0  0  0  0  0  0  0  0  0  0  0  0
   13.6682    0.9841   22.5972 C   0  0  0  0  0  0  0  0  0  0  0  0
   12.4114    0.9114   24.7102 C   0  0  0  0  0  0  0  0  0  0  0  0
    7.6830   -0.5170   18.7600 C   0  0  0  0  0  0  0  0  0  0  0  0
   11.5794    1.0055   23.6162 C   0  0  0  0  0  0  0  0  0  0  0  0
    5.9810    0.8330   18.8060 C   0  0  0  0  0  0  0  0  0  0  0  0
    6.1600    0.3870   20.1140 C   0  0  0  0  0  0  0  0  0  0  0  0
    9.3300   -1.3350   23.6390 C   0  0  0  0  0  0  0  0  0  0  0  0
    9.2850   -3.7090   25.1090 C   0  0  0  0  0  0  0  0  0  0  0  0
    8.9510    0.1280   21.6880 C   0  0  0  0  0  0  0  0  0  0  0  0
    8.2347   -4.9978   26.8024 C   0  0  0  0  0  0  0  0  0  0  0  0
   10.0813    1.0569   23.7013 C   0  0  0  0  0  0  0  0  0  0  0  0
    6.9440    0.2550   18.0100 N   0  0  0  0  0  0  0  0  0  0  0  0
    7.2210   -0.4620   20.0350 N   0  0  0  0  0  0  0  0  0  0  0  0
    8.0810   -0.9750   21.0820 N   0  0  0  0  0  0  0  0  0  0  0  0
    9.4200   -0.0840   22.9530 N   0  0  0  0  0  0  0  0  0  0  0  0
    9.1870    1.1500   21.0630 O   0  0  0  0  0  0  0  0  0  0  0  0
    9.2631   -4.8614   25.8229 O   0  0  0  0  0  0  0  0  0  0  0  0
   14.0631    0.8744   24.2598 S   0  0  0  0  0  0  0  0  0  0  0  0
    3.2711    2.7870   19.3201 H   0  0  0  0  0  0  0  0  0  0  0  0
    3.6262    2.0082   21.6284 H   0  0  0  0  0  0  0  0  0  0  0  0
    4.7816    2.0660   17.4901 H   0  0  0  0  0  0  0  0  0  0  0  0
    5.4934    0.4579   22.1787 H   0  0  0  0  0  0  0  0  0  0  0  0
    7.5951   -0.7786   24.8000 H   0  0  0  0  0  0  0  0  0  0  0  0
   11.0406   -2.1866   22.6351 H   0  0  0  0  0  0  0  0  0  0  0  0
    7.5664   -2.8674   26.1055 H   0  0  0  0  0  0  0  0  0  0  0  0
   11.0119   -4.2671   23.9461 H   0  0  0  0  0  0  0  0  0  0  0  0
   11.8600    1.1200   21.4090 H   0  0  0  0  0  0  0  0  0  0  0  0
   14.4493    0.9962   21.8502 H   0  0  0  0  0  0  0  0  0  0  0  0
   12.1325    0.8613   25.7536 H   0  0  0  0  0  0  0  0  0  0  0  0
    8.5166   -1.1054   18.4533 H   0  0  0  0  0  0  0  0  0  0  0  0
    8.3310   -5.9656   27.3006 H   0  0  0  0  0  0  0  0  0  0  0  0
    7.2575   -4.9205   26.3191 H   0  0  0  0  0  0  0  0  0  0  0  0
    8.3382   -4.1987   27.5403 H   0  0  0  0  0  0  0  0  0  0  0  0
    9.7520    1.0102   24.7451 H   0  0  0  0  0  0  0  0  0  0  0  0
    9.6956    1.9913   23.2801 H   0  0  0  0  0  0  0  0  0  0  0  0
    8.0998   -1.8216   21.3383 H   0  0  0  0  0  0  0  0  0  0  0  0
  1  2  1  0  0  0  0
  1  3  2  0  0  0  0
  2  4  2  0  0  0  0
  3 14  1  0  0  0  0
  4 15  1  0  0  0  0
  5  7  2  0  0  0  0
  5 16  1  0  0  0  0
  6  8  1  0  0  0  0
  6 16  2  0  0  0  0
  7 17  1  0  0  0  0
  8 17  2  0  0  0  0
  9 10  2  0  0  0  0
  9 13  1  0  0  0  0
 10 27  1  0  0  0  0
 11 13  2  0  0  0  0
 11 27  1  0  0  0  0
 12 21  2  0  0  0  0
 12 22  1  0  0  0  0
 13 20  1  0  0  0  0
 14 15  2  0  0  0  0
 14 21  1  0  0  0  0
 15 22  1  0  0  0  0
 16 24  1  0  0  0  0
 17 26  1  0  0  0  0
 18 23  1  0  0  0  0
 18 24  1  0  0  0  0
 18 25  2  0  0  0  0
 19 26  1  0  0  0  0
 20 24  1  0  0  0  0
 22 23  1  0  0  0  0
  1 28  1  0  0  0  0
  2 29  1  0  0  0  0
  3 30  1  0  0  0  0
  4 31  1  0  0  0  0
  5 32  1  0  0  0  0
  6 33  1  0  0  0  0
  7 34  1  0  0  0  0
  8 35  1  0  0  0  0
  9 36  1  0  0  0  0
 10 37  1  0  0  0  0
 11 38  1  0  0  0  0
 12 39  1  0  0  0  0
 19 40  1  0  0  0  0
 19 41  1  0  0  0  0
 19 42  1  0  0  0  0
 20 43  1  0  0  0  0
 20 44  1  0  0  0  0
 23 45  1  0  0  0  0
M  END
> <clash_score>
0

> <docking_score>
-9.523730278015137

> <overlap_score>
0.9685916304588318

$$$$
BENZO_46_1
  -OEChem-08232013473D

 48 51  0     0  0  0  0  0  0999 V2000
    4.0980    2.1130   19.5350 C   0  0  0  0  0  0  0  0  0  0  0  0
    4.2970    1.6690   20.8430 C   0  0  0  0  0  0  0  0  0  0  0  0
   13.7451    1.7360   24.3988 C   0  0  0  0  0  0  0  0  0  0  0  0
   12.3533    1.7842   24.4766 C   0  0  0  0  0  0  0  0  0  0  0  0
    4.9400    1.7060   18.5060 C   0  0  0  0  0  0  0  0  0  0  0  0
    5.3360    0.8000   21.1530 C   0  0  0  0  0  0  0  0  0  0  0  0
    8.3510   -1.5420   24.6110 C   0  0  0  0  0  0  0  0  0  0  0  0
   10.2760   -2.3270   23.4020 C   0  0  0  0  0  0  0  0  0  0  0  0
    8.3310   -2.7170   25.3430 C   0  0  0  0  0  0  0  0  0  0  0  0
   10.2570   -3.5000   24.1350 C   0  0  0  0  0  0  0  0  0  0  0  0
   14.3631    0.9093   23.4605 C   0  0  0  0  0  0  0  0  0  0  0  0
   12.1973    0.1787   22.6779 C   0  0  0  0  0  0  0  0  0  0  0  0
    7.6830   -0.5170   18.7600 C   0  0  0  0  0  0  0  0  0  0  0  0
   11.5794    1.0055   23.6162 C   0  0  0  0  0  0  0  0  0  0  0  0
    5.9810    0.8330   18.8060 C   0  0  0  0  0  0  0  0  0  0  0  0
    6.1600    0.3870   20.1140 C   0  0  0  0  0  0  0  0  0  0  0  0
    9.3300   -1.3350   23.6390 C   0  0  0  0  0  0  0  0  0  0  0  0
    9.2850   -3.7090   25.1090 C   0  0  0  0  0  0  0  0  0  0  0  0
   13.5891    0.1306   22.6001 C   0  0  0  0  0  0  0  0  0  0  0  0
    8.9510    0.1280   21.6880 C   0  0  0  0  0  0  0  0  0  0  0  0
    8.2347   -4.9978   26.8024 C   0  0  0  0  0  0  0  0  0  0  0  0
   10.0813    1.0569   23.7013 C   0  0  0  0  0  0  0  0  0  0  0  0
    6.9440    0.2550   18.0100 N   0  0  0  0  0  0  0  0  0  0  0  0
    7.2210   -0.4620   20.0350 N   0  0  0  0  0  0  0  0  0  0  0  0
    8.0810   -0.9750   21.0820 N   0  0  0  0  0  0  0  0  0  0  0  0
    9.4200   -0.0840   22.9530 N   0  0  0  0  0  0  0  0  0  0  0  0
    9.1870    1.1500   21.0630 O   0  0  0  0  0  0  0  0  0  0  0  0
    9.2631   -4.8614   25.8229 O   0  0  0  0  0  0  0  0  0  0  0  0
   14.3521   -0.8900   21.4434 Cl  0  0  0  0  0  0  0  0  0  0  0  0
    3.2711    2.7870   19.3201 H   0  0  0  0  0  0  0  0  0  0  0  0
    3.6262    2.0082   21.6284 H   0  0  0  0  0  0  0  0  0  0  0  0
   14.3474    2.3424   25.0691 H   0  0  0  0  0  0  0  0  0  0  0  0
   11.8803    2.4311   25.2108 H   0  0  0  0  0  0  0  0  0  0  0  0
    4.7816    2.0660   17.4901 H   0  0  0  0  0  0  0  0  0  0  0  0
    5.4934    0.4579   22.1787 H   0  0  0  0  0  0  0  0  0  0  0  0
    7.5951   -0.7786   24.8000 H   0  0  0  0  0  0  0  0  0  0  0  0
   11.0406   -2.1866   22.6351 H   0  0  0  0  0  0  0  0  0  0  0  0
    7.5664   -2.8674   26.1055 H   0  0  0  0  0  0  0  0  0  0  0  0
   11.0119   -4.2671   23.9461 H   0  0  0  0  0  0  0  0  0  0  0  0
   15.4488    0.8817   23.4114 H   0  0  0  0  0  0  0  0  0  0  0  0
   11.5894   -0.4261   22.0089 H   0  0  0  0  0  0  0  0  0  0  0  0
    8.5166   -1.1054   18.4533 H   0  0  0  0  0  0  0  0  0  0  0  0
    8.3310   -5.9656   27.3006 H   0  0  0  0  0  0  0  0  0  0  0  0
    7.2575   -4.9205   26.3191 H   0  0  0  0  0  0  0  0  0  0  0  0
    8.3382   -4.1987   27.5403 H   0  0  0  0  0  0  0  0  0  0  0  0
    9.7520    1.0102   24.7451 H   0  0  0  0  0  0  0  0  0  0  0  0
    9.6956    1.9913   23.2801 H   0  0  0  0  0  0  0  0  0  0  0  0
    8.0998   -1.8216   21.3383 H   0  0  0  0  0  0  0  0  0  0  0  0
  1  2  1  0  0  0  0
  1  5  2  0  0  0  0
  2  6  2  0  0  0  0
  3  4  2  0  0  0  0
  3 11  1  0  0  0  0
  4 14  1  0  0  0  0
  5 15  1  0  0  0  0
  6 16  1  0  0  0  0
  7  9  2  0  0  0  0
  7 17  1  0  0  0  0
  8 10  1  0  0  0  0
  8 17  2  0  0  0  0
  9 18  1  0  0  0  0
 10 18  2  0  0  0  0
 11 19  2  0  0  0  0
 12 14  2  0  0  0  0
 12 19  1  0  0  0  0
 13 23  2  0  0  0  0
 13 24  1  0  0  0  0
 14 22  1  0  0  0  0
 15 16  2  0  0  0  0
 15 23  1  0  0  0  0
 16 24  1  0  0  0  0
 17 26  1  0  0  0  0
 18 28  1  0  0  0  0
 19 29  1  0  0  0  0
 20 25  1  0  0  0  0
 20 26  1  0  0  0  0
 20 27  2  0  0  0  0
 21 28  1  0  0  0  0
 22 26  1  0  0  0  0
 24 25  1  0  0  0  0
  1 30  1  0  0  0  0
  2 31  1  0  0  0  0
  3 32  1  0  0  0  0
  4 33  1  0  0  0  0
  5 34  1  0  0  0  0
  6 35  1  0  0  0  0
  7 36  1  0  0  0  0
  8 37  1  0  0  0  0
  9 38  1  0  0  0  0
 10 39  1  0  0  0  0
 11 40  1  0  0  0  0
 12 41  1  0  0  0  0
 13 42  1  0  0  0  0
 21 43  1  0  0  0  0
 21 44  1  0  0  0  0
 21 45  1  0  0  0  0
 22 46  1  0  0  0  0
 22 47  1  0  0  0  0
 25 48  1  0  0  0  0
M  END
> <clash_score>
0

> <docking_score>
-8.489836692810059

> <overlap_score>
0.9740843772888184

$$$$
BENZO_47_1
  -OEChem-08232013473D

 48 51  0     0  0  0  0  0  0999 V2000
    4.0980    2.1130   19.5350 C   0  0  0  0  0  0  0  0  0  0  0  0
    4.2970    1.6690   20.8430 C   0  0  0  0  0  0  0  0  0  0  0  0
    4.9400    1.7060   18.5060 C   0  0  0  0  0  0  0  0  0  0  0  0
    5.3360    0.8000   21.1530 C   0  0  0  0  0  0  0  0  0  0  0  0
    8.3510   -1.5420   24.6110 C   0  0  0  0  0  0  0  0  0  0  0  0
   10.2760   -2.3270   23.4020 C   0  0  0  0  0  0  0  0  0  0  0  0
    8.3310   -2.7170   25.3430 C   0  0  0  0  0  0  0  0  0  0  0  0
   10.2570   -3.5000   24.1350 C   0  0  0  0  0  0  0  0  0  0  0  0
   12.5136    1.7142   24.3951 C   0  0  0  0  0  0  0  0  0  0  0  0
   12.3462    0.2527   22.7607 C   0  0  0  0  0  0  0  0  0  0  0  0
    7.6830   -0.5170   18.7600 C   0  0  0  0  0  0  0  0  0  0  0  0
   11.5794    1.0055   23.6162 C   0  0  0  0  0  0  0  0  0  0  0  0
    5.9810    0.8330   18.8060 C   0  0  0  0  0  0  0  0  0  0  0  0
    6.1600    0.3870   20.1140 C   0  0  0  0  0  0  0  0  0  0  0  0
    9.3300   -1.3350   23.6390 C   0  0  0  0  0  0  0  0  0  0  0  0
    9.2850   -3.7090   25.1090 C   0  0  0  0  0  0  0  0  0  0  0  0
    8.9510    0.1280   21.6880 C   0  0  0  0  0  0  0  0  0  0  0  0
   14.8171   -0.0048   22.4336 C   0  0  0  0  0  0  0  0  0  0  0  0
    8.2347   -4.9978   26.8024 C   0  0  0  0  0  0  0  0  0  0  0  0
   10.0813    1.0569   23.7013 C   0  0  0  0  0  0  0  0  0  0  0  0
   13.7774    1.4363   24.0639 N   0  0  0  0  0  0  0  0  0  0  0  0
    6.9440    0.2550   18.0100 N   0  0  0  0  0  0  0  0  0  0  0  0
   13.6426    0.5446   23.0675 N   0  0  0  0  0  0  0  0  0  0  0  0
    7.2210   -0.4620   20.0350 N   0  0  0  0  0  0  0  0  0  0  0  0
    8.0810   -0.9750   21.0820 N   0  0  0  0  0  0  0  0  0  0  0  0
    9.4200   -0.0840   22.9530 N   0  0  0  0  0  0  0  0  0  0  0  0
    9.1870    1.1500   21.0630 O   0  0  0  0  0  0  0  0  0  0  0  0
    9.2631   -4.8614   25.8229 O   0  0  0  0  0  0  0  0  0  0  0  0
    3.2711    2.7870   19.3201 H   0  0  0  0  0  0  0  0  0  0  0  0
    3.6262    2.0082   21.6284 H   0  0  0  0  0  0  0  0  0  0  0  0
    4.7816    2.0660   17.4901 H   0  0  0  0  0  0  0  0  0  0  0  0
    5.4934    0.4579   22.1787 H   0  0  0  0  0  0  0  0  0  0  0  0
    7.5951   -0.7786   24.8000 H   0  0  0  0  0  0  0  0  0  0  0  0
   11.0406   -2.1866   22.6351 H   0  0  0  0  0  0  0  0  0  0  0  0
    7.5664   -2.8674   26.1055 H   0  0  0  0  0  0  0  0  0  0  0  0
   11.0119   -4.2671   23.9461 H   0  0  0  0  0  0  0  0  0  0  0  0
   12.3287    2.4213   25.1913 H   0  0  0  0  0  0  0  0  0  0  0  0
   12.0862   -0.4493   21.9801 H   0  0  0  0  0  0  0  0  0  0  0  0
    8.5166   -1.1054   18.4533 H   0  0  0  0  0  0  0  0  0  0  0  0
   15.0807    0.6425   21.5931 H   0  0  0  0  0  0  0  0  0  0  0  0
   15.6362   -0.0448   23.1569 H   0  0  0  0  0  0  0  0  0  0  0  0
   14.5985   -1.0176   22.0837 H   0  0  0  0  0  0  0  0  0  0  0  0
    8.3310   -5.9656   27.3006 H   0  0  0  0  0  0  0  0  0  0  0  0
    7.2575   -4.9205   26.3191 H   0  0  0  0  0  0  0  0  0  0  0  0
    8.3382   -4.1987   27.5403 H   0  0  0  0  0  0  0  0  0  0  0  0
    9.7520    1.0102   24.7451 H   0  0  0  0  0  0  0  0  0  0  0  0
    9.6956    1.9913   23.2801 H   0  0  0  0  0  0  0  0  0  0  0  0
    8.0998   -1.8216   21.3383 H   0  0  0  0  0  0  0  0  0  0  0  0
  1  2  1  0  0  0  0
  1  3  2  0  0  0  0
  2  4  2  0  0  0  0
  3 13  1  0  0  0  0
  4 14  1  0  0  0  0
  5  7  2  0  0  0  0
  5 15  1  0  0  0  0
  6  8  1  0  0  0  0
  6 15  2  0  0  0  0
  7 16  1  0  0  0  0
  8 16  2  0  0  0  0
  9 12  1  0  0  0  0
  9 21  2  0  0  0  0
 10 12  2  0  0  0  0
 10 23  1  0  0  0  0
 11 22  2  0  0  0  0
 11 24  1  0  0  0  0
 12 20  1  0  0  0  0
 13 14  2  0  0  0  0
 13 22  1  0  0  0  0
 14 24  1  0  0  0  0
 15 26  1  0  0  0  0
 16 28  1  0  0  0  0
 17 25  1  0  0  0  0
 17 26  1  0  0  0  0
 17 27  2  0  0  0  0
 18 23  1  0  0  0  0
 19 28  1  0  0  0  0
 20 26  1  0  0  0  0
 21 23  1  0  0  0  0
 24 25  1  0  0  0  0
  1 29  1  0  0  0  0
  2 30  1  0  0  0  0
  3 31  1  0  0  0  0
  4 32  1  0  0  0  0
  5 33  1  0  0  0  0
  6 34  1  0  0  0  0
  7 35  1  0  0  0  0
  8 36  1  0  0  0  0
  9 37  1  0  0  0  0
 10 38  1  0  0  0  0
 11 39  1  0  0  0  0
 18 40  1  0  0  0  0
 18 41  1  0  0  0  0
 18 42  1  0  0  0  0
 19 43  1  0  0  0  0
 19 44  1  0  0  0  0
 19 45  1  0  0  0  0
 20 46  1  0  0  0  0
 20 47  1  0  0  0  0
 25 48  1  0  0  0  0
M  END
> <clash_score>
0

> <docking_score>
-9.402533531188965

> <overlap_score>
0.9791905879974365

$$$$
BENZO_49_1
  -OEChem-08232013473D

 58 62  0     0  0  0  0  0  0999 V2000
   14.3601    0.8574   23.4604 C   0  0  0  0  0  0  0  0  0  0  0  0
   13.6842    0.2431   24.5146 C   0  0  0  0  0  0  0  0  0  0  0  0
   13.6449    1.5438   22.4790 C   0  0  0  0  0  0  0  0  0  0  0  0
    4.0980    2.1130   19.5350 C   0  0  0  0  0  0  0  0  0  0  0  0
    4.2970    1.6690   20.8430 C   0  0  0  0  0  0  0  0  0  0  0  0
   12.2931    0.3150   24.5874 C   0  0  0  0  0  0  0  0  0  0  0  0
   12.2538    1.6157   22.5518 C   0  0  0  0  0  0  0  0  0  0  0  0
    4.9400    1.7060   18.5060 C   0  0  0  0  0  0  0  0  0  0  0  0
    5.3360    0.8000   21.1530 C   0  0  0  0  0  0  0  0  0  0  0  0
    8.3310   -2.7170   25.3430 C   0  0  0  0  0  0  0  0  0  0  0  0
   10.2570   -3.5000   24.1350 C   0  0  0  0  0  0  0  0  0  0  0  0
    8.3510   -1.5420   24.6110 C   0  0  0  0  0  0  0  0  0  0  0  0
   10.2760   -2.3270   23.4020 C   0  0  0  0  0  0  0  0  0  0  0  0
    7.6830   -0.5170   18.7600 C   0  0  0  0  0  0  0  0  0  0  0  0
   11.5778    1.0013   23.6060 C   0  0  0  0  0  0  0  0  0  0  0  0
    5.9810    0.8330   18.8060 C   0  0  0  0  0  0  0  0  0  0  0  0
    6.1600    0.3870   20.1140 C   0  0  0  0  0  0  0  0  0  0  0  0
    9.2850   -3.7090   25.1090 C   0  0  0  0  0  0  0  0  0  0  0  0
    9.3300   -1.3350   23.6390 C   0  0  0  0  0  0  0  0  0  0  0  0
    8.0635   -5.4710   26.3667 C   0  0  0  0  0  0  0  0  0  0  0  0
    8.9510    0.1280   21.6880 C   0  0  0  0  0  0  0  0  0  0  0  0
    8.2626   -6.7580   27.1475 C   0  0  0  0  0  0  0  0  0  0  0  0
    9.4048   -6.6156   28.1380 C   0  0  0  0  0  0  0  0  0  0  0  0
   10.6949   -6.1500   27.4702 C   0  0  0  0  0  0  0  0  0  0  0  0
   10.4942   -5.7069   26.0219 C   0  0  0  0  0  0  0  0  0  0  0  0
   10.0805    1.0790   23.6836 C   0  0  0  0  0  0  0  0  0  0  0  0
    6.9440    0.2550   18.0100 N   0  0  0  0  0  0  0  0  0  0  0  0
    7.2210   -0.4620   20.0350 N   0  0  0  0  0  0  0  0  0  0  0  0
    9.2623   -4.9266   25.8635 N   0  0  0  0  0  0  0  0  0  0  0  0
    8.0810   -0.9750   21.0820 N   0  0  0  0  0  0  0  0  0  0  0  0
    9.4200   -0.0840   22.9530 N   0  0  0  0  0  0  0  0  0  0  0  0
    6.9244   -5.0476   26.1739 O   0  0  0  0  0  0  0  0  0  0  0  0
    9.1870    1.1500   21.0630 O   0  0  0  0  0  0  0  0  0  0  0  0
   15.4433    0.8024   23.4047 H   0  0  0  0  0  0  0  0  0  0  0  0
   14.2409   -0.2905   25.2794 H   0  0  0  0  0  0  0  0  0  0  0  0
   14.1709    2.0232   21.6588 H   0  0  0  0  0  0  0  0  0  0  0  0
    3.2711    2.7870   19.3201 H   0  0  0  0  0  0  0  0  0  0  0  0
    3.6262    2.0082   21.6284 H   0  0  0  0  0  0  0  0  0  0  0  0
   11.7748   -0.1669   25.4123 H   0  0  0  0  0  0  0  0  0  0  0  0
   11.7049    2.1526   21.7826 H   0  0  0  0  0  0  0  0  0  0  0  0
    4.7816    2.0660   17.4901 H   0  0  0  0  0  0  0  0  0  0  0  0
    5.4934    0.4579   22.1787 H   0  0  0  0  0  0  0  0  0  0  0  0
    7.5639   -2.8621   26.1045 H   0  0  0  0  0  0  0  0  0  0  0  0
   11.0141   -4.2644   23.9422 H   0  0  0  0  0  0  0  0  0  0  0  0
    7.5950   -0.7788   24.8007 H   0  0  0  0  0  0  0  0  0  0  0  0
   11.0408   -2.1861   22.6359 H   0  0  0  0  0  0  0  0  0  0  0  0
    8.5166   -1.1054   18.4533 H   0  0  0  0  0  0  0  0  0  0  0  0
    7.3516   -6.9810   27.6812 H   0  0  0  0  0  0  0  0  0  0  0  0
    8.4757   -7.5428   26.4371 H   0  0  0  0  0  0  0  0  0  0  0  0
    9.1234   -5.9016   28.9400 H   0  0  0  0  0  0  0  0  0  0  0  0
    9.5778   -7.5840   28.6491 H   0  0  0  0  0  0  0  0  0  0  0  0
   11.1305   -5.3108   28.0523 H   0  0  0  0  0  0  0  0  0  0  0  0
   11.4565   -6.9587   27.5131 H   0  0  0  0  0  0  0  0  0  0  0  0
   11.3212   -5.0729   25.7168 H   0  0  0  0  0  0  0  0  0  0  0  0
   10.4483   -6.5796   25.3796 H   0  0  0  0  0  0  0  0  0  0  0  0
    9.7447    1.0292   24.7251 H   0  0  0  0  0  0  0  0  0  0  0  0
    9.7139    2.0237   23.2685 H   0  0  0  0  0  0  0  0  0  0  0  0
    8.1334   -1.7991   21.3673 H   0  0  0  0  0  0  0  0  0  0  0  0
  1  2  1  0  0  0  0
  1  3  2  0  0  0  0
  2  6  2  0  0  0  0
  3  7  1  0  0  0  0
  4  5  1  0  0  0  0
  4  8  2  0  0  0  0
  5  9  2  0  0  0  0
  6 15  1  0  0  0  0
  7 15  2  0  0  0  0
  8 16  1  0  0  0  0
  9 17  1  0  0  0  0
 10 12  2  0  0  0  0
 10 18  1  0  0  0  0
 11 13  1  0  0  0  0
 11 18  2  0  0  0  0
 12 19  1  0  0  0  0
 13 19  2  0  0  0  0
 14 27  2  0  0  0  0
 14 28  1  0  0  0  0
 15 26  1  0  0  0  0
 16 17  2  0  0  0  0
 16 27  1  0  0  0  0
 17 28  1  0  0  0  0
 18 29  1  0  0  0  0
 19 31  1  0  0  0  0
 20 22  1  0  0  0  0
 20 29  1  0  0  0  0
 20 32  2  0  0  0  0
 21 30  1  0  0  0  0
 21 31  1  0  0  0  0
 21 33  2  0  0  0  0
 22 23  1  0  0  0  0
 23 24  1  0  0  0  0
 24 25  1  0  0  0  0
 25 29  1  0  0  0  0
 26 31  1  0  0  0  0
 28 30  1  0  0  0  0
  1 34  1  0  0  0  0
  2 35  1  0  0  0  0
  3 36  1  0  0  0  0
  4 37  1  0  0  0  0
  5 38  1  0  0  0  0
  6 39  1  0  0  0  0
  7 40  1  0  0  0  0
  8 41  1  0  0  0  0
  9 42  1  0  0  0  0
 10 43  1  0  0  0  0
 11 44  1  0  0  0  0
 12 45  1  0  0  0  0
 13 46  1  0  0  0  0
 14 47  1  0  0  0  0
 22 48  1  0  0  0  0
 22 49  1  0  0  0  0
 23 50  1  0  0  0  0
 23 51  1  0  0  0  0
 24 52  1  0  0  0  0
 24 53  1  0  0  0  0
 25 54  1  0  0  0  0
 25 55  1  0  0  0  0
 26 56  1  0  0  0  0
 26 57  1  0  0  0  0
 30 58  1  0  0  0  0
M  END
> <clash_score>
1.2727800107838716

> <docking_score>
-7.692490577697754

> <overlap_score>
1.0134845972061157

$$$$
BENZO_48_1
  -OEChem-08232013473D

 55 59  0     0  0  0  0  0  0999 V2000
    4.0980    2.1130   19.5350 C   0  0  0  0  0  0  0  0  0  0  0  0
    4.2970    1.6690   20.8430 C   0  0  0  0  0  0  0  0  0  0  0  0
    4.9400    1.7060   18.5060 C   0  0  0  0  0  0  0  0  0  0  0  0
    5.3360    0.8000   21.1530 C   0  0  0  0  0  0  0  0  0  0  0  0
    8.3310   -2.7170   25.3430 C   0  0  0  0  0  0  0  0  0  0  0  0
   10.2570   -3.5000   24.1350 C   0  0  0  0  0  0  0  0  0  0  0  0
    8.3510   -1.5420   24.6110 C   0  0  0  0  0  0  0  0  0  0  0  0
   10.2760   -2.3270   23.4020 C   0  0  0  0  0  0  0  0  0  0  0  0
   12.3134    1.0407   22.3863 C   0  0  0  0  0  0  0  0  0  0  0  0
   13.6716    0.9511   22.5980 C   0  0  0  0  0  0  0  0  0  0  0  0
   12.4020    0.8829   24.7035 C   0  0  0  0  0  0  0  0  0  0  0  0
    7.6830   -0.5170   18.7600 C   0  0  0  0  0  0  0  0  0  0  0  0
   11.5778    1.0013   23.6060 C   0  0  0  0  0  0  0  0  0  0  0  0
    5.9810    0.8330   18.8060 C   0  0  0  0  0  0  0  0  0  0  0  0
    6.1600    0.3870   20.1140 C   0  0  0  0  0  0  0  0  0  0  0  0
    9.2850   -3.7090   25.1090 C   0  0  0  0  0  0  0  0  0  0  0  0
    9.3300   -1.3350   23.6390 C   0  0  0  0  0  0  0  0  0  0  0  0
    8.0635   -5.4710   26.3667 C   0  0  0  0  0  0  0  0  0  0  0  0
    8.9510    0.1280   21.6880 C   0  0  0  0  0  0  0  0  0  0  0  0
    8.2626   -6.7580   27.1475 C   0  0  0  0  0  0  0  0  0  0  0  0
    9.4048   -6.6156   28.1380 C   0  0  0  0  0  0  0  0  0  0  0  0
   10.6949   -6.1500   27.4702 C   0  0  0  0  0  0  0  0  0  0  0  0
   10.4942   -5.7069   26.0219 C   0  0  0  0  0  0  0  0  0  0  0  0
   10.0805    1.0790   23.6836 C   0  0  0  0  0  0  0  0  0  0  0  0
    6.9440    0.2550   18.0100 N   0  0  0  0  0  0  0  0  0  0  0  0
    7.2210   -0.4620   20.0350 N   0  0  0  0  0  0  0  0  0  0  0  0
    9.2623   -4.9266   25.8635 N   0  0  0  0  0  0  0  0  0  0  0  0
    8.0810   -0.9750   21.0820 N   0  0  0  0  0  0  0  0  0  0  0  0
    9.4200   -0.0840   22.9530 N   0  0  0  0  0  0  0  0  0  0  0  0
    6.9244   -5.0476   26.1739 O   0  0  0  0  0  0  0  0  0  0  0  0
    9.1870    1.1500   21.0630 O   0  0  0  0  0  0  0  0  0  0  0  0
   14.0552    0.8200   24.2617 S   0  0  0  0  0  0  0  0  0  0  0  0
    3.2711    2.7870   19.3201 H   0  0  0  0  0  0  0  0  0  0  0  0
    3.6262    2.0082   21.6284 H   0  0  0  0  0  0  0  0  0  0  0  0
    4.7816    2.0660   17.4901 H   0  0  0  0  0  0  0  0  0  0  0  0
    5.4934    0.4579   22.1787 H   0  0  0  0  0  0  0  0  0  0  0  0
    7.5639   -2.8621   26.1045 H   0  0  0  0  0  0  0  0  0  0  0  0
   11.0141   -4.2644   23.9422 H   0  0  0  0  0  0  0  0  0  0  0  0
    7.5950   -0.7788   24.8007 H   0  0  0  0  0  0  0  0  0  0  0  0
   11.0408   -2.1861   22.6359 H   0  0  0  0  0  0  0  0  0  0  0  0
   11.8726    1.1298   21.4014 H   0  0  0  0  0  0  0  0  0  0  0  0
   14.4569    0.9556   21.8554 H   0  0  0  0  0  0  0  0  0  0  0  0
   12.1166    0.8287   25.7450 H   0  0  0  0  0  0  0  0  0  0  0  0
    8.5166   -1.1054   18.4533 H   0  0  0  0  0  0  0  0  0  0  0  0
    7.3516   -6.9810   27.6812 H   0  0  0  0  0  0  0  0  0  0  0  0
    8.4757   -7.5428   26.4371 H   0  0  0  0  0  0  0  0  0  0  0  0
    9.1234   -5.9016   28.9400 H   0  0  0  0  0  0  0  0  0  0  0  0
    9.5778   -7.5840   28.6491 H   0  0  0  0  0  0  0  0  0  0  0  0
   11.1305   -5.3108   28.0523 H   0  0  0  0  0  0  0  0  0  0  0  0
   11.4565   -6.9587   27.5131 H   0  0  0  0  0  0  0  0  0  0  0  0
   11.3212   -5.0729   25.7168 H   0  0  0  0  0  0  0  0  0  0  0  0
   10.4483   -6.5796   25.3796 H   0  0  0  0  0  0  0  0  0  0  0  0
    9.7447    1.0292   24.7251 H   0  0  0  0  0  0  0  0  0  0  0  0
    9.7139    2.0237   23.2685 H   0  0  0  0  0  0  0  0  0  0  0  0
    8.1334   -1.7991   21.3673 H   0  0  0  0  0  0  0  0  0  0  0  0
  1  2  1  0  0  0  0
  1  3  2  0  0  0  0
  2  4  2  0  0  0  0
  3 14  1  0  0  0  0
  4 15  1  0  0  0  0
  5  7  2  0  0  0  0
  5 16  1  0  0  0  0
  6  8  1  0  0  0  0
  6 16  2  0  0  0  0
  7 17  1  0  0  0  0
  8 17  2  0  0  0  0
  9 10  2  0  0  0  0
  9 13  1  0  0  0  0
 10 32  1  0  0  0  0
 11 13  2  0  0  0  0
 11 32  1  0  0  0  0
 12 25  2  0  0  0  0
 12 26  1  0  0  0  0
 13 24  1  0  0  0  0
 14 15  2  0  0  0  0
 14 25  1  0  0  0  0
 15 26  1  0  0  0  0
 16 27  1  0  0  0  0
 17 29  1  0  0  0  0
 18 20  1  0  0  0  0
 18 27  1  0  0  0  0
 18 30  2  0  0  0  0
 19 28  1  0  0  0  0
 19 29  1  0  0  0  0
 19 31  2  0  0  0  0
 20 21  1  0  0  0  0
 21 22  1  0  0  0  0
 22 23  1  0  0  0  0
 23 27  1  0  0  0  0
 24 29  1  0  0  0  0
 26 28  1  0  0  0  0
  1 33  1  0  0  0  0
  2 34  1  0  0  0  0
  3 35  1  0  0  0  0
  4 36  1  0  0  0  0
  5 37  1  0  0  0  0
  6 38  1  0  0  0  0
  7 39  1  0  0  0  0
  8 40  1  0  0  0  0
  9 41  1  0  0  0  0
 10 42  1  0  0  0  0
 11 43  1  0  0  0  0
 12 44  1  0  0  0  0
 20 45  1  0  0  0  0
 20 46  1  0  0  0  0
 21 47  1  0  0  0  0
 21 48  1  0  0  0  0
 22 49  1  0  0  0  0
 22 50  1  0  0  0  0
 23 51  1  0  0  0  0
 23 52  1  0  0  0  0
 24 53  1  0  0  0  0
 24 54  1  0  0  0  0
 28 55  1  0  0  0  0
M  END
> <clash_score>
1.2727800107838716

> <docking_score>
-8.012957572937012

> <overlap_score>
0.9890045523643494

$$$$
BENZO_53_1
  -OEChem-08232013473D

 57 61  0     0  0  0  0  0  0999 V2000
   14.3563    0.9294   23.3536 C   0  0  0  0  0  0  0  0  0  0  0  0
   13.7161    0.2898   24.4150 C   0  0  0  0  0  0  0  0  0  0  0  0
   13.6066    1.6177   22.3997 C   0  0  0  0  0  0  0  0  0  0  0  0
    4.0980    2.1130   19.5350 C   0  0  0  0  0  0  0  0  0  0  0  0
    4.2970    1.6690   20.8430 C   0  0  0  0  0  0  0  0  0  0  0  0
   12.3263    0.3383   24.5225 C   0  0  0  0  0  0  0  0  0  0  0  0
   12.2167    1.6663   22.5072 C   0  0  0  0  0  0  0  0  0  0  0  0
    4.9400    1.7060   18.5060 C   0  0  0  0  0  0  0  0  0  0  0  0
    5.3360    0.8000   21.1530 C   0  0  0  0  0  0  0  0  0  0  0  0
    8.3310   -2.7170   25.3430 C   0  0  0  0  0  0  0  0  0  0  0  0
   10.2570   -3.5000   24.1350 C   0  0  0  0  0  0  0  0  0  0  0  0
    8.3510   -1.5420   24.6110 C   0  0  0  0  0  0  0  0  0  0  0  0
   10.2760   -2.3270   23.4020 C   0  0  0  0  0  0  0  0  0  0  0  0
    7.6830   -0.5170   18.7600 C   0  0  0  0  0  0  0  0  0  0  0  0
   11.5765    1.0265   23.5686 C   0  0  0  0  0  0  0  0  0  0  0  0
    5.9810    0.8330   18.8060 C   0  0  0  0  0  0  0  0  0  0  0  0
    6.1600    0.3870   20.1140 C   0  0  0  0  0  0  0  0  0  0  0  0
    9.2850   -3.7090   25.1090 C   0  0  0  0  0  0  0  0  0  0  0  0
    9.3300   -1.3350   23.6390 C   0  0  0  0  0  0  0  0  0  0  0  0
    8.9510    0.1280   21.6880 C   0  0  0  0  0  0  0  0  0  0  0  0
    8.7666   -4.9523   27.2147 C   0  0  0  0  0  0  0  0  0  0  0  0
    9.3034   -6.1866   25.1651 C   0  0  0  0  0  0  0  0  0  0  0  0
    7.3827   -5.5925   27.1999 C   0  0  0  0  0  0  0  0  0  0  0  0
    7.9024   -6.7967   25.2263 C   0  0  0  0  0  0  0  0  0  0  0  0
   10.0805    1.0790   23.6836 C   0  0  0  0  0  0  0  0  0  0  0  0
    6.9440    0.2550   18.0100 N   0  0  0  0  0  0  0  0  0  0  0  0
    7.2210   -0.4620   20.0350 N   0  0  0  0  0  0  0  0  0  0  0  0
    9.2640   -4.8844   25.8389 N   0  0  0  0  0  0  0  0  0  0  0  0
    8.0810   -0.9750   21.0820 N   0  0  0  0  0  0  0  0  0  0  0  0
    9.4200   -0.0840   22.9530 N   0  0  0  0  0  0  0  0  0  0  0  0
    9.1870    1.1500   21.0630 O   0  0  0  0  0  0  0  0  0  0  0  0
    7.4483   -6.8833   26.5817 O   0  0  0  0  0  0  0  0  0  0  0  0
   15.4386    0.8927   23.2707 H   0  0  0  0  0  0  0  0  0  0  0  0
   14.2998   -0.2453   25.1584 H   0  0  0  0  0  0  0  0  0  0  0  0
   14.1047    2.1168   21.5738 H   0  0  0  0  0  0  0  0  0  0  0  0
    3.2711    2.7870   19.3201 H   0  0  0  0  0  0  0  0  0  0  0  0
    3.6262    2.0082   21.6285 H   0  0  0  0  0  0  0  0  0  0  0  0
   11.8360   -0.1632   25.3528 H   0  0  0  0  0  0  0  0  0  0  0  0
   11.6407    2.2048   21.7592 H   0  0  0  0  0  0  0  0  0  0  0  0
    4.7816    2.0660   17.4901 H   0  0  0  0  0  0  0  0  0  0  0  0
    5.4934    0.4579   22.1787 H   0  0  0  0  0  0  0  0  0  0  0  0
    7.5647   -2.8621   26.1053 H   0  0  0  0  0  0  0  0  0  0  0  0
   11.0144   -4.2642   23.9425 H   0  0  0  0  0  0  0  0  0  0  0  0
    7.5958   -0.7779   24.8006 H   0  0  0  0  0  0  0  0  0  0  0  0
   11.0406   -2.1848   22.6356 H   0  0  0  0  0  0  0  0  0  0  0  0
    8.5166   -1.1054   18.4533 H   0  0  0  0  0  0  0  0  0  0  0  0
    8.7030   -3.9561   27.6574 H   0  0  0  0  0  0  0  0  0  0  0  0
    9.4460   -5.5639   27.8143 H   0  0  0  0  0  0  0  0  0  0  0  0
   10.0083   -6.8392   25.6817 H   0  0  0  0  0  0  0  0  0  0  0  0
    9.6089   -6.0802   24.1251 H   0  0  0  0  0  0  0  0  0  0  0  0
    7.0281   -5.7334   28.2231 H   0  0  0  0  0  0  0  0  0  0  0  0
    6.6541   -4.9678   26.6754 H   0  0  0  0  0  0  0  0  0  0  0  0
    7.1860   -6.2177   24.6318 H   0  0  0  0  0  0  0  0  0  0  0  0
    7.9246   -7.8119   24.8187 H   0  0  0  0  0  0  0  0  0  0  0  0
    9.7736    1.0716   24.7351 H   0  0  0  0  0  0  0  0  0  0  0  0
    9.6838    1.9960   23.2354 H   0  0  0  0  0  0  0  0  0  0  0  0
    8.1334   -1.7991   21.3673 H   0  0  0  0  0  0  0  0  0  0  0  0
  1  2  1  0  0  0  0
  1  3  2  0  0  0  0
  2  6  2  0  0  0  0
  3  7  1  0  0  0  0
  4  5  1  0  0  0  0
  4  8  2  0  0  0  0
  5  9  2  0  0  0  0
  6 15  1  0  0  0  0
  7 15  2  0  0  0  0
  8 16  1  0  0  0  0
  9 17  1  0  0  0  0
 10 12  2  0  0  0  0
 10 18  1  0  0  0  0
 11 13  1  0  0  0  0
 11 18  2  0  0  0  0
 12 19  1  0  0  0  0
 13 19  2  0  0  0  0
 14 26  2  0  0  0  0
 14 27  1  0  0  0  0
 15 25  1  0  0  0  0
 16 17  2  0  0  0  0
 16 26  1  0  0  0  0
 17 27  1  0  0  0  0
 18 28  1  0  0  0  0
 19 30  1  0  0  0  0
 20 29  1  0  0  0  0
 20 30  1  0  0  0  0
 20 31  2  0  0  0  0
 21 23  1  0  0  0  0
 21 28  1  0  0  0  0
 22 24  1  0  0  0  0
 22 28  1  0  0  0  0
 23 32  1  0  0  0  0
 24 32  1  0  0  0  0
 25 30  1  0  0  0  0
 27 29  1  0  0  0  0
  1 33  1  0  0  0  0
  2 34  1  0  0  0  0
  3 35  1  0  0  0  0
  4 36  1  0  0  0  0
  5 37  1  0  0  0  0
  6 38  1  0  0  0  0
  7 39  1  0  0  0  0
  8 40  1  0  0  0  0
  9 41  1  0  0  0  0
 10 42  1  0  0  0  0
 11 43  1  0  0  0  0
 12 44  1  0  0  0  0
 13 45  1  0  0  0  0
 14 46  1  0  0  0  0
 21 47  1  0  0  0  0
 21 48  1  0  0  0  0
 22 49  1  0  0  0  0
 22 50  1  0  0  0  0
 23 51  1  0  0  0  0
 23 52  1  0  0  0  0
 24 53  1  0  0  0  0
 24 54  1  0  0  0  0
 25 55  1  0  0  0  0
 25 56  1  0  0  0  0
 29 57  1  0  0  0  0
M  END
> <clash_score>
0

> <docking_score>
-8.883864402770996

> <overlap_score>
1.0167715549468994

$$$$
BENZO_51_1
  -OEChem-08232013473D

 58 62  0     0  0  0  0  0  0999 V2000
    4.0980    2.1130   19.5350 C   0  0  0  0  0  0  0  0  0  0  0  0
    4.2970    1.6690   20.8430 C   0  0  0  0  0  0  0  0  0  0  0  0
    4.9400    1.7060   18.5060 C   0  0  0  0  0  0  0  0  0  0  0  0
    5.3360    0.8000   21.1530 C   0  0  0  0  0  0  0  0  0  0  0  0
    8.3310   -2.7170   25.3430 C   0  0  0  0  0  0  0  0  0  0  0  0
   10.2570   -3.5000   24.1350 C   0  0  0  0  0  0  0  0  0  0  0  0
    8.3510   -1.5420   24.6110 C   0  0  0  0  0  0  0  0  0  0  0  0
   10.2760   -2.3270   23.4020 C   0  0  0  0  0  0  0  0  0  0  0  0
   12.5204    1.6863   24.3960 C   0  0  0  0  0  0  0  0  0  0  0  0
   12.3357    0.2423   22.7481 C   0  0  0  0  0  0  0  0  0  0  0  0
    7.6830   -0.5170   18.7600 C   0  0  0  0  0  0  0  0  0  0  0  0
   11.5778    1.0013   23.6060 C   0  0  0  0  0  0  0  0  0  0  0  0
    5.9810    0.8330   18.8060 C   0  0  0  0  0  0  0  0  0  0  0  0
    6.1600    0.3870   20.1140 C   0  0  0  0  0  0  0  0  0  0  0  0
    9.2850   -3.7090   25.1090 C   0  0  0  0  0  0  0  0  0  0  0  0
    9.3300   -1.3350   23.6390 C   0  0  0  0  0  0  0  0  0  0  0  0
    8.2930   -5.1714   26.8572 C   0  0  0  0  0  0  0  0  0  0  0  0
    8.9510    0.1280   21.6880 C   0  0  0  0  0  0  0  0  0  0  0  0
    8.4552   -6.5156   27.5444 C   0  0  0  0  0  0  0  0  0  0  0  0
    9.9019   -6.7444   27.9450 C   0  0  0  0  0  0  0  0  0  0  0  0
   10.8597   -6.5882   26.7680 C   0  0  0  0  0  0  0  0  0  0  0  0
   10.1895   -6.0108   25.5223 C   0  0  0  0  0  0  0  0  0  0  0  0
   14.8034   -0.0568   22.4320 C   0  0  0  0  0  0  0  0  0  0  0  0
   10.0805    1.0790   23.6836 C   0  0  0  0  0  0  0  0  0  0  0  0
   13.7808    1.3887   24.0692 N   0  0  0  0  0  0  0  0  0  0  0  0
    6.9440    0.2550   18.0100 N   0  0  0  0  0  0  0  0  0  0  0  0
   13.6355    0.5082   23.0643 N   0  0  0  0  0  0  0  0  0  0  0  0
    7.2210   -0.4620   20.0350 N   0  0  0  0  0  0  0  0  0  0  0  0
    9.2623   -4.9266   25.8635 N   0  0  0  0  0  0  0  0  0  0  0  0
    8.0810   -0.9750   21.0820 N   0  0  0  0  0  0  0  0  0  0  0  0
    9.4200   -0.0840   22.9530 N   0  0  0  0  0  0  0  0  0  0  0  0
    7.3370   -4.4528   27.1463 O   0  0  0  0  0  0  0  0  0  0  0  0
    9.1870    1.1500   21.0630 O   0  0  0  0  0  0  0  0  0  0  0  0
    3.2711    2.7870   19.3201 H   0  0  0  0  0  0  0  0  0  0  0  0
    3.6262    2.0082   21.6284 H   0  0  0  0  0  0  0  0  0  0  0  0
    4.7816    2.0660   17.4901 H   0  0  0  0  0  0  0  0  0  0  0  0
    5.4934    0.4579   22.1787 H   0  0  0  0  0  0  0  0  0  0  0  0
    7.5639   -2.8621   26.1045 H   0  0  0  0  0  0  0  0  0  0  0  0
   11.0141   -4.2644   23.9422 H   0  0  0  0  0  0  0  0  0  0  0  0
    7.5950   -0.7788   24.8007 H   0  0  0  0  0  0  0  0  0  0  0  0
   11.0408   -2.1861   22.6359 H   0  0  0  0  0  0  0  0  0  0  0  0
   12.3438    2.3898   25.1974 H   0  0  0  0  0  0  0  0  0  0  0  0
   12.0675   -0.4482   21.9600 H   0  0  0  0  0  0  0  0  0  0  0  0
    8.5166   -1.1054   18.4533 H   0  0  0  0  0  0  0  0  0  0  0  0
    7.8332   -6.5283   28.4263 H   0  0  0  0  0  0  0  0  0  0  0  0
    8.1305   -7.2788   26.8530 H   0  0  0  0  0  0  0  0  0  0  0  0
   10.1875   -6.0379   28.7521 H   0  0  0  0  0  0  0  0  0  0  0  0
   10.0116   -7.7568   28.3834 H   0  0  0  0  0  0  0  0  0  0  0  0
   11.7061   -5.9337   27.0644 H   0  0  0  0  0  0  0  0  0  0  0  0
   11.3230   -7.5689   26.5243 H   0  0  0  0  0  0  0  0  0  0  0  0
   10.9445   -5.5959   24.8614 H   0  0  0  0  0  0  0  0  0  0  0  0
    9.6461   -6.7954   25.0072 H   0  0  0  0  0  0  0  0  0  0  0  0
   15.0832    0.5928   21.5985 H   0  0  0  0  0  0  0  0  0  0  0  0
   15.6177   -0.1178   23.1593 H   0  0  0  0  0  0  0  0  0  0  0  0
   14.5686   -1.0625   22.0721 H   0  0  0  0  0  0  0  0  0  0  0  0
    9.7447    1.0292   24.7251 H   0  0  0  0  0  0  0  0  0  0  0  0
    9.7139    2.0237   23.2685 H   0  0  0  0  0  0  0  0  0  0  0  0
    8.1334   -1.7991   21.3673 H   0  0  0  0  0  0  0  0  0  0  0  0
  1  2  1  0  0  0  0
  1  3  2  0  0  0  0
  2  4  2  0  0  0  0
  3 13  1  0  0  0  0
  4 14  1  0  0  0  0
  5  7  2  0  0  0  0
  5 15  1  0  0  0  0
  6  8  1  0  0  0  0
  6 15  2  0  0  0  0
  7 16  1  0  0  0  0
  8 16  2  0  0  0  0
  9 12  1  0  0  0  0
  9 25  2  0  0  0  0
 10 12  2  0  0  0  0
 10 27  1  0  0  0  0
 11 26  2  0  0  0  0
 11 28  1  0  0  0  0
 12 24  1  0  0  0  0
 13 14  2  0  0  0  0
 13 26  1  0  0  0  0
 14 28  1  0  0  0  0
 15 29  1  0  0  0  0
 16 31  1  0  0  0  0
 17 19  1  0  0  0  0
 17 29  1  0  0  0  0
 17 32  2  0  0  0  0
 18 30  1  0  0  0  0
 18 31  1  0  0  0  0
 18 33  2  0  0  0  0
 19 20  1  0  0  0  0
 20 21  1  0  0  0  0
 21 22  1  0  0  0  0
 22 29  1  0  0  0  0
 23 27  1  0  0  0  0
 24 31  1  0  0  0  0
 25 27  1  0  0  0  0
 28 30  1  0  0  0  0
  1 34  1  0  0  0  0
  2 35  1  0  0  0  0
  3 36  1  0  0  0  0
  4 37  1  0  0  0  0
  5 38  1  0  0  0  0
  6 39  1  0  0  0  0
  7 40  1  0  0  0  0
  8 41  1  0  0  0  0
  9 42  1  0  0  0  0
 10 43  1  0  0  0  0
 11 44  1  0  0  0  0
 19 45  1  0  0  0  0
 19 46  1  0  0  0  0
 20 47  1  0  0  0  0
 20 48  1  0  0  0  0
 21 49  1  0  0  0  0
 21 50  1  0  0  0  0
 22 51  1  0  0  0  0
 22 52  1  0  0  0  0
 23 53  1  0  0  0  0
 23 54  1  0  0  0  0
 23 55  1  0  0  0  0
 24 56  1  0  0  0  0
 24 57  1  0  0  0  0
 30 58  1  0  0  0  0
M  END
> <clash_score>
2.059694439777861

> <docking_score>
-7.937171459197998

> <overlap_score>
0.9997527599334717

$$$$
BENZO_50_1
  -OEChem-08232013473D

 58 62  0     0  0  0  0  0  0999 V2000
    4.0980    2.1130   19.5350 C   0  0  0  0  0  0  0  0  0  0  0  0
    4.2970    1.6690   20.8430 C   0  0  0  0  0  0  0  0  0  0  0  0
   13.6699    1.8040   22.7027 C   0  0  0  0  0  0  0  0  0  0  0  0
   12.2787    1.8748   22.7744 C   0  0  0  0  0  0  0  0  0  0  0  0
    4.9400    1.7060   18.5060 C   0  0  0  0  0  0  0  0  0  0  0  0
    5.3360    0.8000   21.1530 C   0  0  0  0  0  0  0  0  0  0  0  0
    8.3310   -2.7170   25.3430 C   0  0  0  0  0  0  0  0  0  0  0  0
   10.2570   -3.5000   24.1350 C   0  0  0  0  0  0  0  0  0  0  0  0
    8.3510   -1.5420   24.6110 C   0  0  0  0  0  0  0  0  0  0  0  0
   10.2760   -2.3270   23.4020 C   0  0  0  0  0  0  0  0  0  0  0  0
   14.3603    0.8596   23.4625 C   0  0  0  0  0  0  0  0  0  0  0  0
   12.2682    0.0571   24.3659 C   0  0  0  0  0  0  0  0  0  0  0  0
    7.6830   -0.5170   18.7600 C   0  0  0  0  0  0  0  0  0  0  0  0
   11.5778    1.0013   23.6060 C   0  0  0  0  0  0  0  0  0  0  0  0
    5.9810    0.8330   18.8060 C   0  0  0  0  0  0  0  0  0  0  0  0
    6.1600    0.3870   20.1140 C   0  0  0  0  0  0  0  0  0  0  0  0
    9.2850   -3.7090   25.1090 C   0  0  0  0  0  0  0  0  0  0  0  0
    9.3300   -1.3350   23.6390 C   0  0  0  0  0  0  0  0  0  0  0  0
   13.6594   -0.0138   24.2942 C   0  0  0  0  0  0  0  0  0  0  0  0
    8.2930   -5.1714   26.8572 C   0  0  0  0  0  0  0  0  0  0  0  0
    8.9510    0.1280   21.6880 C   0  0  0  0  0  0  0  0  0  0  0  0
    8.4552   -6.5156   27.5444 C   0  0  0  0  0  0  0  0  0  0  0  0
    9.9019   -6.7444   27.9450 C   0  0  0  0  0  0  0  0  0  0  0  0
   10.8597   -6.5882   26.7680 C   0  0  0  0  0  0  0  0  0  0  0  0
   10.1895   -6.0108   25.5223 C   0  0  0  0  0  0  0  0  0  0  0  0
   10.0805    1.0790   23.6836 C   0  0  0  0  0  0  0  0  0  0  0  0
    6.9440    0.2550   18.0100 N   0  0  0  0  0  0  0  0  0  0  0  0
    7.2210   -0.4620   20.0350 N   0  0  0  0  0  0  0  0  0  0  0  0
    9.2623   -4.9266   25.8635 N   0  0  0  0  0  0  0  0  0  0  0  0
    8.0810   -0.9750   21.0820 N   0  0  0  0  0  0  0  0  0  0  0  0
    9.4200   -0.0840   22.9530 N   0  0  0  0  0  0  0  0  0  0  0  0
    7.3370   -4.4528   27.1463 O   0  0  0  0  0  0  0  0  0  0  0  0
    9.1870    1.1500   21.0630 O   0  0  0  0  0  0  0  0  0  0  0  0
   14.5118   -1.1778   25.2323 Cl  0  0  0  0  0  0  0  0  0  0  0  0
    3.2711    2.7870   19.3201 H   0  0  0  0  0  0  0  0  0  0  0  0
    3.6262    2.0082   21.6284 H   0  0  0  0  0  0  0  0  0  0  0  0
   14.2153    2.4844   22.0551 H   0  0  0  0  0  0  0  0  0  0  0  0
   11.7490    2.6137   22.1788 H   0  0  0  0  0  0  0  0  0  0  0  0
    4.7816    2.0660   17.4901 H   0  0  0  0  0  0  0  0  0  0  0  0
    5.4934    0.4579   22.1787 H   0  0  0  0  0  0  0  0  0  0  0  0
    7.5639   -2.8621   26.1045 H   0  0  0  0  0  0  0  0  0  0  0  0
   11.0141   -4.2644   23.9422 H   0  0  0  0  0  0  0  0  0  0  0  0
    7.5950   -0.7788   24.8007 H   0  0  0  0  0  0  0  0  0  0  0  0
   11.0408   -2.1861   22.6359 H   0  0  0  0  0  0  0  0  0  0  0  0
   15.4446    0.8161   23.3968 H   0  0  0  0  0  0  0  0  0  0  0  0
   11.7171   -0.6220   25.0124 H   0  0  0  0  0  0  0  0  0  0  0  0
    8.5166   -1.1054   18.4533 H   0  0  0  0  0  0  0  0  0  0  0  0
    7.8332   -6.5283   28.4263 H   0  0  0  0  0  0  0  0  0  0  0  0
    8.1305   -7.2788   26.8530 H   0  0  0  0  0  0  0  0  0  0  0  0
   10.1875   -6.0379   28.7521 H   0  0  0  0  0  0  0  0  0  0  0  0
   10.0116   -7.7568   28.3834 H   0  0  0  0  0  0  0  0  0  0  0  0
   11.7061   -5.9337   27.0644 H   0  0  0  0  0  0  0  0  0  0  0  0
   11.3230   -7.5689   26.5243 H   0  0  0  0  0  0  0  0  0  0  0  0
   10.9445   -5.5959   24.8614 H   0  0  0  0  0  0  0  0  0  0  0  0
    9.6461   -6.7954   25.0072 H   0  0  0  0  0  0  0  0  0  0  0  0
    9.7447    1.0292   24.7251 H   0  0  0  0  0  0  0  0  0  0  0  0
    9.7139    2.0237   23.2685 H   0  0  0  0  0  0  0  0  0  0  0  0
    8.1334   -1.7991   21.3673 H   0  0  0  0  0  0  0  0  0  0  0  0
  1  2  1  0  0  0  0
  1  5  2  0  0  0  0
  2  6  2  0  0  0  0
  3  4  2  0  0  0  0
  3 11  1  0  0  0  0
  4 14  1  0  0  0  0
  5 15  1  0  0  0  0
  6 16  1  0  0  0  0
  7  9  2  0  0  0  0
  7 17  1  0  0  0  0
  8 10  1  0  0  0  0
  8 17  2  0  0  0  0
  9 18  1  0  0  0  0
 10 18  2  0  0  0  0
 11 19  2  0  0  0  0
 12 14  2  0  0  0  0
 12 19  1  0  0  0  0
 13 27  2  0  0  0  0
 13 28  1  0  0  0  0
 14 26  1  0  0  0  0
 15 16  2  0  0  0  0
 15 27  1  0  0  0  0
 16 28  1  0  0  0  0
 17 29  1  0  0  0  0
 18 31  1  0  0  0  0
 19 34  1  0  0  0  0
 20 22  1  0  0  0  0
 20 29  1  0  0  0  0
 20 32  2  0  0  0  0
 21 30  1  0  0  0  0
 21 31  1  0  0  0  0
 21 33  2  0  0  0  0
 22 23  1  0  0  0  0
 23 24  1  0  0  0  0
 24 25  1  0  0  0  0
 25 29  1  0  0  0  0
 26 31  1  0  0  0  0
 28 30  1  0  0  0  0
  1 35  1  0  0  0  0
  2 36  1  0  0  0  0
  3 37  1  0  0  0  0
  4 38  1  0  0  0  0
  5 39  1  0  0  0  0
  6 40  1  0  0  0  0
  7 41  1  0  0  0  0
  8 42  1  0  0  0  0
  9 43  1  0  0  0  0
 10 44  1  0  0  0  0
 11 45  1  0  0  0  0
 12 46  1  0  0  0  0
 13 47  1  0  0  0  0
 22 48  1  0  0  0  0
 22 49  1  0  0  0  0
 23 50  1  0  0  0  0
 23 51  1  0  0  0  0
 24 52  1  0  0  0  0
 24 53  1  0  0  0  0
 25 54  1  0  0  0  0
 25 55  1  0  0  0  0
 26 56  1  0  0  0  0
 26 57  1  0  0  0  0
 30 58  1  0  0  0  0
M  END
> <clash_score>
2.8647215471778944

> <docking_score>
-6.904029846191406

> <overlap_score>
1.019769310951233

$$$$
BENZO_52_1
  -OEChem-08232013473D

 54 58  0     0  0  0  0  0  0999 V2000
    4.0980    2.1130   19.5350 C   0  0  0  0  0  0  0  0  0  0  0  0
    4.2970    1.6690   20.8430 C   0  0  0  0  0  0  0  0  0  0  0  0
    4.9400    1.7060   18.5060 C   0  0  0  0  0  0  0  0  0  0  0  0
    5.3360    0.8000   21.1530 C   0  0  0  0  0  0  0  0  0  0  0  0
    8.3310   -2.7170   25.3430 C   0  0  0  0  0  0  0  0  0  0  0  0
   10.2570   -3.5000   24.1350 C   0  0  0  0  0  0  0  0  0  0  0  0
    8.3510   -1.5420   24.6110 C   0  0  0  0  0  0  0  0  0  0  0  0
   10.2760   -2.3270   23.4020 C   0  0  0  0  0  0  0  0  0  0  0  0
   12.2785    1.0229   22.3287 C   0  0  0  0  0  0  0  0  0  0  0  0
   13.6434    0.9694   22.5069 C   0  0  0  0  0  0  0  0  0  0  0  0
   12.4318    0.9754   24.6474 C   0  0  0  0  0  0  0  0  0  0  0  0
    7.6830   -0.5170   18.7600 C   0  0  0  0  0  0  0  0  0  0  0  0
   11.5765    1.0265   23.5686 C   0  0  0  0  0  0  0  0  0  0  0  0
    5.9810    0.8330   18.8060 C   0  0  0  0  0  0  0  0  0  0  0  0
    6.1600    0.3870   20.1140 C   0  0  0  0  0  0  0  0  0  0  0  0
    9.2850   -3.7090   25.1090 C   0  0  0  0  0  0  0  0  0  0  0  0
    9.3300   -1.3350   23.6390 C   0  0  0  0  0  0  0  0  0  0  0  0
    8.9510    0.1280   21.6880 C   0  0  0  0  0  0  0  0  0  0  0  0
    8.7666   -4.9523   27.2147 C   0  0  0  0  0  0  0  0  0  0  0  0
    9.3034   -6.1866   25.1651 C   0  0  0  0  0  0  0  0  0  0  0  0
    7.3827   -5.5925   27.1999 C   0  0  0  0  0  0  0  0  0  0  0  0
    7.9024   -6.7967   25.2263 C   0  0  0  0  0  0  0  0  0  0  0  0
   10.0805    1.0790   23.6836 C   0  0  0  0  0  0  0  0  0  0  0  0
    6.9440    0.2550   18.0100 N   0  0  0  0  0  0  0  0  0  0  0  0
    7.2210   -0.4620   20.0350 N   0  0  0  0  0  0  0  0  0  0  0  0
    9.2640   -4.8844   25.8389 N   0  0  0  0  0  0  0  0  0  0  0  0
    8.0810   -0.9750   21.0820 N   0  0  0  0  0  0  0  0  0  0  0  0
    9.4200   -0.0840   22.9530 N   0  0  0  0  0  0  0  0  0  0  0  0
    9.1870    1.1500   21.0630 O   0  0  0  0  0  0  0  0  0  0  0  0
    7.4483   -6.8833   26.5817 O   0  0  0  0  0  0  0  0  0  0  0  0
   14.0736    0.9236   24.1638 S   0  0  0  0  0  0  0  0  0  0  0  0
    3.2711    2.7870   19.3201 H   0  0  0  0  0  0  0  0  0  0  0  0
    3.6262    2.0082   21.6285 H   0  0  0  0  0  0  0  0  0  0  0  0
    4.7816    2.0660   17.4901 H   0  0  0  0  0  0  0  0  0  0  0  0
    5.4934    0.4579   22.1787 H   0  0  0  0  0  0  0  0  0  0  0  0
    7.5647   -2.8621   26.1053 H   0  0  0  0  0  0  0  0  0  0  0  0
   11.0144   -4.2642   23.9425 H   0  0  0  0  0  0  0  0  0  0  0  0
    7.5958   -0.7779   24.8006 H   0  0  0  0  0  0  0  0  0  0  0  0
   11.0406   -2.1848   22.6356 H   0  0  0  0  0  0  0  0  0  0  0  0
   11.8100    1.0572   21.3532 H   0  0  0  0  0  0  0  0  0  0  0  0
   14.4084    0.9542   21.7436 H   0  0  0  0  0  0  0  0  0  0  0  0
   12.1752    0.9646   25.6977 H   0  0  0  0  0  0  0  0  0  0  0  0
    8.5166   -1.1054   18.4533 H   0  0  0  0  0  0  0  0  0  0  0  0
    8.7030   -3.9561   27.6574 H   0  0  0  0  0  0  0  0  0  0  0  0
    9.4460   -5.5639   27.8143 H   0  0  0  0  0  0  0  0  0  0  0  0
   10.0083   -6.8392   25.6817 H   0  0  0  0  0  0  0  0  0  0  0  0
    9.6089   -6.0802   24.1251 H   0  0  0  0  0  0  0  0  0  0  0  0
    7.0281   -5.7334   28.2231 H   0  0  0  0  0  0  0  0  0  0  0  0
    6.6541   -4.9678   26.6754 H   0  0  0  0  0  0  0  0  0  0  0  0
    7.1860   -6.2177   24.6318 H   0  0  0  0  0  0  0  0  0  0  0  0
    7.9246   -7.8119   24.8187 H   0  0  0  0  0  0  0  0  0  0  0  0
    9.7736    1.0716   24.7351 H   0  0  0  0  0  0  0  0  0  0  0  0
    9.6838    1.9960   23.2354 H   0  0  0  0  0  0  0  0  0  0  0  0
    8.1334   -1.7991   21.3673 H   0  0  0  0  0  0  0  0  0  0  0  0
  1  2  1  0  0  0  0
  1  3  2  0  0  0  0
  2  4  2  0  0  0  0
  3 14  1  0  0  0  0
  4 15  1  0  0  0  0
  5  7  2  0  0  0  0
  5 16  1  0  0  0  0
  6  8  1  0  0  0  0
  6 16  2  0  0  0  0
  7 17  1  0  0  0  0
  8 17  2  0  0  0  0
  9 10  2  0  0  0  0
  9 13  1  0  0  0  0
 10 31  1  0  0  0  0
 11 13  2  0  0  0  0
 11 31  1  0  0  0  0
 12 24  2  0  0  0  0
 12 25  1  0  0  0  0
 13 23  1  0  0  0  0
 14 15  2  0  0  0  0
 14 24  1  0  0  0  0
 15 25  1  0  0  0  0
 16 26  1  0  0  0  0
 17 28  1  0  0  0  0
 18 27  1  0  0  0  0
 18 28  1  0  0  0  0
 18 29  2  0  0  0  0
 19 21  1  0  0  0  0
 19 26  1  0  0  0  0
 20 22  1  0  0  0  0
 20 26  1  0  0  0  0
 21 30  1  0  0  0  0
 22 30  1  0  0  0  0
 23 28  1  0  0  0  0
 25 27  1  0  0  0  0
  1 32  1  0  0  0  0
  2 33  1  0  0  0  0
  3 34  1  0  0  0  0
  4 35  1  0  0  0  0
  5 36  1  0  0  0  0
  6 37  1  0  0  0  0
  7 38  1  0  0  0  0
  8 39  1  0  0  0  0
  9 40  1  0  0  0  0
 10 41  1  0  0  0  0
 11 42  1  0  0  0  0
 12 43  1  0  0  0  0
 19 44  1  0  0  0  0
 19 45  1  0  0  0  0
 20 46  1  0  0  0  0
 20 47  1  0  0  0  0
 21 48  1  0  0  0  0
 21 49  1  0  0  0  0
 22 50  1  0  0  0  0
 22 51  1  0  0  0  0
 23 52  1  0  0  0  0
 23 53  1  0  0  0  0
 27 54  1  0  0  0  0
M  END
> <clash_score>
0

> <docking_score>
-9.121874809265137

> <overlap_score>
0.9902320504188538

$$$$
BENZO_57_1
  -OEChem-08232013483D

 52 55  0     0  0  0  0  0  0999 V2000
   14.2888    0.9892   23.7890 C   0  0  0  0  0  0  0  0  0  0  0  0
    4.2970    1.6690   20.8430 C   0  0  0  0  0  0  0  0  0  0  0  0
   13.5723    0.3134   24.7766 C   0  0  0  0  0  0  0  0  0  0  0  0
   13.6107    1.6854   22.7884 C   0  0  0  0  0  0  0  0  0  0  0  0
    4.0980    2.1130   19.5350 C   0  0  0  0  0  0  0  0  0  0  0  0
    5.3360    0.8000   21.1530 C   0  0  0  0  0  0  0  0  0  0  0  0
   12.1776    0.3337   24.7637 C   0  0  0  0  0  0  0  0  0  0  0  0
   12.2161    1.7058   22.7755 C   0  0  0  0  0  0  0  0  0  0  0  0
    4.9400    1.7060   18.5060 C   0  0  0  0  0  0  0  0  0  0  0  0
    8.3510   -1.5420   24.6110 C   0  0  0  0  0  0  0  0  0  0  0  0
   10.2760   -2.3270   23.4020 C   0  0  0  0  0  0  0  0  0  0  0  0
    8.3310   -2.7170   25.3430 C   0  0  0  0  0  0  0  0  0  0  0  0
   10.2570   -3.5000   24.1350 C   0  0  0  0  0  0  0  0  0  0  0  0
    6.1600    0.3870   20.1140 C   0  0  0  0  0  0  0  0  0  0  0  0
   11.4995    1.0300   23.7631 C   0  0  0  0  0  0  0  0  0  0  0  0
    5.9810    0.8330   18.8060 C   0  0  0  0  0  0  0  0  0  0  0  0
    9.3300   -1.3350   23.6390 C   0  0  0  0  0  0  0  0  0  0  0  0
    9.2850   -3.7090   25.1090 C   0  0  0  0  0  0  0  0  0  0  0  0
    7.2210   -0.4620   20.0350 C   0  0  0  0  0  0  0  0  0  0  0  0
    8.9510    0.1280   21.6880 C   0  0  0  0  0  0  0  0  0  0  0  0
    8.2493   -5.1166   26.8639 C   0  0  0  0  0  0  0  0  0  0  0  0
   10.2426   -5.9411   25.6008 C   0  0  0  0  0  0  0  0  0  0  0  0
    9.9983    1.0521   23.7484 C   0  0  0  0  0  0  0  0  0  0  0  0
    7.6830   -0.5170   18.7600 N   0  0  0  0  0  0  0  0  0  0  0  0
    6.9440    0.2550   18.0100 N   0  0  0  0  0  0  0  0  0  0  0  0
    8.0810   -0.9750   21.0820 N   0  0  0  0  0  0  0  0  0  0  0  0
    9.4200   -0.0840   22.9530 N   0  0  0  0  0  0  0  0  0  0  0  0
    9.2624   -4.9028   25.8498 N   0  0  0  0  0  0  0  0  0  0  0  0
    9.1870    1.1500   21.0630 O   0  0  0  0  0  0  0  0  0  0  0  0
   15.3748    0.9743   23.8000 H   0  0  0  0  0  0  0  0  0  0  0  0
    3.6274    2.0126   21.6300 H   0  0  0  0  0  0  0  0  0  0  0  0
   14.1001   -0.2279   25.5564 H   0  0  0  0  0  0  0  0  0  0  0  0
   14.1683    2.2126   22.0200 H   0  0  0  0  0  0  0  0  0  0  0  0
    3.2732    2.7875   19.3199 H   0  0  0  0  0  0  0  0  0  0  0  0
    5.4878    0.4645   22.1722 H   0  0  0  0  0  0  0  0  0  0  0  0
   11.6276   -0.1958   25.5371 H   0  0  0  0  0  0  0  0  0  0  0  0
   11.6963    2.2508   21.9919 H   0  0  0  0  0  0  0  0  0  0  0  0
    4.7853    2.0674   17.4815 H   0  0  0  0  0  0  0  0  0  0  0  0
    7.5947   -0.7787   24.7997 H   0  0  0  0  0  0  0  0  0  0  0  0
   11.0404   -2.1861   22.6352 H   0  0  0  0  0  0  0  0  0  0  0  0
    7.5641   -2.8632   26.1047 H   0  0  0  0  0  0  0  0  0  0  0  0
   11.0135   -4.2647   23.9425 H   0  0  0  0  0  0  0  0  0  0  0  0
    8.3981   -6.1021   27.3295 H   0  0  0  0  0  0  0  0  0  0  0  0
    8.3280   -4.3328   27.6317 H   0  0  0  0  0  0  0  0  0  0  0  0
    7.2526   -5.0770   26.4003 H   0  0  0  0  0  0  0  0  0  0  0  0
   10.0591   -6.7891   26.2770 H   0  0  0  0  0  0  0  0  0  0  0  0
   10.1607   -6.2799   24.5575 H   0  0  0  0  0  0  0  0  0  0  0  0
   11.2522   -5.5424   25.7786 H   0  0  0  0  0  0  0  0  0  0  0  0
    9.6011    0.9757   24.7664 H   0  0  0  0  0  0  0  0  0  0  0  0
    9.6233    1.9886   23.3223 H   0  0  0  0  0  0  0  0  0  0  0  0
    7.1015    0.3608   17.0505 H   0  0  0  0  0  0  0  0  0  0  0  0
    8.1177   -1.8091   21.3536 H   0  0  0  0  0  0  0  0  0  0  0  0
  1  3  1  0  0  0  0
  1  4  2  0  0  0  0
  2  5  1  0  0  0  0
  2  6  2  0  0  0  0
  3  7  2  0  0  0  0
  4  8  1  0  0  0  0
  5  9  2  0  0  0  0
  6 14  1  0  0  0  0
  7 15  1  0  0  0  0
  8 15  2  0  0  0  0
  9 16  1  0  0  0  0
 10 12  2  0  0  0  0
 10 17  1  0  0  0  0
 11 13  1  0  0  0  0
 11 17  2  0  0  0  0
 12 18  1  0  0  0  0
 13 18  2  0  0  0  0
 14 16  2  0  0  0  0
 14 19  1  0  0  0  0
 15 23  1  0  0  0  0
 16 25  1  0  0  0  0
 17 27  1  0  0  0  0
 18 28  1  0  0  0  0
 19 24  2  0  0  0  0
 19 26  1  0  0  0  0
 20 26  1  0  0  0  0
 20 27  1  0  0  0  0
 20 29  2  0  0  0  0
 21 28  1  0  0  0  0
 22 28  1  0  0  0  0
 23 27  1  0  0  0  0
 24 25  1  0  0  0  0
  1 30  1  0  0  0  0
  2 31  1  0  0  0  0
  3 32  1  0  0  0  0
  4 33  1  0  0  0  0
  5 34  1  0  0  0  0
  6 35  1  0  0  0  0
  7 36  1  0  0  0  0
  8 37  1  0  0  0  0
  9 38  1  0  0  0  0
 10 39  1  0  0  0  0
 11 40  1  0  0  0  0
 12 41  1  0  0  0  0
 13 42  1  0  0  0  0
 21 43  1  0  0  0  0
 21 44  1  0  0  0  0
 21 45  1  0  0  0  0
 22 46  1  0  0  0  0
 22 47  1  0  0  0  0
 22 48  1  0  0  0  0
 23 49  1  0  0  0  0
 23 50  1  0  0  0  0
 25 51  1  0  0  0  0
 26 52  1  0  0  0  0
M  END
> <clash_score>
0

> <docking_score>
-8.258580207824707

> <overlap_score>
0.9957950115203857

$$$$
BENZO_56_1
  -OEChem-08232013483D

 49 52  0     0  0  0  0  0  0999 V2000
    4.2970    1.6690   20.8430 C   0  0  0  0  0  0  0  0  0  0  0  0
    4.0980    2.1130   19.5350 C   0  0  0  0  0  0  0  0  0  0  0  0
    5.3360    0.8000   21.1530 C   0  0  0  0  0  0  0  0  0  0  0  0
    4.9400    1.7060   18.5060 C   0  0  0  0  0  0  0  0  0  0  0  0
    8.3510   -1.5420   24.6110 C   0  0  0  0  0  0  0  0  0  0  0  0
   10.2760   -2.3270   23.4020 C   0  0  0  0  0  0  0  0  0  0  0  0
    8.3310   -2.7170   25.3430 C   0  0  0  0  0  0  0  0  0  0  0  0
   10.2570   -3.5000   24.1350 C   0  0  0  0  0  0  0  0  0  0  0  0
   12.3069    1.1129   22.5920 C   0  0  0  0  0  0  0  0  0  0  0  0
   13.6518    1.0697   22.8866 C   0  0  0  0  0  0  0  0  0  0  0  0
   12.2583    0.9263   24.9083 C   0  0  0  0  0  0  0  0  0  0  0  0
    6.1600    0.3870   20.1140 C   0  0  0  0  0  0  0  0  0  0  0  0
   11.4995    1.0300   23.7631 C   0  0  0  0  0  0  0  0  0  0  0  0
    5.9810    0.8330   18.8060 C   0  0  0  0  0  0  0  0  0  0  0  0
    9.3300   -1.3350   23.6390 C   0  0  0  0  0  0  0  0  0  0  0  0
    9.2850   -3.7090   25.1090 C   0  0  0  0  0  0  0  0  0  0  0  0
    7.2210   -0.4620   20.0350 C   0  0  0  0  0  0  0  0  0  0  0  0
    8.9510    0.1280   21.6880 C   0  0  0  0  0  0  0  0  0  0  0  0
    8.2493   -5.1166   26.8639 C   0  0  0  0  0  0  0  0  0  0  0  0
   10.2426   -5.9411   25.6008 C   0  0  0  0  0  0  0  0  0  0  0  0
    9.9983    1.0521   23.7484 C   0  0  0  0  0  0  0  0  0  0  0  0
    7.6830   -0.5170   18.7600 N   0  0  0  0  0  0  0  0  0  0  0  0
    6.9440    0.2550   18.0100 N   0  0  0  0  0  0  0  0  0  0  0  0
    8.0810   -0.9750   21.0820 N   0  0  0  0  0  0  0  0  0  0  0  0
    9.4200   -0.0840   22.9530 N   0  0  0  0  0  0  0  0  0  0  0  0
    9.2624   -4.9028   25.8498 N   0  0  0  0  0  0  0  0  0  0  0  0
    9.1870    1.1500   21.0630 O   0  0  0  0  0  0  0  0  0  0  0  0
   13.9368    0.9296   24.5693 S   0  0  0  0  0  0  0  0  0  0  0  0
    3.6274    2.0126   21.6300 H   0  0  0  0  0  0  0  0  0  0  0  0
    3.2732    2.7875   19.3199 H   0  0  0  0  0  0  0  0  0  0  0  0
    5.4878    0.4645   22.1722 H   0  0  0  0  0  0  0  0  0  0  0  0
    4.7853    2.0674   17.4815 H   0  0  0  0  0  0  0  0  0  0  0  0
    7.5947   -0.7787   24.7997 H   0  0  0  0  0  0  0  0  0  0  0  0
   11.0404   -2.1861   22.6352 H   0  0  0  0  0  0  0  0  0  0  0  0
    7.5641   -2.8632   26.1047 H   0  0  0  0  0  0  0  0  0  0  0  0
   11.0135   -4.2647   23.9425 H   0  0  0  0  0  0  0  0  0  0  0  0
   11.9246    1.1995   21.5827 H   0  0  0  0  0  0  0  0  0  0  0  0
   14.4807    1.1130   22.1943 H   0  0  0  0  0  0  0  0  0  0  0  0
   11.9113    0.8474   25.9293 H   0  0  0  0  0  0  0  0  0  0  0  0
    8.3981   -6.1021   27.3295 H   0  0  0  0  0  0  0  0  0  0  0  0
    8.3280   -4.3328   27.6317 H   0  0  0  0  0  0  0  0  0  0  0  0
    7.2526   -5.0770   26.4003 H   0  0  0  0  0  0  0  0  0  0  0  0
   10.0591   -6.7891   26.2770 H   0  0  0  0  0  0  0  0  0  0  0  0
   10.1607   -6.2799   24.5575 H   0  0  0  0  0  0  0  0  0  0  0  0
   11.2522   -5.5424   25.7786 H   0  0  0  0  0  0  0  0  0  0  0  0
    9.6011    0.9757   24.7664 H   0  0  0  0  0  0  0  0  0  0  0  0
    9.6233    1.9886   23.3223 H   0  0  0  0  0  0  0  0  0  0  0  0
    7.1015    0.3608   17.0505 H   0  0  0  0  0  0  0  0  0  0  0  0
    8.1177   -1.8091   21.3536 H   0  0  0  0  0  0  0  0  0  0  0  0
  1  2  1  0  0  0  0
  1  3  2  0  0  0  0
  2  4  2  0  0  0  0
  3 12  1  0  0  0  0
  4 14  1  0  0  0  0
  5  7  2  0  0  0  0
  5 15  1  0  0  0  0
  6  8  1  0  0  0  0
  6 15  2  0  0  0  0
  7 16  1  0  0  0  0
  8 16  2  0  0  0  0
  9 10  2  0  0  0  0
  9 13  1  0  0  0  0
 10 28  1  0  0  0  0
 11 13  2  0  0  0  0
 11 28  1  0  0  0  0
 12 14  2  0  0  0  0
 12 17  1  0  0  0  0
 13 21  1  0  0  0  0
 14 23  1  0  0  0  0
 15 25  1  0  0  0  0
 16 26  1  0  0  0  0
 17 22  2  0  0  0  0
 17 24  1  0  0  0  0
 18 24  1  0  0  0  0
 18 25  1  0  0  0  0
 18 27  2  0  0  0  0
 19 26  1  0  0  0  0
 20 26  1  0  0  0  0
 21 25  1  0  0  0  0
 22 23  1  0  0  0  0
  1 29  1  0  0  0  0
  2 30  1  0  0  0  0
  3 31  1  0  0  0  0
  4 32  1  0  0  0  0
  5 33  1  0  0  0  0
  6 34  1  0  0  0  0
  7 35  1  0  0  0  0
  8 36  1  0  0  0  0
  9 37  1  0  0  0  0
 10 38  1  0  0  0  0
 11 39  1  0  0  0  0
 19 40  1  0  0  0  0
 19 41  1  0  0  0  0
 19 42  1  0  0  0  0
 20 43  1  0  0  0  0
 20 44  1  0  0  0  0
 20 45  1  0  0  0  0
 21 46  1  0  0  0  0
 21 47  1  0  0  0  0
 23 48  1  0  0  0  0
 24 49  1  0  0  0  0
M  END
> <clash_score>
0

> <docking_score>
-8.64721393585205

> <overlap_score>
0.9734886884689331

$$$$
BENZO_54_1
  -OEChem-08232013483D

 57 61  0     0  0  0  0  0  0999 V2000
    4.0980    2.1130   19.5350 C   0  0  0  0  0  0  0  0  0  0  0  0
    4.2970    1.6690   20.8430 C   0  0  0  0  0  0  0  0  0  0  0  0
   13.7567    1.7895   24.2766 C   0  0  0  0  0  0  0  0  0  0  0  0
   12.3668    1.8385   24.3821 C   0  0  0  0  0  0  0  0  0  0  0  0
    4.9400    1.7060   18.5060 C   0  0  0  0  0  0  0  0  0  0  0  0
    5.3360    0.8000   21.1530 C   0  0  0  0  0  0  0  0  0  0  0  0
    8.3310   -2.7170   25.3430 C   0  0  0  0  0  0  0  0  0  0  0  0
   10.2570   -3.5000   24.1350 C   0  0  0  0  0  0  0  0  0  0  0  0
    8.3510   -1.5420   24.6110 C   0  0  0  0  0  0  0  0  0  0  0  0
   10.2760   -2.3270   23.4020 C   0  0  0  0  0  0  0  0  0  0  0  0
   14.3565    0.9285   23.3575 C   0  0  0  0  0  0  0  0  0  0  0  0
   12.1763    0.1655   22.6495 C   0  0  0  0  0  0  0  0  0  0  0  0
    7.6830   -0.5170   18.7600 C   0  0  0  0  0  0  0  0  0  0  0  0
   11.5765    1.0265   23.5686 C   0  0  0  0  0  0  0  0  0  0  0  0
    5.9810    0.8330   18.8060 C   0  0  0  0  0  0  0  0  0  0  0  0
    6.1600    0.3870   20.1140 C   0  0  0  0  0  0  0  0  0  0  0  0
    9.2850   -3.7090   25.1090 C   0  0  0  0  0  0  0  0  0  0  0  0
    9.3300   -1.3350   23.6390 C   0  0  0  0  0  0  0  0  0  0  0  0
   13.5663    0.1165   22.5440 C   0  0  0  0  0  0  0  0  0  0  0  0
    8.9510    0.1280   21.6880 C   0  0  0  0  0  0  0  0  0  0  0  0
    8.7666   -4.9523   27.2147 C   0  0  0  0  0  0  0  0  0  0  0  0
    9.3034   -6.1866   25.1651 C   0  0  0  0  0  0  0  0  0  0  0  0
    7.3827   -5.5925   27.1999 C   0  0  0  0  0  0  0  0  0  0  0  0
    7.9024   -6.7967   25.2263 C   0  0  0  0  0  0  0  0  0  0  0  0
   10.0805    1.0790   23.6836 C   0  0  0  0  0  0  0  0  0  0  0  0
    6.9440    0.2550   18.0100 N   0  0  0  0  0  0  0  0  0  0  0  0
    7.2210   -0.4620   20.0350 N   0  0  0  0  0  0  0  0  0  0  0  0
    9.2640   -4.8844   25.8389 N   0  0  0  0  0  0  0  0  0  0  0  0
    8.0810   -0.9750   21.0820 N   0  0  0  0  0  0  0  0  0  0  0  0
    9.4200   -0.0840   22.9530 N   0  0  0  0  0  0  0  0  0  0  0  0
    9.1870    1.1500   21.0630 O   0  0  0  0  0  0  0  0  0  0  0  0
    7.4483   -6.8833   26.5817 O   0  0  0  0  0  0  0  0  0  0  0  0
   14.3069   -0.9464   21.4111 Cl  0  0  0  0  0  0  0  0  0  0  0  0
    3.2711    2.7870   19.3201 H   0  0  0  0  0  0  0  0  0  0  0  0
    3.6262    2.0082   21.6285 H   0  0  0  0  0  0  0  0  0  0  0  0
   14.3718    2.4219   24.9104 H   0  0  0  0  0  0  0  0  0  0  0  0
   11.9080    2.5123   25.1011 H   0  0  0  0  0  0  0  0  0  0  0  0
    4.7816    2.0660   17.4901 H   0  0  0  0  0  0  0  0  0  0  0  0
    5.4934    0.4579   22.1787 H   0  0  0  0  0  0  0  0  0  0  0  0
    7.5647   -2.8621   26.1053 H   0  0  0  0  0  0  0  0  0  0  0  0
   11.0144   -4.2642   23.9425 H   0  0  0  0  0  0  0  0  0  0  0  0
    7.5958   -0.7779   24.8006 H   0  0  0  0  0  0  0  0  0  0  0  0
   11.0406   -2.1848   22.6356 H   0  0  0  0  0  0  0  0  0  0  0  0
   15.4411    0.9007   23.2864 H   0  0  0  0  0  0  0  0  0  0  0  0
   11.5557   -0.4652   22.0171 H   0  0  0  0  0  0  0  0  0  0  0  0
    8.5166   -1.1054   18.4533 H   0  0  0  0  0  0  0  0  0  0  0  0
    8.7030   -3.9561   27.6574 H   0  0  0  0  0  0  0  0  0  0  0  0
    9.4460   -5.5639   27.8143 H   0  0  0  0  0  0  0  0  0  0  0  0
   10.0083   -6.8392   25.6817 H   0  0  0  0  0  0  0  0  0  0  0  0
    9.6089   -6.0802   24.1251 H   0  0  0  0  0  0  0  0  0  0  0  0
    7.0281   -5.7334   28.2231 H   0  0  0  0  0  0  0  0  0  0  0  0
    6.6541   -4.9678   26.6754 H   0  0  0  0  0  0  0  0  0  0  0  0
    7.1860   -6.2177   24.6318 H   0  0  0  0  0  0  0  0  0  0  0  0
    7.9246   -7.8119   24.8187 H   0  0  0  0  0  0  0  0  0  0  0  0
    9.7736    1.0716   24.7351 H   0  0  0  0  0  0  0  0  0  0  0  0
    9.6838    1.9960   23.2354 H   0  0  0  0  0  0  0  0  0  0  0  0
    8.1334   -1.7991   21.3673 H   0  0  0  0  0  0  0  0  0  0  0  0
  1  2  1  0  0  0  0
  1  5  2  0  0  0  0
  2  6  2  0  0  0  0
  3  4  2  0  0  0  0
  3 11  1  0  0  0  0
  4 14  1  0  0  0  0
  5 15  1  0  0  0  0
  6 16  1  0  0  0  0
  7  9  2  0  0  0  0
  7 17  1  0  0  0  0
  8 10  1  0  0  0  0
  8 17  2  0  0  0  0
  9 18  1  0  0  0  0
 10 18  2  0  0  0  0
 11 19  2  0  0  0  0
 12 14  2  0  0  0  0
 12 19  1  0  0  0  0
 13 26  2  0  0  0  0
 13 27  1  0  0  0  0
 14 25  1  0  0  0  0
 15 16  2  0  0  0  0
 15 26  1  0  0  0  0
 16 27  1  0  0  0  0
 17 28  1  0  0  0  0
 18 30  1  0  0  0  0
 19 33  1  0  0  0  0
 20 29  1  0  0  0  0
 20 30  1  0  0  0  0
 20 31  2  0  0  0  0
 21 23  1  0  0  0  0
 21 28  1  0  0  0  0
 22 24  1  0  0  0  0
 22 28  1  0  0  0  0
 23 32  1  0  0  0  0
 24 32  1  0  0  0  0
 25 30  1  0  0  0  0
 27 29  1  0  0  0  0
  1 34  1  0  0  0  0
  2 35  1  0  0  0  0
  3 36  1  0  0  0  0
  4 37  1  0  0  0  0
  5 38  1  0  0  0  0
  6 39  1  0  0  0  0
  7 40  1  0  0  0  0
  8 41  1  0  0  0  0
  9 42  1  0  0  0  0
 10 43  1  0  0  0  0
 11 44  1  0  0  0  0
 12 45  1  0  0  0  0
 13 46  1  0  0  0  0
 21 47  1  0  0  0  0
 21 48  1  0  0  0  0
 22 49  1  0  0  0  0
 22 50  1  0  0  0  0
 23 51  1  0  0  0  0
 23 52  1  0  0  0  0
 24 53  1  0  0  0  0
 24 54  1  0  0  0  0
 25 55  1  0  0  0  0
 25 56  1  0  0  0  0
 29 57  1  0  0  0  0
M  END
> <clash_score>
0

> <docking_score>
-8.370922088623047

> <overlap_score>
0.9978266954421997

$$$$
BENZO_55_1
  -OEChem-08232013483D

 57 61  0     0  0  0  0  0  0999 V2000
    4.0980    2.1130   19.5350 C   0  0  0  0  0  0  0  0  0  0  0  0
    4.2970    1.6690   20.8430 C   0  0  0  0  0  0  0  0  0  0  0  0
    4.9400    1.7060   18.5060 C   0  0  0  0  0  0  0  0  0  0  0  0
    5.3360    0.8000   21.1530 C   0  0  0  0  0  0  0  0  0  0  0  0
    8.3310   -2.7170   25.3430 C   0  0  0  0  0  0  0  0  0  0  0  0
   10.2570   -3.5000   24.1350 C   0  0  0  0  0  0  0  0  0  0  0  0
    8.3510   -1.5420   24.6110 C   0  0  0  0  0  0  0  0  0  0  0  0
   10.2760   -2.3270   23.4020 C   0  0  0  0  0  0  0  0  0  0  0  0
   12.5255    1.7657   24.2999 C   0  0  0  0  0  0  0  0  0  0  0  0
   12.3267    0.2428   22.7263 C   0  0  0  0  0  0  0  0  0  0  0  0
    7.6830   -0.5170   18.7600 C   0  0  0  0  0  0  0  0  0  0  0  0
   11.5765    1.0265   23.5686 C   0  0  0  0  0  0  0  0  0  0  0  0
    5.9810    0.8330   18.8060 C   0  0  0  0  0  0  0  0  0  0  0  0
    6.1600    0.3870   20.1140 C   0  0  0  0  0  0  0  0  0  0  0  0
    9.2850   -3.7090   25.1090 C   0  0  0  0  0  0  0  0  0  0  0  0
    9.3300   -1.3350   23.6390 C   0  0  0  0  0  0  0  0  0  0  0  0
    8.9510    0.1280   21.6880 C   0  0  0  0  0  0  0  0  0  0  0  0
    8.7666   -4.9523   27.2147 C   0  0  0  0  0  0  0  0  0  0  0  0
    9.3034   -6.1866   25.1651 C   0  0  0  0  0  0  0  0  0  0  0  0
    7.3827   -5.5925   27.1999 C   0  0  0  0  0  0  0  0  0  0  0  0
    7.9024   -6.7967   25.2263 C   0  0  0  0  0  0  0  0  0  0  0  0
   14.7907   -0.0234   22.3567 C   0  0  0  0  0  0  0  0  0  0  0  0
   10.0805    1.0790   23.6836 C   0  0  0  0  0  0  0  0  0  0  0  0
   13.7826    1.4773   23.9527 N   0  0  0  0  0  0  0  0  0  0  0  0
    6.9440    0.2550   18.0100 N   0  0  0  0  0  0  0  0  0  0  0  0
   13.6288    0.5481   22.9941 N   0  0  0  0  0  0  0  0  0  0  0  0
    7.2210   -0.4620   20.0350 N   0  0  0  0  0  0  0  0  0  0  0  0
    9.2640   -4.8844   25.8389 N   0  0  0  0  0  0  0  0  0  0  0  0
    8.0810   -0.9750   21.0820 N   0  0  0  0  0  0  0  0  0  0  0  0
    9.4200   -0.0840   22.9530 N   0  0  0  0  0  0  0  0  0  0  0  0
    9.1870    1.1500   21.0630 O   0  0  0  0  0  0  0  0  0  0  0  0
    7.4483   -6.8833   26.5817 O   0  0  0  0  0  0  0  0  0  0  0  0
    3.2711    2.7870   19.3201 H   0  0  0  0  0  0  0  0  0  0  0  0
    3.6262    2.0082   21.6285 H   0  0  0  0  0  0  0  0  0  0  0  0
    4.7816    2.0660   17.4901 H   0  0  0  0  0  0  0  0  0  0  0  0
    5.4934    0.4579   22.1787 H   0  0  0  0  0  0  0  0  0  0  0  0
    7.5647   -2.8621   26.1053 H   0  0  0  0  0  0  0  0  0  0  0  0
   11.0144   -4.2642   23.9425 H   0  0  0  0  0  0  0  0  0  0  0  0
    7.5958   -0.7779   24.8006 H   0  0  0  0  0  0  0  0  0  0  0  0
   11.0406   -2.1848   22.6356 H   0  0  0  0  0  0  0  0  0  0  0  0
   12.3559    2.5024   25.0724 H   0  0  0  0  0  0  0  0  0  0  0  0
   12.0519   -0.4888   21.9787 H   0  0  0  0  0  0  0  0  0  0  0  0
    8.5166   -1.1054   18.4533 H   0  0  0  0  0  0  0  0  0  0  0  0
    8.7030   -3.9561   27.6574 H   0  0  0  0  0  0  0  0  0  0  0  0
    9.4460   -5.5639   27.8143 H   0  0  0  0  0  0  0  0  0  0  0  0
   10.0083   -6.8392   25.6817 H   0  0  0  0  0  0  0  0  0  0  0  0
    9.6089   -6.0802   24.1251 H   0  0  0  0  0  0  0  0  0  0  0  0
    7.0281   -5.7334   28.2231 H   0  0  0  0  0  0  0  0  0  0  0  0
    6.6541   -4.9678   26.6754 H   0  0  0  0  0  0  0  0  0  0  0  0
    7.1860   -6.2177   24.6318 H   0  0  0  0  0  0  0  0  0  0  0  0
    7.9246   -7.8119   24.8187 H   0  0  0  0  0  0  0  0  0  0  0  0
   15.0350    0.5918   21.4867 H   0  0  0  0  0  0  0  0  0  0  0  0
   15.6251   -0.0346   23.0635 H   0  0  0  0  0  0  0  0  0  0  0  0
   14.5671   -1.0491   22.0504 H   0  0  0  0  0  0  0  0  0  0  0  0
    9.7736    1.0716   24.7351 H   0  0  0  0  0  0  0  0  0  0  0  0
    9.6838    1.9960   23.2354 H   0  0  0  0  0  0  0  0  0  0  0  0
    8.1334   -1.7991   21.3673 H   0  0  0  0  0  0  0  0  0  0  0  0
  1  2  1  0  0  0  0
  1  3  2  0  0  0  0
  2  4  2  0  0  0  0
  3 13  1  0  0  0  0
  4 14  1  0  0  0  0
  5  7  2  0  0  0  0
  5 15  1  0  0  0  0
  6  8  1  0  0  0  0
  6 15  2  0  0  0  0
  7 16  1  0  0  0  0
  8 16  2  0  0  0  0
  9 12  1  0  0  0  0
  9 24  2  0  0  0  0
 10 12  2  0  0  0  0
 10 26  1  0  0  0  0
 11 25  2  0  0  0  0
 11 27  1  0  0  0  0
 12 23  1  0  0  0  0
 13 14  2  0  0  0  0
 13 25  1  0  0  0  0
 14 27  1  0  0  0  0
 15 28  1  0  0  0  0
 16 30  1  0  0  0  0
 17 29  1  0  0  0  0
 17 30  1  0  0  0  0
 17 31  2  0  0  0  0
 18 20  1  0  0  0  0
 18 28  1  0  0  0  0
 19 21  1  0  0  0  0
 19 28  1  0  0  0  0
 20 32  1  0  0  0  0
 21 32  1  0  0  0  0
 22 26  1  0  0  0  0
 23 30  1  0  0  0  0
 24 26  1  0  0  0  0
 27 29  1  0  0  0  0
  1 33  1  0  0  0  0
  2 34  1  0  0  0  0
  3 35  1  0  0  0  0
  4 36  1  0  0  0  0
  5 37  1  0  0  0  0
  6 38  1  0  0  0  0
  7 39  1  0  0  0  0
  8 40  1  0  0  0  0
  9 41  1  0  0  0  0
 10 42  1  0  0  0  0
 11 43  1  0  0  0  0
 18 44  1  0  0  0  0
 18 45  1  0  0  0  0
 19 46  1  0  0  0  0
 19 47  1  0  0  0  0
 20 48  1  0  0  0  0
 20 49  1  0  0  0  0
 21 50  1  0  0  0  0
 21 51  1  0  0  0  0
 22 52  1  0  0  0  0
 22 53  1  0  0  0  0
 22 54  1  0  0  0  0
 23 55  1  0  0  0  0
 23 56  1  0  0  0  0
 29 57  1  0  0  0  0
M  END
> <clash_score>
0

> <docking_score>
-9.054001808166504

> <overlap_score>
1.0027791261672974

$$$$
BENZO_59_1
  -OEChem-08232013483D

 52 55  0     0  0  0  0  0  0999 V2000
    4.2970    1.6690   20.8430 C   0  0  0  0  0  0  0  0  0  0  0  0
    4.0980    2.1130   19.5350 C   0  0  0  0  0  0  0  0  0  0  0  0
    5.3360    0.8000   21.1530 C   0  0  0  0  0  0  0  0  0  0  0  0
    4.9400    1.7060   18.5060 C   0  0  0  0  0  0  0  0  0  0  0  0
    8.3510   -1.5420   24.6110 C   0  0  0  0  0  0  0  0  0  0  0  0
   10.2760   -2.3270   23.4020 C   0  0  0  0  0  0  0  0  0  0  0  0
    8.3310   -2.7170   25.3430 C   0  0  0  0  0  0  0  0  0  0  0  0
   10.2570   -3.5000   24.1350 C   0  0  0  0  0  0  0  0  0  0  0  0
   12.3510    0.9283   24.8795 C   0  0  0  0  0  0  0  0  0  0  0  0
   12.3506    1.1019   22.6875 C   0  0  0  0  0  0  0  0  0  0  0  0
    6.1600    0.3870   20.1140 C   0  0  0  0  0  0  0  0  0  0  0  0
   11.4995    1.0300   23.7631 C   0  0  0  0  0  0  0  0  0  0  0  0
    5.9810    0.8330   18.8060 C   0  0  0  0  0  0  0  0  0  0  0  0
    9.3300   -1.3350   23.6390 C   0  0  0  0  0  0  0  0  0  0  0  0
    9.2850   -3.7090   25.1090 C   0  0  0  0  0  0  0  0  0  0  0  0
    7.2210   -0.4620   20.0350 C   0  0  0  0  0  0  0  0  0  0  0  0
    8.9510    0.1280   21.6880 C   0  0  0  0  0  0  0  0  0  0  0  0
   14.8458    1.0806   22.4586 C   0  0  0  0  0  0  0  0  0  0  0  0
    8.2493   -5.1166   26.8639 C   0  0  0  0  0  0  0  0  0  0  0  0
   10.2426   -5.9411   25.6008 C   0  0  0  0  0  0  0  0  0  0  0  0
    9.9983    1.0521   23.7484 C   0  0  0  0  0  0  0  0  0  0  0  0
   13.6439    0.9345   24.5442 N   0  0  0  0  0  0  0  0  0  0  0  0
    7.6830   -0.5170   18.7600 N   0  0  0  0  0  0  0  0  0  0  0  0
    6.9440    0.2550   18.0100 N   0  0  0  0  0  0  0  0  0  0  0  0
   13.6111    1.0409   23.2049 N   0  0  0  0  0  0  0  0  0  0  0  0
    8.0810   -0.9750   21.0820 N   0  0  0  0  0  0  0  0  0  0  0  0
    9.4200   -0.0840   22.9530 N   0  0  0  0  0  0  0  0  0  0  0  0
    9.2624   -4.9028   25.8498 N   0  0  0  0  0  0  0  0  0  0  0  0
    9.1870    1.1500   21.0630 O   0  0  0  0  0  0  0  0  0  0  0  0
    3.6274    2.0126   21.6300 H   0  0  0  0  0  0  0  0  0  0  0  0
    3.2732    2.7875   19.3199 H   0  0  0  0  0  0  0  0  0  0  0  0
    5.4878    0.4645   22.1722 H   0  0  0  0  0  0  0  0  0  0  0  0
    4.7853    2.0674   17.4815 H   0  0  0  0  0  0  0  0  0  0  0  0
    7.5947   -0.7787   24.7997 H   0  0  0  0  0  0  0  0  0  0  0  0
   11.0404   -2.1861   22.6352 H   0  0  0  0  0  0  0  0  0  0  0  0
    7.5641   -2.8632   26.1047 H   0  0  0  0  0  0  0  0  0  0  0  0
   11.0135   -4.2647   23.9425 H   0  0  0  0  0  0  0  0  0  0  0  0
   12.0857    0.8489   25.9243 H   0  0  0  0  0  0  0  0  0  0  0  0
   12.1712    1.1878   21.6244 H   0  0  0  0  0  0  0  0  0  0  0  0
   15.1507    2.1263   22.3664 H   0  0  0  0  0  0  0  0  0  0  0  0
   15.6100    0.5048   22.9881 H   0  0  0  0  0  0  0  0  0  0  0  0
   14.6853    0.6394   21.4708 H   0  0  0  0  0  0  0  0  0  0  0  0
    8.3981   -6.1021   27.3295 H   0  0  0  0  0  0  0  0  0  0  0  0
    8.3280   -4.3328   27.6317 H   0  0  0  0  0  0  0  0  0  0  0  0
    7.2526   -5.0770   26.4003 H   0  0  0  0  0  0  0  0  0  0  0  0
   10.0591   -6.7891   26.2770 H   0  0  0  0  0  0  0  0  0  0  0  0
   10.1607   -6.2799   24.5575 H   0  0  0  0  0  0  0  0  0  0  0  0
   11.2522   -5.5424   25.7786 H   0  0  0  0  0  0  0  0  0  0  0  0
    9.6011    0.9757   24.7664 H   0  0  0  0  0  0  0  0  0  0  0  0
    9.6233    1.9886   23.3223 H   0  0  0  0  0  0  0  0  0  0  0  0
    7.1015    0.3608   17.0505 H   0  0  0  0  0  0  0  0  0  0  0  0
    8.1177   -1.8091   21.3536 H   0  0  0  0  0  0  0  0  0  0  0  0
  1  2  1  0  0  0  0
  1  3  2  0  0  0  0
  2  4  2  0  0  0  0
  3 11  1  0  0  0  0
  4 13  1  0  0  0  0
  5  7  2  0  0  0  0
  5 14  1  0  0  0  0
  6  8  1  0  0  0  0
  6 14  2  0  0  0  0
  7 15  1  0  0  0  0
  8 15  2  0  0  0  0
  9 12  1  0  0  0  0
  9 22  2  0  0  0  0
 10 12  2  0  0  0  0
 10 25  1  0  0  0  0
 11 13  2  0  0  0  0
 11 16  1  0  0  0  0
 12 21  1  0  0  0  0
 13 24  1  0  0  0  0
 14 27  1  0  0  0  0
 15 28  1  0  0  0  0
 16 23  2  0  0  0  0
 16 26  1  0  0  0  0
 17 26  1  0  0  0  0
 17 27  1  0  0  0  0
 17 29  2  0  0  0  0
 18 25  1  0  0  0  0
 19 28  1  0  0  0  0
 20 28  1  0  0  0  0
 21 27  1  0  0  0  0
 22 25  1  0  0  0  0
 23 24  1  0  0  0  0
  1 30  1  0  0  0  0
  2 31  1  0  0  0  0
  3 32  1  0  0  0  0
  4 33  1  0  0  0  0
  5 34  1  0  0  0  0
  6 35  1  0  0  0  0
  7 36  1  0  0  0  0
  8 37  1  0  0  0  0
  9 38  1  0  0  0  0
 10 39  1  0  0  0  0
 18 40  1  0  0  0  0
 18 41  1  0  0  0  0
 18 42  1  0  0  0  0
 19 43  1  0  0  0  0
 19 44  1  0  0  0  0
 19 45  1  0  0  0  0
 20 46  1  0  0  0  0
 20 47  1  0  0  0  0
 20 48  1  0  0  0  0
 21 49  1  0  0  0  0
 21 50  1  0  0  0  0
 24 51  1  0  0  0  0
 26 52  1  0  0  0  0
M  END
> <clash_score>
0

> <docking_score>
-7.887394428253174

> <overlap_score>
0.9895226359367371

$$$$
BENZO_58_1
  -OEChem-08232013483D

 52 55  0     0  0  0  0  0  0999 V2000
    4.2970    1.6690   20.8430 C   0  0  0  0  0  0  0  0  0  0  0  0
    4.0980    2.1130   19.5350 C   0  0  0  0  0  0  0  0  0  0  0  0
   13.6120    1.9204   23.0008 C   0  0  0  0  0  0  0  0  0  0  0  0
    5.3360    0.8000   21.1530 C   0  0  0  0  0  0  0  0  0  0  0  0
   12.2174    1.9397   22.9868 C   0  0  0  0  0  0  0  0  0  0  0  0
    4.9400    1.7060   18.5060 C   0  0  0  0  0  0  0  0  0  0  0  0
    8.3510   -1.5420   24.6110 C   0  0  0  0  0  0  0  0  0  0  0  0
   10.2760   -2.3270   23.4020 C   0  0  0  0  0  0  0  0  0  0  0  0
    8.3310   -2.7170   25.3430 C   0  0  0  0  0  0  0  0  0  0  0  0
   10.2570   -3.5000   24.1350 C   0  0  0  0  0  0  0  0  0  0  0  0
   14.2888    0.9914   23.7911 C   0  0  0  0  0  0  0  0  0  0  0  0
   12.1762    0.1009   24.5534 C   0  0  0  0  0  0  0  0  0  0  0  0
    6.1600    0.3870   20.1140 C   0  0  0  0  0  0  0  0  0  0  0  0
   11.4995    1.0300   23.7631 C   0  0  0  0  0  0  0  0  0  0  0  0
    5.9810    0.8330   18.8060 C   0  0  0  0  0  0  0  0  0  0  0  0
    9.3300   -1.3350   23.6390 C   0  0  0  0  0  0  0  0  0  0  0  0
    9.2850   -3.7090   25.1090 C   0  0  0  0  0  0  0  0  0  0  0  0
   13.5709    0.0817   24.5675 C   0  0  0  0  0  0  0  0  0  0  0  0
    7.2210   -0.4620   20.0350 C   0  0  0  0  0  0  0  0  0  0  0  0
    8.9510    0.1280   21.6880 C   0  0  0  0  0  0  0  0  0  0  0  0
    8.2493   -5.1166   26.8639 C   0  0  0  0  0  0  0  0  0  0  0  0
   10.2426   -5.9411   25.6008 C   0  0  0  0  0  0  0  0  0  0  0  0
    9.9983    1.0521   23.7484 C   0  0  0  0  0  0  0  0  0  0  0  0
    7.6830   -0.5170   18.7600 N   0  0  0  0  0  0  0  0  0  0  0  0
    6.9440    0.2550   18.0100 N   0  0  0  0  0  0  0  0  0  0  0  0
    8.0810   -0.9750   21.0820 N   0  0  0  0  0  0  0  0  0  0  0  0
    9.4200   -0.0840   22.9530 N   0  0  0  0  0  0  0  0  0  0  0  0
    9.2624   -4.9028   25.8498 N   0  0  0  0  0  0  0  0  0  0  0  0
    9.1870    1.1500   21.0630 O   0  0  0  0  0  0  0  0  0  0  0  0
   14.4064   -1.0636   25.5432 Cl  0  0  0  0  0  0  0  0  0  0  0  0
    3.6274    2.0126   21.6300 H   0  0  0  0  0  0  0  0  0  0  0  0
    3.2732    2.7875   19.3199 H   0  0  0  0  0  0  0  0  0  0  0  0
   14.1707    2.6291   22.3963 H   0  0  0  0  0  0  0  0  0  0  0  0
    5.4878    0.4645   22.1722 H   0  0  0  0  0  0  0  0  0  0  0  0
   11.6984    2.6671   22.3681 H   0  0  0  0  0  0  0  0  0  0  0  0
    4.7853    2.0674   17.4815 H   0  0  0  0  0  0  0  0  0  0  0  0
    7.5947   -0.7787   24.7997 H   0  0  0  0  0  0  0  0  0  0  0  0
   11.0404   -2.1861   22.6352 H   0  0  0  0  0  0  0  0  0  0  0  0
    7.5641   -2.8632   26.1047 H   0  0  0  0  0  0  0  0  0  0  0  0
   11.0135   -4.2647   23.9425 H   0  0  0  0  0  0  0  0  0  0  0  0
   15.3760    0.9881   23.7924 H   0  0  0  0  0  0  0  0  0  0  0  0
   11.6119   -0.6066   25.1566 H   0  0  0  0  0  0  0  0  0  0  0  0
    8.3981   -6.1021   27.3295 H   0  0  0  0  0  0  0  0  0  0  0  0
    8.3280   -4.3328   27.6317 H   0  0  0  0  0  0  0  0  0  0  0  0
    7.2526   -5.0770   26.4003 H   0  0  0  0  0  0  0  0  0  0  0  0
   10.0591   -6.7891   26.2770 H   0  0  0  0  0  0  0  0  0  0  0  0
   10.1607   -6.2799   24.5575 H   0  0  0  0  0  0  0  0  0  0  0  0
   11.2522   -5.5424   25.7786 H   0  0  0  0  0  0  0  0  0  0  0  0
    9.6011    0.9757   24.7664 H   0  0  0  0  0  0  0  0  0  0  0  0
    9.6233    1.9886   23.3223 H   0  0  0  0  0  0  0  0  0  0  0  0
    7.1015    0.3608   17.0505 H   0  0  0  0  0  0  0  0  0  0  0  0
    8.1177   -1.8091   21.3536 H   0  0  0  0  0  0  0  0  0  0  0  0
  1  2  1  0  0  0  0
  1  4  2  0  0  0  0
  2  6  2  0  0  0  0
  3  5  2  0  0  0  0
  3 11  1  0  0  0  0
  4 13  1  0  0  0  0
  5 14  1  0  0  0  0
  6 15  1  0  0  0  0
  7  9  2  0  0  0  0
  7 16  1  0  0  0  0
  8 10  1  0  0  0  0
  8 16  2  0  0  0  0
  9 17  1  0  0  0  0
 10 17  2  0  0  0  0
 11 18  2  0  0  0  0
 12 14  2  0  0  0  0
 12 18  1  0  0  0  0
 13 15  2  0  0  0  0
 13 19  1  0  0  0  0
 14 23  1  0  0  0  0
 15 25  1  0  0  0  0
 16 27  1  0  0  0  0
 17 28  1  0  0  0  0
 18 30  1  0  0  0  0
 19 24  2  0  0  0  0
 19 26  1  0  0  0  0
 20 26  1  0  0  0  0
 20 27  1  0  0  0  0
 20 29  2  0  0  0  0
 21 28  1  0  0  0  0
 22 28  1  0  0  0  0
 23 27  1  0  0  0  0
 24 25  1  0  0  0  0
  1 31  1  0  0  0  0
  2 32  1  0  0  0  0
  3 33  1  0  0  0  0
  4 34  1  0  0  0  0
  5 35  1  0  0  0  0
  6 36  1  0  0  0  0
  7 37  1  0  0  0  0
  8 38  1  0  0  0  0
  9 39  1  0  0  0  0
 10 40  1  0  0  0  0
 11 41  1  0  0  0  0
 12 42  1  0  0  0  0
 21 43  1  0  0  0  0
 21 44  1  0  0  0  0
 21 45  1  0  0  0  0
 22 46  1  0  0  0  0
 22 47  1  0  0  0  0
 22 48  1  0  0  0  0
 23 49  1  0  0  0  0
 23 50  1  0  0  0  0
 25 51  1  0  0  0  0
 26 52  1  0  0  0  0
M  END
> <clash_score>
0.7494277528620297

> <docking_score>
-7.113381385803223

> <overlap_score>
0.9976896047592163

$$$$
BENZO_61_1
  -OEChem-08232013483D

 54 57  0     0  0  0  0  0  0999 V2000
   14.2888    0.9892   23.7890 C   0  0  0  0  0  0  0  0  0  0  0  0
    4.2970    1.6690   20.8430 C   0  0  0  0  0  0  0  0  0  0  0  0
   13.5723    0.3134   24.7766 C   0  0  0  0  0  0  0  0  0  0  0  0
   13.6107    1.6854   22.7884 C   0  0  0  0  0  0  0  0  0  0  0  0
    4.0980    2.1130   19.5350 C   0  0  0  0  0  0  0  0  0  0  0  0
    5.3360    0.8000   21.1530 C   0  0  0  0  0  0  0  0  0  0  0  0
   12.1776    0.3337   24.7637 C   0  0  0  0  0  0  0  0  0  0  0  0
   12.2161    1.7058   22.7755 C   0  0  0  0  0  0  0  0  0  0  0  0
    4.9400    1.7060   18.5060 C   0  0  0  0  0  0  0  0  0  0  0  0
    8.3310   -2.7170   25.3430 C   0  0  0  0  0  0  0  0  0  0  0  0
   10.2570   -3.5000   24.1350 C   0  0  0  0  0  0  0  0  0  0  0  0
    8.3510   -1.5420   24.6110 C   0  0  0  0  0  0  0  0  0  0  0  0
   10.2760   -2.3270   23.4020 C   0  0  0  0  0  0  0  0  0  0  0  0
    6.1600    0.3870   20.1140 C   0  0  0  0  0  0  0  0  0  0  0  0
   11.4995    1.0300   23.7631 C   0  0  0  0  0  0  0  0  0  0  0  0
    5.9810    0.8330   18.8060 C   0  0  0  0  0  0  0  0  0  0  0  0
    9.2850   -3.7090   25.1090 C   0  0  0  0  0  0  0  0  0  0  0  0
    9.3300   -1.3350   23.6390 C   0  0  0  0  0  0  0  0  0  0  0  0
    7.2210   -0.4620   20.0350 C   0  0  0  0  0  0  0  0  0  0  0  0
    9.6836   -6.1684   25.4392 C   0  0  0  0  0  0  0  0  0  0  0  0
    8.9510    0.1280   21.6880 C   0  0  0  0  0  0  0  0  0  0  0  0
    8.0396   -7.2904   27.0025 C   0  0  0  0  0  0  0  0  0  0  0  0
    9.9983    1.0521   23.7484 C   0  0  0  0  0  0  0  0  0  0  0  0
    9.4856   -7.1873   26.5515 C   0  0  0  0  0  0  0  0  0  0  0  0
    7.6830   -0.5170   18.7600 N   0  0  0  0  0  0  0  0  0  0  0  0
    6.9440    0.2550   18.0100 N   0  0  0  0  0  0  0  0  0  0  0  0
    9.2630   -4.8902   25.8410 N   0  0  0  0  0  0  0  0  0  0  0  0
    8.0810   -0.9750   21.0820 N   0  0  0  0  0  0  0  0  0  0  0  0
    9.4200   -0.0840   22.9530 N   0  0  0  0  0  0  0  0  0  0  0  0
   10.1552   -6.4778   24.3500 O   0  0  0  0  0  0  0  0  0  0  0  0
    9.1870    1.1500   21.0630 O   0  0  0  0  0  0  0  0  0  0  0  0
   15.3748    0.9743   23.8000 H   0  0  0  0  0  0  0  0  0  0  0  0
    3.6274    2.0126   21.6300 H   0  0  0  0  0  0  0  0  0  0  0  0
   14.1001   -0.2279   25.5564 H   0  0  0  0  0  0  0  0  0  0  0  0
   14.1683    2.2126   22.0200 H   0  0  0  0  0  0  0  0  0  0  0  0
    3.2732    2.7875   19.3199 H   0  0  0  0  0  0  0  0  0  0  0  0
    5.4878    0.4645   22.1722 H   0  0  0  0  0  0  0  0  0  0  0  0
   11.6276   -0.1958   25.5371 H   0  0  0  0  0  0  0  0  0  0  0  0
   11.6963    2.2508   21.9919 H   0  0  0  0  0  0  0  0  0  0  0  0
    4.7853    2.0674   17.4815 H   0  0  0  0  0  0  0  0  0  0  0  0
    7.5639   -2.8621   26.1045 H   0  0  0  0  0  0  0  0  0  0  0  0
   11.0141   -4.2644   23.9422 H   0  0  0  0  0  0  0  0  0  0  0  0
    7.5950   -0.7788   24.8007 H   0  0  0  0  0  0  0  0  0  0  0  0
   11.0408   -2.1861   22.6359 H   0  0  0  0  0  0  0  0  0  0  0  0
    7.6717   -6.3257   27.3675 H   0  0  0  0  0  0  0  0  0  0  0  0
    7.9438   -8.0211   27.8114 H   0  0  0  0  0  0  0  0  0  0  0  0
    7.3921   -7.6062   26.1778 H   0  0  0  0  0  0  0  0  0  0  0  0
    9.6011    0.9757   24.7664 H   0  0  0  0  0  0  0  0  0  0  0  0
    9.6233    1.9886   23.3223 H   0  0  0  0  0  0  0  0  0  0  0  0
    9.8267   -8.1650   26.1921 H   0  0  0  0  0  0  0  0  0  0  0  0
   10.1142   -6.9000   27.4022 H   0  0  0  0  0  0  0  0  0  0  0  0
    7.1015    0.3608   17.0505 H   0  0  0  0  0  0  0  0  0  0  0  0
    8.8929   -4.8270   26.7966 H   0  0  0  0  0  0  0  0  0  0  0  0
    8.1177   -1.8091   21.3536 H   0  0  0  0  0  0  0  0  0  0  0  0
  1  3  1  0  0  0  0
  1  4  2  0  0  0  0
  2  5  1  0  0  0  0
  2  6  2  0  0  0  0
  3  7  2  0  0  0  0
  4  8  1  0  0  0  0
  5  9  2  0  0  0  0
  6 14  1  0  0  0  0
  7 15  1  0  0  0  0
  8 15  2  0  0  0  0
  9 16  1  0  0  0  0
 10 12  2  0  0  0  0
 10 17  1  0  0  0  0
 11 13  1  0  0  0  0
 11 17  2  0  0  0  0
 12 18  1  0  0  0  0
 13 18  2  0  0  0  0
 14 16  2  0  0  0  0
 14 19  1  0  0  0  0
 15 23  1  0  0  0  0
 16 26  1  0  0  0  0
 17 27  1  0  0  0  0
 18 29  1  0  0  0  0
 19 25  2  0  0  0  0
 19 28  1  0  0  0  0
 20 24  1  0  0  0  0
 20 27  1  0  0  0  0
 20 30  2  0  0  0  0
 21 28  1  0  0  0  0
 21 29  1  0  0  0  0
 21 31  2  0  0  0  0
 22 24  1  0  0  0  0
 23 29  1  0  0  0  0
 25 26  1  0  0  0  0
  1 32  1  0  0  0  0
  2 33  1  0  0  0  0
  3 34  1  0  0  0  0
  4 35  1  0  0  0  0
  5 36  1  0  0  0  0
  6 37  1  0  0  0  0
  7 38  1  0  0  0  0
  8 39  1  0  0  0  0
  9 40  1  0  0  0  0
 10 41  1  0  0  0  0
 11 42  1  0  0  0  0
 12 43  1  0  0  0  0
 13 44  1  0  0  0  0
 22 45  1  0  0  0  0
 22 46  1  0  0  0  0
 22 47  1  0  0  0  0
 23 48  1  0  0  0  0
 23 49  1  0  0  0  0
 24 50  1  0  0  0  0
 24 51  1  0  0  0  0
 26 52  1  0  0  0  0
 27 53  1  0  0  0  0
 28 54  1  0  0  0  0
M  END
> <clash_score>
1.33346355995364

> <docking_score>
-4.73831033706665

> <overlap_score>
0.9798796772956848

$$$$
BENZO_60_1
  -OEChem-08232013483D

 51 54  0     0  0  0  0  0  0999 V2000
    4.2970    1.6690   20.8430 C   0  0  0  0  0  0  0  0  0  0  0  0
    4.0980    2.1130   19.5350 C   0  0  0  0  0  0  0  0  0  0  0  0
    5.3360    0.8000   21.1530 C   0  0  0  0  0  0  0  0  0  0  0  0
    4.9400    1.7060   18.5060 C   0  0  0  0  0  0  0  0  0  0  0  0
    8.3310   -2.7170   25.3430 C   0  0  0  0  0  0  0  0  0  0  0  0
   10.2570   -3.5000   24.1350 C   0  0  0  0  0  0  0  0  0  0  0  0
    8.3510   -1.5420   24.6110 C   0  0  0  0  0  0  0  0  0  0  0  0
   10.2760   -2.3270   23.4020 C   0  0  0  0  0  0  0  0  0  0  0  0
   12.3069    1.1129   22.5920 C   0  0  0  0  0  0  0  0  0  0  0  0
   13.6518    1.0697   22.8866 C   0  0  0  0  0  0  0  0  0  0  0  0
   12.2583    0.9263   24.9083 C   0  0  0  0  0  0  0  0  0  0  0  0
    6.1600    0.3870   20.1140 C   0  0  0  0  0  0  0  0  0  0  0  0
   11.4995    1.0300   23.7631 C   0  0  0  0  0  0  0  0  0  0  0  0
    5.9810    0.8330   18.8060 C   0  0  0  0  0  0  0  0  0  0  0  0
    9.2850   -3.7090   25.1090 C   0  0  0  0  0  0  0  0  0  0  0  0
    9.3300   -1.3350   23.6390 C   0  0  0  0  0  0  0  0  0  0  0  0
    7.2210   -0.4620   20.0350 C   0  0  0  0  0  0  0  0  0  0  0  0
    9.6836   -6.1684   25.4392 C   0  0  0  0  0  0  0  0  0  0  0  0
    8.9510    0.1280   21.6880 C   0  0  0  0  0  0  0  0  0  0  0  0
    8.0396   -7.2904   27.0025 C   0  0  0  0  0  0  0  0  0  0  0  0
    9.9983    1.0521   23.7484 C   0  0  0  0  0  0  0  0  0  0  0  0
    9.4856   -7.1873   26.5515 C   0  0  0  0  0  0  0  0  0  0  0  0
    7.6830   -0.5170   18.7600 N   0  0  0  0  0  0  0  0  0  0  0  0
    6.9440    0.2550   18.0100 N   0  0  0  0  0  0  0  0  0  0  0  0
    9.2630   -4.8902   25.8410 N   0  0  0  0  0  0  0  0  0  0  0  0
    8.0810   -0.9750   21.0820 N   0  0  0  0  0  0  0  0  0  0  0  0
    9.4200   -0.0840   22.9530 N   0  0  0  0  0  0  0  0  0  0  0  0
   10.1552   -6.4778   24.3500 O   0  0  0  0  0  0  0  0  0  0  0  0
    9.1870    1.1500   21.0630 O   0  0  0  0  0  0  0  0  0  0  0  0
   13.9368    0.9296   24.5693 S   0  0  0  0  0  0  0  0  0  0  0  0
    3.6274    2.0126   21.6300 H   0  0  0  0  0  0  0  0  0  0  0  0
    3.2732    2.7875   19.3199 H   0  0  0  0  0  0  0  0  0  0  0  0
    5.4878    0.4645   22.1722 H   0  0  0  0  0  0  0  0  0  0  0  0
    4.7853    2.0674   17.4815 H   0  0  0  0  0  0  0  0  0  0  0  0
    7.5639   -2.8621   26.1045 H   0  0  0  0  0  0  0  0  0  0  0  0
   11.0141   -4.2644   23.9422 H   0  0  0  0  0  0  0  0  0  0  0  0
    7.5950   -0.7788   24.8007 H   0  0  0  0  0  0  0  0  0  0  0  0
   11.0408   -2.1861   22.6359 H   0  0  0  0  0  0  0  0  0  0  0  0
   11.9246    1.1995   21.5827 H   0  0  0  0  0  0  0  0  0  0  0  0
   14.4807    1.1130   22.1943 H   0  0  0  0  0  0  0  0  0  0  0  0
   11.9113    0.8474   25.9293 H   0  0  0  0  0  0  0  0  0  0  0  0
    7.6717   -6.3257   27.3675 H   0  0  0  0  0  0  0  0  0  0  0  0
    7.9438   -8.0211   27.8114 H   0  0  0  0  0  0  0  0  0  0  0  0
    7.3921   -7.6062   26.1778 H   0  0  0  0  0  0  0  0  0  0  0  0
    9.6011    0.9757   24.7664 H   0  0  0  0  0  0  0  0  0  0  0  0
    9.6233    1.9886   23.3223 H   0  0  0  0  0  0  0  0  0  0  0  0
    9.8267   -8.1650   26.1921 H   0  0  0  0  0  0  0  0  0  0  0  0
   10.1142   -6.9000   27.4022 H   0  0  0  0  0  0  0  0  0  0  0  0
    7.1015    0.3608   17.0505 H   0  0  0  0  0  0  0  0  0  0  0  0
    8.8929   -4.8270   26.7966 H   0  0  0  0  0  0  0  0  0  0  0  0
    8.1177   -1.8091   21.3536 H   0  0  0  0  0  0  0  0  0  0  0  0
  1  2  1  0  0  0  0
  1  3  2  0  0  0  0
  2  4  2  0  0  0  0
  3 12  1  0  0  0  0
  4 14  1  0  0  0  0
  5  7  2  0  0  0  0
  5 15  1  0  0  0  0
  6  8  1  0  0  0  0
  6 15  2  0  0  0  0
  7 16  1  0  0  0  0
  8 16  2  0  0  0  0
  9 10  2  0  0  0  0
  9 13  1  0  0  0  0
 10 30  1  0  0  0  0
 11 13  2  0  0  0  0
 11 30  1  0  0  0  0
 12 14  2  0  0  0  0
 12 17  1  0  0  0  0
 13 21  1  0  0  0  0
 14 24  1  0  0  0  0
 15 25  1  0  0  0  0
 16 27  1  0  0  0  0
 17 23  2  0  0  0  0
 17 26  1  0  0  0  0
 18 22  1  0  0  0  0
 18 25  1  0  0  0  0
 18 28  2  0  0  0  0
 19 26  1  0  0  0  0
 19 27  1  0  0  0  0
 19 29  2  0  0  0  0
 20 22  1  0  0  0  0
 21 27  1  0  0  0  0
 23 24  1  0  0  0  0
  1 31  1  0  0  0  0
  2 32  1  0  0  0  0
  3 33  1  0  0  0  0
  4 34  1  0  0  0  0
  5 35  1  0  0  0  0
  6 36  1  0  0  0  0
  7 37  1  0  0  0  0
  8 38  1  0  0  0  0
  9 39  1  0  0  0  0
 10 40  1  0  0  0  0
 11 41  1  0  0  0  0
 20 42  1  0  0  0  0
 20 43  1  0  0  0  0
 20 44  1  0  0  0  0
 21 45  1  0  0  0  0
 21 46  1  0  0  0  0
 22 47  1  0  0  0  0
 22 48  1  0  0  0  0
 24 49  1  0  0  0  0
 25 50  1  0  0  0  0
 26 51  1  0  0  0  0
M  END
> <clash_score>
1.33346355995364

> <docking_score>
-5.126944065093994

> <overlap_score>
0.9576120972633362

$$$$
BENZO_65_1
  -OEChem-08232013483D

 59 63  0     0  0  0  0  0  0999 V2000
   14.2885    1.1441   23.7306 C   0  0  0  0  0  0  0  0  0  0  0  0
    4.2970    1.6690   20.8430 C   0  0  0  0  0  0  0  0  0  0  0  0
   13.6022    0.4565   24.7315 C   0  0  0  0  0  0  0  0  0  0  0  0
   13.5801    1.8094   22.7300 C   0  0  0  0  0  0  0  0  0  0  0  0
    4.0980    2.1130   19.5350 C   0  0  0  0  0  0  0  0  0  0  0  0
    5.3360    0.8000   21.1530 C   0  0  0  0  0  0  0  0  0  0  0  0
   12.2075    0.4341   24.7317 C   0  0  0  0  0  0  0  0  0  0  0  0
   12.1854    1.7870   22.7302 C   0  0  0  0  0  0  0  0  0  0  0  0
    4.9400    1.7060   18.5060 C   0  0  0  0  0  0  0  0  0  0  0  0
    8.3310   -2.7170   25.3430 C   0  0  0  0  0  0  0  0  0  0  0  0
   10.2570   -3.5000   24.1350 C   0  0  0  0  0  0  0  0  0  0  0  0
    8.3510   -1.5420   24.6110 C   0  0  0  0  0  0  0  0  0  0  0  0
   10.2760   -2.3270   23.4020 C   0  0  0  0  0  0  0  0  0  0  0  0
    6.1600    0.3870   20.1140 C   0  0  0  0  0  0  0  0  0  0  0  0
   11.4991    1.0994   23.7311 C   0  0  0  0  0  0  0  0  0  0  0  0
    5.9810    0.8330   18.8060 C   0  0  0  0  0  0  0  0  0  0  0  0
    9.2850   -3.7090   25.1090 C   0  0  0  0  0  0  0  0  0  0  0  0
    9.3300   -1.3350   23.6390 C   0  0  0  0  0  0  0  0  0  0  0  0
    7.2210   -0.4620   20.0350 C   0  0  0  0  0  0  0  0  0  0  0  0
    8.9510    0.1280   21.6880 C   0  0  0  0  0  0  0  0  0  0  0  0
    7.3162   -6.8835   26.5210 C   0  0  0  0  0  0  0  0  0  0  0  0
    7.3507   -5.5245   27.2240 C   0  0  0  0  0  0  0  0  0  0  0  0
    7.9375   -6.8069   25.1245 C   0  0  0  0  0  0  0  0  0  0  0  0
    8.7638   -4.9418   27.2163 C   0  0  0  0  0  0  0  0  0  0  0  0
    9.3378   -6.1874   25.1659 C   0  0  0  0  0  0  0  0  0  0  0  0
    9.9979    1.0755   23.7305 C   0  0  0  0  0  0  0  0  0  0  0  0
    7.6830   -0.5170   18.7600 N   0  0  0  0  0  0  0  0  0  0  0  0
    6.9440    0.2550   18.0100 N   0  0  0  0  0  0  0  0  0  0  0  0
    9.2639   -4.8860   25.8399 N   0  0  0  0  0  0  0  0  0  0  0  0
    8.0810   -0.9750   21.0820 N   0  0  0  0  0  0  0  0  0  0  0  0
    9.4200   -0.0840   22.9530 N   0  0  0  0  0  0  0  0  0  0  0  0
    9.1870    1.1500   21.0630 O   0  0  0  0  0  0  0  0  0  0  0  0
   15.3744    1.1626   23.7314 H   0  0  0  0  0  0  0  0  0  0  0  0
    3.6274    2.0126   21.6300 H   0  0  0  0  0  0  0  0  0  0  0  0
   14.1535   -0.0606   25.5114 H   0  0  0  0  0  0  0  0  0  0  0  0
   14.1141    2.3458   21.9512 H   0  0  0  0  0  0  0  0  0  0  0  0
    3.2732    2.7875   19.3199 H   0  0  0  0  0  0  0  0  0  0  0  0
    5.4878    0.4645   22.1722 H   0  0  0  0  0  0  0  0  0  0  0  0
   11.6811   -0.1043   25.5155 H   0  0  0  0  0  0  0  0  0  0  0  0
   11.6419    2.3081   21.9465 H   0  0  0  0  0  0  0  0  0  0  0  0
    4.7853    2.0674   17.4815 H   0  0  0  0  0  0  0  0  0  0  0  0
    7.5647   -2.8621   26.1053 H   0  0  0  0  0  0  0  0  0  0  0  0
   11.0144   -4.2642   23.9425 H   0  0  0  0  0  0  0  0  0  0  0  0
    7.5958   -0.7779   24.8006 H   0  0  0  0  0  0  0  0  0  0  0  0
   11.0406   -2.1848   22.6356 H   0  0  0  0  0  0  0  0  0  0  0  0
    7.8578   -7.6261   27.1266 H   0  0  0  0  0  0  0  0  0  0  0  0
    6.2773   -7.2358   26.4459 H   0  0  0  0  0  0  0  0  0  0  0  0
    6.6663   -4.8351   26.7223 H   0  0  0  0  0  0  0  0  0  0  0  0
    7.0044   -5.6368   28.2534 H   0  0  0  0  0  0  0  0  0  0  0  0
    7.9946   -7.8119   24.6937 H   0  0  0  0  0  0  0  0  0  0  0  0
    7.2929   -6.2123   24.4668 H   0  0  0  0  0  0  0  0  0  0  0  0
    8.7343   -3.9408   27.6542 H   0  0  0  0  0  0  0  0  0  0  0  0
    9.4243   -5.5632   27.8278 H   0  0  0  0  0  0  0  0  0  0  0  0
   10.0200   -6.8490   25.7011 H   0  0  0  0  0  0  0  0  0  0  0  0
    9.6984   -6.0694   24.1436 H   0  0  0  0  0  0  0  0  0  0  0  0
    9.6122    1.0250   24.7546 H   0  0  0  0  0  0  0  0  0  0  0  0
    9.5906    1.9837   23.2740 H   0  0  0  0  0  0  0  0  0  0  0  0
    7.1015    0.3608   17.0505 H   0  0  0  0  0  0  0  0  0  0  0  0
    8.1334   -1.7992   21.3673 H   0  0  0  0  0  0  0  0  0  0  0  0
  1  3  1  0  0  0  0
  1  4  2  0  0  0  0
  2  5  1  0  0  0  0
  2  6  2  0  0  0  0
  3  7  2  0  0  0  0
  4  8  1  0  0  0  0
  5  9  2  0  0  0  0
  6 14  1  0  0  0  0
  7 15  1  0  0  0  0
  8 15  2  0  0  0  0
  9 16  1  0  0  0  0
 10 12  2  0  0  0  0
 10 17  1  0  0  0  0
 11 13  1  0  0  0  0
 11 17  2  0  0  0  0
 12 18  1  0  0  0  0
 13 18  2  0  0  0  0
 14 16  2  0  0  0  0
 14 19  1  0  0  0  0
 15 26  1  0  0  0  0
 16 28  1  0  0  0  0
 17 29  1  0  0  0  0
 18 31  1  0  0  0  0
 19 27  2  0  0  0  0
 19 30  1  0  0  0  0
 20 30  1  0  0  0  0
 20 31  1  0  0  0  0
 20 32  2  0  0  0  0
 21 22  1  0  0  0  0
 21 23  1  0  0  0  0
 22 24  1  0  0  0  0
 23 25  1  0  0  0  0
 24 29  1  0  0  0  0
 25 29  1  0  0  0  0
 26 31  1  0  0  0  0
 27 28  1  0  0  0  0
  1 33  1  0  0  0  0
  2 34  1  0  0  0  0
  3 35  1  0  0  0  0
  4 36  1  0  0  0  0
  5 37  1  0  0  0  0
  6 38  1  0  0  0  0
  7 39  1  0  0  0  0
  8 40  1  0  0  0  0
  9 41  1  0  0  0  0
 10 42  1  0  0  0  0
 11 43  1  0  0  0  0
 12 44  1  0  0  0  0
 13 45  1  0  0  0  0
 21 46  1  0  0  0  0
 21 47  1  0  0  0  0
 22 48  1  0  0  0  0
 22 49  1  0  0  0  0
 23 50  1  0  0  0  0
 23 51  1  0  0  0  0
 24 52  1  0  0  0  0
 24 53  1  0  0  0  0
 25 54  1  0  0  0  0
 25 55  1  0  0  0  0
 26 56  1  0  0  0  0
 26 57  1  0  0  0  0
 28 58  1  0  0  0  0
 30 59  1  0  0  0  0
M  END
> <clash_score>
0

> <docking_score>
-6.863776206970215

> <overlap_score>
1.0103838443756104

$$$$
BENZO_62_1
  -OEChem-08232013483D

 54 57  0     0  0  0  0  0  0999 V2000
    4.2970    1.6690   20.8430 C   0  0  0  0  0  0  0  0  0  0  0  0
    4.0980    2.1130   19.5350 C   0  0  0  0  0  0  0  0  0  0  0  0
   13.6120    1.9204   23.0008 C   0  0  0  0  0  0  0  0  0  0  0  0
    5.3360    0.8000   21.1530 C   0  0  0  0  0  0  0  0  0  0  0  0
   12.2174    1.9397   22.9868 C   0  0  0  0  0  0  0  0  0  0  0  0
    4.9400    1.7060   18.5060 C   0  0  0  0  0  0  0  0  0  0  0  0
    8.3310   -2.7170   25.3430 C   0  0  0  0  0  0  0  0  0  0  0  0
   10.2570   -3.5000   24.1350 C   0  0  0  0  0  0  0  0  0  0  0  0
    8.3510   -1.5420   24.6110 C   0  0  0  0  0  0  0  0  0  0  0  0
   10.2760   -2.3270   23.4020 C   0  0  0  0  0  0  0  0  0  0  0  0
   14.2888    0.9914   23.7911 C   0  0  0  0  0  0  0  0  0  0  0  0
   12.1762    0.1009   24.5534 C   0  0  0  0  0  0  0  0  0  0  0  0
    6.1600    0.3870   20.1140 C   0  0  0  0  0  0  0  0  0  0  0  0
   11.4995    1.0300   23.7631 C   0  0  0  0  0  0  0  0  0  0  0  0
    5.9810    0.8330   18.8060 C   0  0  0  0  0  0  0  0  0  0  0  0
    9.2850   -3.7090   25.1090 C   0  0  0  0  0  0  0  0  0  0  0  0
    9.3300   -1.3350   23.6390 C   0  0  0  0  0  0  0  0  0  0  0  0
   13.5709    0.0817   24.5675 C   0  0  0  0  0  0  0  0  0  0  0  0
    7.2210   -0.4620   20.0350 C   0  0  0  0  0  0  0  0  0  0  0  0
    9.6836   -6.1684   25.4392 C   0  0  0  0  0  0  0  0  0  0  0  0
    8.9510    0.1280   21.6880 C   0  0  0  0  0  0  0  0  0  0  0  0
    8.0396   -7.2904   27.0025 C   0  0  0  0  0  0  0  0  0  0  0  0
    9.9983    1.0521   23.7484 C   0  0  0  0  0  0  0  0  0  0  0  0
    9.4856   -7.1873   26.5515 C   0  0  0  0  0  0  0  0  0  0  0  0
    7.6830   -0.5170   18.7600 N   0  0  0  0  0  0  0  0  0  0  0  0
    6.9440    0.2550   18.0100 N   0  0  0  0  0  0  0  0  0  0  0  0
    9.2630   -4.8902   25.8410 N   0  0  0  0  0  0  0  0  0  0  0  0
    8.0810   -0.9750   21.0820 N   0  0  0  0  0  0  0  0  0  0  0  0
    9.4200   -0.0840   22.9530 N   0  0  0  0  0  0  0  0  0  0  0  0
   10.1552   -6.4778   24.3500 O   0  0  0  0  0  0  0  0  0  0  0  0
    9.1870    1.1500   21.0630 O   0  0  0  0  0  0  0  0  0  0  0  0
   14.4064   -1.0636   25.5432 Cl  0  0  0  0  0  0  0  0  0  0  0  0
    3.6274    2.0126   21.6300 H   0  0  0  0  0  0  0  0  0  0  0  0
    3.2732    2.7875   19.3199 H   0  0  0  0  0  0  0  0  0  0  0  0
   14.1707    2.6291   22.3963 H   0  0  0  0  0  0  0  0  0  0  0  0
    5.4878    0.4645   22.1722 H   0  0  0  0  0  0  0  0  0  0  0  0
   11.6984    2.6671   22.3681 H   0  0  0  0  0  0  0  0  0  0  0  0
    4.7853    2.0674   17.4815 H   0  0  0  0  0  0  0  0  0  0  0  0
    7.5639   -2.8621   26.1045 H   0  0  0  0  0  0  0  0  0  0  0  0
   11.0141   -4.2644   23.9422 H   0  0  0  0  0  0  0  0  0  0  0  0
    7.5950   -0.7788   24.8007 H   0  0  0  0  0  0  0  0  0  0  0  0
   11.0408   -2.1861   22.6359 H   0  0  0  0  0  0  0  0  0  0  0  0
   15.3760    0.9881   23.7924 H   0  0  0  0  0  0  0  0  0  0  0  0
   11.6119   -0.6066   25.1566 H   0  0  0  0  0  0  0  0  0  0  0  0
    7.6717   -6.3257   27.3675 H   0  0  0  0  0  0  0  0  0  0  0  0
    7.9438   -8.0211   27.8114 H   0  0  0  0  0  0  0  0  0  0  0  0
    7.3921   -7.6062   26.1778 H   0  0  0  0  0  0  0  0  0  0  0  0
    9.6011    0.9757   24.7664 H   0  0  0  0  0  0  0  0  0  0  0  0
    9.6233    1.9886   23.3223 H   0  0  0  0  0  0  0  0  0  0  0  0
    9.8267   -8.1650   26.1921 H   0  0  0  0  0  0  0  0  0  0  0  0
   10.1142   -6.9000   27.4022 H   0  0  0  0  0  0  0  0  0  0  0  0
    7.1015    0.3608   17.0505 H   0  0  0  0  0  0  0  0  0  0  0  0
    8.8929   -4.8270   26.7966 H   0  0  0  0  0  0  0  0  0  0  0  0
    8.1177   -1.8091   21.3536 H   0  0  0  0  0  0  0  0  0  0  0  0
  1  2  1  0  0  0  0
  1  4  2  0  0  0  0
  2  6  2  0  0  0  0
  3  5  2  0  0  0  0
  3 11  1  0  0  0  0
  4 13  1  0  0  0  0
  5 14  1  0  0  0  0
  6 15  1  0  0  0  0
  7  9  2  0  0  0  0
  7 16  1  0  0  0  0
  8 10  1  0  0  0  0
  8 16  2  0  0  0  0
  9 17  1  0  0  0  0
 10 17  2  0  0  0  0
 11 18  2  0  0  0  0
 12 14  2  0  0  0  0
 12 18  1  0  0  0  0
 13 15  2  0  0  0  0
 13 19  1  0  0  0  0
 14 23  1  0  0  0  0
 15 26  1  0  0  0  0
 16 27  1  0  0  0  0
 17 29  1  0  0  0  0
 18 32  1  0  0  0  0
 19 25  2  0  0  0  0
 19 28  1  0  0  0  0
 20 24  1  0  0  0  0
 20 27  1  0  0  0  0
 20 30  2  0  0  0  0
 21 28  1  0  0  0  0
 21 29  1  0  0  0  0
 21 31  2  0  0  0  0
 22 24  1  0  0  0  0
 23 29  1  0  0  0  0
 25 26  1  0  0  0  0
  1 33  1  0  0  0  0
  2 34  1  0  0  0  0
  3 35  1  0  0  0  0
  4 36  1  0  0  0  0
  5 37  1  0  0  0  0
  6 38  1  0  0  0  0
  7 39  1  0  0  0  0
  8 40  1  0  0  0  0
  9 41  1  0  0  0  0
 10 42  1  0  0  0  0
 11 43  1  0  0  0  0
 12 44  1  0  0  0  0
 22 45  1  0  0  0  0
 22 46  1  0  0  0  0
 22 47  1  0  0  0  0
 23 48  1  0  0  0  0
 23 49  1  0  0  0  0
 24 50  1  0  0  0  0
 24 51  1  0  0  0  0
 26 52  1  0  0  0  0
 27 53  1  0  0  0  0
 28 54  1  0  0  0  0
M  END
> <clash_score>
2.0828913128156694

> <docking_score>
-3.593111753463745

> <overlap_score>
0.9817909598350525

$$$$
BENZO_63_1
  -OEChem-08232013483D

 54 57  0     0  0  0  0  0  0999 V2000
    4.2970    1.6690   20.8430 C   0  0  0  0  0  0  0  0  0  0  0  0
    4.0980    2.1130   19.5350 C   0  0  0  0  0  0  0  0  0  0  0  0
    5.3360    0.8000   21.1530 C   0  0  0  0  0  0  0  0  0  0  0  0
    4.9400    1.7060   18.5060 C   0  0  0  0  0  0  0  0  0  0  0  0
    8.3310   -2.7170   25.3430 C   0  0  0  0  0  0  0  0  0  0  0  0
   10.2570   -3.5000   24.1350 C   0  0  0  0  0  0  0  0  0  0  0  0
    8.3510   -1.5420   24.6110 C   0  0  0  0  0  0  0  0  0  0  0  0
   10.2760   -2.3270   23.4020 C   0  0  0  0  0  0  0  0  0  0  0  0
   12.3510    0.9283   24.8795 C   0  0  0  0  0  0  0  0  0  0  0  0
   12.3506    1.1019   22.6875 C   0  0  0  0  0  0  0  0  0  0  0  0
    6.1600    0.3870   20.1140 C   0  0  0  0  0  0  0  0  0  0  0  0
   11.4995    1.0300   23.7631 C   0  0  0  0  0  0  0  0  0  0  0  0
    5.9810    0.8330   18.8060 C   0  0  0  0  0  0  0  0  0  0  0  0
    9.2850   -3.7090   25.1090 C   0  0  0  0  0  0  0  0  0  0  0  0
    9.3300   -1.3350   23.6390 C   0  0  0  0  0  0  0  0  0  0  0  0
    7.2210   -0.4620   20.0350 C   0  0  0  0  0  0  0  0  0  0  0  0
    9.6836   -6.1684   25.4392 C   0  0  0  0  0  0  0  0  0  0  0  0
    8.9510    0.1280   21.6880 C   0  0  0  0  0  0  0  0  0  0  0  0
    8.0396   -7.2904   27.0025 C   0  0  0  0  0  0  0  0  0  0  0  0
   14.8458    1.0806   22.4586 C   0  0  0  0  0  0  0  0  0  0  0  0
    9.9983    1.0521   23.7484 C   0  0  0  0  0  0  0  0  0  0  0  0
    9.4856   -7.1873   26.5515 C   0  0  0  0  0  0  0  0  0  0  0  0
   13.6439    0.9345   24.5442 N   0  0  0  0  0  0  0  0  0  0  0  0
    7.6830   -0.5170   18.7600 N   0  0  0  0  0  0  0  0  0  0  0  0
    6.9440    0.2550   18.0100 N   0  0  0  0  0  0  0  0  0  0  0  0
   13.6111    1.0409   23.2049 N   0  0  0  0  0  0  0  0  0  0  0  0
    9.2630   -4.8902   25.8410 N   0  0  0  0  0  0  0  0  0  0  0  0
    8.0810   -0.9750   21.0820 N   0  0  0  0  0  0  0  0  0  0  0  0
    9.4200   -0.0840   22.9530 N   0  0  0  0  0  0  0  0  0  0  0  0
   10.1552   -6.4778   24.3500 O   0  0  0  0  0  0  0  0  0  0  0  0
    9.1870    1.1500   21.0630 O   0  0  0  0  0  0  0  0  0  0  0  0
    3.6274    2.0126   21.6300 H   0  0  0  0  0  0  0  0  0  0  0  0
    3.2732    2.7875   19.3199 H   0  0  0  0  0  0  0  0  0  0  0  0
    5.4878    0.4645   22.1722 H   0  0  0  0  0  0  0  0  0  0  0  0
    4.7853    2.0674   17.4815 H   0  0  0  0  0  0  0  0  0  0  0  0
    7.5639   -2.8621   26.1045 H   0  0  0  0  0  0  0  0  0  0  0  0
   11.0141   -4.2644   23.9422 H   0  0  0  0  0  0  0  0  0  0  0  0
    7.5950   -0.7788   24.8007 H   0  0  0  0  0  0  0  0  0  0  0  0
   11.0408   -2.1861   22.6359 H   0  0  0  0  0  0  0  0  0  0  0  0
   12.0857    0.8489   25.9243 H   0  0  0  0  0  0  0  0  0  0  0  0
   12.1712    1.1878   21.6244 H   0  0  0  0  0  0  0  0  0  0  0  0
    7.6717   -6.3257   27.3675 H   0  0  0  0  0  0  0  0  0  0  0  0
    7.9438   -8.0211   27.8114 H   0  0  0  0  0  0  0  0  0  0  0  0
    7.3921   -7.6062   26.1778 H   0  0  0  0  0  0  0  0  0  0  0  0
   15.1507    2.1263   22.3664 H   0  0  0  0  0  0  0  0  0  0  0  0
   15.6100    0.5048   22.9881 H   0  0  0  0  0  0  0  0  0  0  0  0
   14.6853    0.6394   21.4708 H   0  0  0  0  0  0  0  0  0  0  0  0
    9.6011    0.9757   24.7664 H   0  0  0  0  0  0  0  0  0  0  0  0
    9.6233    1.9886   23.3223 H   0  0  0  0  0  0  0  0  0  0  0  0
    9.8267   -8.1650   26.1921 H   0  0  0  0  0  0  0  0  0  0  0  0
   10.1142   -6.9000   27.4022 H   0  0  0  0  0  0  0  0  0  0  0  0
    7.1015    0.3608   17.0505 H   0  0  0  0  0  0  0  0  0  0  0  0
    8.8929   -4.8270   26.7966 H   0  0  0  0  0  0  0  0  0  0  0  0
    8.1177   -1.8091   21.3536 H   0  0  0  0  0  0  0  0  0  0  0  0
  1  2  1  0  0  0  0
  1  3  2  0  0  0  0
  2  4  2  0  0  0  0
  3 11  1  0  0  0  0
  4 13  1  0  0  0  0
  5  7  2  0  0  0  0
  5 14  1  0  0  0  0
  6  8  1  0  0  0  0
  6 14  2  0  0  0  0
  7 15  1  0  0  0  0
  8 15  2  0  0  0  0
  9 12  1  0  0  0  0
  9 23  2  0  0  0  0
 10 12  2  0  0  0  0
 10 26  1  0  0  0  0
 11 13  2  0  0  0  0
 11 16  1  0  0  0  0
 12 21  1  0  0  0  0
 13 25  1  0  0  0  0
 14 27  1  0  0  0  0
 15 29  1  0  0  0  0
 16 24  2  0  0  0  0
 16 28  1  0  0  0  0
 17 22  1  0  0  0  0
 17 27  1  0  0  0  0
 17 30  2  0  0  0  0
 18 28  1  0  0  0  0
 18 29  1  0  0  0  0
 18 31  2  0  0  0  0
 19 22  1  0  0  0  0
 20 26  1  0  0  0  0
 21 29  1  0  0  0  0
 23 26  1  0  0  0  0
 24 25  1  0  0  0  0
  1 32  1  0  0  0  0
  2 33  1  0  0  0  0
  3 34  1  0  0  0  0
  4 35  1  0  0  0  0
  5 36  1  0  0  0  0
  6 37  1  0  0  0  0
  7 38  1  0  0  0  0
  8 39  1  0  0  0  0
  9 40  1  0  0  0  0
 10 41  1  0  0  0  0
 19 42  1  0  0  0  0
 19 43  1  0  0  0  0
 19 44  1  0  0  0  0
 20 45  1  0  0  0  0
 20 46  1  0  0  0  0
 20 47  1  0  0  0  0
 21 48  1  0  0  0  0
 21 49  1  0  0  0  0
 22 50  1  0  0  0  0
 22 51  1  0  0  0  0
 25 52  1  0  0  0  0
 27 53  1  0  0  0  0
 28 54  1  0  0  0  0
M  END
> <clash_score>
1.33346355995364

> <docking_score>
-4.367125988006592

> <overlap_score>
0.9736343026161194

$$$$
BENZO_64_1
  -OEChem-08232013483D

 56 60  0     0  0  0  0  0  0999 V2000
    4.2970    1.6690   20.8430 C   0  0  0  0  0  0  0  0  0  0  0  0
    4.0980    2.1130   19.5350 C   0  0  0  0  0  0  0  0  0  0  0  0
    5.3360    0.8000   21.1530 C   0  0  0  0  0  0  0  0  0  0  0  0
    4.9400    1.7060   18.5060 C   0  0  0  0  0  0  0  0  0  0  0  0
    8.3310   -2.7170   25.3430 C   0  0  0  0  0  0  0  0  0  0  0  0
   10.2570   -3.5000   24.1350 C   0  0  0  0  0  0  0  0  0  0  0  0
    8.3510   -1.5420   24.6110 C   0  0  0  0  0  0  0  0  0  0  0  0
   10.2760   -2.3270   23.4020 C   0  0  0  0  0  0  0  0  0  0  0  0
   12.2931    1.1632   22.5497 C   0  0  0  0  0  0  0  0  0  0  0  0
   13.6413    1.1718   22.8323 C   0  0  0  0  0  0  0  0  0  0  0  0
   12.2708    1.0613   24.8717 C   0  0  0  0  0  0  0  0  0  0  0  0
    6.1600    0.3870   20.1140 C   0  0  0  0  0  0  0  0  0  0  0  0
   11.4991    1.0994   23.7311 C   0  0  0  0  0  0  0  0  0  0  0  0
    5.9810    0.8330   18.8060 C   0  0  0  0  0  0  0  0  0  0  0  0
    9.2850   -3.7090   25.1090 C   0  0  0  0  0  0  0  0  0  0  0  0
    9.3300   -1.3350   23.6390 C   0  0  0  0  0  0  0  0  0  0  0  0
    7.2210   -0.4620   20.0350 C   0  0  0  0  0  0  0  0  0  0  0  0
    8.9510    0.1280   21.6880 C   0  0  0  0  0  0  0  0  0  0  0  0
    7.3162   -6.8835   26.5210 C   0  0  0  0  0  0  0  0  0  0  0  0
    7.3507   -5.5245   27.2240 C   0  0  0  0  0  0  0  0  0  0  0  0
    7.9375   -6.8069   25.1245 C   0  0  0  0  0  0  0  0  0  0  0  0
    8.7638   -4.9418   27.2163 C   0  0  0  0  0  0  0  0  0  0  0  0
    9.3378   -6.1874   25.1659 C   0  0  0  0  0  0  0  0  0  0  0  0
    9.9979    1.0755   23.7305 C   0  0  0  0  0  0  0  0  0  0  0  0
    7.6830   -0.5170   18.7600 N   0  0  0  0  0  0  0  0  0  0  0  0
    6.9440    0.2550   18.0100 N   0  0  0  0  0  0  0  0  0  0  0  0
    9.2639   -4.8860   25.8399 N   0  0  0  0  0  0  0  0  0  0  0  0
    8.0810   -0.9750   21.0820 N   0  0  0  0  0  0  0  0  0  0  0  0
    9.4200   -0.0840   22.9530 N   0  0  0  0  0  0  0  0  0  0  0  0
    9.1870    1.1500   21.0630 O   0  0  0  0  0  0  0  0  0  0  0  0
   13.9453    1.1028   24.5161 S   0  0  0  0  0  0  0  0  0  0  0  0
    3.6274    2.0126   21.6300 H   0  0  0  0  0  0  0  0  0  0  0  0
    3.2732    2.7875   19.3199 H   0  0  0  0  0  0  0  0  0  0  0  0
    5.4878    0.4645   22.1722 H   0  0  0  0  0  0  0  0  0  0  0  0
    4.7853    2.0674   17.4815 H   0  0  0  0  0  0  0  0  0  0  0  0
    7.5647   -2.8621   26.1053 H   0  0  0  0  0  0  0  0  0  0  0  0
   11.0144   -4.2642   23.9425 H   0  0  0  0  0  0  0  0  0  0  0  0
    7.5958   -0.7779   24.8006 H   0  0  0  0  0  0  0  0  0  0  0  0
   11.0406   -2.1848   22.6356 H   0  0  0  0  0  0  0  0  0  0  0  0
   11.8995    1.2007   21.5418 H   0  0  0  0  0  0  0  0  0  0  0  0
   14.4623    1.2144   22.1306 H   0  0  0  0  0  0  0  0  0  0  0  0
   11.9355    1.0099   25.8983 H   0  0  0  0  0  0  0  0  0  0  0  0
    7.8578   -7.6261   27.1266 H   0  0  0  0  0  0  0  0  0  0  0  0
    6.2773   -7.2358   26.4459 H   0  0  0  0  0  0  0  0  0  0  0  0
    6.6663   -4.8351   26.7223 H   0  0  0  0  0  0  0  0  0  0  0  0
    7.0044   -5.6368   28.2534 H   0  0  0  0  0  0  0  0  0  0  0  0
    7.9946   -7.8119   24.6937 H   0  0  0  0  0  0  0  0  0  0  0  0
    7.2929   -6.2123   24.4668 H   0  0  0  0  0  0  0  0  0  0  0  0
    8.7343   -3.9408   27.6542 H   0  0  0  0  0  0  0  0  0  0  0  0
    9.4243   -5.5632   27.8278 H   0  0  0  0  0  0  0  0  0  0  0  0
   10.0200   -6.8490   25.7011 H   0  0  0  0  0  0  0  0  0  0  0  0
    9.6984   -6.0694   24.1436 H   0  0  0  0  0  0  0  0  0  0  0  0
    9.6122    1.0250   24.7546 H   0  0  0  0  0  0  0  0  0  0  0  0
    9.5906    1.9837   23.2740 H   0  0  0  0  0  0  0  0  0  0  0  0
    7.1015    0.3608   17.0505 H   0  0  0  0  0  0  0  0  0  0  0  0
    8.1334   -1.7992   21.3673 H   0  0  0  0  0  0  0  0  0  0  0  0
  1  2  1  0  0  0  0
  1  3  2  0  0  0  0
  2  4  2  0  0  0  0
  3 12  1  0  0  0  0
  4 14  1  0  0  0  0
  5  7  2  0  0  0  0
  5 15  1  0  0  0  0
  6  8  1  0  0  0  0
  6 15  2  0  0  0  0
  7 16  1  0  0  0  0
  8 16  2  0  0  0  0
  9 10  2  0  0  0  0
  9 13  1  0  0  0  0
 10 31  1  0  0  0  0
 11 13  2  0  0  0  0
 11 31  1  0  0  0  0
 12 14  2  0  0  0  0
 12 17  1  0  0  0  0
 13 24  1  0  0  0  0
 14 26  1  0  0  0  0
 15 27  1  0  0  0  0
 16 29  1  0  0  0  0
 17 25  2  0  0  0  0
 17 28  1  0  0  0  0
 18 28  1  0  0  0  0
 18 29  1  0  0  0  0
 18 30  2  0  0  0  0
 19 20  1  0  0  0  0
 19 21  1  0  0  0  0
 20 22  1  0  0  0  0
 21 23  1  0  0  0  0
 22 27  1  0  0  0  0
 23 27  1  0  0  0  0
 24 29  1  0  0  0  0
 25 26  1  0  0  0  0
  1 32  1  0  0  0  0
  2 33  1  0  0  0  0
  3 34  1  0  0  0  0
  4 35  1  0  0  0  0
  5 36  1  0  0  0  0
  6 37  1  0  0  0  0
  7 38  1  0  0  0  0
  8 39  1  0  0  0  0
  9 40  1  0  0  0  0
 10 41  1  0  0  0  0
 11 42  1  0  0  0  0
 19 43  1  0  0  0  0
 19 44  1  0  0  0  0
 20 45  1  0  0  0  0
 20 46  1  0  0  0  0
 21 47  1  0  0  0  0
 21 48  1  0  0  0  0
 22 49  1  0  0  0  0
 22 50  1  0  0  0  0
 23 51  1  0  0  0  0
 23 52  1  0  0  0  0
 24 53  1  0  0  0  0
 24 54  1  0  0  0  0
 26 55  1  0  0  0  0
 28 56  1  0  0  0  0
M  END
> <clash_score>
0

> <docking_score>
-7.244022369384766

> <overlap_score>
0.9876057505607605

$$$$
BENZO_69_1
  -OEChem-08232013483D

 47 50  0     0  0  0  0  0  0999 V2000
   14.2888    0.9892   23.7890 C   0  0  0  0  0  0  0  0  0  0  0  0
    4.2970    1.6690   20.8430 C   0  0  0  0  0  0  0  0  0  0  0  0
   13.5723    0.3134   24.7766 C   0  0  0  0  0  0  0  0  0  0  0  0
   13.6107    1.6854   22.7884 C   0  0  0  0  0  0  0  0  0  0  0  0
    4.0980    2.1130   19.5350 C   0  0  0  0  0  0  0  0  0  0  0  0
    5.3360    0.8000   21.1530 C   0  0  0  0  0  0  0  0  0  0  0  0
   12.1776    0.3337   24.7637 C   0  0  0  0  0  0  0  0  0  0  0  0
   12.2161    1.7058   22.7755 C   0  0  0  0  0  0  0  0  0  0  0  0
    8.3310   -2.7170   25.3430 C   0  0  0  0  0  0  0  0  0  0  0  0
   10.2570   -3.5000   24.1350 C   0  0  0  0  0  0  0  0  0  0  0  0
    4.9400    1.7060   18.5060 C   0  0  0  0  0  0  0  0  0  0  0  0
    8.3510   -1.5420   24.6110 C   0  0  0  0  0  0  0  0  0  0  0  0
   10.2760   -2.3270   23.4020 C   0  0  0  0  0  0  0  0  0  0  0  0
    6.1600    0.3870   20.1140 C   0  0  0  0  0  0  0  0  0  0  0  0
    9.2850   -3.7090   25.1090 C   0  0  0  0  0  0  0  0  0  0  0  0
   11.4995    1.0300   23.7631 C   0  0  0  0  0  0  0  0  0  0  0  0
    5.9810    0.8330   18.8060 C   0  0  0  0  0  0  0  0  0  0  0  0
    9.3300   -1.3350   23.6390 C   0  0  0  0  0  0  0  0  0  0  0  0
    7.2210   -0.4620   20.0350 C   0  0  0  0  0  0  0  0  0  0  0  0
    8.9510    0.1280   21.6880 C   0  0  0  0  0  0  0  0  0  0  0  0
    9.2610   -4.9721   25.8916 C   0  0  0  0  0  0  0  0  0  0  0  0
    9.9983    1.0521   23.7484 C   0  0  0  0  0  0  0  0  0  0  0  0
    7.6830   -0.5170   18.7600 N   0  0  0  0  0  0  0  0  0  0  0  0
    6.9440    0.2550   18.0100 N   0  0  0  0  0  0  0  0  0  0  0  0
    8.0810   -0.9750   21.0820 N   0  0  0  0  0  0  0  0  0  0  0  0
    9.4200   -0.0840   22.9530 N   0  0  0  0  0  0  0  0  0  0  0  0
    9.1870    1.1500   21.0630 O   0  0  0  0  0  0  0  0  0  0  0  0
   15.3748    0.9743   23.8000 H   0  0  0  0  0  0  0  0  0  0  0  0
    3.6274    2.0126   21.6300 H   0  0  0  0  0  0  0  0  0  0  0  0
   14.1001   -0.2279   25.5564 H   0  0  0  0  0  0  0  0  0  0  0  0
   14.1683    2.2126   22.0200 H   0  0  0  0  0  0  0  0  0  0  0  0
    3.2732    2.7875   19.3199 H   0  0  0  0  0  0  0  0  0  0  0  0
    5.4878    0.4645   22.1722 H   0  0  0  0  0  0  0  0  0  0  0  0
   11.6276   -0.1958   25.5371 H   0  0  0  0  0  0  0  0  0  0  0  0
   11.6963    2.2508   21.9919 H   0  0  0  0  0  0  0  0  0  0  0  0
    7.5665   -2.8638   26.1066 H   0  0  0  0  0  0  0  0  0  0  0  0
   11.0137   -4.2652   23.9447 H   0  0  0  0  0  0  0  0  0  0  0  0
    4.7853    2.0674   17.4815 H   0  0  0  0  0  0  0  0  0  0  0  0
    7.5948   -0.7788   24.7997 H   0  0  0  0  0  0  0  0  0  0  0  0
   11.0411   -2.1856   22.6358 H   0  0  0  0  0  0  0  0  0  0  0  0
    8.6398   -5.7223   25.3871 H   0  0  0  0  0  0  0  0  0  0  0  0
   10.2715   -5.3829   26.0145 H   0  0  0  0  0  0  0  0  0  0  0  0
    8.8596   -4.8092   26.9004 H   0  0  0  0  0  0  0  0  0  0  0  0
    9.6011    0.9757   24.7664 H   0  0  0  0  0  0  0  0  0  0  0  0
    9.6233    1.9886   23.3223 H   0  0  0  0  0  0  0  0  0  0  0  0
    7.1015    0.3608   17.0505 H   0  0  0  0  0  0  0  0  0  0  0  0
    8.1177   -1.8091   21.3536 H   0  0  0  0  0  0  0  0  0  0  0  0
  1  3  1  0  0  0  0
  1  4  2  0  0  0  0
  2  5  1  0  0  0  0
  2  6  2  0  0  0  0
  3  7  2  0  0  0  0
  4  8  1  0  0  0  0
  5 11  2  0  0  0  0
  6 14  1  0  0  0  0
  7 16  1  0  0  0  0
  8 16  2  0  0  0  0
  9 12  2  0  0  0  0
  9 15  1  0  0  0  0
 10 13  1  0  0  0  0
 10 15  2  0  0  0  0
 11 17  1  0  0  0  0
 12 18  1  0  0  0  0
 13 18  2  0  0  0  0
 14 17  2  0  0  0  0
 14 19  1  0  0  0  0
 15 21  1  0  0  0  0
 16 22  1  0  0  0  0
 17 24  1  0  0  0  0
 18 26  1  0  0  0  0
 19 23  2  0  0  0  0
 19 25  1  0  0  0  0
 20 25  1  0  0  0  0
 20 26  1  0  0  0  0
 20 27  2  0  0  0  0
 22 26  1  0  0  0  0
 23 24  1  0  0  0  0
  1 28  1  0  0  0  0
  2 29  1  0  0  0  0
  3 30  1  0  0  0  0
  4 31  1  0  0  0  0
  5 32  1  0  0  0  0
  6 33  1  0  0  0  0
  7 34  1  0  0  0  0
  8 35  1  0  0  0  0
  9 36  1  0  0  0  0
 10 37  1  0  0  0  0
 11 38  1  0  0  0  0
 12 39  1  0  0  0  0
 13 40  1  0  0  0  0
 21 41  1  0  0  0  0
 21 42  1  0  0  0  0
 21 43  1  0  0  0  0
 22 44  1  0  0  0  0
 22 45  1  0  0  0  0
 24 46  1  0  0  0  0
 25 47  1  0  0  0  0
M  END
> <clash_score>
0

> <docking_score>
-7.928445816040039

> <overlap_score>
0.9644520282745361

$$$$
BENZO_68_1
  -OEChem-08232013483D

 44 47  0     0  0  0  0  0  0999 V2000
    4.2970    1.6690   20.8430 C   0  0  0  0  0  0  0  0  0  0  0  0
    4.0980    2.1130   19.5350 C   0  0  0  0  0  0  0  0  0  0  0  0
    5.3360    0.8000   21.1530 C   0  0  0  0  0  0  0  0  0  0  0  0
    8.3310   -2.7170   25.3430 C   0  0  0  0  0  0  0  0  0  0  0  0
   10.2570   -3.5000   24.1350 C   0  0  0  0  0  0  0  0  0  0  0  0
    4.9400    1.7060   18.5060 C   0  0  0  0  0  0  0  0  0  0  0  0
    8.3510   -1.5420   24.6110 C   0  0  0  0  0  0  0  0  0  0  0  0
   10.2760   -2.3270   23.4020 C   0  0  0  0  0  0  0  0  0  0  0  0
   12.3069    1.1129   22.5920 C   0  0  0  0  0  0  0  0  0  0  0  0
   13.6518    1.0697   22.8866 C   0  0  0  0  0  0  0  0  0  0  0  0
   12.2583    0.9263   24.9083 C   0  0  0  0  0  0  0  0  0  0  0  0
    6.1600    0.3870   20.1140 C   0  0  0  0  0  0  0  0  0  0  0  0
    9.2850   -3.7090   25.1090 C   0  0  0  0  0  0  0  0  0  0  0  0
   11.4995    1.0300   23.7631 C   0  0  0  0  0  0  0  0  0  0  0  0
    5.9810    0.8330   18.8060 C   0  0  0  0  0  0  0  0  0  0  0  0
    9.3300   -1.3350   23.6390 C   0  0  0  0  0  0  0  0  0  0  0  0
    7.2210   -0.4620   20.0350 C   0  0  0  0  0  0  0  0  0  0  0  0
    8.9510    0.1280   21.6880 C   0  0  0  0  0  0  0  0  0  0  0  0
    9.2610   -4.9721   25.8916 C   0  0  0  0  0  0  0  0  0  0  0  0
    9.9983    1.0521   23.7484 C   0  0  0  0  0  0  0  0  0  0  0  0
    7.6830   -0.5170   18.7600 N   0  0  0  0  0  0  0  0  0  0  0  0
    6.9440    0.2550   18.0100 N   0  0  0  0  0  0  0  0  0  0  0  0
    8.0810   -0.9750   21.0820 N   0  0  0  0  0  0  0  0  0  0  0  0
    9.4200   -0.0840   22.9530 N   0  0  0  0  0  0  0  0  0  0  0  0
    9.1870    1.1500   21.0630 O   0  0  0  0  0  0  0  0  0  0  0  0
   13.9368    0.9296   24.5693 S   0  0  0  0  0  0  0  0  0  0  0  0
    3.6274    2.0126   21.6300 H   0  0  0  0  0  0  0  0  0  0  0  0
    3.2732    2.7875   19.3199 H   0  0  0  0  0  0  0  0  0  0  0  0
    5.4878    0.4645   22.1722 H   0  0  0  0  0  0  0  0  0  0  0  0
    7.5665   -2.8638   26.1066 H   0  0  0  0  0  0  0  0  0  0  0  0
   11.0137   -4.2652   23.9447 H   0  0  0  0  0  0  0  0  0  0  0  0
    4.7853    2.0674   17.4815 H   0  0  0  0  0  0  0  0  0  0  0  0
    7.5948   -0.7788   24.7997 H   0  0  0  0  0  0  0  0  0  0  0  0
   11.0411   -2.1856   22.6358 H   0  0  0  0  0  0  0  0  0  0  0  0
   11.9246    1.1995   21.5827 H   0  0  0  0  0  0  0  0  0  0  0  0
   14.4807    1.1130   22.1943 H   0  0  0  0  0  0  0  0  0  0  0  0
   11.9113    0.8474   25.9293 H   0  0  0  0  0  0  0  0  0  0  0  0
    8.6398   -5.7223   25.3871 H   0  0  0  0  0  0  0  0  0  0  0  0
   10.2715   -5.3829   26.0145 H   0  0  0  0  0  0  0  0  0  0  0  0
    8.8596   -4.8092   26.9004 H   0  0  0  0  0  0  0  0  0  0  0  0
    9.6011    0.9757   24.7664 H   0  0  0  0  0  0  0  0  0  0  0  0
    9.6233    1.9886   23.3223 H   0  0  0  0  0  0  0  0  0  0  0  0
    7.1015    0.3608   17.0505 H   0  0  0  0  0  0  0  0  0  0  0  0
    8.1177   -1.8091   21.3536 H   0  0  0  0  0  0  0  0  0  0  0  0
  1  2  1  0  0  0  0
  1  3  2  0  0  0  0
  2  6  2  0  0  0  0
  3 12  1  0  0  0  0
  4  7  2  0  0  0  0
  4 13  1  0  0  0  0
  5  8  1  0  0  0  0
  5 13  2  0  0  0  0
  6 15  1  0  0  0  0
  7 16  1  0  0  0  0
  8 16  2  0  0  0  0
  9 10  2  0  0  0  0
  9 14  1  0  0  0  0
 10 26  1  0  0  0  0
 11 14  2  0  0  0  0
 11 26  1  0  0  0  0
 12 15  2  0  0  0  0
 12 17  1  0  0  0  0
 13 19  1  0  0  0  0
 14 20  1  0  0  0  0
 15 22  1  0  0  0  0
 16 24  1  0  0  0  0
 17 21  2  0  0  0  0
 17 23  1  0  0  0  0
 18 23  1  0  0  0  0
 18 24  1  0  0  0  0
 18 25  2  0  0  0  0
 20 24  1  0  0  0  0
 21 22  1  0  0  0  0
  1 27  1  0  0  0  0
  2 28  1  0  0  0  0
  3 29  1  0  0  0  0
  4 30  1  0  0  0  0
  5 31  1  0  0  0  0
  6 32  1  0  0  0  0
  7 33  1  0  0  0  0
  8 34  1  0  0  0  0
  9 35  1  0  0  0  0
 10 36  1  0  0  0  0
 11 37  1  0  0  0  0
 19 38  1  0  0  0  0
 19 39  1  0  0  0  0
 19 40  1  0  0  0  0
 20 41  1  0  0  0  0
 20 42  1  0  0  0  0
 22 43  1  0  0  0  0
 23 44  1  0  0  0  0
M  END
> <clash_score>
0

> <docking_score>
-8.317079544067383

> <overlap_score>
0.9419904351234436

$$$$
BENZO_66_1
  -OEChem-08232013483D

 59 63  0     0  0  0  0  0  0999 V2000
    4.2970    1.6690   20.8430 C   0  0  0  0  0  0  0  0  0  0  0  0
    4.0980    2.1130   19.5350 C   0  0  0  0  0  0  0  0  0  0  0  0
   13.5765    2.0245   22.9155 C   0  0  0  0  0  0  0  0  0  0  0  0
    5.3360    0.8000   21.1530 C   0  0  0  0  0  0  0  0  0  0  0  0
   12.1819    2.0010   22.9146 C   0  0  0  0  0  0  0  0  0  0  0  0
    4.9400    1.7060   18.5060 C   0  0  0  0  0  0  0  0  0  0  0  0
    8.3310   -2.7170   25.3430 C   0  0  0  0  0  0  0  0  0  0  0  0
   10.2570   -3.5000   24.1350 C   0  0  0  0  0  0  0  0  0  0  0  0
    8.3510   -1.5420   24.6110 C   0  0  0  0  0  0  0  0  0  0  0  0
   10.2760   -2.3270   23.4020 C   0  0  0  0  0  0  0  0  0  0  0  0
   14.2884    1.1463   23.7327 C   0  0  0  0  0  0  0  0  0  0  0  0
   12.2109    0.2212   24.5483 C   0  0  0  0  0  0  0  0  0  0  0  0
    6.1600    0.3870   20.1140 C   0  0  0  0  0  0  0  0  0  0  0  0
   11.4991    1.0994   23.7311 C   0  0  0  0  0  0  0  0  0  0  0  0
    5.9810    0.8330   18.8060 C   0  0  0  0  0  0  0  0  0  0  0  0
    9.2850   -3.7090   25.1090 C   0  0  0  0  0  0  0  0  0  0  0  0
    9.3300   -1.3350   23.6390 C   0  0  0  0  0  0  0  0  0  0  0  0
   13.6056    0.2447   24.5491 C   0  0  0  0  0  0  0  0  0  0  0  0
    7.2210   -0.4620   20.0350 C   0  0  0  0  0  0  0  0  0  0  0  0
    8.9510    0.1280   21.6880 C   0  0  0  0  0  0  0  0  0  0  0  0
    7.3162   -6.8835   26.5210 C   0  0  0  0  0  0  0  0  0  0  0  0
    7.3507   -5.5245   27.2240 C   0  0  0  0  0  0  0  0  0  0  0  0
    7.9375   -6.8069   25.1245 C   0  0  0  0  0  0  0  0  0  0  0  0
    8.7638   -4.9418   27.2163 C   0  0  0  0  0  0  0  0  0  0  0  0
    9.3378   -6.1874   25.1659 C   0  0  0  0  0  0  0  0  0  0  0  0
    9.9979    1.0755   23.7305 C   0  0  0  0  0  0  0  0  0  0  0  0
    7.6830   -0.5170   18.7600 N   0  0  0  0  0  0  0  0  0  0  0  0
    6.9440    0.2550   18.0100 N   0  0  0  0  0  0  0  0  0  0  0  0
    9.2639   -4.8860   25.8399 N   0  0  0  0  0  0  0  0  0  0  0  0
    8.0810   -0.9750   21.0820 N   0  0  0  0  0  0  0  0  0  0  0  0
    9.4200   -0.0840   22.9530 N   0  0  0  0  0  0  0  0  0  0  0  0
    9.1870    1.1500   21.0630 O   0  0  0  0  0  0  0  0  0  0  0  0
   14.4844   -0.8377   25.5580 Cl  0  0  0  0  0  0  0  0  0  0  0  0
    3.6274    2.0126   21.6300 H   0  0  0  0  0  0  0  0  0  0  0  0
    3.2732    2.7875   19.3199 H   0  0  0  0  0  0  0  0  0  0  0  0
   14.1079    2.7268   22.2797 H   0  0  0  0  0  0  0  0  0  0  0  0
    5.4878    0.4645   22.1722 H   0  0  0  0  0  0  0  0  0  0  0  0
   11.6354    2.6889   22.2748 H   0  0  0  0  0  0  0  0  0  0  0  0
    4.7853    2.0674   17.4815 H   0  0  0  0  0  0  0  0  0  0  0  0
    7.5647   -2.8621   26.1053 H   0  0  0  0  0  0  0  0  0  0  0  0
   11.0144   -4.2642   23.9425 H   0  0  0  0  0  0  0  0  0  0  0  0
    7.5958   -0.7779   24.8006 H   0  0  0  0  0  0  0  0  0  0  0  0
   11.0406   -2.1848   22.6356 H   0  0  0  0  0  0  0  0  0  0  0  0
   15.3752    1.1761   23.7233 H   0  0  0  0  0  0  0  0  0  0  0  0
   11.6739   -0.4802   25.1826 H   0  0  0  0  0  0  0  0  0  0  0  0
    7.8578   -7.6261   27.1266 H   0  0  0  0  0  0  0  0  0  0  0  0
    6.2773   -7.2358   26.4459 H   0  0  0  0  0  0  0  0  0  0  0  0
    6.6663   -4.8351   26.7223 H   0  0  0  0  0  0  0  0  0  0  0  0
    7.0044   -5.6368   28.2534 H   0  0  0  0  0  0  0  0  0  0  0  0
    7.9946   -7.8119   24.6937 H   0  0  0  0  0  0  0  0  0  0  0  0
    7.2929   -6.2123   24.4668 H   0  0  0  0  0  0  0  0  0  0  0  0
    8.7343   -3.9408   27.6542 H   0  0  0  0  0  0  0  0  0  0  0  0
    9.4243   -5.5632   27.8278 H   0  0  0  0  0  0  0  0  0  0  0  0
   10.0200   -6.8490   25.7011 H   0  0  0  0  0  0  0  0  0  0  0  0
    9.6984   -6.0694   24.1436 H   0  0  0  0  0  0  0  0  0  0  0  0
    9.6122    1.0250   24.7546 H   0  0  0  0  0  0  0  0  0  0  0  0
    9.5906    1.9837   23.2740 H   0  0  0  0  0  0  0  0  0  0  0  0
    7.1015    0.3608   17.0505 H   0  0  0  0  0  0  0  0  0  0  0  0
    8.1334   -1.7992   21.3673 H   0  0  0  0  0  0  0  0  0  0  0  0
  1  2  1  0  0  0  0
  1  4  2  0  0  0  0
  2  6  2  0  0  0  0
  3  5  2  0  0  0  0
  3 11  1  0  0  0  0
  4 13  1  0  0  0  0
  5 14  1  0  0  0  0
  6 15  1  0  0  0  0
  7  9  2  0  0  0  0
  7 16  1  0  0  0  0
  8 10  1  0  0  0  0
  8 16  2  0  0  0  0
  9 17  1  0  0  0  0
 10 17  2  0  0  0  0
 11 18  2  0  0  0  0
 12 14  2  0  0  0  0
 12 18  1  0  0  0  0
 13 15  2  0  0  0  0
 13 19  1  0  0  0  0
 14 26  1  0  0  0  0
 15 28  1  0  0  0  0
 16 29  1  0  0  0  0
 17 31  1  0  0  0  0
 18 33  1  0  0  0  0
 19 27  2  0  0  0  0
 19 30  1  0  0  0  0
 20 30  1  0  0  0  0
 20 31  1  0  0  0  0
 20 32  2  0  0  0  0
 21 22  1  0  0  0  0
 21 23  1  0  0  0  0
 22 24  1  0  0  0  0
 23 25  1  0  0  0  0
 24 29  1  0  0  0  0
 25 29  1  0  0  0  0
 26 31  1  0  0  0  0
 27 28  1  0  0  0  0
  1 34  1  0  0  0  0
  2 35  1  0  0  0  0
  3 36  1  0  0  0  0
  4 37  1  0  0  0  0
  5 38  1  0  0  0  0
  6 39  1  0  0  0  0
  7 40  1  0  0  0  0
  8 41  1  0  0  0  0
  9 42  1  0  0  0  0
 10 43  1  0  0  0  0
 11 44  1  0  0  0  0
 12 45  1  0  0  0  0
 21 46  1  0  0  0  0
 21 47  1  0  0  0  0
 22 48  1  0  0  0  0
 22 49  1  0  0  0  0
 23 50  1  0  0  0  0
 23 51  1  0  0  0  0
 24 52  1  0  0  0  0
 24 53  1  0  0  0  0
 25 54  1  0  0  0  0
 25 55  1  0  0  0  0
 26 56  1  0  0  0  0
 26 57  1  0  0  0  0
 28 58  1  0  0  0  0
 30 59  1  0  0  0  0
M  END
> <clash_score>
0.6893404029544469

> <docking_score>
-5.889087677001953

> <overlap_score>
1.0125755071640015

$$$$
BENZO_67_1
  -OEChem-08232013483D

 59 63  0     0  0  0  0  0  0999 V2000
    4.2970    1.6690   20.8430 C   0  0  0  0  0  0  0  0  0  0  0  0
    4.0980    2.1130   19.5350 C   0  0  0  0  0  0  0  0  0  0  0  0
    5.3360    0.8000   21.1530 C   0  0  0  0  0  0  0  0  0  0  0  0
    4.9400    1.7060   18.5060 C   0  0  0  0  0  0  0  0  0  0  0  0
    8.3310   -2.7170   25.3430 C   0  0  0  0  0  0  0  0  0  0  0  0
   10.2570   -3.5000   24.1350 C   0  0  0  0  0  0  0  0  0  0  0  0
    8.3510   -1.5420   24.6110 C   0  0  0  0  0  0  0  0  0  0  0  0
   10.2760   -2.3270   23.4020 C   0  0  0  0  0  0  0  0  0  0  0  0
   12.3632    1.0650   24.8419 C   0  0  0  0  0  0  0  0  0  0  0  0
   12.3381    1.1571   22.6451 C   0  0  0  0  0  0  0  0  0  0  0  0
    6.1600    0.3870   20.1140 C   0  0  0  0  0  0  0  0  0  0  0  0
   11.4991    1.0994   23.7311 C   0  0  0  0  0  0  0  0  0  0  0  0
    5.9810    0.8330   18.8060 C   0  0  0  0  0  0  0  0  0  0  0  0
    9.2850   -3.7090   25.1090 C   0  0  0  0  0  0  0  0  0  0  0  0
    9.3300   -1.3350   23.6390 C   0  0  0  0  0  0  0  0  0  0  0  0
    7.2210   -0.4620   20.0350 C   0  0  0  0  0  0  0  0  0  0  0  0
    8.9510    0.1280   21.6880 C   0  0  0  0  0  0  0  0  0  0  0  0
    7.3162   -6.8835   26.5210 C   0  0  0  0  0  0  0  0  0  0  0  0
    7.3507   -5.5245   27.2240 C   0  0  0  0  0  0  0  0  0  0  0  0
    7.9375   -6.8069   25.1245 C   0  0  0  0  0  0  0  0  0  0  0  0
    8.7638   -4.9418   27.2163 C   0  0  0  0  0  0  0  0  0  0  0  0
    9.3378   -6.1874   25.1659 C   0  0  0  0  0  0  0  0  0  0  0  0
   14.8306    1.2029   22.3922 C   0  0  0  0  0  0  0  0  0  0  0  0
    9.9979    1.0755   23.7305 C   0  0  0  0  0  0  0  0  0  0  0  0
   13.6522    1.0980   24.4937 N   0  0  0  0  0  0  0  0  0  0  0  0
    7.6830   -0.5170   18.7600 N   0  0  0  0  0  0  0  0  0  0  0  0
    6.9440    0.2550   18.0100 N   0  0  0  0  0  0  0  0  0  0  0  0
   13.6043    1.1536   23.1518 N   0  0  0  0  0  0  0  0  0  0  0  0
    9.2639   -4.8860   25.8399 N   0  0  0  0  0  0  0  0  0  0  0  0
    8.0810   -0.9750   21.0820 N   0  0  0  0  0  0  0  0  0  0  0  0
    9.4200   -0.0840   22.9530 N   0  0  0  0  0  0  0  0  0  0  0  0
    9.1870    1.1500   21.0630 O   0  0  0  0  0  0  0  0  0  0  0  0
    3.6274    2.0126   21.6300 H   0  0  0  0  0  0  0  0  0  0  0  0
    3.2732    2.7875   19.3199 H   0  0  0  0  0  0  0  0  0  0  0  0
    5.4878    0.4645   22.1722 H   0  0  0  0  0  0  0  0  0  0  0  0
    4.7853    2.0674   17.4815 H   0  0  0  0  0  0  0  0  0  0  0  0
    7.5647   -2.8621   26.1053 H   0  0  0  0  0  0  0  0  0  0  0  0
   11.0144   -4.2642   23.9425 H   0  0  0  0  0  0  0  0  0  0  0  0
    7.5958   -0.7779   24.8006 H   0  0  0  0  0  0  0  0  0  0  0  0
   11.0406   -2.1848   22.6356 H   0  0  0  0  0  0  0  0  0  0  0  0
   12.1097    1.0164   25.8915 H   0  0  0  0  0  0  0  0  0  0  0  0
   12.1467    1.1980   21.5814 H   0  0  0  0  0  0  0  0  0  0  0  0
    7.8578   -7.6261   27.1266 H   0  0  0  0  0  0  0  0  0  0  0  0
    6.2773   -7.2358   26.4459 H   0  0  0  0  0  0  0  0  0  0  0  0
    6.6663   -4.8351   26.7223 H   0  0  0  0  0  0  0  0  0  0  0  0
    7.0044   -5.6368   28.2534 H   0  0  0  0  0  0  0  0  0  0  0  0
    7.9946   -7.8119   24.6937 H   0  0  0  0  0  0  0  0  0  0  0  0
    7.2929   -6.2123   24.4668 H   0  0  0  0  0  0  0  0  0  0  0  0
    8.7343   -3.9408   27.6542 H   0  0  0  0  0  0  0  0  0  0  0  0
    9.4243   -5.5632   27.8278 H   0  0  0  0  0  0  0  0  0  0  0  0
   10.0200   -6.8490   25.7011 H   0  0  0  0  0  0  0  0  0  0  0  0
    9.6984   -6.0694   24.1436 H   0  0  0  0  0  0  0  0  0  0  0  0
   15.1025    2.2532   22.2585 H   0  0  0  0  0  0  0  0  0  0  0  0
   15.6167    0.6705   22.9349 H   0  0  0  0  0  0  0  0  0  0  0  0
   14.6750    0.7207   21.4231 H   0  0  0  0  0  0  0  0  0  0  0  0
    9.6122    1.0250   24.7546 H   0  0  0  0  0  0  0  0  0  0  0  0
    9.5906    1.9837   23.2740 H   0  0  0  0  0  0  0  0  0  0  0  0
    7.1015    0.3608   17.0505 H   0  0  0  0  0  0  0  0  0  0  0  0
    8.1334   -1.7992   21.3673 H   0  0  0  0  0  0  0  0  0  0  0  0
  1  2  1  0  0  0  0
  1  3  2  0  0  0  0
  2  4  2  0  0  0  0
  3 11  1  0  0  0  0
  4 13  1  0  0  0  0
  5  7  2  0  0  0  0
  5 14  1  0  0  0  0
  6  8  1  0  0  0  0
  6 14  2  0  0  0  0
  7 15  1  0  0  0  0
  8 15  2  0  0  0  0
  9 12  1  0  0  0  0
  9 25  2  0  0  0  0
 10 12  2  0  0  0  0
 10 28  1  0  0  0  0
 11 13  2  0  0  0  0
 11 16  1  0  0  0  0
 12 24  1  0  0  0  0
 13 27  1  0  0  0  0
 14 29  1  0  0  0  0
 15 31  1  0  0  0  0
 16 26  2  0  0  0  0
 16 30  1  0  0  0  0
 17 30  1  0  0  0  0
 17 31  1  0  0  0  0
 17 32  2  0  0  0  0
 18 19  1  0  0  0  0
 18 20  1  0  0  0  0
 19 21  1  0  0  0  0
 20 22  1  0  0  0  0
 21 29  1  0  0  0  0
 22 29  1  0  0  0  0
 23 28  1  0  0  0  0
 24 31  1  0  0  0  0
 25 28  1  0  0  0  0
 26 27  1  0  0  0  0
  1 33  1  0  0  0  0
  2 34  1  0  0  0  0
  3 35  1  0  0  0  0
  4 36  1  0  0  0  0
  5 37  1  0  0  0  0
  6 38  1  0  0  0  0
  7 39  1  0  0  0  0
  8 40  1  0  0  0  0
  9 41  1  0  0  0  0
 10 42  1  0  0  0  0
 18 43  1  0  0  0  0
 18 44  1  0  0  0  0
 19 45  1  0  0  0  0
 19 46  1  0  0  0  0
 20 47  1  0  0  0  0
 20 48  1  0  0  0  0
 21 49  1  0  0  0  0
 21 50  1  0  0  0  0
 22 51  1  0  0  0  0
 22 52  1  0  0  0  0
 23 53  1  0  0  0  0
 23 54  1  0  0  0  0
 23 55  1  0  0  0  0
 24 56  1  0  0  0  0
 24 57  1  0  0  0  0
 27 58  1  0  0  0  0
 30 59  1  0  0  0  0
M  END
> <clash_score>
0

> <docking_score>
-6.778230667114258

> <overlap_score>
1.003841519355774

$$$$
BENZO_71_1
  -OEChem-08232013483D

 47 50  0     0  0  0  0  0  0999 V2000
    4.2970    1.6690   20.8430 C   0  0  0  0  0  0  0  0  0  0  0  0
    4.0980    2.1130   19.5350 C   0  0  0  0  0  0  0  0  0  0  0  0
    5.3360    0.8000   21.1530 C   0  0  0  0  0  0  0  0  0  0  0  0
    8.3310   -2.7170   25.3430 C   0  0  0  0  0  0  0  0  0  0  0  0
   10.2570   -3.5000   24.1350 C   0  0  0  0  0  0  0  0  0  0  0  0
    4.9400    1.7060   18.5060 C   0  0  0  0  0  0  0  0  0  0  0  0
    8.3510   -1.5420   24.6110 C   0  0  0  0  0  0  0  0  0  0  0  0
   10.2760   -2.3270   23.4020 C   0  0  0  0  0  0  0  0  0  0  0  0
   12.3510    0.9283   24.8795 C   0  0  0  0  0  0  0  0  0  0  0  0
   12.3506    1.1019   22.6875 C   0  0  0  0  0  0  0  0  0  0  0  0
    6.1600    0.3870   20.1140 C   0  0  0  0  0  0  0  0  0  0  0  0
    9.2850   -3.7090   25.1090 C   0  0  0  0  0  0  0  0  0  0  0  0
   11.4995    1.0300   23.7631 C   0  0  0  0  0  0  0  0  0  0  0  0
    5.9810    0.8330   18.8060 C   0  0  0  0  0  0  0  0  0  0  0  0
    9.3300   -1.3350   23.6390 C   0  0  0  0  0  0  0  0  0  0  0  0
    7.2210   -0.4620   20.0350 C   0  0  0  0  0  0  0  0  0  0  0  0
    8.9510    0.1280   21.6880 C   0  0  0  0  0  0  0  0  0  0  0  0
    9.2610   -4.9721   25.8916 C   0  0  0  0  0  0  0  0  0  0  0  0
   14.8458    1.0806   22.4586 C   0  0  0  0  0  0  0  0  0  0  0  0
    9.9983    1.0521   23.7484 C   0  0  0  0  0  0  0  0  0  0  0  0
   13.6439    0.9345   24.5442 N   0  0  0  0  0  0  0  0  0  0  0  0
    7.6830   -0.5170   18.7600 N   0  0  0  0  0  0  0  0  0  0  0  0
    6.9440    0.2550   18.0100 N   0  0  0  0  0  0  0  0  0  0  0  0
   13.6111    1.0409   23.2049 N   0  0  0  0  0  0  0  0  0  0  0  0
    8.0810   -0.9750   21.0820 N   0  0  0  0  0  0  0  0  0  0  0  0
    9.4200   -0.0840   22.9530 N   0  0  0  0  0  0  0  0  0  0  0  0
    9.1870    1.1500   21.0630 O   0  0  0  0  0  0  0  0  0  0  0  0
    3.6274    2.0126   21.6300 H   0  0  0  0  0  0  0  0  0  0  0  0
    3.2732    2.7875   19.3199 H   0  0  0  0  0  0  0  0  0  0  0  0
    5.4878    0.4645   22.1722 H   0  0  0  0  0  0  0  0  0  0  0  0
    7.5665   -2.8638   26.1066 H   0  0  0  0  0  0  0  0  0  0  0  0
   11.0137   -4.2652   23.9447 H   0  0  0  0  0  0  0  0  0  0  0  0
    4.7853    2.0674   17.4815 H   0  0  0  0  0  0  0  0  0  0  0  0
    7.5948   -0.7788   24.7997 H   0  0  0  0  0  0  0  0  0  0  0  0
   11.0411   -2.1856   22.6358 H   0  0  0  0  0  0  0  0  0  0  0  0
   12.0857    0.8489   25.9243 H   0  0  0  0  0  0  0  0  0  0  0  0
   12.1712    1.1878   21.6244 H   0  0  0  0  0  0  0  0  0  0  0  0
    8.6398   -5.7223   25.3871 H   0  0  0  0  0  0  0  0  0  0  0  0
   10.2715   -5.3829   26.0145 H   0  0  0  0  0  0  0  0  0  0  0  0
    8.8596   -4.8092   26.9004 H   0  0  0  0  0  0  0  0  0  0  0  0
   15.1507    2.1263   22.3664 H   0  0  0  0  0  0  0  0  0  0  0  0
   15.6100    0.5048   22.9881 H   0  0  0  0  0  0  0  0  0  0  0  0
   14.6853    0.6394   21.4708 H   0  0  0  0  0  0  0  0  0  0  0  0
    9.6011    0.9757   24.7664 H   0  0  0  0  0  0  0  0  0  0  0  0
    9.6233    1.9886   23.3223 H   0  0  0  0  0  0  0  0  0  0  0  0
    7.1015    0.3608   17.0505 H   0  0  0  0  0  0  0  0  0  0  0  0
    8.1177   -1.8091   21.3536 H   0  0  0  0  0  0  0  0  0  0  0  0
  1  2  1  0  0  0  0
  1  3  2  0  0  0  0
  2  6  2  0  0  0  0
  3 11  1  0  0  0  0
  4  7  2  0  0  0  0
  4 12  1  0  0  0  0
  5  8  1  0  0  0  0
  5 12  2  0  0  0  0
  6 14  1  0  0  0  0
  7 15  1  0  0  0  0
  8 15  2  0  0  0  0
  9 13  1  0  0  0  0
  9 21  2  0  0  0  0
 10 13  2  0  0  0  0
 10 24  1  0  0  0  0
 11 14  2  0  0  0  0
 11 16  1  0  0  0  0
 12 18  1  0  0  0  0
 13 20  1  0  0  0  0
 14 23  1  0  0  0  0
 15 26  1  0  0  0  0
 16 22  2  0  0  0  0
 16 25  1  0  0  0  0
 17 25  1  0  0  0  0
 17 26  1  0  0  0  0
 17 27  2  0  0  0  0
 19 24  1  0  0  0  0
 20 26  1  0  0  0  0
 21 24  1  0  0  0  0
 22 23  1  0  0  0  0
  1 28  1  0  0  0  0
  2 29  1  0  0  0  0
  3 30  1  0  0  0  0
  4 31  1  0  0  0  0
  5 32  1  0  0  0  0
  6 33  1  0  0  0  0
  7 34  1  0  0  0  0
  8 35  1  0  0  0  0
  9 36  1  0  0  0  0
 10 37  1  0  0  0  0
 18 38  1  0  0  0  0
 18 39  1  0  0  0  0
 18 40  1  0  0  0  0
 19 41  1  0  0  0  0
 19 42  1  0  0  0  0
 19 43  1  0  0  0  0
 20 44  1  0  0  0  0
 20 45  1  0  0  0  0
 23 46  1  0  0  0  0
 25 47  1  0  0  0  0
M  END
> <clash_score>
0

> <docking_score>
-7.557260036468506

> <overlap_score>
0.9581678509712219

$$$$
BENZO_73_1
  -OEChem-08232013483D

 48 51  0     0  0  0  0  0  0999 V2000
   14.2888    0.9892   23.7890 C   0  0  0  0  0  0  0  0  0  0  0  0
    4.2970    1.6690   20.8430 C   0  0  0  0  0  0  0  0  0  0  0  0
   13.5723    0.3134   24.7766 C   0  0  0  0  0  0  0  0  0  0  0  0
   13.6107    1.6854   22.7884 C   0  0  0  0  0  0  0  0  0  0  0  0
    4.0980    2.1130   19.5350 C   0  0  0  0  0  0  0  0  0  0  0  0
    5.3360    0.8000   21.1530 C   0  0  0  0  0  0  0  0  0  0  0  0
   12.1776    0.3337   24.7637 C   0  0  0  0  0  0  0  0  0  0  0  0
   12.2161    1.7058   22.7755 C   0  0  0  0  0  0  0  0  0  0  0  0
    4.9400    1.7060   18.5060 C   0  0  0  0  0  0  0  0  0  0  0  0
    8.3510   -1.5420   24.6110 C   0  0  0  0  0  0  0  0  0  0  0  0
   10.2760   -2.3270   23.4020 C   0  0  0  0  0  0  0  0  0  0  0  0
    8.3310   -2.7170   25.3430 C   0  0  0  0  0  0  0  0  0  0  0  0
   10.2570   -3.5000   24.1350 C   0  0  0  0  0  0  0  0  0  0  0  0
    6.1600    0.3870   20.1140 C   0  0  0  0  0  0  0  0  0  0  0  0
   11.4995    1.0300   23.7631 C   0  0  0  0  0  0  0  0  0  0  0  0
    5.9810    0.8330   18.8060 C   0  0  0  0  0  0  0  0  0  0  0  0
    9.3300   -1.3350   23.6390 C   0  0  0  0  0  0  0  0  0  0  0  0
    9.2850   -3.7090   25.1090 C   0  0  0  0  0  0  0  0  0  0  0  0
    7.2210   -0.4620   20.0350 C   0  0  0  0  0  0  0  0  0  0  0  0
    8.9510    0.1280   21.6880 C   0  0  0  0  0  0  0  0  0  0  0  0
    8.2345   -4.9974   26.8023 C   0  0  0  0  0  0  0  0  0  0  0  0
    9.9983    1.0521   23.7484 C   0  0  0  0  0  0  0  0  0  0  0  0
    7.6830   -0.5170   18.7600 N   0  0  0  0  0  0  0  0  0  0  0  0
    6.9440    0.2550   18.0100 N   0  0  0  0  0  0  0  0  0  0  0  0
    8.0810   -0.9750   21.0820 N   0  0  0  0  0  0  0  0  0  0  0  0
    9.4200   -0.0840   22.9530 N   0  0  0  0  0  0  0  0  0  0  0  0
    9.1870    1.1500   21.0630 O   0  0  0  0  0  0  0  0  0  0  0  0
    9.2631   -4.8614   25.8229 O   0  0  0  0  0  0  0  0  0  0  0  0
   15.3748    0.9743   23.8000 H   0  0  0  0  0  0  0  0  0  0  0  0
    3.6274    2.0126   21.6300 H   0  0  0  0  0  0  0  0  0  0  0  0
   14.1001   -0.2279   25.5564 H   0  0  0  0  0  0  0  0  0  0  0  0
   14.1683    2.2126   22.0200 H   0  0  0  0  0  0  0  0  0  0  0  0
    3.2732    2.7875   19.3199 H   0  0  0  0  0  0  0  0  0  0  0  0
    5.4878    0.4645   22.1722 H   0  0  0  0  0  0  0  0  0  0  0  0
   11.6276   -0.1958   25.5371 H   0  0  0  0  0  0  0  0  0  0  0  0
   11.6963    2.2508   21.9919 H   0  0  0  0  0  0  0  0  0  0  0  0
    4.7853    2.0674   17.4815 H   0  0  0  0  0  0  0  0  0  0  0  0
    7.5951   -0.7786   24.8000 H   0  0  0  0  0  0  0  0  0  0  0  0
   11.0406   -2.1866   22.6351 H   0  0  0  0  0  0  0  0  0  0  0  0
    7.5664   -2.8674   26.1055 H   0  0  0  0  0  0  0  0  0  0  0  0
   11.0119   -4.2671   23.9461 H   0  0  0  0  0  0  0  0  0  0  0  0
    8.3310   -5.9648   27.3012 H   0  0  0  0  0  0  0  0  0  0  0  0
    7.2574   -4.9207   26.3187 H   0  0  0  0  0  0  0  0  0  0  0  0
    8.3377   -4.1978   27.5397 H   0  0  0  0  0  0  0  0  0  0  0  0
    9.6011    0.9757   24.7664 H   0  0  0  0  0  0  0  0  0  0  0  0
    9.6233    1.9886   23.3223 H   0  0  0  0  0  0  0  0  0  0  0  0
    7.1015    0.3608   17.0505 H   0  0  0  0  0  0  0  0  0  0  0  0
    8.1177   -1.8091   21.3536 H   0  0  0  0  0  0  0  0  0  0  0  0
  1  3  1  0  0  0  0
  1  4  2  0  0  0  0
  2  5  1  0  0  0  0
  2  6  2  0  0  0  0
  3  7  2  0  0  0  0
  4  8  1  0  0  0  0
  5  9  2  0  0  0  0
  6 14  1  0  0  0  0
  7 15  1  0  0  0  0
  8 15  2  0  0  0  0
  9 16  1  0  0  0  0
 10 12  2  0  0  0  0
 10 17  1  0  0  0  0
 11 13  1  0  0  0  0
 11 17  2  0  0  0  0
 12 18  1  0  0  0  0
 13 18  2  0  0  0  0
 14 16  2  0  0  0  0
 14 19  1  0  0  0  0
 15 22  1  0  0  0  0
 16 24  1  0  0  0  0
 17 26  1  0  0  0  0
 18 28  1  0  0  0  0
 19 23  2  0  0  0  0
 19 25  1  0  0  0  0
 20 25  1  0  0  0  0
 20 26  1  0  0  0  0
 20 27  2  0  0  0  0
 21 28  1  0  0  0  0
 22 26  1  0  0  0  0
 23 24  1  0  0  0  0
  1 29  1  0  0  0  0
  2 30  1  0  0  0  0
  3 31  1  0  0  0  0
  4 32  1  0  0  0  0
  5 33  1  0  0  0  0
  6 34  1  0  0  0  0
  7 35  1  0  0  0  0
  8 36  1  0  0  0  0
  9 37  1  0  0  0  0
 10 38  1  0  0  0  0
 11 39  1  0  0  0  0
 12 40  1  0  0  0  0
 13 41  1  0  0  0  0
 21 42  1  0  0  0  0
 21 43  1  0  0  0  0
 21 44  1  0  0  0  0
 22 45  1  0  0  0  0
 22 46  1  0  0  0  0
 24 47  1  0  0  0  0
 25 48  1  0  0  0  0
M  END
> <clash_score>
0

> <docking_score>
-7.637435436248779

> <overlap_score>
0.9883509278297424

$$$$
BENZO_70_1
  -OEChem-08232013483D

 47 50  0     0  0  0  0  0  0999 V2000
    4.2970    1.6690   20.8430 C   0  0  0  0  0  0  0  0  0  0  0  0
    4.0980    2.1130   19.5350 C   0  0  0  0  0  0  0  0  0  0  0  0
   13.6120    1.9204   23.0008 C   0  0  0  0  0  0  0  0  0  0  0  0
    5.3360    0.8000   21.1530 C   0  0  0  0  0  0  0  0  0  0  0  0
   12.2174    1.9397   22.9868 C   0  0  0  0  0  0  0  0  0  0  0  0
    8.3310   -2.7170   25.3430 C   0  0  0  0  0  0  0  0  0  0  0  0
   10.2570   -3.5000   24.1350 C   0  0  0  0  0  0  0  0  0  0  0  0
    4.9400    1.7060   18.5060 C   0  0  0  0  0  0  0  0  0  0  0  0
    8.3510   -1.5420   24.6110 C   0  0  0  0  0  0  0  0  0  0  0  0
   10.2760   -2.3270   23.4020 C   0  0  0  0  0  0  0  0  0  0  0  0
   14.2888    0.9914   23.7911 C   0  0  0  0  0  0  0  0  0  0  0  0
   12.1762    0.1009   24.5534 C   0  0  0  0  0  0  0  0  0  0  0  0
    6.1600    0.3870   20.1140 C   0  0  0  0  0  0  0  0  0  0  0  0
    9.2850   -3.7090   25.1090 C   0  0  0  0  0  0  0  0  0  0  0  0
   11.4995    1.0300   23.7631 C   0  0  0  0  0  0  0  0  0  0  0  0
    5.9810    0.8330   18.8060 C   0  0  0  0  0  0  0  0  0  0  0  0
    9.3300   -1.3350   23.6390 C   0  0  0  0  0  0  0  0  0  0  0  0
   13.5709    0.0817   24.5675 C   0  0  0  0  0  0  0  0  0  0  0  0
    7.2210   -0.4620   20.0350 C   0  0  0  0  0  0  0  0  0  0  0  0
    8.9510    0.1280   21.6880 C   0  0  0  0  0  0  0  0  0  0  0  0
    9.2610   -4.9721   25.8916 C   0  0  0  0  0  0  0  0  0  0  0  0
    9.9983    1.0521   23.7484 C   0  0  0  0  0  0  0  0  0  0  0  0
    7.6830   -0.5170   18.7600 N   0  0  0  0  0  0  0  0  0  0  0  0
    6.9440    0.2550   18.0100 N   0  0  0  0  0  0  0  0  0  0  0  0
    8.0810   -0.9750   21.0820 N   0  0  0  0  0  0  0  0  0  0  0  0
    9.4200   -0.0840   22.9530 N   0  0  0  0  0  0  0  0  0  0  0  0
    9.1870    1.1500   21.0630 O   0  0  0  0  0  0  0  0  0  0  0  0
   14.4064   -1.0636   25.5432 Cl  0  0  0  0  0  0  0  0  0  0  0  0
    3.6274    2.0126   21.6300 H   0  0  0  0  0  0  0  0  0  0  0  0
    3.2732    2.7875   19.3199 H   0  0  0  0  0  0  0  0  0  0  0  0
   14.1707    2.6291   22.3963 H   0  0  0  0  0  0  0  0  0  0  0  0
    5.4878    0.4645   22.1722 H   0  0  0  0  0  0  0  0  0  0  0  0
   11.6984    2.6671   22.3681 H   0  0  0  0  0  0  0  0  0  0  0  0
    7.5665   -2.8638   26.1066 H   0  0  0  0  0  0  0  0  0  0  0  0
   11.0137   -4.2652   23.9447 H   0  0  0  0  0  0  0  0  0  0  0  0
    4.7853    2.0674   17.4815 H   0  0  0  0  0  0  0  0  0  0  0  0
    7.5948   -0.7788   24.7997 H   0  0  0  0  0  0  0  0  0  0  0  0
   11.0411   -2.1856   22.6358 H   0  0  0  0  0  0  0  0  0  0  0  0
   15.3760    0.9881   23.7924 H   0  0  0  0  0  0  0  0  0  0  0  0
   11.6119   -0.6066   25.1566 H   0  0  0  0  0  0  0  0  0  0  0  0
    8.6398   -5.7223   25.3871 H   0  0  0  0  0  0  0  0  0  0  0  0
   10.2715   -5.3829   26.0145 H   0  0  0  0  0  0  0  0  0  0  0  0
    8.8596   -4.8092   26.9004 H   0  0  0  0  0  0  0  0  0  0  0  0
    9.6011    0.9757   24.7664 H   0  0  0  0  0  0  0  0  0  0  0  0
    9.6233    1.9886   23.3223 H   0  0  0  0  0  0  0  0  0  0  0  0
    7.1015    0.3608   17.0505 H   0  0  0  0  0  0  0  0  0  0  0  0
    8.1177   -1.8091   21.3536 H   0  0  0  0  0  0  0  0  0  0  0  0
  1  2  1  0  0  0  0
  1  4  2  0  0  0  0
  2  8  2  0  0  0  0
  3  5  2  0  0  0  0
  3 11  1  0  0  0  0
  4 13  1  0  0  0  0
  5 15  1  0  0  0  0
  6  9  2  0  0  0  0
  6 14  1  0  0  0  0
  7 10  1  0  0  0  0
  7 14  2  0  0  0  0
  8 16  1  0  0  0  0
  9 17  1  0  0  0  0
 10 17  2  0  0  0  0
 11 18  2  0  0  0  0
 12 15  2  0  0  0  0
 12 18  1  0  0  0  0
 13 16  2  0  0  0  0
 13 19  1  0  0  0  0
 14 21  1  0  0  0  0
 15 22  1  0  0  0  0
 16 24  1  0  0  0  0
 17 26  1  0  0  0  0
 18 28  1  0  0  0  0
 19 23  2  0  0  0  0
 19 25  1  0  0  0  0
 20 25  1  0  0  0  0
 20 26  1  0  0  0  0
 20 27  2  0  0  0  0
 22 26  1  0  0  0  0
 23 24  1  0  0  0  0
  1 29  1  0  0  0  0
  2 30  1  0  0  0  0
  3 31  1  0  0  0  0
  4 32  1  0  0  0  0
  5 33  1  0  0  0  0
  6 34  1  0  0  0  0
  7 35  1  0  0  0  0
  8 36  1  0  0  0  0
  9 37  1  0  0  0  0
 10 38  1  0  0  0  0
 11 39  1  0  0  0  0
 12 40  1  0  0  0  0
 21 41  1  0  0  0  0
 21 42  1  0  0  0  0
 21 43  1  0  0  0  0
 22 44  1  0  0  0  0
 22 45  1  0  0  0  0
 24 46  1  0  0  0  0
 25 47  1  0  0  0  0
M  END
> <clash_score>
0.7494277528620297

> <docking_score>
-6.783247947692871

> <overlap_score>
0.9663989543914795

$$$$
BENZO_72_1
  -OEChem-08232013483D

 45 48  0     0  0  0  0  0  0999 V2000
    4.2970    1.6690   20.8430 C   0  0  0  0  0  0  0  0  0  0  0  0
    4.0980    2.1130   19.5350 C   0  0  0  0  0  0  0  0  0  0  0  0
    5.3360    0.8000   21.1530 C   0  0  0  0  0  0  0  0  0  0  0  0
    4.9400    1.7060   18.5060 C   0  0  0  0  0  0  0  0  0  0  0  0
    8.3510   -1.5420   24.6110 C   0  0  0  0  0  0  0  0  0  0  0  0
   10.2760   -2.3270   23.4020 C   0  0  0  0  0  0  0  0  0  0  0  0
    8.3310   -2.7170   25.3430 C   0  0  0  0  0  0  0  0  0  0  0  0
   10.2570   -3.5000   24.1350 C   0  0  0  0  0  0  0  0  0  0  0  0
   12.3069    1.1129   22.5920 C   0  0  0  0  0  0  0  0  0  0  0  0
   13.6518    1.0697   22.8866 C   0  0  0  0  0  0  0  0  0  0  0  0
   12.2583    0.9263   24.9083 C   0  0  0  0  0  0  0  0  0  0  0  0
    6.1600    0.3870   20.1140 C   0  0  0  0  0  0  0  0  0  0  0  0
   11.4995    1.0300   23.7631 C   0  0  0  0  0  0  0  0  0  0  0  0
    5.9810    0.8330   18.8060 C   0  0  0  0  0  0  0  0  0  0  0  0
    9.3300   -1.3350   23.6390 C   0  0  0  0  0  0  0  0  0  0  0  0
    9.2850   -3.7090   25.1090 C   0  0  0  0  0  0  0  0  0  0  0  0
    7.2210   -0.4620   20.0350 C   0  0  0  0  0  0  0  0  0  0  0  0
    8.9510    0.1280   21.6880 C   0  0  0  0  0  0  0  0  0  0  0  0
    8.2345   -4.9974   26.8023 C   0  0  0  0  0  0  0  0  0  0  0  0
    9.9983    1.0521   23.7484 C   0  0  0  0  0  0  0  0  0  0  0  0
    7.6830   -0.5170   18.7600 N   0  0  0  0  0  0  0  0  0  0  0  0
    6.9440    0.2550   18.0100 N   0  0  0  0  0  0  0  0  0  0  0  0
    8.0810   -0.9750   21.0820 N   0  0  0  0  0  0  0  0  0  0  0  0
    9.4200   -0.0840   22.9530 N   0  0  0  0  0  0  0  0  0  0  0  0
    9.1870    1.1500   21.0630 O   0  0  0  0  0  0  0  0  0  0  0  0
    9.2631   -4.8614   25.8229 O   0  0  0  0  0  0  0  0  0  0  0  0
   13.9368    0.9296   24.5693 S   0  0  0  0  0  0  0  0  0  0  0  0
    3.6274    2.0126   21.6300 H   0  0  0  0  0  0  0  0  0  0  0  0
    3.2732    2.7875   19.3199 H   0  0  0  0  0  0  0  0  0  0  0  0
    5.4878    0.4645   22.1722 H   0  0  0  0  0  0  0  0  0  0  0  0
    4.7853    2.0674   17.4815 H   0  0  0  0  0  0  0  0  0  0  0  0
    7.5951   -0.7786   24.8000 H   0  0  0  0  0  0  0  0  0  0  0  0
   11.0406   -2.1866   22.6351 H   0  0  0  0  0  0  0  0  0  0  0  0
    7.5664   -2.8674   26.1055 H   0  0  0  0  0  0  0  0  0  0  0  0
   11.0119   -4.2671   23.9461 H   0  0  0  0  0  0  0  0  0  0  0  0
   11.9246    1.1995   21.5827 H   0  0  0  0  0  0  0  0  0  0  0  0
   14.4807    1.1130   22.1943 H   0  0  0  0  0  0  0  0  0  0  0  0
   11.9113    0.8474   25.9293 H   0  0  0  0  0  0  0  0  0  0  0  0
    8.3310   -5.9648   27.3012 H   0  0  0  0  0  0  0  0  0  0  0  0
    7.2574   -4.9207   26.3187 H   0  0  0  0  0  0  0  0  0  0  0  0
    8.3377   -4.1978   27.5397 H   0  0  0  0  0  0  0  0  0  0  0  0
    9.6011    0.9757   24.7664 H   0  0  0  0  0  0  0  0  0  0  0  0
    9.6233    1.9886   23.3223 H   0  0  0  0  0  0  0  0  0  0  0  0
    7.1015    0.3608   17.0505 H   0  0  0  0  0  0  0  0  0  0  0  0
    8.1177   -1.8091   21.3536 H   0  0  0  0  0  0  0  0  0  0  0  0
  1  2  1  0  0  0  0
  1  3  2  0  0  0  0
  2  4  2  0  0  0  0
  3 12  1  0  0  0  0
  4 14  1  0  0  0  0
  5  7  2  0  0  0  0
  5 15  1  0  0  0  0
  6  8  1  0  0  0  0
  6 15  2  0  0  0  0
  7 16  1  0  0  0  0
  8 16  2  0  0  0  0
  9 10  2  0  0  0  0
  9 13  1  0  0  0  0
 10 27  1  0  0  0  0
 11 13  2  0  0  0  0
 11 27  1  0  0  0  0
 12 14  2  0  0  0  0
 12 17  1  0  0  0  0
 13 20  1  0  0  0  0
 14 22  1  0  0  0  0
 15 24  1  0  0  0  0
 16 26  1  0  0  0  0
 17 21  2  0  0  0  0
 17 23  1  0  0  0  0
 18 23  1  0  0  0  0
 18 24  1  0  0  0  0
 18 25  2  0  0  0  0
 19 26  1  0  0  0  0
 20 24  1  0  0  0  0
 21 22  1  0  0  0  0
  1 28  1  0  0  0  0
  2 29  1  0  0  0  0
  3 30  1  0  0  0  0
  4 31  1  0  0  0  0
  5 32  1  0  0  0  0
  6 33  1  0  0  0  0
  7 34  1  0  0  0  0
  8 35  1  0  0  0  0
  9 36  1  0  0  0  0
 10 37  1  0  0  0  0
 11 38  1  0  0  0  0
 19 39  1  0  0  0  0
 19 40  1  0  0  0  0
 19 41  1  0  0  0  0
 20 42  1  0  0  0  0
 20 43  1  0  0  0  0
 22 44  1  0  0  0  0
 23 45  1  0  0  0  0
M  END
> <clash_score>
0

> <docking_score>
-8.026069641113281

> <overlap_score>
0.9659899473190308

$$$$
BENZO_75_1
  -OEChem-08232013483D

 48 51  0     0  0  0  0  0  0999 V2000
    4.2970    1.6690   20.8430 C   0  0  0  0  0  0  0  0  0  0  0  0
    4.0980    2.1130   19.5350 C   0  0  0  0  0  0  0  0  0  0  0  0
    5.3360    0.8000   21.1530 C   0  0  0  0  0  0  0  0  0  0  0  0
    4.9400    1.7060   18.5060 C   0  0  0  0  0  0  0  0  0  0  0  0
    8.3510   -1.5420   24.6110 C   0  0  0  0  0  0  0  0  0  0  0  0
   10.2760   -2.3270   23.4020 C   0  0  0  0  0  0  0  0  0  0  0  0
    8.3310   -2.7170   25.3430 C   0  0  0  0  0  0  0  0  0  0  0  0
   10.2570   -3.5000   24.1350 C   0  0  0  0  0  0  0  0  0  0  0  0
   12.3655    1.7377   24.6180 C   0  0  0  0  0  0  0  0  0  0  0  0
   12.3364    0.3109   22.9452 C   0  0  0  0  0  0  0  0  0  0  0  0
    6.1600    0.3870   20.1140 C   0  0  0  0  0  0  0  0  0  0  0  0
   11.4995    1.0300   23.7631 C   0  0  0  0  0  0  0  0  0  0  0  0
    5.9810    0.8330   18.8060 C   0  0  0  0  0  0  0  0  0  0  0  0
    9.3300   -1.3350   23.6390 C   0  0  0  0  0  0  0  0  0  0  0  0
    9.2850   -3.7090   25.1090 C   0  0  0  0  0  0  0  0  0  0  0  0
    7.2210   -0.4620   20.0350 C   0  0  0  0  0  0  0  0  0  0  0  0
    8.9510    0.1280   21.6880 C   0  0  0  0  0  0  0  0  0  0  0  0
   14.8283    0.1059   22.7795 C   0  0  0  0  0  0  0  0  0  0  0  0
    8.2345   -4.9974   26.8023 C   0  0  0  0  0  0  0  0  0  0  0  0
    9.9983    1.0521   23.7484 C   0  0  0  0  0  0  0  0  0  0  0  0
   13.6538    1.4905   24.3667 N   0  0  0  0  0  0  0  0  0  0  0  0
    7.6830   -0.5170   18.7600 N   0  0  0  0  0  0  0  0  0  0  0  0
    6.9440    0.2550   18.0100 N   0  0  0  0  0  0  0  0  0  0  0  0
   13.6035    0.6193   23.3446 N   0  0  0  0  0  0  0  0  0  0  0  0
    8.0810   -0.9750   21.0820 N   0  0  0  0  0  0  0  0  0  0  0  0
    9.4200   -0.0840   22.9530 N   0  0  0  0  0  0  0  0  0  0  0  0
    9.1870    1.1500   21.0630 O   0  0  0  0  0  0  0  0  0  0  0  0
    9.2631   -4.8614   25.8229 O   0  0  0  0  0  0  0  0  0  0  0  0
    3.6274    2.0126   21.6300 H   0  0  0  0  0  0  0  0  0  0  0  0
    3.2732    2.7875   19.3199 H   0  0  0  0  0  0  0  0  0  0  0  0
    5.4878    0.4645   22.1722 H   0  0  0  0  0  0  0  0  0  0  0  0
    4.7853    2.0674   17.4815 H   0  0  0  0  0  0  0  0  0  0  0  0
    7.5951   -0.7786   24.8000 H   0  0  0  0  0  0  0  0  0  0  0  0
   11.0406   -2.1866   22.6351 H   0  0  0  0  0  0  0  0  0  0  0  0
    7.5664   -2.8674   26.1055 H   0  0  0  0  0  0  0  0  0  0  0  0
   11.0119   -4.2671   23.9461 H   0  0  0  0  0  0  0  0  0  0  0  0
   12.1139    2.4232   25.4149 H   0  0  0  0  0  0  0  0  0  0  0  0
   12.1431   -0.3780   22.1340 H   0  0  0  0  0  0  0  0  0  0  0  0
   15.1347    0.7768   21.9727 H   0  0  0  0  0  0  0  0  0  0  0  0
   15.5979    0.0645   23.5553 H   0  0  0  0  0  0  0  0  0  0  0  0
   14.6536   -0.9025   22.3942 H   0  0  0  0  0  0  0  0  0  0  0  0
    8.3310   -5.9648   27.3012 H   0  0  0  0  0  0  0  0  0  0  0  0
    7.2574   -4.9207   26.3187 H   0  0  0  0  0  0  0  0  0  0  0  0
    8.3377   -4.1978   27.5397 H   0  0  0  0  0  0  0  0  0  0  0  0
    9.6011    0.9757   24.7664 H   0  0  0  0  0  0  0  0  0  0  0  0
    9.6233    1.9886   23.3223 H   0  0  0  0  0  0  0  0  0  0  0  0
    7.1015    0.3608   17.0505 H   0  0  0  0  0  0  0  0  0  0  0  0
    8.1177   -1.8091   21.3536 H   0  0  0  0  0  0  0  0  0  0  0  0
  1  2  1  0  0  0  0
  1  3  2  0  0  0  0
  2  4  2  0  0  0  0
  3 11  1  0  0  0  0
  4 13  1  0  0  0  0
  5  7  2  0  0  0  0
  5 14  1  0  0  0  0
  6  8  1  0  0  0  0
  6 14  2  0  0  0  0
  7 15  1  0  0  0  0
  8 15  2  0  0  0  0
  9 12  1  0  0  0  0
  9 21  2  0  0  0  0
 10 12  2  0  0  0  0
 10 24  1  0  0  0  0
 11 13  2  0  0  0  0
 11 16  1  0  0  0  0
 12 20  1  0  0  0  0
 13 23  1  0  0  0  0
 14 26  1  0  0  0  0
 15 28  1  0  0  0  0
 16 22  2  0  0  0  0
 16 25  1  0  0  0  0
 17 25  1  0  0  0  0
 17 26  1  0  0  0  0
 17 27  2  0  0  0  0
 18 24  1  0  0  0  0
 19 28  1  0  0  0  0
 20 26  1  0  0  0  0
 21 24  1  0  0  0  0
 22 23  1  0  0  0  0
  1 29  1  0  0  0  0
  2 30  1  0  0  0  0
  3 31  1  0  0  0  0
  4 32  1  0  0  0  0
  5 33  1  0  0  0  0
  6 34  1  0  0  0  0
  7 35  1  0  0  0  0
  8 36  1  0  0  0  0
  9 37  1  0  0  0  0
 10 38  1  0  0  0  0
 18 39  1  0  0  0  0
 18 40  1  0  0  0  0
 18 41  1  0  0  0  0
 19 42  1  0  0  0  0
 19 43  1  0  0  0  0
 19 44  1  0  0  0  0
 20 45  1  0  0  0  0
 20 46  1  0  0  0  0
 23 47  1  0  0  0  0
 25 48  1  0  0  0  0
M  END
> <clash_score>
0

> <docking_score>
-7.478368282318115

> <overlap_score>
0.9740703105926514

$$$$
BENZO_74_1
  -OEChem-08232013483D

 48 51  0     0  0  0  0  0  0999 V2000
    4.2970    1.6690   20.8430 C   0  0  0  0  0  0  0  0  0  0  0  0
    4.0980    2.1130   19.5350 C   0  0  0  0  0  0  0  0  0  0  0  0
   13.6120    1.9204   23.0008 C   0  0  0  0  0  0  0  0  0  0  0  0
    5.3360    0.8000   21.1530 C   0  0  0  0  0  0  0  0  0  0  0  0
   12.2174    1.9397   22.9868 C   0  0  0  0  0  0  0  0  0  0  0  0
    4.9400    1.7060   18.5060 C   0  0  0  0  0  0  0  0  0  0  0  0
    8.3510   -1.5420   24.6110 C   0  0  0  0  0  0  0  0  0  0  0  0
   10.2760   -2.3270   23.4020 C   0  0  0  0  0  0  0  0  0  0  0  0
    8.3310   -2.7170   25.3430 C   0  0  0  0  0  0  0  0  0  0  0  0
   10.2570   -3.5000   24.1350 C   0  0  0  0  0  0  0  0  0  0  0  0
   14.2888    0.9914   23.7911 C   0  0  0  0  0  0  0  0  0  0  0  0
   12.1762    0.1009   24.5534 C   0  0  0  0  0  0  0  0  0  0  0  0
    6.1600    0.3870   20.1140 C   0  0  0  0  0  0  0  0  0  0  0  0
   11.4995    1.0300   23.7631 C   0  0  0  0  0  0  0  0  0  0  0  0
    5.9810    0.8330   18.8060 C   0  0  0  0  0  0  0  0  0  0  0  0
    9.3300   -1.3350   23.6390 C   0  0  0  0  0  0  0  0  0  0  0  0
    9.2850   -3.7090   25.1090 C   0  0  0  0  0  0  0  0  0  0  0  0
   13.5709    0.0817   24.5675 C   0  0  0  0  0  0  0  0  0  0  0  0
    7.2210   -0.4620   20.0350 C   0  0  0  0  0  0  0  0  0  0  0  0
    8.9510    0.1280   21.6880 C   0  0  0  0  0  0  0  0  0  0  0  0
    8.2345   -4.9974   26.8023 C   0  0  0  0  0  0  0  0  0  0  0  0
    9.9983    1.0521   23.7484 C   0  0  0  0  0  0  0  0  0  0  0  0
    7.6830   -0.5170   18.7600 N   0  0  0  0  0  0  0  0  0  0  0  0
    6.9440    0.2550   18.0100 N   0  0  0  0  0  0  0  0  0  0  0  0
    8.0810   -0.9750   21.0820 N   0  0  0  0  0  0  0  0  0  0  0  0
    9.4200   -0.0840   22.9530 N   0  0  0  0  0  0  0  0  0  0  0  0
    9.1870    1.1500   21.0630 O   0  0  0  0  0  0  0  0  0  0  0  0
    9.2631   -4.8614   25.8229 O   0  0  0  0  0  0  0  0  0  0  0  0
   14.4064   -1.0636   25.5432 Cl  0  0  0  0  0  0  0  0  0  0  0  0
    3.6274    2.0126   21.6300 H   0  0  0  0  0  0  0  0  0  0  0  0
    3.2732    2.7875   19.3199 H   0  0  0  0  0  0  0  0  0  0  0  0
   14.1707    2.6291   22.3963 H   0  0  0  0  0  0  0  0  0  0  0  0
    5.4878    0.4645   22.1722 H   0  0  0  0  0  0  0  0  0  0  0  0
   11.6984    2.6671   22.3681 H   0  0  0  0  0  0  0  0  0  0  0  0
    4.7853    2.0674   17.4815 H   0  0  0  0  0  0  0  0  0  0  0  0
    7.5951   -0.7786   24.8000 H   0  0  0  0  0  0  0  0  0  0  0  0
   11.0406   -2.1866   22.6351 H   0  0  0  0  0  0  0  0  0  0  0  0
    7.5664   -2.8674   26.1055 H   0  0  0  0  0  0  0  0  0  0  0  0
   11.0119   -4.2671   23.9461 H   0  0  0  0  0  0  0  0  0  0  0  0
   15.3760    0.9881   23.7924 H   0  0  0  0  0  0  0  0  0  0  0  0
   11.6119   -0.6066   25.1566 H   0  0  0  0  0  0  0  0  0  0  0  0
    8.3310   -5.9648   27.3012 H   0  0  0  0  0  0  0  0  0  0  0  0
    7.2574   -4.9207   26.3187 H   0  0  0  0  0  0  0  0  0  0  0  0
    8.3377   -4.1978   27.5397 H   0  0  0  0  0  0  0  0  0  0  0  0
    9.6011    0.9757   24.7664 H   0  0  0  0  0  0  0  0  0  0  0  0
    9.6233    1.9886   23.3223 H   0  0  0  0  0  0  0  0  0  0  0  0
    7.1015    0.3608   17.0505 H   0  0  0  0  0  0  0  0  0  0  0  0
    8.1177   -1.8091   21.3536 H   0  0  0  0  0  0  0  0  0  0  0  0
  1  2  1  0  0  0  0
  1  4  2  0  0  0  0
  2  6  2  0  0  0  0
  3  5  2  0  0  0  0
  3 11  1  0  0  0  0
  4 13  1  0  0  0  0
  5 14  1  0  0  0  0
  6 15  1  0  0  0  0
  7  9  2  0  0  0  0
  7 16  1  0  0  0  0
  8 10  1  0  0  0  0
  8 16  2  0  0  0  0
  9 17  1  0  0  0  0
 10 17  2  0  0  0  0
 11 18  2  0  0  0  0
 12 14  2  0  0  0  0
 12 18  1  0  0  0  0
 13 15  2  0  0  0  0
 13 19  1  0  0  0  0
 14 22  1  0  0  0  0
 15 24  1  0  0  0  0
 16 26  1  0  0  0  0
 17 28  1  0  0  0  0
 18 29  1  0  0  0  0
 19 23  2  0  0  0  0
 19 25  1  0  0  0  0
 20 25  1  0  0  0  0
 20 26  1  0  0  0  0
 20 27  2  0  0  0  0
 21 28  1  0  0  0  0
 22 26  1  0  0  0  0
 23 24  1  0  0  0  0
  1 30  1  0  0  0  0
  2 31  1  0  0  0  0
  3 32  1  0  0  0  0
  4 33  1  0  0  0  0
  5 34  1  0  0  0  0
  6 35  1  0  0  0  0
  7 36  1  0  0  0  0
  8 37  1  0  0  0  0
  9 38  1  0  0  0  0
 10 39  1  0  0  0  0
 11 40  1  0  0  0  0
 12 41  1  0  0  0  0
 21 42  1  0  0  0  0
 21 43  1  0  0  0  0
 21 44  1  0  0  0  0
 22 45  1  0  0  0  0
 22 46  1  0  0  0  0
 24 47  1  0  0  0  0
 25 48  1  0  0  0  0
M  END
> <clash_score>
0.7494277528620297

> <docking_score>
-6.492237567901611

> <overlap_score>
0.99025958776474

$$$$
BENZO_77_1
  -OEChem-08232013483D

 58 62  0     0  0  0  0  0  0999 V2000
   14.2876    0.9747   23.7797 C   0  0  0  0  0  0  0  0  0  0  0  0
    4.2970    1.6690   20.8430 C   0  0  0  0  0  0  0  0  0  0  0  0
   13.5635    0.3279   24.7811 C   0  0  0  0  0  0  0  0  0  0  0  0
   13.6173    1.6544   22.7626 C   0  0  0  0  0  0  0  0  0  0  0  0
    4.0980    2.1130   19.5350 C   0  0  0  0  0  0  0  0  0  0  0  0
    5.3360    0.8000   21.1530 C   0  0  0  0  0  0  0  0  0  0  0  0
   12.1691    0.3605   24.7654 C   0  0  0  0  0  0  0  0  0  0  0  0
   12.2229    1.6870   22.7468 C   0  0  0  0  0  0  0  0  0  0  0  0
    4.9400    1.7060   18.5060 C   0  0  0  0  0  0  0  0  0  0  0  0
    8.3310   -2.7170   25.3430 C   0  0  0  0  0  0  0  0  0  0  0  0
   10.2570   -3.5000   24.1350 C   0  0  0  0  0  0  0  0  0  0  0  0
    8.3510   -1.5420   24.6110 C   0  0  0  0  0  0  0  0  0  0  0  0
   10.2760   -2.3270   23.4020 C   0  0  0  0  0  0  0  0  0  0  0  0
    6.1600    0.3870   20.1140 C   0  0  0  0  0  0  0  0  0  0  0  0
   11.4988    1.0401   23.7482 C   0  0  0  0  0  0  0  0  0  0  0  0
    5.9810    0.8330   18.8060 C   0  0  0  0  0  0  0  0  0  0  0  0
    9.2850   -3.7090   25.1090 C   0  0  0  0  0  0  0  0  0  0  0  0
    9.3300   -1.3350   23.6390 C   0  0  0  0  0  0  0  0  0  0  0  0
    7.2210   -0.4620   20.0350 C   0  0  0  0  0  0  0  0  0  0  0  0
    8.0635   -5.4710   26.3667 C   0  0  0  0  0  0  0  0  0  0  0  0
    8.9510    0.1280   21.6880 C   0  0  0  0  0  0  0  0  0  0  0  0
    8.2626   -6.7580   27.1475 C   0  0  0  0  0  0  0  0  0  0  0  0
    9.4048   -6.6156   28.1380 C   0  0  0  0  0  0  0  0  0  0  0  0
   10.6949   -6.1500   27.4702 C   0  0  0  0  0  0  0  0  0  0  0  0
   10.4942   -5.7069   26.0219 C   0  0  0  0  0  0  0  0  0  0  0  0
    9.9979    1.0755   23.7305 C   0  0  0  0  0  0  0  0  0  0  0  0
    7.6830   -0.5170   18.7600 N   0  0  0  0  0  0  0  0  0  0  0  0
    6.9440    0.2550   18.0100 N   0  0  0  0  0  0  0  0  0  0  0  0
    9.2623   -4.9266   25.8635 N   0  0  0  0  0  0  0  0  0  0  0  0
    8.0810   -0.9750   21.0820 N   0  0  0  0  0  0  0  0  0  0  0  0
    9.4200   -0.0840   22.9530 N   0  0  0  0  0  0  0  0  0  0  0  0
    6.9244   -5.0476   26.1739 O   0  0  0  0  0  0  0  0  0  0  0  0
    9.1870    1.1500   21.0630 O   0  0  0  0  0  0  0  0  0  0  0  0
   15.3733    0.9503   23.7929 H   0  0  0  0  0  0  0  0  0  0  0  0
    3.6274    2.0126   21.6300 H   0  0  0  0  0  0  0  0  0  0  0  0
   14.0852   -0.2004   25.5738 H   0  0  0  0  0  0  0  0  0  0  0  0
   14.1808    2.1590   21.9834 H   0  0  0  0  0  0  0  0  0  0  0  0
    3.2732    2.7875   19.3199 H   0  0  0  0  0  0  0  0  0  0  0  0
    5.4878    0.4645   22.1722 H   0  0  0  0  0  0  0  0  0  0  0  0
   11.6131   -0.1465   25.5497 H   0  0  0  0  0  0  0  0  0  0  0  0
   11.7092    2.2189   21.9503 H   0  0  0  0  0  0  0  0  0  0  0  0
    4.7853    2.0674   17.4815 H   0  0  0  0  0  0  0  0  0  0  0  0
    7.5639   -2.8621   26.1045 H   0  0  0  0  0  0  0  0  0  0  0  0
   11.0141   -4.2644   23.9422 H   0  0  0  0  0  0  0  0  0  0  0  0
    7.5950   -0.7788   24.8007 H   0  0  0  0  0  0  0  0  0  0  0  0
   11.0408   -2.1861   22.6359 H   0  0  0  0  0  0  0  0  0  0  0  0
    7.3516   -6.9810   27.6812 H   0  0  0  0  0  0  0  0  0  0  0  0
    8.4757   -7.5428   26.4371 H   0  0  0  0  0  0  0  0  0  0  0  0
    9.1234   -5.9016   28.9400 H   0  0  0  0  0  0  0  0  0  0  0  0
    9.5778   -7.5840   28.6491 H   0  0  0  0  0  0  0  0  0  0  0  0
   11.1305   -5.3108   28.0523 H   0  0  0  0  0  0  0  0  0  0  0  0
   11.4565   -6.9587   27.5131 H   0  0  0  0  0  0  0  0  0  0  0  0
   11.3212   -5.0729   25.7168 H   0  0  0  0  0  0  0  0  0  0  0  0
   10.4483   -6.5796   25.3796 H   0  0  0  0  0  0  0  0  0  0  0  0
    9.5979    1.0021   24.7477 H   0  0  0  0  0  0  0  0  0  0  0  0
    9.6320    2.0154   23.3042 H   0  0  0  0  0  0  0  0  0  0  0  0
    7.1015    0.3608   17.0505 H   0  0  0  0  0  0  0  0  0  0  0  0
    8.1334   -1.7992   21.3673 H   0  0  0  0  0  0  0  0  0  0  0  0
  1  3  1  0  0  0  0
  1  4  2  0  0  0  0
  2  5  1  0  0  0  0
  2  6  2  0  0  0  0
  3  7  2  0  0  0  0
  4  8  1  0  0  0  0
  5  9  2  0  0  0  0
  6 14  1  0  0  0  0
  7 15  1  0  0  0  0
  8 15  2  0  0  0  0
  9 16  1  0  0  0  0
 10 12  2  0  0  0  0
 10 17  1  0  0  0  0
 11 13  1  0  0  0  0
 11 17  2  0  0  0  0
 12 18  1  0  0  0  0
 13 18  2  0  0  0  0
 14 16  2  0  0  0  0
 14 19  1  0  0  0  0
 15 26  1  0  0  0  0
 16 28  1  0  0  0  0
 17 29  1  0  0  0  0
 18 31  1  0  0  0  0
 19 27  2  0  0  0  0
 19 30  1  0  0  0  0
 20 22  1  0  0  0  0
 20 29  1  0  0  0  0
 20 32  2  0  0  0  0
 21 30  1  0  0  0  0
 21 31  1  0  0  0  0
 21 33  2  0  0  0  0
 22 23  1  0  0  0  0
 23 24  1  0  0  0  0
 24 25  1  0  0  0  0
 25 29  1  0  0  0  0
 26 31  1  0  0  0  0
 27 28  1  0  0  0  0
  1 34  1  0  0  0  0
  2 35  1  0  0  0  0
  3 36  1  0  0  0  0
  4 37  1  0  0  0  0
  5 38  1  0  0  0  0
  6 39  1  0  0  0  0
  7 40  1  0  0  0  0
  8 41  1  0  0  0  0
  9 42  1  0  0  0  0
 10 43  1  0  0  0  0
 11 44  1  0  0  0  0
 12 45  1  0  0  0  0
 13 46  1  0  0  0  0
 22 47  1  0  0  0  0
 22 48  1  0  0  0  0
 23 49  1  0  0  0  0
 23 50  1  0  0  0  0
 24 51  1  0  0  0  0
 24 52  1  0  0  0  0
 25 53  1  0  0  0  0
 25 54  1  0  0  0  0
 26 55  1  0  0  0  0
 26 56  1  0  0  0  0
 28 57  1  0  0  0  0
 30 58  1  0  0  0  0
M  END
> <clash_score>
1.272782601224562

> <docking_score>
-6.110731601715088

> <overlap_score>
1.0088165998458862

$$$$
BENZO_76_1
  -OEChem-08232013483D

 55 59  0     0  0  0  0  0  0999 V2000
    4.2970    1.6690   20.8430 C   0  0  0  0  0  0  0  0  0  0  0  0
    4.0980    2.1130   19.5350 C   0  0  0  0  0  0  0  0  0  0  0  0
    5.3360    0.8000   21.1530 C   0  0  0  0  0  0  0  0  0  0  0  0
    4.9400    1.7060   18.5060 C   0  0  0  0  0  0  0  0  0  0  0  0
    8.3310   -2.7170   25.3430 C   0  0  0  0  0  0  0  0  0  0  0  0
   10.2570   -3.5000   24.1350 C   0  0  0  0  0  0  0  0  0  0  0  0
    8.3510   -1.5420   24.6110 C   0  0  0  0  0  0  0  0  0  0  0  0
   10.2760   -2.3270   23.4020 C   0  0  0  0  0  0  0  0  0  0  0  0
   12.3092    1.1165   22.5788 C   0  0  0  0  0  0  0  0  0  0  0  0
   13.6531    1.0614   22.8761 C   0  0  0  0  0  0  0  0  0  0  0  0
   12.2543    0.9292   24.8949 C   0  0  0  0  0  0  0  0  0  0  0  0
    6.1600    0.3870   20.1140 C   0  0  0  0  0  0  0  0  0  0  0  0
   11.4988    1.0401   23.7482 C   0  0  0  0  0  0  0  0  0  0  0  0
    5.9810    0.8330   18.8060 C   0  0  0  0  0  0  0  0  0  0  0  0
    9.2850   -3.7090   25.1090 C   0  0  0  0  0  0  0  0  0  0  0  0
    9.3300   -1.3350   23.6390 C   0  0  0  0  0  0  0  0  0  0  0  0
    7.2210   -0.4620   20.0350 C   0  0  0  0  0  0  0  0  0  0  0  0
    8.0635   -5.4710   26.3667 C   0  0  0  0  0  0  0  0  0  0  0  0
    8.9510    0.1280   21.6880 C   0  0  0  0  0  0  0  0  0  0  0  0
    8.2626   -6.7580   27.1475 C   0  0  0  0  0  0  0  0  0  0  0  0
    9.4048   -6.6156   28.1380 C   0  0  0  0  0  0  0  0  0  0  0  0
   10.6949   -6.1500   27.4702 C   0  0  0  0  0  0  0  0  0  0  0  0
   10.4942   -5.7069   26.0219 C   0  0  0  0  0  0  0  0  0  0  0  0
    9.9979    1.0755   23.7305 C   0  0  0  0  0  0  0  0  0  0  0  0
    7.6830   -0.5170   18.7600 N   0  0  0  0  0  0  0  0  0  0  0  0
    6.9440    0.2550   18.0100 N   0  0  0  0  0  0  0  0  0  0  0  0
    9.2623   -4.9266   25.8635 N   0  0  0  0  0  0  0  0  0  0  0  0
    8.0810   -0.9750   21.0820 N   0  0  0  0  0  0  0  0  0  0  0  0
    9.4200   -0.0840   22.9530 N   0  0  0  0  0  0  0  0  0  0  0  0
    6.9244   -5.0476   26.1739 O   0  0  0  0  0  0  0  0  0  0  0  0
    9.1870    1.1500   21.0630 O   0  0  0  0  0  0  0  0  0  0  0  0
   13.9334    0.9179   24.5593 S   0  0  0  0  0  0  0  0  0  0  0  0
    3.6274    2.0126   21.6300 H   0  0  0  0  0  0  0  0  0  0  0  0
    3.2732    2.7875   19.3199 H   0  0  0  0  0  0  0  0  0  0  0  0
    5.4878    0.4645   22.1722 H   0  0  0  0  0  0  0  0  0  0  0  0
    4.7853    2.0674   17.4815 H   0  0  0  0  0  0  0  0  0  0  0  0
    7.5639   -2.8621   26.1045 H   0  0  0  0  0  0  0  0  0  0  0  0
   11.0141   -4.2644   23.9422 H   0  0  0  0  0  0  0  0  0  0  0  0
    7.5950   -0.7788   24.8007 H   0  0  0  0  0  0  0  0  0  0  0  0
   11.0408   -2.1861   22.6359 H   0  0  0  0  0  0  0  0  0  0  0  0
   11.9298    1.2070   21.5688 H   0  0  0  0  0  0  0  0  0  0  0  0
   14.4837    1.0977   22.1855 H   0  0  0  0  0  0  0  0  0  0  0  0
   11.9046    0.8529   25.9152 H   0  0  0  0  0  0  0  0  0  0  0  0
    7.3516   -6.9810   27.6812 H   0  0  0  0  0  0  0  0  0  0  0  0
    8.4757   -7.5428   26.4371 H   0  0  0  0  0  0  0  0  0  0  0  0
    9.1234   -5.9016   28.9400 H   0  0  0  0  0  0  0  0  0  0  0  0
    9.5778   -7.5840   28.6491 H   0  0  0  0  0  0  0  0  0  0  0  0
   11.1305   -5.3108   28.0523 H   0  0  0  0  0  0  0  0  0  0  0  0
   11.4565   -6.9587   27.5131 H   0  0  0  0  0  0  0  0  0  0  0  0
   11.3212   -5.0729   25.7168 H   0  0  0  0  0  0  0  0  0  0  0  0
   10.4483   -6.5796   25.3796 H   0  0  0  0  0  0  0  0  0  0  0  0
    9.5979    1.0021   24.7477 H   0  0  0  0  0  0  0  0  0  0  0  0
    9.6320    2.0154   23.3042 H   0  0  0  0  0  0  0  0  0  0  0  0
    7.1015    0.3608   17.0505 H   0  0  0  0  0  0  0  0  0  0  0  0
    8.1334   -1.7992   21.3673 H   0  0  0  0  0  0  0  0  0  0  0  0
  1  2  1  0  0  0  0
  1  3  2  0  0  0  0
  2  4  2  0  0  0  0
  3 12  1  0  0  0  0
  4 14  1  0  0  0  0
  5  7  2  0  0  0  0
  5 15  1  0  0  0  0
  6  8  1  0  0  0  0
  6 15  2  0  0  0  0
  7 16  1  0  0  0  0
  8 16  2  0  0  0  0
  9 10  2  0  0  0  0
  9 13  1  0  0  0  0
 10 32  1  0  0  0  0
 11 13  2  0  0  0  0
 11 32  1  0  0  0  0
 12 14  2  0  0  0  0
 12 17  1  0  0  0  0
 13 24  1  0  0  0  0
 14 26  1  0  0  0  0
 15 27  1  0  0  0  0
 16 29  1  0  0  0  0
 17 25  2  0  0  0  0
 17 28  1  0  0  0  0
 18 20  1  0  0  0  0
 18 27  1  0  0  0  0
 18 30  2  0  0  0  0
 19 28  1  0  0  0  0
 19 29  1  0  0  0  0
 19 31  2  0  0  0  0
 20 21  1  0  0  0  0
 21 22  1  0  0  0  0
 22 23  1  0  0  0  0
 23 27  1  0  0  0  0
 24 29  1  0  0  0  0
 25 26  1  0  0  0  0
  1 33  1  0  0  0  0
  2 34  1  0  0  0  0
  3 35  1  0  0  0  0
  4 36  1  0  0  0  0
  5 37  1  0  0  0  0
  6 38  1  0  0  0  0
  7 39  1  0  0  0  0
  8 40  1  0  0  0  0
  9 41  1  0  0  0  0
 10 42  1  0  0  0  0
 11 43  1  0  0  0  0
 20 44  1  0  0  0  0
 20 45  1  0  0  0  0
 21 46  1  0  0  0  0
 21 47  1  0  0  0  0
 22 48  1  0  0  0  0
 22 49  1  0  0  0  0
 23 50  1  0  0  0  0
 23 51  1  0  0  0  0
 24 52  1  0  0  0  0
 24 53  1  0  0  0  0
 26 54  1  0  0  0  0
 28 55  1  0  0  0  0
M  END
> <clash_score>
1.272782601224562

> <docking_score>
-6.5113091468811035

> <overlap_score>
0.9869235754013062

$$$$
BENZO_81_1
  -OEChem-08232013483D

 57 61  0     0  0  0  0  0  0999 V2000
   14.2885    1.1440   23.7306 C   0  0  0  0  0  0  0  0  0  0  0  0
    4.2970    1.6690   20.8430 C   0  0  0  0  0  0  0  0  0  0  0  0
   13.6022    0.4565   24.7315 C   0  0  0  0  0  0  0  0  0  0  0  0
   13.5801    1.8094   22.7299 C   0  0  0  0  0  0  0  0  0  0  0  0
    4.0980    2.1130   19.5350 C   0  0  0  0  0  0  0  0  0  0  0  0
    5.3360    0.8000   21.1530 C   0  0  0  0  0  0  0  0  0  0  0  0
   12.2075    0.4341   24.7317 C   0  0  0  0  0  0  0  0  0  0  0  0
   12.1854    1.7870   22.7301 C   0  0  0  0  0  0  0  0  0  0  0  0
    4.9400    1.7060   18.5060 C   0  0  0  0  0  0  0  0  0  0  0  0
    8.3310   -2.7170   25.3430 C   0  0  0  0  0  0  0  0  0  0  0  0
   10.2570   -3.5000   24.1350 C   0  0  0  0  0  0  0  0  0  0  0  0
    8.3510   -1.5420   24.6110 C   0  0  0  0  0  0  0  0  0  0  0  0
   10.2760   -2.3270   23.4020 C   0  0  0  0  0  0  0  0  0  0  0  0
    6.1600    0.3870   20.1140 C   0  0  0  0  0  0  0  0  0  0  0  0
   11.4991    1.0994   23.7310 C   0  0  0  0  0  0  0  0  0  0  0  0
    5.9810    0.8330   18.8060 C   0  0  0  0  0  0  0  0  0  0  0  0
    9.2850   -3.7090   25.1090 C   0  0  0  0  0  0  0  0  0  0  0  0
    9.3300   -1.3350   23.6390 C   0  0  0  0  0  0  0  0  0  0  0  0
    7.2210   -0.4620   20.0350 C   0  0  0  0  0  0  0  0  0  0  0  0
    8.9510    0.1280   21.6880 C   0  0  0  0  0  0  0  0  0  0  0  0
    8.7666   -4.9523   27.2147 C   0  0  0  0  0  0  0  0  0  0  0  0
    9.3034   -6.1866   25.1651 C   0  0  0  0  0  0  0  0  0  0  0  0
    7.3827   -5.5925   27.1999 C   0  0  0  0  0  0  0  0  0  0  0  0
    7.9024   -6.7967   25.2263 C   0  0  0  0  0  0  0  0  0  0  0  0
    9.9979    1.0755   23.7305 C   0  0  0  0  0  0  0  0  0  0  0  0
    7.6830   -0.5170   18.7600 N   0  0  0  0  0  0  0  0  0  0  0  0
    6.9440    0.2550   18.0100 N   0  0  0  0  0  0  0  0  0  0  0  0
    9.2640   -4.8844   25.8389 N   0  0  0  0  0  0  0  0  0  0  0  0
    8.0810   -0.9750   21.0820 N   0  0  0  0  0  0  0  0  0  0  0  0
    9.4200   -0.0840   22.9530 N   0  0  0  0  0  0  0  0  0  0  0  0
    9.1870    1.1500   21.0630 O   0  0  0  0  0  0  0  0  0  0  0  0
    7.4483   -6.8833   26.5817 O   0  0  0  0  0  0  0  0  0  0  0  0
   15.3744    1.1625   23.7313 H   0  0  0  0  0  0  0  0  0  0  0  0
    3.6274    2.0126   21.6300 H   0  0  0  0  0  0  0  0  0  0  0  0
   14.1536   -0.0607   25.5113 H   0  0  0  0  0  0  0  0  0  0  0  0
   14.1141    2.3457   21.9511 H   0  0  0  0  0  0  0  0  0  0  0  0
    3.2732    2.7875   19.3199 H   0  0  0  0  0  0  0  0  0  0  0  0
    5.4878    0.4645   22.1722 H   0  0  0  0  0  0  0  0  0  0  0  0
   11.6812   -0.1044   25.5154 H   0  0  0  0  0  0  0  0  0  0  0  0
   11.6419    2.3080   21.9464 H   0  0  0  0  0  0  0  0  0  0  0  0
    4.7853    2.0674   17.4815 H   0  0  0  0  0  0  0  0  0  0  0  0
    7.5647   -2.8621   26.1053 H   0  0  0  0  0  0  0  0  0  0  0  0
   11.0144   -4.2642   23.9425 H   0  0  0  0  0  0  0  0  0  0  0  0
    7.5958   -0.7779   24.8006 H   0  0  0  0  0  0  0  0  0  0  0  0
   11.0406   -2.1848   22.6356 H   0  0  0  0  0  0  0  0  0  0  0  0
    8.7030   -3.9561   27.6574 H   0  0  0  0  0  0  0  0  0  0  0  0
    9.4460   -5.5639   27.8143 H   0  0  0  0  0  0  0  0  0  0  0  0
   10.0083   -6.8392   25.6817 H   0  0  0  0  0  0  0  0  0  0  0  0
    9.6089   -6.0802   24.1251 H   0  0  0  0  0  0  0  0  0  0  0  0
    7.0281   -5.7334   28.2231 H   0  0  0  0  0  0  0  0  0  0  0  0
    6.6541   -4.9678   26.6754 H   0  0  0  0  0  0  0  0  0  0  0  0
    7.1860   -6.2177   24.6318 H   0  0  0  0  0  0  0  0  0  0  0  0
    7.9246   -7.8119   24.8187 H   0  0  0  0  0  0  0  0  0  0  0  0
    9.6122    1.0250   24.7546 H   0  0  0  0  0  0  0  0  0  0  0  0
    9.5906    1.9837   23.2740 H   0  0  0  0  0  0  0  0  0  0  0  0
    7.1015    0.3608   17.0505 H   0  0  0  0  0  0  0  0  0  0  0  0
    8.1334   -1.7992   21.3673 H   0  0  0  0  0  0  0  0  0  0  0  0
  1  3  1  0  0  0  0
  1  4  2  0  0  0  0
  2  5  1  0  0  0  0
  2  6  2  0  0  0  0
  3  7  2  0  0  0  0
  4  8  1  0  0  0  0
  5  9  2  0  0  0  0
  6 14  1  0  0  0  0
  7 15  1  0  0  0  0
  8 15  2  0  0  0  0
  9 16  1  0  0  0  0
 10 12  2  0  0  0  0
 10 17  1  0  0  0  0
 11 13  1  0  0  0  0
 11 17  2  0  0  0  0
 12 18  1  0  0  0  0
 13 18  2  0  0  0  0
 14 16  2  0  0  0  0
 14 19  1  0  0  0  0
 15 25  1  0  0  0  0
 16 27  1  0  0  0  0
 17 28  1  0  0  0  0
 18 30  1  0  0  0  0
 19 26  2  0  0  0  0
 19 29  1  0  0  0  0
 20 29  1  0  0  0  0
 20 30  1  0  0  0  0
 20 31  2  0  0  0  0
 21 23  1  0  0  0  0
 21 28  1  0  0  0  0
 22 24  1  0  0  0  0
 22 28  1  0  0  0  0
 23 32  1  0  0  0  0
 24 32  1  0  0  0  0
 25 30  1  0  0  0  0
 26 27  1  0  0  0  0
  1 33  1  0  0  0  0
  2 34  1  0  0  0  0
  3 35  1  0  0  0  0
  4 36  1  0  0  0  0
  5 37  1  0  0  0  0
  6 38  1  0  0  0  0
  7 39  1  0  0  0  0
  8 40  1  0  0  0  0
  9 41  1  0  0  0  0
 10 42  1  0  0  0  0
 11 43  1  0  0  0  0
 12 44  1  0  0  0  0
 13 45  1  0  0  0  0
 21 46  1  0  0  0  0
 21 47  1  0  0  0  0
 22 48  1  0  0  0  0
 22 49  1  0  0  0  0
 23 50  1  0  0  0  0
 23 51  1  0  0  0  0
 24 52  1  0  0  0  0
 24 53  1  0  0  0  0
 25 54  1  0  0  0  0
 25 55  1  0  0  0  0
 27 56  1  0  0  0  0
 29 57  1  0  0  0  0
M  END
> <clash_score>
0

> <docking_score>
-7.262138366699219

> <overlap_score>
1.0113210678100586

$$$$
BENZO_78_1
  -OEChem-08232013483D

 58 62  0     0  0  0  0  0  0999 V2000
    4.2970    1.6690   20.8430 C   0  0  0  0  0  0  0  0  0  0  0  0
    4.0980    2.1130   19.5350 C   0  0  0  0  0  0  0  0  0  0  0  0
   13.6206    1.9123   22.9907 C   0  0  0  0  0  0  0  0  0  0  0  0
    5.3360    0.8000   21.1530 C   0  0  0  0  0  0  0  0  0  0  0  0
   12.2262    1.9439   22.9738 C   0  0  0  0  0  0  0  0  0  0  0  0
    4.9400    1.7060   18.5060 C   0  0  0  0  0  0  0  0  0  0  0  0
    8.3310   -2.7170   25.3430 C   0  0  0  0  0  0  0  0  0  0  0  0
   10.2570   -3.5000   24.1350 C   0  0  0  0  0  0  0  0  0  0  0  0
    8.3510   -1.5420   24.6110 C   0  0  0  0  0  0  0  0  0  0  0  0
   10.2760   -2.3270   23.4020 C   0  0  0  0  0  0  0  0  0  0  0  0
   14.2876    0.9769   23.7819 C   0  0  0  0  0  0  0  0  0  0  0  0
   12.1657    0.1048   24.5395 C   0  0  0  0  0  0  0  0  0  0  0  0
    6.1600    0.3870   20.1140 C   0  0  0  0  0  0  0  0  0  0  0  0
   11.4988    1.0401   23.7482 C   0  0  0  0  0  0  0  0  0  0  0  0
    5.9810    0.8330   18.8060 C   0  0  0  0  0  0  0  0  0  0  0  0
    9.2850   -3.7090   25.1090 C   0  0  0  0  0  0  0  0  0  0  0  0
    9.3300   -1.3350   23.6390 C   0  0  0  0  0  0  0  0  0  0  0  0
   13.5601    0.0732   24.5563 C   0  0  0  0  0  0  0  0  0  0  0  0
    7.2210   -0.4620   20.0350 C   0  0  0  0  0  0  0  0  0  0  0  0
    8.2930   -5.1714   26.8572 C   0  0  0  0  0  0  0  0  0  0  0  0
    8.9510    0.1280   21.6880 C   0  0  0  0  0  0  0  0  0  0  0  0
    8.4551   -6.5156   27.5444 C   0  0  0  0  0  0  0  0  0  0  0  0
    9.9019   -6.7444   27.9450 C   0  0  0  0  0  0  0  0  0  0  0  0
   10.8596   -6.5882   26.7680 C   0  0  0  0  0  0  0  0  0  0  0  0
   10.1895   -6.0108   25.5223 C   0  0  0  0  0  0  0  0  0  0  0  0
    9.9979    1.0755   23.7305 C   0  0  0  0  0  0  0  0  0  0  0  0
    7.6830   -0.5170   18.7600 N   0  0  0  0  0  0  0  0  0  0  0  0
    6.9440    0.2550   18.0100 N   0  0  0  0  0  0  0  0  0  0  0  0
    9.2623   -4.9266   25.8635 N   0  0  0  0  0  0  0  0  0  0  0  0
    8.0810   -0.9750   21.0820 N   0  0  0  0  0  0  0  0  0  0  0  0
    9.4200   -0.0840   22.9530 N   0  0  0  0  0  0  0  0  0  0  0  0
    7.3370   -4.4527   27.1463 O   0  0  0  0  0  0  0  0  0  0  0  0
    9.1870    1.1500   21.0630 O   0  0  0  0  0  0  0  0  0  0  0  0
   14.3836   -1.0798   25.5331 Cl  0  0  0  0  0  0  0  0  0  0  0  0
    3.6274    2.0126   21.6300 H   0  0  0  0  0  0  0  0  0  0  0  0
    3.2732    2.7875   19.3199 H   0  0  0  0  0  0  0  0  0  0  0  0
   14.1867    2.6163   22.3876 H   0  0  0  0  0  0  0  0  0  0  0  0
    5.4878    0.4645   22.1722 H   0  0  0  0  0  0  0  0  0  0  0  0
   11.7149    2.6762   22.3545 H   0  0  0  0  0  0  0  0  0  0  0  0
    4.7853    2.0674   17.4815 H   0  0  0  0  0  0  0  0  0  0  0  0
    7.5639   -2.8621   26.1045 H   0  0  0  0  0  0  0  0  0  0  0  0
   11.0141   -4.2644   23.9422 H   0  0  0  0  0  0  0  0  0  0  0  0
    7.5950   -0.7788   24.8007 H   0  0  0  0  0  0  0  0  0  0  0  0
   11.0408   -2.1861   22.6359 H   0  0  0  0  0  0  0  0  0  0  0  0
   15.3747    0.9641   23.7853 H   0  0  0  0  0  0  0  0  0  0  0  0
   11.5940   -0.5981   25.1411 H   0  0  0  0  0  0  0  0  0  0  0  0
    7.8332   -6.5283   28.4263 H   0  0  0  0  0  0  0  0  0  0  0  0
    8.1305   -7.2787   26.8530 H   0  0  0  0  0  0  0  0  0  0  0  0
   10.1875   -6.0379   28.7521 H   0  0  0  0  0  0  0  0  0  0  0  0
   10.0116   -7.7568   28.3834 H   0  0  0  0  0  0  0  0  0  0  0  0
   11.7061   -5.9337   27.0644 H   0  0  0  0  0  0  0  0  0  0  0  0
   11.3230   -7.5689   26.5243 H   0  0  0  0  0  0  0  0  0  0  0  0
   10.9445   -5.5959   24.8614 H   0  0  0  0  0  0  0  0  0  0  0  0
    9.6461   -6.7954   25.0072 H   0  0  0  0  0  0  0  0  0  0  0  0
    9.5979    1.0021   24.7477 H   0  0  0  0  0  0  0  0  0  0  0  0
    9.6320    2.0154   23.3042 H   0  0  0  0  0  0  0  0  0  0  0  0
    7.1015    0.3608   17.0505 H   0  0  0  0  0  0  0  0  0  0  0  0
    8.1334   -1.7992   21.3673 H   0  0  0  0  0  0  0  0  0  0  0  0
  1  2  1  0  0  0  0
  1  4  2  0  0  0  0
  2  6  2  0  0  0  0
  3  5  2  0  0  0  0
  3 11  1  0  0  0  0
  4 13  1  0  0  0  0
  5 14  1  0  0  0  0
  6 15  1  0  0  0  0
  7  9  2  0  0  0  0
  7 16  1  0  0  0  0
  8 10  1  0  0  0  0
  8 16  2  0  0  0  0
  9 17  1  0  0  0  0
 10 17  2  0  0  0  0
 11 18  2  0  0  0  0
 12 14  2  0  0  0  0
 12 18  1  0  0  0  0
 13 15  2  0  0  0  0
 13 19  1  0  0  0  0
 14 26  1  0  0  0  0
 15 28  1  0  0  0  0
 16 29  1  0  0  0  0
 17 31  1  0  0  0  0
 18 34  1  0  0  0  0
 19 27  2  0  0  0  0
 19 30  1  0  0  0  0
 20 22  1  0  0  0  0
 20 29  1  0  0  0  0
 20 32  2  0  0  0  0
 21 30  1  0  0  0  0
 21 31  1  0  0  0  0
 21 33  2  0  0  0  0
 22 23  1  0  0  0  0
 23 24  1  0  0  0  0
 24 25  1  0  0  0  0
 25 29  1  0  0  0  0
 26 31  1  0  0  0  0
 27 28  1  0  0  0  0
  1 35  1  0  0  0  0
  2 36  1  0  0  0  0
  3 37  1  0  0  0  0
  4 38  1  0  0  0  0
  5 39  1  0  0  0  0
  6 40  1  0  0  0  0
  7 41  1  0  0  0  0
  8 42  1  0  0  0  0
  9 43  1  0  0  0  0
 10 44  1  0  0  0  0
 11 45  1  0  0  0  0
 12 46  1  0  0  0  0
 22 47  1  0  0  0  0
 22 48  1  0  0  0  0
 23 49  1  0  0  0  0
 23 50  1  0  0  0  0
 24 51  1  0  0  0  0
 24 52  1  0  0  0  0
 25 53  1  0  0  0  0
 25 54  1  0  0  0  0
 26 55  1  0  0  0  0
 26 56  1  0  0  0  0
 28 57  1  0  0  0  0
 30 58  1  0  0  0  0
M  END
> <clash_score>
2.816420981810531

> <docking_score>
-5.0128254890441895

> <overlap_score>
1.0119659900665283

$$$$
BENZO_79_1
  -OEChem-08232013483D

 58 62  0     0  0  0  0  0  0999 V2000
    4.2970    1.6690   20.8430 C   0  0  0  0  0  0  0  0  0  0  0  0
    4.0980    2.1130   19.5350 C   0  0  0  0  0  0  0  0  0  0  0  0
    5.3360    0.8000   21.1530 C   0  0  0  0  0  0  0  0  0  0  0  0
    4.9400    1.7060   18.5060 C   0  0  0  0  0  0  0  0  0  0  0  0
    8.3310   -2.7170   25.3430 C   0  0  0  0  0  0  0  0  0  0  0  0
   10.2570   -3.5000   24.1350 C   0  0  0  0  0  0  0  0  0  0  0  0
    8.3510   -1.5420   24.6110 C   0  0  0  0  0  0  0  0  0  0  0  0
   10.2760   -2.3270   23.4020 C   0  0  0  0  0  0  0  0  0  0  0  0
   12.3692    1.7398   24.6052 C   0  0  0  0  0  0  0  0  0  0  0  0
   12.3310    0.3141   22.9317 C   0  0  0  0  0  0  0  0  0  0  0  0
    6.1600    0.3870   20.1140 C   0  0  0  0  0  0  0  0  0  0  0  0
   11.4988    1.0401   23.7482 C   0  0  0  0  0  0  0  0  0  0  0  0
    5.9810    0.8330   18.8060 C   0  0  0  0  0  0  0  0  0  0  0  0
    9.2850   -3.7090   25.1090 C   0  0  0  0  0  0  0  0  0  0  0  0
    9.3300   -1.3350   23.6390 C   0  0  0  0  0  0  0  0  0  0  0  0
    7.2210   -0.4620   20.0350 C   0  0  0  0  0  0  0  0  0  0  0  0
    8.2930   -5.1714   26.8572 C   0  0  0  0  0  0  0  0  0  0  0  0
    8.9510    0.1280   21.6880 C   0  0  0  0  0  0  0  0  0  0  0  0
    8.4551   -6.5156   27.5444 C   0  0  0  0  0  0  0  0  0  0  0  0
    9.9019   -6.7444   27.9450 C   0  0  0  0  0  0  0  0  0  0  0  0
   10.8596   -6.5882   26.7680 C   0  0  0  0  0  0  0  0  0  0  0  0
   10.1895   -6.0108   25.5223 C   0  0  0  0  0  0  0  0  0  0  0  0
   14.8213    0.0873   22.7709 C   0  0  0  0  0  0  0  0  0  0  0  0
    9.9979    1.0755   23.7305 C   0  0  0  0  0  0  0  0  0  0  0  0
   13.6558    1.4814   24.3564 N   0  0  0  0  0  0  0  0  0  0  0  0
    7.6830   -0.5170   18.7600 N   0  0  0  0  0  0  0  0  0  0  0  0
    6.9440    0.2550   18.0100 N   0  0  0  0  0  0  0  0  0  0  0  0
   13.5999    0.6112   23.3338 N   0  0  0  0  0  0  0  0  0  0  0  0
    9.2623   -4.9266   25.8635 N   0  0  0  0  0  0  0  0  0  0  0  0
    8.0810   -0.9750   21.0820 N   0  0  0  0  0  0  0  0  0  0  0  0
    9.4200   -0.0840   22.9530 N   0  0  0  0  0  0  0  0  0  0  0  0
    7.3370   -4.4527   27.1463 O   0  0  0  0  0  0  0  0  0  0  0  0
    9.1870    1.1500   21.0630 O   0  0  0  0  0  0  0  0  0  0  0  0
    3.6274    2.0126   21.6300 H   0  0  0  0  0  0  0  0  0  0  0  0
    3.2732    2.7875   19.3199 H   0  0  0  0  0  0  0  0  0  0  0  0
    5.4878    0.4645   22.1722 H   0  0  0  0  0  0  0  0  0  0  0  0
    4.7853    2.0674   17.4815 H   0  0  0  0  0  0  0  0  0  0  0  0
    7.5639   -2.8621   26.1045 H   0  0  0  0  0  0  0  0  0  0  0  0
   11.0141   -4.2644   23.9422 H   0  0  0  0  0  0  0  0  0  0  0  0
    7.5950   -0.7788   24.8007 H   0  0  0  0  0  0  0  0  0  0  0  0
   11.0408   -2.1861   22.6359 H   0  0  0  0  0  0  0  0  0  0  0  0
   12.1221    2.4270   25.4020 H   0  0  0  0  0  0  0  0  0  0  0  0
   12.1332   -0.3726   22.1198 H   0  0  0  0  0  0  0  0  0  0  0  0
    7.8332   -6.5283   28.4263 H   0  0  0  0  0  0  0  0  0  0  0  0
    8.1305   -7.2787   26.8530 H   0  0  0  0  0  0  0  0  0  0  0  0
   10.1875   -6.0379   28.7521 H   0  0  0  0  0  0  0  0  0  0  0  0
   10.0116   -7.7568   28.3834 H   0  0  0  0  0  0  0  0  0  0  0  0
   11.7061   -5.9337   27.0644 H   0  0  0  0  0  0  0  0  0  0  0  0
   11.3230   -7.5689   26.5243 H   0  0  0  0  0  0  0  0  0  0  0  0
   10.9445   -5.5959   24.8614 H   0  0  0  0  0  0  0  0  0  0  0  0
    9.6461   -6.7954   25.0072 H   0  0  0  0  0  0  0  0  0  0  0  0
   15.1352    0.7559   21.9650 H   0  0  0  0  0  0  0  0  0  0  0  0
   15.5889    0.0387   23.5482 H   0  0  0  0  0  0  0  0  0  0  0  0
   14.6385   -0.9194   22.3847 H   0  0  0  0  0  0  0  0  0  0  0  0
    9.5979    1.0021   24.7477 H   0  0  0  0  0  0  0  0  0  0  0  0
    9.6320    2.0154   23.3042 H   0  0  0  0  0  0  0  0  0  0  0  0
    7.1015    0.3608   17.0505 H   0  0  0  0  0  0  0  0  0  0  0  0
    8.1334   -1.7992   21.3673 H   0  0  0  0  0  0  0  0  0  0  0  0
  1  2  1  0  0  0  0
  1  3  2  0  0  0  0
  2  4  2  0  0  0  0
  3 11  1  0  0  0  0
  4 13  1  0  0  0  0
  5  7  2  0  0  0  0
  5 14  1  0  0  0  0
  6  8  1  0  0  0  0
  6 14  2  0  0  0  0
  7 15  1  0  0  0  0
  8 15  2  0  0  0  0
  9 12  1  0  0  0  0
  9 25  2  0  0  0  0
 10 12  2  0  0  0  0
 10 28  1  0  0  0  0
 11 13  2  0  0  0  0
 11 16  1  0  0  0  0
 12 24  1  0  0  0  0
 13 27  1  0  0  0  0
 14 29  1  0  0  0  0
 15 31  1  0  0  0  0
 16 26  2  0  0  0  0
 16 30  1  0  0  0  0
 17 19  1  0  0  0  0
 17 29  1  0  0  0  0
 17 32  2  0  0  0  0
 18 30  1  0  0  0  0
 18 31  1  0  0  0  0
 18 33  2  0  0  0  0
 19 20  1  0  0  0  0
 20 21  1  0  0  0  0
 21 22  1  0  0  0  0
 22 29  1  0  0  0  0
 23 28  1  0  0  0  0
 24 31  1  0  0  0  0
 25 28  1  0  0  0  0
 26 27  1  0  0  0  0
  1 34  1  0  0  0  0
  2 35  1  0  0  0  0
  3 36  1  0  0  0  0
  4 37  1  0  0  0  0
  5 38  1  0  0  0  0
  6 39  1  0  0  0  0
  7 40  1  0  0  0  0
  8 41  1  0  0  0  0
  9 42  1  0  0  0  0
 10 43  1  0  0  0  0
 19 44  1  0  0  0  0
 19 45  1  0  0  0  0
 20 46  1  0  0  0  0
 20 47  1  0  0  0  0
 21 48  1  0  0  0  0
 21 49  1  0  0  0  0
 22 50  1  0  0  0  0
 22 51  1  0  0  0  0
 23 52  1  0  0  0  0
 23 53  1  0  0  0  0
 23 54  1  0  0  0  0
 24 55  1  0  0  0  0
 24 56  1  0  0  0  0
 27 57  1  0  0  0  0
 30 58  1  0  0  0  0
M  END
> <clash_score>
2.0596949410317893

> <docking_score>
-6.000894546508789

> <overlap_score>
0.995715856552124

$$$$
BENZO_80_1
  -OEChem-08232013483D

 54 58  0     0  0  0  0  0  0999 V2000
    4.2970    1.6690   20.8430 C   0  0  0  0  0  0  0  0  0  0  0  0
    4.0980    2.1130   19.5350 C   0  0  0  0  0  0  0  0  0  0  0  0
    5.3360    0.8000   21.1530 C   0  0  0  0  0  0  0  0  0  0  0  0
    4.9400    1.7060   18.5060 C   0  0  0  0  0  0  0  0  0  0  0  0
    8.3310   -2.7170   25.3430 C   0  0  0  0  0  0  0  0  0  0  0  0
   10.2570   -3.5000   24.1350 C   0  0  0  0  0  0  0  0  0  0  0  0
    8.3510   -1.5420   24.6110 C   0  0  0  0  0  0  0  0  0  0  0  0
   10.2760   -2.3270   23.4020 C   0  0  0  0  0  0  0  0  0  0  0  0
   12.2931    1.1632   22.5497 C   0  0  0  0  0  0  0  0  0  0  0  0
   13.6413    1.1717   22.8322 C   0  0  0  0  0  0  0  0  0  0  0  0
   12.2708    1.0613   24.8716 C   0  0  0  0  0  0  0  0  0  0  0  0
    6.1600    0.3870   20.1140 C   0  0  0  0  0  0  0  0  0  0  0  0
   11.4991    1.0994   23.7310 C   0  0  0  0  0  0  0  0  0  0  0  0
    5.9810    0.8330   18.8060 C   0  0  0  0  0  0  0  0  0  0  0  0
    9.2850   -3.7090   25.1090 C   0  0  0  0  0  0  0  0  0  0  0  0
    9.3300   -1.3350   23.6390 C   0  0  0  0  0  0  0  0  0  0  0  0
    7.2210   -0.4620   20.0350 C   0  0  0  0  0  0  0  0  0  0  0  0
    8.9510    0.1280   21.6880 C   0  0  0  0  0  0  0  0  0  0  0  0
    8.7666   -4.9523   27.2147 C   0  0  0  0  0  0  0  0  0  0  0  0
    9.3034   -6.1866   25.1651 C   0  0  0  0  0  0  0  0  0  0  0  0
    7.3827   -5.5925   27.1999 C   0  0  0  0  0  0  0  0  0  0  0  0
    7.9024   -6.7967   25.2263 C   0  0  0  0  0  0  0  0  0  0  0  0
    9.9979    1.0755   23.7305 C   0  0  0  0  0  0  0  0  0  0  0  0
    7.6830   -0.5170   18.7600 N   0  0  0  0  0  0  0  0  0  0  0  0
    6.9440    0.2550   18.0100 N   0  0  0  0  0  0  0  0  0  0  0  0
    9.2640   -4.8844   25.8389 N   0  0  0  0  0  0  0  0  0  0  0  0
    8.0810   -0.9750   21.0820 N   0  0  0  0  0  0  0  0  0  0  0  0
    9.4200   -0.0840   22.9530 N   0  0  0  0  0  0  0  0  0  0  0  0
    9.1870    1.1500   21.0630 O   0  0  0  0  0  0  0  0  0  0  0  0
    7.4483   -6.8833   26.5817 O   0  0  0  0  0  0  0  0  0  0  0  0
   13.9454    1.1028   24.5160 S   0  0  0  0  0  0  0  0  0  0  0  0
    3.6274    2.0126   21.6300 H   0  0  0  0  0  0  0  0  0  0  0  0
    3.2732    2.7875   19.3199 H   0  0  0  0  0  0  0  0  0  0  0  0
    5.4878    0.4645   22.1722 H   0  0  0  0  0  0  0  0  0  0  0  0
    4.7853    2.0674   17.4815 H   0  0  0  0  0  0  0  0  0  0  0  0
    7.5647   -2.8621   26.1053 H   0  0  0  0  0  0  0  0  0  0  0  0
   11.0144   -4.2642   23.9425 H   0  0  0  0  0  0  0  0  0  0  0  0
    7.5958   -0.7779   24.8006 H   0  0  0  0  0  0  0  0  0  0  0  0
   11.0406   -2.1848   22.6356 H   0  0  0  0  0  0  0  0  0  0  0  0
   11.8995    1.2006   21.5417 H   0  0  0  0  0  0  0  0  0  0  0  0
   14.4623    1.2143   22.1305 H   0  0  0  0  0  0  0  0  0  0  0  0
   11.9355    1.0099   25.8983 H   0  0  0  0  0  0  0  0  0  0  0  0
    8.7030   -3.9561   27.6574 H   0  0  0  0  0  0  0  0  0  0  0  0
    9.4460   -5.5639   27.8143 H   0  0  0  0  0  0  0  0  0  0  0  0
   10.0083   -6.8392   25.6817 H   0  0  0  0  0  0  0  0  0  0  0  0
    9.6089   -6.0802   24.1251 H   0  0  0  0  0  0  0  0  0  0  0  0
    7.0281   -5.7334   28.2231 H   0  0  0  0  0  0  0  0  0  0  0  0
    6.6541   -4.9678   26.6754 H   0  0  0  0  0  0  0  0  0  0  0  0
    7.1860   -6.2177   24.6318 H   0  0  0  0  0  0  0  0  0  0  0  0
    7.9246   -7.8119   24.8187 H   0  0  0  0  0  0  0  0  0  0  0  0
    9.6122    1.0250   24.7546 H   0  0  0  0  0  0  0  0  0  0  0  0
    9.5906    1.9837   23.2740 H   0  0  0  0  0  0  0  0  0  0  0  0
    7.1015    0.3608   17.0505 H   0  0  0  0  0  0  0  0  0  0  0  0
    8.1334   -1.7992   21.3673 H   0  0  0  0  0  0  0  0  0  0  0  0
  1  2  1  0  0  0  0
  1  3  2  0  0  0  0
  2  4  2  0  0  0  0
  3 12  1  0  0  0  0
  4 14  1  0  0  0  0
  5  7  2  0  0  0  0
  5 15  1  0  0  0  0
  6  8  1  0  0  0  0
  6 15  2  0  0  0  0
  7 16  1  0  0  0  0
  8 16  2  0  0  0  0
  9 10  2  0  0  0  0
  9 13  1  0  0  0  0
 10 31  1  0  0  0  0
 11 13  2  0  0  0  0
 11 31  1  0  0  0  0
 12 14  2  0  0  0  0
 12 17  1  0  0  0  0
 13 23  1  0  0  0  0
 14 25  1  0  0  0  0
 15 26  1  0  0  0  0
 16 28  1  0  0  0  0
 17 24  2  0  0  0  0
 17 27  1  0  0  0  0
 18 27  1  0  0  0  0
 18 28  1  0  0  0  0
 18 29  2  0  0  0  0
 19 21  1  0  0  0  0
 19 26  1  0  0  0  0
 20 22  1  0  0  0  0
 20 26  1  0  0  0  0
 21 30  1  0  0  0  0
 22 30  1  0  0  0  0
 23 28  1  0  0  0  0
 24 25  1  0  0  0  0
  1 32  1  0  0  0  0
  2 33  1  0  0  0  0
  3 34  1  0  0  0  0
  4 35  1  0  0  0  0
  5 36  1  0  0  0  0
  6 37  1  0  0  0  0
  7 38  1  0  0  0  0
  8 39  1  0  0  0  0
  9 40  1  0  0  0  0
 10 41  1  0  0  0  0
 11 42  1  0  0  0  0
 19 43  1  0  0  0  0
 19 44  1  0  0  0  0
 20 45  1  0  0  0  0
 20 46  1  0  0  0  0
 21 47  1  0  0  0  0
 21 48  1  0  0  0  0
 22 49  1  0  0  0  0
 22 50  1  0  0  0  0
 23 51  1  0  0  0  0
 23 52  1  0  0  0  0
 25 53  1  0  0  0  0
 27 54  1  0  0  0  0
M  END
> <clash_score>
0

> <docking_score>
-7.642293930053711

> <overlap_score>
0.9885499477386475

$$$$
BENZO_82_1
  -OEChem-08232013483D

 57 61  0     0  0  0  0  0  0999 V2000
    4.2970    1.6690   20.8430 C   0  0  0  0  0  0  0  0  0  0  0  0
    4.0980    2.1130   19.5350 C   0  0  0  0  0  0  0  0  0  0  0  0
   13.5765    2.0244   22.9154 C   0  0  0  0  0  0  0  0  0  0  0  0
    5.3360    0.8000   21.1530 C   0  0  0  0  0  0  0  0  0  0  0  0
   12.1819    2.0009   22.9146 C   0  0  0  0  0  0  0  0  0  0  0  0
    4.9400    1.7060   18.5060 C   0  0  0  0  0  0  0  0  0  0  0  0
    8.3310   -2.7170   25.3430 C   0  0  0  0  0  0  0  0  0  0  0  0
   10.2570   -3.5000   24.1350 C   0  0  0  0  0  0  0  0  0  0  0  0
    8.3510   -1.5420   24.6110 C   0  0  0  0  0  0  0  0  0  0  0  0
   10.2760   -2.3270   23.4020 C   0  0  0  0  0  0  0  0  0  0  0  0
   14.2884    1.1463   23.7326 C   0  0  0  0  0  0  0  0  0  0  0  0
   12.2109    0.2212   24.5483 C   0  0  0  0  0  0  0  0  0  0  0  0
    6.1600    0.3870   20.1140 C   0  0  0  0  0  0  0  0  0  0  0  0
   11.4991    1.0994   23.7310 C   0  0  0  0  0  0  0  0  0  0  0  0
    5.9810    0.8330   18.8060 C   0  0  0  0  0  0  0  0  0  0  0  0
    9.2850   -3.7090   25.1090 C   0  0  0  0  0  0  0  0  0  0  0  0
    9.3300   -1.3350   23.6390 C   0  0  0  0  0  0  0  0  0  0  0  0
   13.6056    0.2447   24.5490 C   0  0  0  0  0  0  0  0  0  0  0  0
    7.2210   -0.4620   20.0350 C   0  0  0  0  0  0  0  0  0  0  0  0
    8.9510    0.1280   21.6880 C   0  0  0  0  0  0  0  0  0  0  0  0
    8.7666   -4.9523   27.2147 C   0  0  0  0  0  0  0  0  0  0  0  0
    9.3034   -6.1866   25.1651 C   0  0  0  0  0  0  0  0  0  0  0  0
    7.3827   -5.5925   27.1999 C   0  0  0  0  0  0  0  0  0  0  0  0
    7.9024   -6.7967   25.2263 C   0  0  0  0  0  0  0  0  0  0  0  0
    9.9979    1.0755   23.7305 C   0  0  0  0  0  0  0  0  0  0  0  0
    7.6830   -0.5170   18.7600 N   0  0  0  0  0  0  0  0  0  0  0  0
    6.9440    0.2550   18.0100 N   0  0  0  0  0  0  0  0  0  0  0  0
    9.2640   -4.8844   25.8389 N   0  0  0  0  0  0  0  0  0  0  0  0
    8.0810   -0.9750   21.0820 N   0  0  0  0  0  0  0  0  0  0  0  0
    9.4200   -0.0840   22.9530 N   0  0  0  0  0  0  0  0  0  0  0  0
    9.1870    1.1500   21.0630 O   0  0  0  0  0  0  0  0  0  0  0  0
    7.4483   -6.8833   26.5817 O   0  0  0  0  0  0  0  0  0  0  0  0
   14.4844   -0.8377   25.5579 Cl  0  0  0  0  0  0  0  0  0  0  0  0
    3.6274    2.0126   21.6300 H   0  0  0  0  0  0  0  0  0  0  0  0
    3.2732    2.7875   19.3199 H   0  0  0  0  0  0  0  0  0  0  0  0
   14.1079    2.7267   22.2796 H   0  0  0  0  0  0  0  0  0  0  0  0
    5.4878    0.4645   22.1722 H   0  0  0  0  0  0  0  0  0  0  0  0
   11.6354    2.6889   22.2747 H   0  0  0  0  0  0  0  0  0  0  0  0
    4.7853    2.0674   17.4815 H   0  0  0  0  0  0  0  0  0  0  0  0
    7.5647   -2.8621   26.1053 H   0  0  0  0  0  0  0  0  0  0  0  0
   11.0144   -4.2642   23.9425 H   0  0  0  0  0  0  0  0  0  0  0  0
    7.5958   -0.7779   24.8006 H   0  0  0  0  0  0  0  0  0  0  0  0
   11.0406   -2.1848   22.6356 H   0  0  0  0  0  0  0  0  0  0  0  0
   15.3752    1.1760   23.7232 H   0  0  0  0  0  0  0  0  0  0  0  0
   11.6739   -0.4802   25.1826 H   0  0  0  0  0  0  0  0  0  0  0  0
    8.7030   -3.9561   27.6574 H   0  0  0  0  0  0  0  0  0  0  0  0
    9.4460   -5.5639   27.8143 H   0  0  0  0  0  0  0  0  0  0  0  0
   10.0083   -6.8392   25.6817 H   0  0  0  0  0  0  0  0  0  0  0  0
    9.6089   -6.0802   24.1251 H   0  0  0  0  0  0  0  0  0  0  0  0
    7.0281   -5.7334   28.2231 H   0  0  0  0  0  0  0  0  0  0  0  0
    6.6541   -4.9678   26.6754 H   0  0  0  0  0  0  0  0  0  0  0  0
    7.1860   -6.2177   24.6318 H   0  0  0  0  0  0  0  0  0  0  0  0
    7.9246   -7.8119   24.8187 H   0  0  0  0  0  0  0  0  0  0  0  0
    9.6122    1.0250   24.7546 H   0  0  0  0  0  0  0  0  0  0  0  0
    9.5906    1.9837   23.2740 H   0  0  0  0  0  0  0  0  0  0  0  0
    7.1015    0.3608   17.0505 H   0  0  0  0  0  0  0  0  0  0  0  0
    8.1334   -1.7992   21.3673 H   0  0  0  0  0  0  0  0  0  0  0  0
  1  2  1  0  0  0  0
  1  4  2  0  0  0  0
  2  6  2  0  0  0  0
  3  5  2  0  0  0  0
  3 11  1  0  0  0  0
  4 13  1  0  0  0  0
  5 14  1  0  0  0  0
  6 15  1  0  0  0  0
  7  9  2  0  0  0  0
  7 16  1  0  0  0  0
  8 10  1  0  0  0  0
  8 16  2  0  0  0  0
  9 17  1  0  0  0  0
 10 17  2  0  0  0  0
 11 18  2  0  0  0  0
 12 14  2  0  0  0  0
 12 18  1  0  0  0  0
 13 15  2  0  0  0  0
 13 19  1  0  0  0  0
 14 25  1  0  0  0  0
 15 27  1  0  0  0  0
 16 28  1  0  0  0  0
 17 30  1  0  0  0  0
 18 33  1  0  0  0  0
 19 26  2  0  0  0  0
 19 29  1  0  0  0  0
 20 29  1  0  0  0  0
 20 30  1  0  0  0  0
 20 31  2  0  0  0  0
 21 23  1  0  0  0  0
 21 28  1  0  0  0  0
 22 24  1  0  0  0  0
 22 28  1  0  0  0  0
 23 32  1  0  0  0  0
 24 32  1  0  0  0  0
 25 30  1  0  0  0  0
 26 27  1  0  0  0  0
  1 34  1  0  0  0  0
  2 35  1  0  0  0  0
  3 36  1  0  0  0  0
  4 37  1  0  0  0  0
  5 38  1  0  0  0  0
  6 39  1  0  0  0  0
  7 40  1  0  0  0  0
  8 41  1  0  0  0  0
  9 42  1  0  0  0  0
 10 43  1  0  0  0  0
 11 44  1  0  0  0  0
 12 45  1  0  0  0  0
 21 46  1  0  0  0  0
 21 47  1  0  0  0  0
 22 48  1  0  0  0  0
 22 49  1  0  0  0  0
 23 50  1  0  0  0  0
 23 51  1  0  0  0  0
 24 52  1  0  0  0  0
 24 53  1  0  0  0  0
 25 54  1  0  0  0  0
 25 55  1  0  0  0  0
 27 56  1  0  0  0  0
 29 57  1  0  0  0  0
M  END
> <clash_score>
0.6893493578249971

> <docking_score>
-6.287566184997559

> <overlap_score>
1.013511061668396

$$$$
BENZO_83_1
  -OEChem-08232013483D

 57 61  0     0  0  0  0  0  0999 V2000
    4.2970    1.6690   20.8430 C   0  0  0  0  0  0  0  0  0  0  0  0
    4.0980    2.1130   19.5350 C   0  0  0  0  0  0  0  0  0  0  0  0
    5.3360    0.8000   21.1530 C   0  0  0  0  0  0  0  0  0  0  0  0
    4.9400    1.7060   18.5060 C   0  0  0  0  0  0  0  0  0  0  0  0
    8.3310   -2.7170   25.3430 C   0  0  0  0  0  0  0  0  0  0  0  0
   10.2570   -3.5000   24.1350 C   0  0  0  0  0  0  0  0  0  0  0  0
    8.3510   -1.5420   24.6110 C   0  0  0  0  0  0  0  0  0  0  0  0
   10.2760   -2.3270   23.4020 C   0  0  0  0  0  0  0  0  0  0  0  0
   12.3632    1.0650   24.8419 C   0  0  0  0  0  0  0  0  0  0  0  0
   12.3380    1.1570   22.6451 C   0  0  0  0  0  0  0  0  0  0  0  0
    6.1600    0.3870   20.1140 C   0  0  0  0  0  0  0  0  0  0  0  0
   11.4991    1.0994   23.7310 C   0  0  0  0  0  0  0  0  0  0  0  0
    5.9810    0.8330   18.8060 C   0  0  0  0  0  0  0  0  0  0  0  0
    9.2850   -3.7090   25.1090 C   0  0  0  0  0  0  0  0  0  0  0  0
    9.3300   -1.3350   23.6390 C   0  0  0  0  0  0  0  0  0  0  0  0
    7.2210   -0.4620   20.0350 C   0  0  0  0  0  0  0  0  0  0  0  0
    8.9510    0.1280   21.6880 C   0  0  0  0  0  0  0  0  0  0  0  0
    8.7666   -4.9523   27.2147 C   0  0  0  0  0  0  0  0  0  0  0  0
    9.3034   -6.1866   25.1651 C   0  0  0  0  0  0  0  0  0  0  0  0
    7.3827   -5.5925   27.1999 C   0  0  0  0  0  0  0  0  0  0  0  0
    7.9024   -6.7967   25.2263 C   0  0  0  0  0  0  0  0  0  0  0  0
   14.8306    1.2028   22.3921 C   0  0  0  0  0  0  0  0  0  0  0  0
    9.9979    1.0755   23.7305 C   0  0  0  0  0  0  0  0  0  0  0  0
   13.6522    1.0979   24.4936 N   0  0  0  0  0  0  0  0  0  0  0  0
    7.6830   -0.5170   18.7600 N   0  0  0  0  0  0  0  0  0  0  0  0
    6.9440    0.2550   18.0100 N   0  0  0  0  0  0  0  0  0  0  0  0
   13.6043    1.1535   23.1517 N   0  0  0  0  0  0  0  0  0  0  0  0
    9.2640   -4.8844   25.8389 N   0  0  0  0  0  0  0  0  0  0  0  0
    8.0810   -0.9750   21.0820 N   0  0  0  0  0  0  0  0  0  0  0  0
    9.4200   -0.0840   22.9530 N   0  0  0  0  0  0  0  0  0  0  0  0
    9.1870    1.1500   21.0630 O   0  0  0  0  0  0  0  0  0  0  0  0
    7.4483   -6.8833   26.5817 O   0  0  0  0  0  0  0  0  0  0  0  0
    3.6274    2.0126   21.6300 H   0  0  0  0  0  0  0  0  0  0  0  0
    3.2732    2.7875   19.3199 H   0  0  0  0  0  0  0  0  0  0  0  0
    5.4878    0.4645   22.1722 H   0  0  0  0  0  0  0  0  0  0  0  0
    4.7853    2.0674   17.4815 H   0  0  0  0  0  0  0  0  0  0  0  0
    7.5647   -2.8621   26.1053 H   0  0  0  0  0  0  0  0  0  0  0  0
   11.0144   -4.2642   23.9425 H   0  0  0  0  0  0  0  0  0  0  0  0
    7.5958   -0.7779   24.8006 H   0  0  0  0  0  0  0  0  0  0  0  0
   11.0406   -2.1848   22.6356 H   0  0  0  0  0  0  0  0  0  0  0  0
   12.1097    1.0164   25.8914 H   0  0  0  0  0  0  0  0  0  0  0  0
   12.1466    1.1979   21.5813 H   0  0  0  0  0  0  0  0  0  0  0  0
    8.7030   -3.9561   27.6574 H   0  0  0  0  0  0  0  0  0  0  0  0
    9.4460   -5.5639   27.8143 H   0  0  0  0  0  0  0  0  0  0  0  0
   10.0083   -6.8392   25.6817 H   0  0  0  0  0  0  0  0  0  0  0  0
    9.6089   -6.0802   24.1251 H   0  0  0  0  0  0  0  0  0  0  0  0
    7.0281   -5.7334   28.2231 H   0  0  0  0  0  0  0  0  0  0  0  0
    6.6541   -4.9678   26.6754 H   0  0  0  0  0  0  0  0  0  0  0  0
    7.1860   -6.2177   24.6318 H   0  0  0  0  0  0  0  0  0  0  0  0
    7.9246   -7.8119   24.8187 H   0  0  0  0  0  0  0  0  0  0  0  0
   15.1025    2.2531   22.2584 H   0  0  0  0  0  0  0  0  0  0  0  0
   15.6167    0.6704   22.9348 H   0  0  0  0  0  0  0  0  0  0  0  0
   14.6750    0.7206   21.4230 H   0  0  0  0  0  0  0  0  0  0  0  0
    9.6122    1.0250   24.7546 H   0  0  0  0  0  0  0  0  0  0  0  0
    9.5906    1.9837   23.2740 H   0  0  0  0  0  0  0  0  0  0  0  0
    7.1015    0.3608   17.0505 H   0  0  0  0  0  0  0  0  0  0  0  0
    8.1334   -1.7992   21.3673 H   0  0  0  0  0  0  0  0  0  0  0  0
  1  2  1  0  0  0  0
  1  3  2  0  0  0  0
  2  4  2  0  0  0  0
  3 11  1  0  0  0  0
  4 13  1  0  0  0  0
  5  7  2  0  0  0  0
  5 14  1  0  0  0  0
  6  8  1  0  0  0  0
  6 14  2  0  0  0  0
  7 15  1  0  0  0  0
  8 15  2  0  0  0  0
  9 12  1  0  0  0  0
  9 24  2  0  0  0  0
 10 12  2  0  0  0  0
 10 27  1  0  0  0  0
 11 13  2  0  0  0  0
 11 16  1  0  0  0  0
 12 23  1  0  0  0  0
 13 26  1  0  0  0  0
 14 28  1  0  0  0  0
 15 30  1  0  0  0  0
 16 25  2  0  0  0  0
 16 29  1  0  0  0  0
 17 29  1  0  0  0  0
 17 30  1  0  0  0  0
 17 31  2  0  0  0  0
 18 20  1  0  0  0  0
 18 28  1  0  0  0  0
 19 21  1  0  0  0  0
 19 28  1  0  0  0  0
 20 32  1  0  0  0  0
 21 32  1  0  0  0  0
 22 27  1  0  0  0  0
 23 30  1  0  0  0  0
 24 27  1  0  0  0  0
 25 26  1  0  0  0  0
  1 33  1  0  0  0  0
  2 34  1  0  0  0  0
  3 35  1  0  0  0  0
  4 36  1  0  0  0  0
  5 37  1  0  0  0  0
  6 38  1  0  0  0  0
  7 39  1  0  0  0  0
  8 40  1  0  0  0  0
  9 41  1  0  0  0  0
 10 42  1  0  0  0  0
 18 43  1  0  0  0  0
 18 44  1  0  0  0  0
 19 45  1  0  0  0  0
 19 46  1  0  0  0  0
 20 47  1  0  0  0  0
 20 48  1  0  0  0  0
 21 49  1  0  0  0  0
 21 50  1  0  0  0  0
 22 51  1  0  0  0  0
 22 52  1  0  0  0  0
 22 53  1  0  0  0  0
 23 54  1  0  0  0  0
 23 55  1  0  0  0  0
 26 56  1  0  0  0  0
 29 57  1  0  0  0  0
M  END
> <clash_score>
0

> <docking_score>
-7.1766204833984375

> <overlap_score>
1.0047787427902222

$$$$
BENZO_84_1
  -OEChem-08232013483D

 48 51  0     0  0  0  0  0  0999 V2000
    8.3510   -1.5420   24.6110 C   0  0  0  0  0  0  0  0  0  0  0  0
   10.2760   -2.3270   23.4020 C   0  0  0  0  0  0  0  0  0  0  0  0
    8.3310   -2.7170   25.3430 C   0  0  0  0  0  0  0  0  0  0  0  0
   10.2570   -3.5000   24.1350 C   0  0  0  0  0  0  0  0  0  0  0  0
   12.3038    1.1187   22.5862 C   0  0  0  0  0  0  0  0  0  0  0  0
   13.6496    1.0853   22.8779 C   0  0  0  0  0  0  0  0  0  0  0  0
   12.2616    0.9472   24.9038 C   0  0  0  0  0  0  0  0  0  0  0  0
   11.4996    1.0388   23.7597 C   0  0  0  0  0  0  0  0  0  0  0  0
    9.3300   -1.3350   23.6390 C   0  0  0  0  0  0  0  0  0  0  0  0
    9.2850   -3.7090   25.1090 C   0  0  0  0  0  0  0  0  0  0  0  0
    6.1600    0.3870   20.1140 C   0  0  0  0  0  0  0  0  0  0  0  0
    7.2210   -0.4620   20.0350 C   0  0  0  0  0  0  0  0  0  0  0  0
    5.3360    0.8000   21.1530 C   0  0  0  0  0  0  0  0  0  0  0  0
    4.2970    1.6690   20.8430 C   0  0  0  0  0  0  0  0  0  0  0  0
    4.0980    2.1130   19.5350 C   0  0  0  0  0  0  0  0  0  0  0  0
    4.9400    1.7060   18.5060 C   0  0  0  0  0  0  0  0  0  0  0  0
    8.9510    0.1280   21.6880 C   0  0  0  0  0  0  0  0  0  0  0  0
    8.2494   -5.1168   26.8639 C   0  0  0  0  0  0  0  0  0  0  0  0
   10.2420   -5.9414   25.5999 C   0  0  0  0  0  0  0  0  0  0  0  0
    9.9983    1.0521   23.7484 C   0  0  0  0  0  0  0  0  0  0  0  0
    7.6830   -0.5170   18.7600 N   0  0  0  0  0  0  0  0  0  0  0  0
    6.9440    0.2550   18.0100 N   0  0  0  0  0  0  0  0  0  0  0  0
    5.9810    0.8330   18.8060 N   0  0  0  0  0  0  0  0  0  0  0  0
    8.0810   -0.9750   21.0820 N   0  0  0  0  0  0  0  0  0  0  0  0
    9.4200   -0.0840   22.9530 N   0  0  0  0  0  0  0  0  0  0  0  0
    9.2624   -4.9028   25.8498 N   0  0  0  0  0  0  0  0  0  0  0  0
    9.1870    1.1500   21.0630 O   0  0  0  0  0  0  0  0  0  0  0  0
   13.9393    0.9580   24.5608 S   0  0  0  0  0  0  0  0  0  0  0  0
    7.5947   -0.7787   24.7997 H   0  0  0  0  0  0  0  0  0  0  0  0
   11.0404   -2.1861   22.6352 H   0  0  0  0  0  0  0  0  0  0  0  0
    7.5641   -2.8632   26.1047 H   0  0  0  0  0  0  0  0  0  0  0  0
   11.0135   -4.2647   23.9425 H   0  0  0  0  0  0  0  0  0  0  0  0
   11.9187    1.1964   21.5772 H   0  0  0  0  0  0  0  0  0  0  0  0
   14.4766    1.1289   22.1833 H   0  0  0  0  0  0  0  0  0  0  0  0
   11.9176    0.8730   25.9261 H   0  0  0  0  0  0  0  0  0  0  0  0
    5.4735    0.4758   22.1644 H   0  0  0  0  0  0  0  0  0  0  0  0
    3.6415    1.9967   21.6408 H   0  0  0  0  0  0  0  0  0  0  0  0
    3.2720    2.7926   19.2921 H   0  0  0  0  0  0  0  0  0  0  0  0
    4.8119    2.0418   17.5005 H   0  0  0  0  0  0  0  0  0  0  0  0
    8.3978   -6.1026   27.3289 H   0  0  0  0  0  0  0  0  0  0  0  0
    8.3286   -4.3336   27.6322 H   0  0  0  0  0  0  0  0  0  0  0  0
    7.2526   -5.0764   26.4005 H   0  0  0  0  0  0  0  0  0  0  0  0
   10.0582   -6.7898   26.2756 H   0  0  0  0  0  0  0  0  0  0  0  0
   10.1598   -6.2795   24.5564 H   0  0  0  0  0  0  0  0  0  0  0  0
   11.2519   -5.5433   25.7778 H   0  0  0  0  0  0  0  0  0  0  0  0
    9.6039    0.9802   24.7679 H   0  0  0  0  0  0  0  0  0  0  0  0
    9.6168    1.9835   23.3170 H   0  0  0  0  0  0  0  0  0  0  0  0
    8.1135   -1.8119   21.3500 H   0  0  0  0  0  0  0  0  0  0  0  0
  1  3  2  0  0  0  0
  1  9  1  0  0  0  0
  2  4  1  0  0  0  0
  2  9  2  0  0  0  0
  3 10  1  0  0  0  0
  4 10  2  0  0  0  0
  5  6  2  0  0  0  0
  5  8  1  0  0  0  0
  6 28  1  0  0  0  0
  7  8  2  0  0  0  0
  7 28  1  0  0  0  0
  8 20  1  0  0  0  0
  9 25  1  0  0  0  0
 10 26  1  0  0  0  0
 11 12  2  0  0  0  0
 11 13  1  0  0  0  0
 11 23  1  0  0  0  0
 12 21  1  0  0  0  0
 12 24  1  0  0  0  0
 13 14  2  0  0  0  0
 14 15  1  0  0  0  0
 15 16  2  0  0  0  0
 16 23  1  0  0  0  0
 17 24  1  0  0  0  0
 17 25  1  0  0  0  0
 17 27  2  0  0  0  0
 18 26  1  0  0  0  0
 19 26  1  0  0  0  0
 20 25  1  0  0  0  0
 21 22  2  0  0  0  0
 22 23  1  0  0  0  0
  1 29  1  0  0  0  0
  2 30  1  0  0  0  0
  3 31  1  0  0  0  0
  4 32  1  0  0  0  0
  5 33  1  0  0  0  0
  6 34  1  0  0  0  0
  7 35  1  0  0  0  0
 13 36  1  0  0  0  0
 14 37  1  0  0  0  0
 15 38  1  0  0  0  0
 16 39  1  0  0  0  0
 18 40  1  0  0  0  0
 18 41  1  0  0  0  0
 18 42  1  0  0  0  0
 19 43  1  0  0  0  0
 19 44  1  0  0  0  0
 19 45  1  0  0  0  0
 20 46  1  0  0  0  0
 20 47  1  0  0  0  0
 24 48  1  0  0  0  0
M  END
> <clash_score>
0

> <docking_score>
-9.933390617370605

> <overlap_score>
0.9736989140510559

$$$$
BENZO_85_1
  -OEChem-08232013483D

 51 54  0     0  0  0  0  0  0999 V2000
   14.2892    1.0145   23.7793 C   0  0  0  0  0  0  0  0  0  0  0  0
   13.5789    0.3324   24.7671 C   0  0  0  0  0  0  0  0  0  0  0  0
   13.6048    1.7088   22.7817 C   0  0  0  0  0  0  0  0  0  0  0  0
   12.1841    0.3445   24.7573 C   0  0  0  0  0  0  0  0  0  0  0  0
   12.2100    1.7210   22.7719 C   0  0  0  0  0  0  0  0  0  0  0  0
    8.3510   -1.5420   24.6110 C   0  0  0  0  0  0  0  0  0  0  0  0
   10.2760   -2.3270   23.4020 C   0  0  0  0  0  0  0  0  0  0  0  0
    8.3310   -2.7170   25.3430 C   0  0  0  0  0  0  0  0  0  0  0  0
   10.2570   -3.5000   24.1350 C   0  0  0  0  0  0  0  0  0  0  0  0
   11.4996    1.0388   23.7597 C   0  0  0  0  0  0  0  0  0  0  0  0
    9.3300   -1.3350   23.6390 C   0  0  0  0  0  0  0  0  0  0  0  0
    9.2850   -3.7090   25.1090 C   0  0  0  0  0  0  0  0  0  0  0  0
    6.1600    0.3870   20.1140 C   0  0  0  0  0  0  0  0  0  0  0  0
    7.2210   -0.4620   20.0350 C   0  0  0  0  0  0  0  0  0  0  0  0
    5.3360    0.8000   21.1530 C   0  0  0  0  0  0  0  0  0  0  0  0
    4.2970    1.6690   20.8430 C   0  0  0  0  0  0  0  0  0  0  0  0
    4.0980    2.1130   19.5350 C   0  0  0  0  0  0  0  0  0  0  0  0
    4.9400    1.7060   18.5060 C   0  0  0  0  0  0  0  0  0  0  0  0
    8.9510    0.1280   21.6880 C   0  0  0  0  0  0  0  0  0  0  0  0
    8.2494   -5.1168   26.8639 C   0  0  0  0  0  0  0  0  0  0  0  0
   10.2420   -5.9414   25.5999 C   0  0  0  0  0  0  0  0  0  0  0  0
    9.9983    1.0521   23.7484 C   0  0  0  0  0  0  0  0  0  0  0  0
    7.6830   -0.5170   18.7600 N   0  0  0  0  0  0  0  0  0  0  0  0
    6.9440    0.2550   18.0100 N   0  0  0  0  0  0  0  0  0  0  0  0
    5.9810    0.8330   18.8060 N   0  0  0  0  0  0  0  0  0  0  0  0
    8.0810   -0.9750   21.0820 N   0  0  0  0  0  0  0  0  0  0  0  0
    9.4200   -0.0840   22.9530 N   0  0  0  0  0  0  0  0  0  0  0  0
    9.2624   -4.9028   25.8498 N   0  0  0  0  0  0  0  0  0  0  0  0
    9.1870    1.1500   21.0630 O   0  0  0  0  0  0  0  0  0  0  0  0
   15.3752    1.0060   23.7879 H   0  0  0  0  0  0  0  0  0  0  0  0
   14.1116   -0.2074   25.5446 H   0  0  0  0  0  0  0  0  0  0  0  0
   14.1575    2.2409   22.0132 H   0  0  0  0  0  0  0  0  0  0  0  0
   11.6389   -0.1899   25.5308 H   0  0  0  0  0  0  0  0  0  0  0  0
   11.6852    2.2645   21.9907 H   0  0  0  0  0  0  0  0  0  0  0  0
    7.5947   -0.7787   24.7997 H   0  0  0  0  0  0  0  0  0  0  0  0
   11.0404   -2.1861   22.6352 H   0  0  0  0  0  0  0  0  0  0  0  0
    7.5641   -2.8632   26.1047 H   0  0  0  0  0  0  0  0  0  0  0  0
   11.0135   -4.2647   23.9425 H   0  0  0  0  0  0  0  0  0  0  0  0
    5.4735    0.4758   22.1644 H   0  0  0  0  0  0  0  0  0  0  0  0
    3.6415    1.9967   21.6408 H   0  0  0  0  0  0  0  0  0  0  0  0
    3.2720    2.7926   19.2921 H   0  0  0  0  0  0  0  0  0  0  0  0
    4.8119    2.0418   17.5005 H   0  0  0  0  0  0  0  0  0  0  0  0
    8.3978   -6.1026   27.3289 H   0  0  0  0  0  0  0  0  0  0  0  0
    8.3286   -4.3336   27.6322 H   0  0  0  0  0  0  0  0  0  0  0  0
    7.2526   -5.0764   26.4005 H   0  0  0  0  0  0  0  0  0  0  0  0
   10.0582   -6.7898   26.2756 H   0  0  0  0  0  0  0  0  0  0  0  0
   10.1598   -6.2795   24.5564 H   0  0  0  0  0  0  0  0  0  0  0  0
   11.2519   -5.5433   25.7778 H   0  0  0  0  0  0  0  0  0  0  0  0
    9.6039    0.9802   24.7679 H   0  0  0  0  0  0  0  0  0  0  0  0
    9.6168    1.9835   23.3170 H   0  0  0  0  0  0  0  0  0  0  0  0
    8.1135   -1.8119   21.3500 H   0  0  0  0  0  0  0  0  0  0  0  0
  1  2  1  0  0  0  0
  1  3  2  0  0  0  0
  2  4  2  0  0  0  0
  3  5  1  0  0  0  0
  4 10  1  0  0  0  0
  5 10  2  0  0  0  0
  6  8  2  0  0  0  0
  6 11  1  0  0  0  0
  7  9  1  0  0  0  0
  7 11  2  0  0  0  0
  8 12  1  0  0  0  0
  9 12  2  0  0  0  0
 10 22  1  0  0  0  0
 11 27  1  0  0  0  0
 12 28  1  0  0  0  0
 13 14  2  0  0  0  0
 13 15  1  0  0  0  0
 13 25  1  0  0  0  0
 14 23  1  0  0  0  0
 14 26  1  0  0  0  0
 15 16  2  0  0  0  0
 16 17  1  0  0  0  0
 17 18  2  0  0  0  0
 18 25  1  0  0  0  0
 19 26  1  0  0  0  0
 19 27  1  0  0  0  0
 19 29  2  0  0  0  0
 20 28  1  0  0  0  0
 21 28  1  0  0  0  0
 22 27  1  0  0  0  0
 23 24  2  0  0  0  0
 24 25  1  0  0  0  0
  1 30  1  0  0  0  0
  2 31  1  0  0  0  0
  3 32  1  0  0  0  0
  4 33  1  0  0  0  0
  5 34  1  0  0  0  0
  6 35  1  0  0  0  0
  7 36  1  0  0  0  0
  8 37  1  0  0  0  0
  9 38  1  0  0  0  0
 15 39  1  0  0  0  0
 16 40  1  0  0  0  0
 17 41  1  0  0  0  0
 18 42  1  0  0  0  0
 20 43  1  0  0  0  0
 20 44  1  0  0  0  0
 20 45  1  0  0  0  0
 21 46  1  0  0  0  0
 21 47  1  0  0  0  0
 21 48  1  0  0  0  0
 22 49  1  0  0  0  0
 22 50  1  0  0  0  0
 26 51  1  0  0  0  0
M  END
> <clash_score>
0

> <docking_score>
-9.542198181152344

> <overlap_score>
0.9961932301521301

$$$$
BENZO_87_1
  -OEChem-08232013483D

 51 54  0     0  0  0  0  0  0999 V2000
    8.3510   -1.5420   24.6110 C   0  0  0  0  0  0  0  0  0  0  0  0
   10.2760   -2.3270   23.4020 C   0  0  0  0  0  0  0  0  0  0  0  0
    8.3310   -2.7170   25.3430 C   0  0  0  0  0  0  0  0  0  0  0  0
   10.2570   -3.5000   24.1350 C   0  0  0  0  0  0  0  0  0  0  0  0
   12.3543    0.9495   24.8747 C   0  0  0  0  0  0  0  0  0  0  0  0
   12.3478    1.1086   22.6817 C   0  0  0  0  0  0  0  0  0  0  0  0
   11.4996    1.0388   23.7597 C   0  0  0  0  0  0  0  0  0  0  0  0
    9.3300   -1.3350   23.6390 C   0  0  0  0  0  0  0  0  0  0  0  0
    9.2850   -3.7090   25.1090 C   0  0  0  0  0  0  0  0  0  0  0  0
    6.1600    0.3870   20.1140 C   0  0  0  0  0  0  0  0  0  0  0  0
    7.2210   -0.4620   20.0350 C   0  0  0  0  0  0  0  0  0  0  0  0
    5.3360    0.8000   21.1530 C   0  0  0  0  0  0  0  0  0  0  0  0
    4.2970    1.6690   20.8430 C   0  0  0  0  0  0  0  0  0  0  0  0
    4.0980    2.1130   19.5350 C   0  0  0  0  0  0  0  0  0  0  0  0
    4.9400    1.7060   18.5060 C   0  0  0  0  0  0  0  0  0  0  0  0
    8.9510    0.1280   21.6880 C   0  0  0  0  0  0  0  0  0  0  0  0
   14.8425    1.1003   22.4470 C   0  0  0  0  0  0  0  0  0  0  0  0
    8.2494   -5.1168   26.8639 C   0  0  0  0  0  0  0  0  0  0  0  0
   10.2420   -5.9414   25.5999 C   0  0  0  0  0  0  0  0  0  0  0  0
    9.9983    1.0521   23.7484 C   0  0  0  0  0  0  0  0  0  0  0  0
   13.6463    0.9611   24.5363 N   0  0  0  0  0  0  0  0  0  0  0  0
    7.6830   -0.5170   18.7600 N   0  0  0  0  0  0  0  0  0  0  0  0
    6.9440    0.2550   18.0100 N   0  0  0  0  0  0  0  0  0  0  0  0
   13.6098    1.0584   23.1964 N   0  0  0  0  0  0  0  0  0  0  0  0
    5.9810    0.8330   18.8060 N   0  0  0  0  0  0  0  0  0  0  0  0
    8.0810   -0.9750   21.0820 N   0  0  0  0  0  0  0  0  0  0  0  0
    9.4200   -0.0840   22.9530 N   0  0  0  0  0  0  0  0  0  0  0  0
    9.2624   -4.9028   25.8498 N   0  0  0  0  0  0  0  0  0  0  0  0
    9.1870    1.1500   21.0630 O   0  0  0  0  0  0  0  0  0  0  0  0
    7.5947   -0.7787   24.7997 H   0  0  0  0  0  0  0  0  0  0  0  0
   11.0404   -2.1861   22.6352 H   0  0  0  0  0  0  0  0  0  0  0  0
    7.5641   -2.8632   26.1047 H   0  0  0  0  0  0  0  0  0  0  0  0
   11.0135   -4.2647   23.9425 H   0  0  0  0  0  0  0  0  0  0  0  0
   12.0919    0.8755   25.9206 H   0  0  0  0  0  0  0  0  0  0  0  0
   12.1654    1.1864   21.6184 H   0  0  0  0  0  0  0  0  0  0  0  0
    5.4735    0.4758   22.1644 H   0  0  0  0  0  0  0  0  0  0  0  0
    3.6415    1.9967   21.6408 H   0  0  0  0  0  0  0  0  0  0  0  0
    3.2720    2.7926   19.2921 H   0  0  0  0  0  0  0  0  0  0  0  0
    4.8119    2.0418   17.5005 H   0  0  0  0  0  0  0  0  0  0  0  0
   15.1411    2.1472   22.3471 H   0  0  0  0  0  0  0  0  0  0  0  0
   15.6113    0.5325   22.9785 H   0  0  0  0  0  0  0  0  0  0  0  0
   14.6824    0.6517   21.4626 H   0  0  0  0  0  0  0  0  0  0  0  0
    8.3978   -6.1026   27.3289 H   0  0  0  0  0  0  0  0  0  0  0  0
    8.3286   -4.3336   27.6322 H   0  0  0  0  0  0  0  0  0  0  0  0
    7.2526   -5.0764   26.4005 H   0  0  0  0  0  0  0  0  0  0  0  0
   10.0582   -6.7898   26.2756 H   0  0  0  0  0  0  0  0  0  0  0  0
   10.1598   -6.2795   24.5564 H   0  0  0  0  0  0  0  0  0  0  0  0
   11.2519   -5.5433   25.7778 H   0  0  0  0  0  0  0  0  0  0  0  0
    9.6039    0.9802   24.7679 H   0  0  0  0  0  0  0  0  0  0  0  0
    9.6168    1.9835   23.3170 H   0  0  0  0  0  0  0  0  0  0  0  0
    8.1135   -1.8119   21.3500 H   0  0  0  0  0  0  0  0  0  0  0  0
  1  3  2  0  0  0  0
  1  8  1  0  0  0  0
  2  4  1  0  0  0  0
  2  8  2  0  0  0  0
  3  9  1  0  0  0  0
  4  9  2  0  0  0  0
  5  7  1  0  0  0  0
  5 21  2  0  0  0  0
  6  7  2  0  0  0  0
  6 24  1  0  0  0  0
  7 20  1  0  0  0  0
  8 27  1  0  0  0  0
  9 28  1  0  0  0  0
 10 11  2  0  0  0  0
 10 12  1  0  0  0  0
 10 25  1  0  0  0  0
 11 22  1  0  0  0  0
 11 26  1  0  0  0  0
 12 13  2  0  0  0  0
 13 14  1  0  0  0  0
 14 15  2  0  0  0  0
 15 25  1  0  0  0  0
 16 26  1  0  0  0  0
 16 27  1  0  0  0  0
 16 29  2  0  0  0  0
 17 24  1  0  0  0  0
 18 28  1  0  0  0  0
 19 28  1  0  0  0  0
 20 27  1  0  0  0  0
 21 24  1  0  0  0  0
 22 23  2  0  0  0  0
 23 25  1  0  0  0  0
  1 30  1  0  0  0  0
  2 31  1  0  0  0  0
  3 32  1  0  0  0  0
  4 33  1  0  0  0  0
  5 34  1  0  0  0  0
  6 35  1  0  0  0  0
 12 36  1  0  0  0  0
 13 37  1  0  0  0  0
 14 38  1  0  0  0  0
 15 39  1  0  0  0  0
 17 40  1  0  0  0  0
 17 41  1  0  0  0  0
 17 42  1  0  0  0  0
 18 43  1  0  0  0  0
 18 44  1  0  0  0  0
 18 45  1  0  0  0  0
 19 46  1  0  0  0  0
 19 47  1  0  0  0  0
 19 48  1  0  0  0  0
 20 49  1  0  0  0  0
 20 50  1  0  0  0  0
 26 51  1  0  0  0  0
M  END
> <clash_score>
0

> <docking_score>
-9.22979736328125

> <overlap_score>
0.9897958040237427

$$$$
BENZO_86_1
  -OEChem-08232013483D

 51 54  0     0  0  0  0  0  0999 V2000
   13.6051    1.9365   22.9866 C   0  0  0  0  0  0  0  0  0  0  0  0
   12.2104    1.9475   22.9757 C   0  0  0  0  0  0  0  0  0  0  0  0
    8.3510   -1.5420   24.6110 C   0  0  0  0  0  0  0  0  0  0  0  0
   10.2760   -2.3270   23.4020 C   0  0  0  0  0  0  0  0  0  0  0  0
    8.3310   -2.7170   25.3430 C   0  0  0  0  0  0  0  0  0  0  0  0
   10.2570   -3.5000   24.1350 C   0  0  0  0  0  0  0  0  0  0  0  0
   14.2892    1.0167   23.7814 C   0  0  0  0  0  0  0  0  0  0  0  0
   12.1836    0.1190   24.5546 C   0  0  0  0  0  0  0  0  0  0  0  0
   11.4996    1.0388   23.7597 C   0  0  0  0  0  0  0  0  0  0  0  0
    9.3300   -1.3350   23.6390 C   0  0  0  0  0  0  0  0  0  0  0  0
    9.2850   -3.7090   25.1090 C   0  0  0  0  0  0  0  0  0  0  0  0
   13.5784    0.1080   24.5654 C   0  0  0  0  0  0  0  0  0  0  0  0
    6.1600    0.3870   20.1140 C   0  0  0  0  0  0  0  0  0  0  0  0
    7.2210   -0.4620   20.0350 C   0  0  0  0  0  0  0  0  0  0  0  0
    5.3360    0.8000   21.1530 C   0  0  0  0  0  0  0  0  0  0  0  0
    4.2970    1.6690   20.8430 C   0  0  0  0  0  0  0  0  0  0  0  0
    4.0980    2.1130   19.5350 C   0  0  0  0  0  0  0  0  0  0  0  0
    4.9400    1.7060   18.5060 C   0  0  0  0  0  0  0  0  0  0  0  0
    8.9510    0.1280   21.6880 C   0  0  0  0  0  0  0  0  0  0  0  0
    8.2494   -5.1168   26.8639 C   0  0  0  0  0  0  0  0  0  0  0  0
   10.2420   -5.9414   25.5999 C   0  0  0  0  0  0  0  0  0  0  0  0
    9.9983    1.0521   23.7484 C   0  0  0  0  0  0  0  0  0  0  0  0
    7.6830   -0.5170   18.7600 N   0  0  0  0  0  0  0  0  0  0  0  0
    6.9440    0.2550   18.0100 N   0  0  0  0  0  0  0  0  0  0  0  0
    5.9810    0.8330   18.8060 N   0  0  0  0  0  0  0  0  0  0  0  0
    8.0810   -0.9750   21.0820 N   0  0  0  0  0  0  0  0  0  0  0  0
    9.4200   -0.0840   22.9530 N   0  0  0  0  0  0  0  0  0  0  0  0
    9.2624   -4.9028   25.8498 N   0  0  0  0  0  0  0  0  0  0  0  0
    9.1870    1.1500   21.0630 O   0  0  0  0  0  0  0  0  0  0  0  0
   14.4229   -1.0259   25.5468 Cl  0  0  0  0  0  0  0  0  0  0  0  0
   14.1583    2.6444   22.3760 H   0  0  0  0  0  0  0  0  0  0  0  0
   11.6857    2.6678   22.3534 H   0  0  0  0  0  0  0  0  0  0  0  0
    7.5947   -0.7787   24.7997 H   0  0  0  0  0  0  0  0  0  0  0  0
   11.0404   -2.1861   22.6352 H   0  0  0  0  0  0  0  0  0  0  0  0
    7.5641   -2.8632   26.1047 H   0  0  0  0  0  0  0  0  0  0  0  0
   11.0135   -4.2647   23.9425 H   0  0  0  0  0  0  0  0  0  0  0  0
   15.3764    1.0198   23.7802 H   0  0  0  0  0  0  0  0  0  0  0  0
   11.6248   -0.5878   25.1637 H   0  0  0  0  0  0  0  0  0  0  0  0
    5.4735    0.4758   22.1644 H   0  0  0  0  0  0  0  0  0  0  0  0
    3.6415    1.9967   21.6408 H   0  0  0  0  0  0  0  0  0  0  0  0
    3.2720    2.7926   19.2921 H   0  0  0  0  0  0  0  0  0  0  0  0
    4.8119    2.0418   17.5005 H   0  0  0  0  0  0  0  0  0  0  0  0
    8.3978   -6.1026   27.3289 H   0  0  0  0  0  0  0  0  0  0  0  0
    8.3286   -4.3336   27.6322 H   0  0  0  0  0  0  0  0  0  0  0  0
    7.2526   -5.0764   26.4005 H   0  0  0  0  0  0  0  0  0  0  0  0
   10.0582   -6.7898   26.2756 H   0  0  0  0  0  0  0  0  0  0  0  0
   10.1598   -6.2795   24.5564 H   0  0  0  0  0  0  0  0  0  0  0  0
   11.2519   -5.5433   25.7778 H   0  0  0  0  0  0  0  0  0  0  0  0
    9.6039    0.9802   24.7679 H   0  0  0  0  0  0  0  0  0  0  0  0
    9.6168    1.9835   23.3170 H   0  0  0  0  0  0  0  0  0  0  0  0
    8.1135   -1.8119   21.3500 H   0  0  0  0  0  0  0  0  0  0  0  0
  1  2  2  0  0  0  0
  1  7  1  0  0  0  0
  2  9  1  0  0  0  0
  3  5  2  0  0  0  0
  3 10  1  0  0  0  0
  4  6  1  0  0  0  0
  4 10  2  0  0  0  0
  5 11  1  0  0  0  0
  6 11  2  0  0  0  0
  7 12  2  0  0  0  0
  8  9  2  0  0  0  0
  8 12  1  0  0  0  0
  9 22  1  0  0  0  0
 10 27  1  0  0  0  0
 11 28  1  0  0  0  0
 12 30  1  0  0  0  0
 13 14  2  0  0  0  0
 13 15  1  0  0  0  0
 13 25  1  0  0  0  0
 14 23  1  0  0  0  0
 14 26  1  0  0  0  0
 15 16  2  0  0  0  0
 16 17  1  0  0  0  0
 17 18  2  0  0  0  0
 18 25  1  0  0  0  0
 19 26  1  0  0  0  0
 19 27  1  0  0  0  0
 19 29  2  0  0  0  0
 20 28  1  0  0  0  0
 21 28  1  0  0  0  0
 22 27  1  0  0  0  0
 23 24  2  0  0  0  0
 24 25  1  0  0  0  0
  1 31  1  0  0  0  0
  2 32  1  0  0  0  0
  3 33  1  0  0  0  0
  4 34  1  0  0  0  0
  5 35  1  0  0  0  0
  6 36  1  0  0  0  0
  7 37  1  0  0  0  0
  8 38  1  0  0  0  0
 15 39  1  0  0  0  0
 16 40  1  0  0  0  0
 17 41  1  0  0  0  0
 18 42  1  0  0  0  0
 20 43  1  0  0  0  0
 20 44  1  0  0  0  0
 20 45  1  0  0  0  0
 21 46  1  0  0  0  0
 21 47  1  0  0  0  0
 21 48  1  0  0  0  0
 22 49  1  0  0  0  0
 22 50  1  0  0  0  0
 26 51  1  0  0  0  0
M  END
> <clash_score>
0.739262110113481

> <docking_score>
-8.4215726852417

> <overlap_score>
0.9980769753456116

$$$$
BENZO_89_1
  -OEChem-08232013483D

 53 56  0     0  0  0  0  0  0999 V2000
   14.2892    1.0145   23.7793 C   0  0  0  0  0  0  0  0  0  0  0  0
   13.5789    0.3324   24.7671 C   0  0  0  0  0  0  0  0  0  0  0  0
   13.6048    1.7088   22.7817 C   0  0  0  0  0  0  0  0  0  0  0  0
   12.1841    0.3445   24.7573 C   0  0  0  0  0  0  0  0  0  0  0  0
   12.2100    1.7210   22.7719 C   0  0  0  0  0  0  0  0  0  0  0  0
    8.3310   -2.7170   25.3430 C   0  0  0  0  0  0  0  0  0  0  0  0
   10.2570   -3.5000   24.1350 C   0  0  0  0  0  0  0  0  0  0  0  0
    8.3510   -1.5420   24.6110 C   0  0  0  0  0  0  0  0  0  0  0  0
   10.2760   -2.3270   23.4020 C   0  0  0  0  0  0  0  0  0  0  0  0
   11.4996    1.0388   23.7597 C   0  0  0  0  0  0  0  0  0  0  0  0
    9.2850   -3.7090   25.1090 C   0  0  0  0  0  0  0  0  0  0  0  0
    9.3300   -1.3350   23.6390 C   0  0  0  0  0  0  0  0  0  0  0  0
    6.1600    0.3870   20.1140 C   0  0  0  0  0  0  0  0  0  0  0  0
    7.2210   -0.4620   20.0350 C   0  0  0  0  0  0  0  0  0  0  0  0
    5.3360    0.8000   21.1530 C   0  0  0  0  0  0  0  0  0  0  0  0
    4.2970    1.6690   20.8430 C   0  0  0  0  0  0  0  0  0  0  0  0
    4.0980    2.1130   19.5350 C   0  0  0  0  0  0  0  0  0  0  0  0
    4.9400    1.7060   18.5060 C   0  0  0  0  0  0  0  0  0  0  0  0
    9.6838   -6.1690   25.4414 C   0  0  0  0  0  0  0  0  0  0  0  0
    8.9510    0.1280   21.6880 C   0  0  0  0  0  0  0  0  0  0  0  0
    8.0382   -7.2886   27.0047 C   0  0  0  0  0  0  0  0  0  0  0  0
    9.9983    1.0521   23.7484 C   0  0  0  0  0  0  0  0  0  0  0  0
    9.4846   -7.1864   26.5550 C   0  0  0  0  0  0  0  0  0  0  0  0
    7.6830   -0.5170   18.7600 N   0  0  0  0  0  0  0  0  0  0  0  0
    6.9440    0.2550   18.0100 N   0  0  0  0  0  0  0  0  0  0  0  0
    5.9810    0.8330   18.8060 N   0  0  0  0  0  0  0  0  0  0  0  0
    9.2630   -4.8902   25.8410 N   0  0  0  0  0  0  0  0  0  0  0  0
    8.0810   -0.9750   21.0820 N   0  0  0  0  0  0  0  0  0  0  0  0
    9.4200   -0.0840   22.9530 N   0  0  0  0  0  0  0  0  0  0  0  0
   10.1564   -6.4800   24.3530 O   0  0  0  0  0  0  0  0  0  0  0  0
    9.1870    1.1500   21.0630 O   0  0  0  0  0  0  0  0  0  0  0  0
   15.3752    1.0060   23.7879 H   0  0  0  0  0  0  0  0  0  0  0  0
   14.1116   -0.2074   25.5446 H   0  0  0  0  0  0  0  0  0  0  0  0
   14.1575    2.2409   22.0132 H   0  0  0  0  0  0  0  0  0  0  0  0
   11.6389   -0.1899   25.5308 H   0  0  0  0  0  0  0  0  0  0  0  0
   11.6852    2.2645   21.9907 H   0  0  0  0  0  0  0  0  0  0  0  0
    7.5639   -2.8621   26.1045 H   0  0  0  0  0  0  0  0  0  0  0  0
   11.0141   -4.2644   23.9422 H   0  0  0  0  0  0  0  0  0  0  0  0
    7.5950   -0.7788   24.8007 H   0  0  0  0  0  0  0  0  0  0  0  0
   11.0408   -2.1861   22.6359 H   0  0  0  0  0  0  0  0  0  0  0  0
    5.4735    0.4758   22.1644 H   0  0  0  0  0  0  0  0  0  0  0  0
    3.6415    1.9967   21.6408 H   0  0  0  0  0  0  0  0  0  0  0  0
    3.2720    2.7926   19.2921 H   0  0  0  0  0  0  0  0  0  0  0  0
    4.8119    2.0418   17.5005 H   0  0  0  0  0  0  0  0  0  0  0  0
    7.6702   -6.3234   27.3680 H   0  0  0  0  0  0  0  0  0  0  0  0
    7.9416   -8.0182   27.8146 H   0  0  0  0  0  0  0  0  0  0  0  0
    7.3915   -7.6055   26.1799 H   0  0  0  0  0  0  0  0  0  0  0  0
    9.6039    0.9802   24.7679 H   0  0  0  0  0  0  0  0  0  0  0  0
    9.6168    1.9835   23.3170 H   0  0  0  0  0  0  0  0  0  0  0  0
    9.8260   -8.1645   26.1971 H   0  0  0  0  0  0  0  0  0  0  0  0
   10.1125   -6.8979   27.4058 H   0  0  0  0  0  0  0  0  0  0  0  0
    8.8927   -4.8255   26.7964 H   0  0  0  0  0  0  0  0  0  0  0  0
    8.1135   -1.8119   21.3500 H   0  0  0  0  0  0  0  0  0  0  0  0
  1  2  1  0  0  0  0
  1  3  2  0  0  0  0
  2  4  2  0  0  0  0
  3  5  1  0  0  0  0
  4 10  1  0  0  0  0
  5 10  2  0  0  0  0
  6  8  2  0  0  0  0
  6 11  1  0  0  0  0
  7  9  1  0  0  0  0
  7 11  2  0  0  0  0
  8 12  1  0  0  0  0
  9 12  2  0  0  0  0
 10 22  1  0  0  0  0
 11 27  1  0  0  0  0
 12 29  1  0  0  0  0
 13 14  2  0  0  0  0
 13 15  1  0  0  0  0
 13 26  1  0  0  0  0
 14 24  1  0  0  0  0
 14 28  1  0  0  0  0
 15 16  2  0  0  0  0
 16 17  1  0  0  0  0
 17 18  2  0  0  0  0
 18 26  1  0  0  0  0
 19 23  1  0  0  0  0
 19 27  1  0  0  0  0
 19 30  2  0  0  0  0
 20 28  1  0  0  0  0
 20 29  1  0  0  0  0
 20 31  2  0  0  0  0
 21 23  1  0  0  0  0
 22 29  1  0  0  0  0
 24 25  2  0  0  0  0
 25 26  1  0  0  0  0
  1 32  1  0  0  0  0
  2 33  1  0  0  0  0
  3 34  1  0  0  0  0
  4 35  1  0  0  0  0
  5 36  1  0  0  0  0
  6 37  1  0  0  0  0
  7 38  1  0  0  0  0
  8 39  1  0  0  0  0
  9 40  1  0  0  0  0
 15 41  1  0  0  0  0
 16 42  1  0  0  0  0
 17 43  1  0  0  0  0
 18 44  1  0  0  0  0
 21 45  1  0  0  0  0
 21 46  1  0  0  0  0
 21 47  1  0  0  0  0
 22 48  1  0  0  0  0
 22 49  1  0  0  0  0
 23 50  1  0  0  0  0
 23 51  1  0  0  0  0
 27 52  1  0  0  0  0
 28 53  1  0  0  0  0
M  END
> <clash_score>
1.3333318184124714

> <docking_score>
-6.020379543304443

> <overlap_score>
0.9802831411361694

$$$$
BENZO_88_1
  -OEChem-08232013483D

 50 53  0     0  0  0  0  0  0999 V2000
    8.3310   -2.7170   25.3430 C   0  0  0  0  0  0  0  0  0  0  0  0
   10.2570   -3.5000   24.1350 C   0  0  0  0  0  0  0  0  0  0  0  0
    8.3510   -1.5420   24.6110 C   0  0  0  0  0  0  0  0  0  0  0  0
   10.2760   -2.3270   23.4020 C   0  0  0  0  0  0  0  0  0  0  0  0
   12.3038    1.1187   22.5862 C   0  0  0  0  0  0  0  0  0  0  0  0
   13.6496    1.0853   22.8779 C   0  0  0  0  0  0  0  0  0  0  0  0
   12.2616    0.9472   24.9038 C   0  0  0  0  0  0  0  0  0  0  0  0
   11.4996    1.0388   23.7597 C   0  0  0  0  0  0  0  0  0  0  0  0
    9.2850   -3.7090   25.1090 C   0  0  0  0  0  0  0  0  0  0  0  0
    9.3300   -1.3350   23.6390 C   0  0  0  0  0  0  0  0  0  0  0  0
    6.1600    0.3870   20.1140 C   0  0  0  0  0  0  0  0  0  0  0  0
    7.2210   -0.4620   20.0350 C   0  0  0  0  0  0  0  0  0  0  0  0
    5.3360    0.8000   21.1530 C   0  0  0  0  0  0  0  0  0  0  0  0
    4.2970    1.6690   20.8430 C   0  0  0  0  0  0  0  0  0  0  0  0
    4.0980    2.1130   19.5350 C   0  0  0  0  0  0  0  0  0  0  0  0
    4.9400    1.7060   18.5060 C   0  0  0  0  0  0  0  0  0  0  0  0
    9.6838   -6.1690   25.4414 C   0  0  0  0  0  0  0  0  0  0  0  0
    8.9510    0.1280   21.6880 C   0  0  0  0  0  0  0  0  0  0  0  0
    8.0382   -7.2886   27.0047 C   0  0  0  0  0  0  0  0  0  0  0  0
    9.9983    1.0521   23.7484 C   0  0  0  0  0  0  0  0  0  0  0  0
    9.4846   -7.1864   26.5550 C   0  0  0  0  0  0  0  0  0  0  0  0
    7.6830   -0.5170   18.7600 N   0  0  0  0  0  0  0  0  0  0  0  0
    6.9440    0.2550   18.0100 N   0  0  0  0  0  0  0  0  0  0  0  0
    5.9810    0.8330   18.8060 N   0  0  0  0  0  0  0  0  0  0  0  0
    9.2630   -4.8902   25.8410 N   0  0  0  0  0  0  0  0  0  0  0  0
    8.0810   -0.9750   21.0820 N   0  0  0  0  0  0  0  0  0  0  0  0
    9.4200   -0.0840   22.9530 N   0  0  0  0  0  0  0  0  0  0  0  0
   10.1564   -6.4800   24.3530 O   0  0  0  0  0  0  0  0  0  0  0  0
    9.1870    1.1500   21.0630 O   0  0  0  0  0  0  0  0  0  0  0  0
   13.9393    0.9580   24.5608 S   0  0  0  0  0  0  0  0  0  0  0  0
    7.5639   -2.8621   26.1045 H   0  0  0  0  0  0  0  0  0  0  0  0
   11.0141   -4.2644   23.9422 H   0  0  0  0  0  0  0  0  0  0  0  0
    7.5950   -0.7788   24.8007 H   0  0  0  0  0  0  0  0  0  0  0  0
   11.0408   -2.1861   22.6359 H   0  0  0  0  0  0  0  0  0  0  0  0
   11.9187    1.1964   21.5772 H   0  0  0  0  0  0  0  0  0  0  0  0
   14.4766    1.1289   22.1833 H   0  0  0  0  0  0  0  0  0  0  0  0
   11.9176    0.8730   25.9261 H   0  0  0  0  0  0  0  0  0  0  0  0
    5.4735    0.4758   22.1644 H   0  0  0  0  0  0  0  0  0  0  0  0
    3.6415    1.9967   21.6408 H   0  0  0  0  0  0  0  0  0  0  0  0
    3.2720    2.7926   19.2921 H   0  0  0  0  0  0  0  0  0  0  0  0
    4.8119    2.0418   17.5005 H   0  0  0  0  0  0  0  0  0  0  0  0
    7.6702   -6.3234   27.3680 H   0  0  0  0  0  0  0  0  0  0  0  0
    7.9416   -8.0182   27.8146 H   0  0  0  0  0  0  0  0  0  0  0  0
    7.3915   -7.6055   26.1799 H   0  0  0  0  0  0  0  0  0  0  0  0
    9.6039    0.9802   24.7679 H   0  0  0  0  0  0  0  0  0  0  0  0
    9.6168    1.9835   23.3170 H   0  0  0  0  0  0  0  0  0  0  0  0
    9.8260   -8.1645   26.1971 H   0  0  0  0  0  0  0  0  0  0  0  0
   10.1125   -6.8979   27.4058 H   0  0  0  0  0  0  0  0  0  0  0  0
    8.8927   -4.8255   26.7964 H   0  0  0  0  0  0  0  0  0  0  0  0
    8.1135   -1.8119   21.3500 H   0  0  0  0  0  0  0  0  0  0  0  0
  1  3  2  0  0  0  0
  1  9  1  0  0  0  0
  2  4  1  0  0  0  0
  2  9  2  0  0  0  0
  3 10  1  0  0  0  0
  4 10  2  0  0  0  0
  5  6  2  0  0  0  0
  5  8  1  0  0  0  0
  6 30  1  0  0  0  0
  7  8  2  0  0  0  0
  7 30  1  0  0  0  0
  8 20  1  0  0  0  0
  9 25  1  0  0  0  0
 10 27  1  0  0  0  0
 11 12  2  0  0  0  0
 11 13  1  0  0  0  0
 11 24  1  0  0  0  0
 12 22  1  0  0  0  0
 12 26  1  0  0  0  0
 13 14  2  0  0  0  0
 14 15  1  0  0  0  0
 15 16  2  0  0  0  0
 16 24  1  0  0  0  0
 17 21  1  0  0  0  0
 17 25  1  0  0  0  0
 17 28  2  0  0  0  0
 18 26  1  0  0  0  0
 18 27  1  0  0  0  0
 18 29  2  0  0  0  0
 19 21  1  0  0  0  0
 20 27  1  0  0  0  0
 22 23  2  0  0  0  0
 23 24  1  0  0  0  0
  1 31  1  0  0  0  0
  2 32  1  0  0  0  0
  3 33  1  0  0  0  0
  4 34  1  0  0  0  0
  5 35  1  0  0  0  0
  6 36  1  0  0  0  0
  7 37  1  0  0  0  0
 13 38  1  0  0  0  0
 14 39  1  0  0  0  0
 15 40  1  0  0  0  0
 16 41  1  0  0  0  0
 19 42  1  0  0  0  0
 19 43  1  0  0  0  0
 19 44  1  0  0  0  0
 20 45  1  0  0  0  0
 20 46  1  0  0  0  0
 21 47  1  0  0  0  0
 21 48  1  0  0  0  0
 25 49  1  0  0  0  0
 26 50  1  0  0  0  0
M  END
> <clash_score>
1.3333318184124714

> <docking_score>
-6.4115729331970215

> <overlap_score>
0.9578281044960022

$$$$
BENZO_91_1
  -OEChem-08232013483D

 53 56  0     0  0  0  0  0  0999 V2000
    8.3310   -2.7170   25.3430 C   0  0  0  0  0  0  0  0  0  0  0  0
   10.2570   -3.5000   24.1350 C   0  0  0  0  0  0  0  0  0  0  0  0
    8.3510   -1.5420   24.6110 C   0  0  0  0  0  0  0  0  0  0  0  0
   10.2760   -2.3270   23.4020 C   0  0  0  0  0  0  0  0  0  0  0  0
   12.3543    0.9495   24.8747 C   0  0  0  0  0  0  0  0  0  0  0  0
   12.3478    1.1086   22.6817 C   0  0  0  0  0  0  0  0  0  0  0  0
   11.4996    1.0388   23.7597 C   0  0  0  0  0  0  0  0  0  0  0  0
    9.2850   -3.7090   25.1090 C   0  0  0  0  0  0  0  0  0  0  0  0
    9.3300   -1.3350   23.6390 C   0  0  0  0  0  0  0  0  0  0  0  0
    6.1600    0.3870   20.1140 C   0  0  0  0  0  0  0  0  0  0  0  0
    7.2210   -0.4620   20.0350 C   0  0  0  0  0  0  0  0  0  0  0  0
    5.3360    0.8000   21.1530 C   0  0  0  0  0  0  0  0  0  0  0  0
    4.2970    1.6690   20.8430 C   0  0  0  0  0  0  0  0  0  0  0  0
    4.0980    2.1130   19.5350 C   0  0  0  0  0  0  0  0  0  0  0  0
    4.9400    1.7060   18.5060 C   0  0  0  0  0  0  0  0  0  0  0  0
    9.6838   -6.1690   25.4414 C   0  0  0  0  0  0  0  0  0  0  0  0
    8.9510    0.1280   21.6880 C   0  0  0  0  0  0  0  0  0  0  0  0
    8.0382   -7.2886   27.0047 C   0  0  0  0  0  0  0  0  0  0  0  0
   14.8425    1.1003   22.4470 C   0  0  0  0  0  0  0  0  0  0  0  0
    9.9983    1.0521   23.7484 C   0  0  0  0  0  0  0  0  0  0  0  0
    9.4846   -7.1864   26.5550 C   0  0  0  0  0  0  0  0  0  0  0  0
   13.6463    0.9611   24.5363 N   0  0  0  0  0  0  0  0  0  0  0  0
    7.6830   -0.5170   18.7600 N   0  0  0  0  0  0  0  0  0  0  0  0
    6.9440    0.2550   18.0100 N   0  0  0  0  0  0  0  0  0  0  0  0
   13.6098    1.0584   23.1964 N   0  0  0  0  0  0  0  0  0  0  0  0
    5.9810    0.8330   18.8060 N   0  0  0  0  0  0  0  0  0  0  0  0
    9.2630   -4.8902   25.8410 N   0  0  0  0  0  0  0  0  0  0  0  0
    8.0810   -0.9750   21.0820 N   0  0  0  0  0  0  0  0  0  0  0  0
    9.4200   -0.0840   22.9530 N   0  0  0  0  0  0  0  0  0  0  0  0
   10.1564   -6.4800   24.3530 O   0  0  0  0  0  0  0  0  0  0  0  0
    9.1870    1.1500   21.0630 O   0  0  0  0  0  0  0  0  0  0  0  0
    7.5639   -2.8621   26.1045 H   0  0  0  0  0  0  0  0  0  0  0  0
   11.0141   -4.2644   23.9422 H   0  0  0  0  0  0  0  0  0  0  0  0
    7.5950   -0.7788   24.8007 H   0  0  0  0  0  0  0  0  0  0  0  0
   11.0408   -2.1861   22.6359 H   0  0  0  0  0  0  0  0  0  0  0  0
   12.0919    0.8755   25.9206 H   0  0  0  0  0  0  0  0  0  0  0  0
   12.1654    1.1864   21.6184 H   0  0  0  0  0  0  0  0  0  0  0  0
    5.4735    0.4758   22.1644 H   0  0  0  0  0  0  0  0  0  0  0  0
    3.6415    1.9967   21.6408 H   0  0  0  0  0  0  0  0  0  0  0  0
    3.2720    2.7926   19.2921 H   0  0  0  0  0  0  0  0  0  0  0  0
    4.8119    2.0418   17.5005 H   0  0  0  0  0  0  0  0  0  0  0  0
    7.6702   -6.3234   27.3680 H   0  0  0  0  0  0  0  0  0  0  0  0
    7.9416   -8.0182   27.8146 H   0  0  0  0  0  0  0  0  0  0  0  0
    7.3915   -7.6055   26.1799 H   0  0  0  0  0  0  0  0  0  0  0  0
   15.1411    2.1472   22.3471 H   0  0  0  0  0  0  0  0  0  0  0  0
   15.6113    0.5325   22.9785 H   0  0  0  0  0  0  0  0  0  0  0  0
   14.6824    0.6517   21.4626 H   0  0  0  0  0  0  0  0  0  0  0  0
    9.6039    0.9802   24.7679 H   0  0  0  0  0  0  0  0  0  0  0  0
    9.6168    1.9835   23.3170 H   0  0  0  0  0  0  0  0  0  0  0  0
    9.8260   -8.1645   26.1971 H   0  0  0  0  0  0  0  0  0  0  0  0
   10.1125   -6.8979   27.4058 H   0  0  0  0  0  0  0  0  0  0  0  0
    8.8927   -4.8255   26.7964 H   0  0  0  0  0  0  0  0  0  0  0  0
    8.1135   -1.8119   21.3500 H   0  0  0  0  0  0  0  0  0  0  0  0
  1  3  2  0  0  0  0
  1  8  1  0  0  0  0
  2  4  1  0  0  0  0
  2  8  2  0  0  0  0
  3  9  1  0  0  0  0
  4  9  2  0  0  0  0
  5  7  1  0  0  0  0
  5 22  2  0  0  0  0
  6  7  2  0  0  0  0
  6 25  1  0  0  0  0
  7 20  1  0  0  0  0
  8 27  1  0  0  0  0
  9 29  1  0  0  0  0
 10 11  2  0  0  0  0
 10 12  1  0  0  0  0
 10 26  1  0  0  0  0
 11 23  1  0  0  0  0
 11 28  1  0  0  0  0
 12 13  2  0  0  0  0
 13 14  1  0  0  0  0
 14 15  2  0  0  0  0
 15 26  1  0  0  0  0
 16 21  1  0  0  0  0
 16 27  1  0  0  0  0
 16 30  2  0  0  0  0
 17 28  1  0  0  0  0
 17 29  1  0  0  0  0
 17 31  2  0  0  0  0
 18 21  1  0  0  0  0
 19 25  1  0  0  0  0
 20 29  1  0  0  0  0
 22 25  1  0  0  0  0
 23 24  2  0  0  0  0
 24 26  1  0  0  0  0
  1 32  1  0  0  0  0
  2 33  1  0  0  0  0
  3 34  1  0  0  0  0
  4 35  1  0  0  0  0
  5 36  1  0  0  0  0
  6 37  1  0  0  0  0
 12 38  1  0  0  0  0
 13 39  1  0  0  0  0
 14 40  1  0  0  0  0
 15 41  1  0  0  0  0
 18 42  1  0  0  0  0
 18 43  1  0  0  0  0
 18 44  1  0  0  0  0
 19 45  1  0  0  0  0
 19 46  1  0  0  0  0
 19 47  1  0  0  0  0
 20 48  1  0  0  0  0
 20 49  1  0  0  0  0
 21 50  1  0  0  0  0
 21 51  1  0  0  0  0
 27 52  1  0  0  0  0
 28 53  1  0  0  0  0
M  END
> <clash_score>
1.3333318184124714

> <docking_score>
-5.707981109619141

> <overlap_score>
0.9739129543304443

$$$$
BENZO_90_1
  -OEChem-08232013483D

 53 56  0     0  0  0  0  0  0999 V2000
   13.6051    1.9365   22.9866 C   0  0  0  0  0  0  0  0  0  0  0  0
   12.2104    1.9475   22.9757 C   0  0  0  0  0  0  0  0  0  0  0  0
    8.3310   -2.7170   25.3430 C   0  0  0  0  0  0  0  0  0  0  0  0
   10.2570   -3.5000   24.1350 C   0  0  0  0  0  0  0  0  0  0  0  0
    8.3510   -1.5420   24.6110 C   0  0  0  0  0  0  0  0  0  0  0  0
   10.2760   -2.3270   23.4020 C   0  0  0  0  0  0  0  0  0  0  0  0
   14.2892    1.0167   23.7814 C   0  0  0  0  0  0  0  0  0  0  0  0
   12.1836    0.1190   24.5546 C   0  0  0  0  0  0  0  0  0  0  0  0
   11.4996    1.0388   23.7597 C   0  0  0  0  0  0  0  0  0  0  0  0
    9.2850   -3.7090   25.1090 C   0  0  0  0  0  0  0  0  0  0  0  0
    9.3300   -1.3350   23.6390 C   0  0  0  0  0  0  0  0  0  0  0  0
   13.5784    0.1080   24.5654 C   0  0  0  0  0  0  0  0  0  0  0  0
    6.1600    0.3870   20.1140 C   0  0  0  0  0  0  0  0  0  0  0  0
    7.2210   -0.4620   20.0350 C   0  0  0  0  0  0  0  0  0  0  0  0
    5.3360    0.8000   21.1530 C   0  0  0  0  0  0  0  0  0  0  0  0
    4.2970    1.6690   20.8430 C   0  0  0  0  0  0  0  0  0  0  0  0
    4.0980    2.1130   19.5350 C   0  0  0  0  0  0  0  0  0  0  0  0
    4.9400    1.7060   18.5060 C   0  0  0  0  0  0  0  0  0  0  0  0
    9.6838   -6.1690   25.4414 C   0  0  0  0  0  0  0  0  0  0  0  0
    8.9510    0.1280   21.6880 C   0  0  0  0  0  0  0  0  0  0  0  0
    8.0382   -7.2886   27.0047 C   0  0  0  0  0  0  0  0  0  0  0  0
    9.9983    1.0521   23.7484 C   0  0  0  0  0  0  0  0  0  0  0  0
    9.4846   -7.1864   26.5550 C   0  0  0  0  0  0  0  0  0  0  0  0
    7.6830   -0.5170   18.7600 N   0  0  0  0  0  0  0  0  0  0  0  0
    6.9440    0.2550   18.0100 N   0  0  0  0  0  0  0  0  0  0  0  0
    5.9810    0.8330   18.8060 N   0  0  0  0  0  0  0  0  0  0  0  0
    9.2630   -4.8902   25.8410 N   0  0  0  0  0  0  0  0  0  0  0  0
    8.0810   -0.9750   21.0820 N   0  0  0  0  0  0  0  0  0  0  0  0
    9.4200   -0.0840   22.9530 N   0  0  0  0  0  0  0  0  0  0  0  0
   10.1564   -6.4800   24.3530 O   0  0  0  0  0  0  0  0  0  0  0  0
    9.1870    1.1500   21.0630 O   0  0  0  0  0  0  0  0  0  0  0  0
   14.4229   -1.0259   25.5468 Cl  0  0  0  0  0  0  0  0  0  0  0  0
   14.1583    2.6444   22.3760 H   0  0  0  0  0  0  0  0  0  0  0  0
   11.6857    2.6678   22.3534 H   0  0  0  0  0  0  0  0  0  0  0  0
    7.5639   -2.8621   26.1045 H   0  0  0  0  0  0  0  0  0  0  0  0
   11.0141   -4.2644   23.9422 H   0  0  0  0  0  0  0  0  0  0  0  0
    7.5950   -0.7788   24.8007 H   0  0  0  0  0  0  0  0  0  0  0  0
   11.0408   -2.1861   22.6359 H   0  0  0  0  0  0  0  0  0  0  0  0
   15.3764    1.0198   23.7802 H   0  0  0  0  0  0  0  0  0  0  0  0
   11.6248   -0.5878   25.1637 H   0  0  0  0  0  0  0  0  0  0  0  0
    5.4735    0.4758   22.1644 H   0  0  0  0  0  0  0  0  0  0  0  0
    3.6415    1.9967   21.6408 H   0  0  0  0  0  0  0  0  0  0  0  0
    3.2720    2.7926   19.2921 H   0  0  0  0  0  0  0  0  0  0  0  0
    4.8119    2.0418   17.5005 H   0  0  0  0  0  0  0  0  0  0  0  0
    7.6702   -6.3234   27.3680 H   0  0  0  0  0  0  0  0  0  0  0  0
    7.9416   -8.0182   27.8146 H   0  0  0  0  0  0  0  0  0  0  0  0
    7.3915   -7.6055   26.1799 H   0  0  0  0  0  0  0  0  0  0  0  0
    9.6039    0.9802   24.7679 H   0  0  0  0  0  0  0  0  0  0  0  0
    9.6168    1.9835   23.3170 H   0  0  0  0  0  0  0  0  0  0  0  0
    9.8260   -8.1645   26.1971 H   0  0  0  0  0  0  0  0  0  0  0  0
   10.1125   -6.8979   27.4058 H   0  0  0  0  0  0  0  0  0  0  0  0
    8.8927   -4.8255   26.7964 H   0  0  0  0  0  0  0  0  0  0  0  0
    8.1135   -1.8119   21.3500 H   0  0  0  0  0  0  0  0  0  0  0  0
  1  2  2  0  0  0  0
  1  7  1  0  0  0  0
  2  9  1  0  0  0  0
  3  5  2  0  0  0  0
  3 10  1  0  0  0  0
  4  6  1  0  0  0  0
  4 10  2  0  0  0  0
  5 11  1  0  0  0  0
  6 11  2  0  0  0  0
  7 12  2  0  0  0  0
  8  9  2  0  0  0  0
  8 12  1  0  0  0  0
  9 22  1  0  0  0  0
 10 27  1  0  0  0  0
 11 29  1  0  0  0  0
 12 32  1  0  0  0  0
 13 14  2  0  0  0  0
 13 15  1  0  0  0  0
 13 26  1  0  0  0  0
 14 24  1  0  0  0  0
 14 28  1  0  0  0  0
 15 16  2  0  0  0  0
 16 17  1  0  0  0  0
 17 18  2  0  0  0  0
 18 26  1  0  0  0  0
 19 23  1  0  0  0  0
 19 27  1  0  0  0  0
 19 30  2  0  0  0  0
 20 28  1  0  0  0  0
 20 29  1  0  0  0  0
 20 31  2  0  0  0  0
 21 23  1  0  0  0  0
 22 29  1  0  0  0  0
 24 25  2  0  0  0  0
 25 26  1  0  0  0  0
  1 33  1  0  0  0  0
  2 34  1  0  0  0  0
  3 35  1  0  0  0  0
  4 36  1  0  0  0  0
  5 37  1  0  0  0  0
  6 38  1  0  0  0  0
  7 39  1  0  0  0  0
  8 40  1  0  0  0  0
 15 41  1  0  0  0  0
 16 42  1  0  0  0  0
 17 43  1  0  0  0  0
 18 44  1  0  0  0  0
 21 45  1  0  0  0  0
 21 46  1  0  0  0  0
 21 47  1  0  0  0  0
 22 48  1  0  0  0  0
 22 49  1  0  0  0  0
 23 50  1  0  0  0  0
 23 51  1  0  0  0  0
 27 52  1  0  0  0  0
 28 53  1  0  0  0  0
M  END
> <clash_score>
2.0725939285259525

> <docking_score>
-4.899756908416748

> <overlap_score>
0.9821833372116089

$$$$
BENZO_93_1
  -OEChem-08232013483D

 58 62  0     0  0  0  0  0  0999 V2000
   14.2885    1.1441   23.7306 C   0  0  0  0  0  0  0  0  0  0  0  0
   13.6022    0.4565   24.7315 C   0  0  0  0  0  0  0  0  0  0  0  0
   13.5801    1.8094   22.7300 C   0  0  0  0  0  0  0  0  0  0  0  0
   12.2075    0.4341   24.7317 C   0  0  0  0  0  0  0  0  0  0  0  0
   12.1854    1.7870   22.7302 C   0  0  0  0  0  0  0  0  0  0  0  0
    8.3310   -2.7170   25.3430 C   0  0  0  0  0  0  0  0  0  0  0  0
   10.2570   -3.5000   24.1350 C   0  0  0  0  0  0  0  0  0  0  0  0
    8.3510   -1.5420   24.6110 C   0  0  0  0  0  0  0  0  0  0  0  0
   10.2760   -2.3270   23.4020 C   0  0  0  0  0  0  0  0  0  0  0  0
   11.4991    1.0994   23.7311 C   0  0  0  0  0  0  0  0  0  0  0  0
    9.2850   -3.7090   25.1090 C   0  0  0  0  0  0  0  0  0  0  0  0
    9.3300   -1.3350   23.6390 C   0  0  0  0  0  0  0  0  0  0  0  0
    6.1600    0.3870   20.1140 C   0  0  0  0  0  0  0  0  0  0  0  0
    7.2210   -0.4620   20.0350 C   0  0  0  0  0  0  0  0  0  0  0  0
    5.3360    0.8000   21.1530 C   0  0  0  0  0  0  0  0  0  0  0  0
    4.2970    1.6690   20.8430 C   0  0  0  0  0  0  0  0  0  0  0  0
    4.0980    2.1130   19.5350 C   0  0  0  0  0  0  0  0  0  0  0  0
    4.9400    1.7060   18.5060 C   0  0  0  0  0  0  0  0  0  0  0  0
    8.9510    0.1280   21.6880 C   0  0  0  0  0  0  0  0  0  0  0  0
    7.3162   -6.8835   26.5210 C   0  0  0  0  0  0  0  0  0  0  0  0
    7.3507   -5.5245   27.2240 C   0  0  0  0  0  0  0  0  0  0  0  0
    7.9375   -6.8069   25.1245 C   0  0  0  0  0  0  0  0  0  0  0  0
    8.7638   -4.9418   27.2163 C   0  0  0  0  0  0  0  0  0  0  0  0
    9.3378   -6.1874   25.1659 C   0  0  0  0  0  0  0  0  0  0  0  0
    9.9979    1.0755   23.7305 C   0  0  0  0  0  0  0  0  0  0  0  0
    7.6830   -0.5170   18.7600 N   0  0  0  0  0  0  0  0  0  0  0  0
    6.9440    0.2550   18.0100 N   0  0  0  0  0  0  0  0  0  0  0  0
    5.9810    0.8330   18.8060 N   0  0  0  0  0  0  0  0  0  0  0  0
    9.2639   -4.8860   25.8399 N   0  0  0  0  0  0  0  0  0  0  0  0
    8.0810   -0.9750   21.0820 N   0  0  0  0  0  0  0  0  0  0  0  0
    9.4200   -0.0840   22.9530 N   0  0  0  0  0  0  0  0  0  0  0  0
    9.1870    1.1500   21.0630 O   0  0  0  0  0  0  0  0  0  0  0  0
   15.3744    1.1626   23.7314 H   0  0  0  0  0  0  0  0  0  0  0  0
   14.1535   -0.0606   25.5114 H   0  0  0  0  0  0  0  0  0  0  0  0
   14.1141    2.3458   21.9512 H   0  0  0  0  0  0  0  0  0  0  0  0
   11.6811   -0.1043   25.5155 H   0  0  0  0  0  0  0  0  0  0  0  0
   11.6419    2.3081   21.9465 H   0  0  0  0  0  0  0  0  0  0  0  0
    7.5647   -2.8621   26.1053 H   0  0  0  0  0  0  0  0  0  0  0  0
   11.0144   -4.2642   23.9425 H   0  0  0  0  0  0  0  0  0  0  0  0
    7.5958   -0.7779   24.8006 H   0  0  0  0  0  0  0  0  0  0  0  0
   11.0406   -2.1848   22.6356 H   0  0  0  0  0  0  0  0  0  0  0  0
    5.4735    0.4758   22.1644 H   0  0  0  0  0  0  0  0  0  0  0  0
    3.6415    1.9967   21.6408 H   0  0  0  0  0  0  0  0  0  0  0  0
    3.2720    2.7926   19.2921 H   0  0  0  0  0  0  0  0  0  0  0  0
    4.8119    2.0418   17.5005 H   0  0  0  0  0  0  0  0  0  0  0  0
    7.8578   -7.6261   27.1266 H   0  0  0  0  0  0  0  0  0  0  0  0
    6.2773   -7.2358   26.4459 H   0  0  0  0  0  0  0  0  0  0  0  0
    6.6663   -4.8351   26.7223 H   0  0  0  0  0  0  0  0  0  0  0  0
    7.0044   -5.6368   28.2534 H   0  0  0  0  0  0  0  0  0  0  0  0
    7.9946   -7.8119   24.6937 H   0  0  0  0  0  0  0  0  0  0  0  0
    7.2929   -6.2123   24.4668 H   0  0  0  0  0  0  0  0  0  0  0  0
    8.7343   -3.9408   27.6542 H   0  0  0  0  0  0  0  0  0  0  0  0
    9.4243   -5.5632   27.8278 H   0  0  0  0  0  0  0  0  0  0  0  0
   10.0200   -6.8490   25.7011 H   0  0  0  0  0  0  0  0  0  0  0  0
    9.6984   -6.0694   24.1436 H   0  0  0  0  0  0  0  0  0  0  0  0
    9.6122    1.0250   24.7546 H   0  0  0  0  0  0  0  0  0  0  0  0
    9.5906    1.9837   23.2740 H   0  0  0  0  0  0  0  0  0  0  0  0
    8.1334   -1.7992   21.3673 H   0  0  0  0  0  0  0  0  0  0  0  0
  1  2  1  0  0  0  0
  1  3  2  0  0  0  0
  2  4  2  0  0  0  0
  3  5  1  0  0  0  0
  4 10  1  0  0  0  0
  5 10  2  0  0  0  0
  6  8  2  0  0  0  0
  6 11  1  0  0  0  0
  7  9  1  0  0  0  0
  7 11  2  0  0  0  0
  8 12  1  0  0  0  0
  9 12  2  0  0  0  0
 10 25  1  0  0  0  0
 11 29  1  0  0  0  0
 12 31  1  0  0  0  0
 13 14  2  0  0  0  0
 13 15  1  0  0  0  0
 13 28  1  0  0  0  0
 14 26  1  0  0  0  0
 14 30  1  0  0  0  0
 15 16  2  0  0  0  0
 16 17  1  0  0  0  0
 17 18  2  0  0  0  0
 18 28  1  0  0  0  0
 19 30  1  0  0  0  0
 19 31  1  0  0  0  0
 19 32  2  0  0  0  0
 20 21  1  0  0  0  0
 20 22  1  0  0  0  0
 21 23  1  0  0  0  0
 22 24  1  0  0  0  0
 23 29  1  0  0  0  0
 24 29  1  0  0  0  0
 25 31  1  0  0  0  0
 26 27  2  0  0  0  0
 27 28  1  0  0  0  0
  1 33  1  0  0  0  0
  2 34  1  0  0  0  0
  3 35  1  0  0  0  0
  4 36  1  0  0  0  0
  5 37  1  0  0  0  0
  6 38  1  0  0  0  0
  7 39  1  0  0  0  0
  8 40  1  0  0  0  0
  9 41  1  0  0  0  0
 15 42  1  0  0  0  0
 16 43  1  0  0  0  0
 17 44  1  0  0  0  0
 18 45  1  0  0  0  0
 20 46  1  0  0  0  0
 20 47  1  0  0  0  0
 21 48  1  0  0  0  0
 21 49  1  0  0  0  0
 22 50  1  0  0  0  0
 22 51  1  0  0  0  0
 23 52  1  0  0  0  0
 23 53  1  0  0  0  0
 24 54  1  0  0  0  0
 24 55  1  0  0  0  0
 25 56  1  0  0  0  0
 25 57  1  0  0  0  0
 30 58  1  0  0  0  0
M  END
> <clash_score>
0

> <docking_score>
-8.16379165649414

> <overlap_score>
1.0103838443756104

$$$$
BENZO_92_1
  -OEChem-08232013483D

 55 59  0     0  0  0  0  0  0999 V2000
    8.3310   -2.7170   25.3430 C   0  0  0  0  0  0  0  0  0  0  0  0
   10.2570   -3.5000   24.1350 C   0  0  0  0  0  0  0  0  0  0  0  0
    8.3510   -1.5420   24.6110 C   0  0  0  0  0  0  0  0  0  0  0  0
   10.2760   -2.3270   23.4020 C   0  0  0  0  0  0  0  0  0  0  0  0
   12.2931    1.1632   22.5497 C   0  0  0  0  0  0  0  0  0  0  0  0
   13.6413    1.1718   22.8323 C   0  0  0  0  0  0  0  0  0  0  0  0
   12.2708    1.0613   24.8717 C   0  0  0  0  0  0  0  0  0  0  0  0
   11.4991    1.0994   23.7311 C   0  0  0  0  0  0  0  0  0  0  0  0
    9.2850   -3.7090   25.1090 C   0  0  0  0  0  0  0  0  0  0  0  0
    9.3300   -1.3350   23.6390 C   0  0  0  0  0  0  0  0  0  0  0  0
    6.1600    0.3870   20.1140 C   0  0  0  0  0  0  0  0  0  0  0  0
    7.2210   -0.4620   20.0350 C   0  0  0  0  0  0  0  0  0  0  0  0
    5.3360    0.8000   21.1530 C   0  0  0  0  0  0  0  0  0  0  0  0
    4.2970    1.6690   20.8430 C   0  0  0  0  0  0  0  0  0  0  0  0
    4.0980    2.1130   19.5350 C   0  0  0  0  0  0  0  0  0  0  0  0
    4.9400    1.7060   18.5060 C   0  0  0  0  0  0  0  0  0  0  0  0
    8.9510    0.1280   21.6880 C   0  0  0  0  0  0  0  0  0  0  0  0
    7.3162   -6.8835   26.5210 C   0  0  0  0  0  0  0  0  0  0  0  0
    7.3507   -5.5245   27.2240 C   0  0  0  0  0  0  0  0  0  0  0  0
    7.9375   -6.8069   25.1245 C   0  0  0  0  0  0  0  0  0  0  0  0
    8.7638   -4.9418   27.2163 C   0  0  0  0  0  0  0  0  0  0  0  0
    9.3378   -6.1874   25.1659 C   0  0  0  0  0  0  0  0  0  0  0  0
    9.9979    1.0755   23.7305 C   0  0  0  0  0  0  0  0  0  0  0  0
    7.6830   -0.5170   18.7600 N   0  0  0  0  0  0  0  0  0  0  0  0
    6.9440    0.2550   18.0100 N   0  0  0  0  0  0  0  0  0  0  0  0
    5.9810    0.8330   18.8060 N   0  0  0  0  0  0  0  0  0  0  0  0
    9.2639   -4.8860   25.8399 N   0  0  0  0  0  0  0  0  0  0  0  0
    8.0810   -0.9750   21.0820 N   0  0  0  0  0  0  0  0  0  0  0  0
    9.4200   -0.0840   22.9530 N   0  0  0  0  0  0  0  0  0  0  0  0
    9.1870    1.1500   21.0630 O   0  0  0  0  0  0  0  0  0  0  0  0
   13.9453    1.1028   24.5161 S   0  0  0  0  0  0  0  0  0  0  0  0
    7.5647   -2.8621   26.1053 H   0  0  0  0  0  0  0  0  0  0  0  0
   11.0144   -4.2642   23.9425 H   0  0  0  0  0  0  0  0  0  0  0  0
    7.5958   -0.7779   24.8006 H   0  0  0  0  0  0  0  0  0  0  0  0
   11.0406   -2.1848   22.6356 H   0  0  0  0  0  0  0  0  0  0  0  0
   11.8995    1.2007   21.5418 H   0  0  0  0  0  0  0  0  0  0  0  0
   14.4623    1.2144   22.1306 H   0  0  0  0  0  0  0  0  0  0  0  0
   11.9355    1.0099   25.8983 H   0  0  0  0  0  0  0  0  0  0  0  0
    5.4735    0.4758   22.1644 H   0  0  0  0  0  0  0  0  0  0  0  0
    3.6415    1.9967   21.6408 H   0  0  0  0  0  0  0  0  0  0  0  0
    3.2720    2.7926   19.2921 H   0  0  0  0  0  0  0  0  0  0  0  0
    4.8119    2.0418   17.5005 H   0  0  0  0  0  0  0  0  0  0  0  0
    7.8578   -7.6261   27.1266 H   0  0  0  0  0  0  0  0  0  0  0  0
    6.2773   -7.2358   26.4459 H   0  0  0  0  0  0  0  0  0  0  0  0
    6.6663   -4.8351   26.7223 H   0  0  0  0  0  0  0  0  0  0  0  0
    7.0044   -5.6368   28.2534 H   0  0  0  0  0  0  0  0  0  0  0  0
    7.9946   -7.8119   24.6937 H   0  0  0  0  0  0  0  0  0  0  0  0
    7.2929   -6.2123   24.4668 H   0  0  0  0  0  0  0  0  0  0  0  0
    8.7343   -3.9408   27.6542 H   0  0  0  0  0  0  0  0  0  0  0  0
    9.4243   -5.5632   27.8278 H   0  0  0  0  0  0  0  0  0  0  0  0
   10.0200   -6.8490   25.7011 H   0  0  0  0  0  0  0  0  0  0  0  0
    9.6984   -6.0694   24.1436 H   0  0  0  0  0  0  0  0  0  0  0  0
    9.6122    1.0250   24.7546 H   0  0  0  0  0  0  0  0  0  0  0  0
    9.5906    1.9837   23.2740 H   0  0  0  0  0  0  0  0  0  0  0  0
    8.1334   -1.7992   21.3673 H   0  0  0  0  0  0  0  0  0  0  0  0
  1  3  2  0  0  0  0
  1  9  1  0  0  0  0
  2  4  1  0  0  0  0
  2  9  2  0  0  0  0
  3 10  1  0  0  0  0
  4 10  2  0  0  0  0
  5  6  2  0  0  0  0
  5  8  1  0  0  0  0
  6 31  1  0  0  0  0
  7  8  2  0  0  0  0
  7 31  1  0  0  0  0
  8 23  1  0  0  0  0
  9 27  1  0  0  0  0
 10 29  1  0  0  0  0
 11 12  2  0  0  0  0
 11 13  1  0  0  0  0
 11 26  1  0  0  0  0
 12 24  1  0  0  0  0
 12 28  1  0  0  0  0
 13 14  2  0  0  0  0
 14 15  1  0  0  0  0
 15 16  2  0  0  0  0
 16 26  1  0  0  0  0
 17 28  1  0  0  0  0
 17 29  1  0  0  0  0
 17 30  2  0  0  0  0
 18 19  1  0  0  0  0
 18 20  1  0  0  0  0
 19 21  1  0  0  0  0
 20 22  1  0  0  0  0
 21 27  1  0  0  0  0
 22 27  1  0  0  0  0
 23 29  1  0  0  0  0
 24 25  2  0  0  0  0
 25 26  1  0  0  0  0
  1 32  1  0  0  0  0
  2 33  1  0  0  0  0
  3 34  1  0  0  0  0
  4 35  1  0  0  0  0
  5 36  1  0  0  0  0
  6 37  1  0  0  0  0
  7 38  1  0  0  0  0
 13 39  1  0  0  0  0
 14 40  1  0  0  0  0
 15 41  1  0  0  0  0
 16 42  1  0  0  0  0
 18 43  1  0  0  0  0
 18 44  1  0  0  0  0
 19 45  1  0  0  0  0
 19 46  1  0  0  0  0
 20 47  1  0  0  0  0
 20 48  1  0  0  0  0
 21 49  1  0  0  0  0
 21 50  1  0  0  0  0
 22 51  1  0  0  0  0
 22 52  1  0  0  0  0
 23 53  1  0  0  0  0
 23 54  1  0  0  0  0
 28 55  1  0  0  0  0
M  END
> <clash_score>
0

> <docking_score>
-8.544034957885742

> <overlap_score>
0.9876057505607605

$$$$
BENZO_97_1
  -OEChem-08232013483D

 46 49  0     0  0  0  0  0  0999 V2000
   14.2892    1.0145   23.7793 C   0  0  0  0  0  0  0  0  0  0  0  0
   13.5789    0.3324   24.7671 C   0  0  0  0  0  0  0  0  0  0  0  0
   13.6048    1.7088   22.7817 C   0  0  0  0  0  0  0  0  0  0  0  0
   12.1841    0.3445   24.7573 C   0  0  0  0  0  0  0  0  0  0  0  0
   12.2100    1.7210   22.7719 C   0  0  0  0  0  0  0  0  0  0  0  0
    8.3310   -2.7170   25.3430 C   0  0  0  0  0  0  0  0  0  0  0  0
   10.2570   -3.5000   24.1350 C   0  0  0  0  0  0  0  0  0  0  0  0
    8.3510   -1.5420   24.6110 C   0  0  0  0  0  0  0  0  0  0  0  0
   10.2760   -2.3270   23.4020 C   0  0  0  0  0  0  0  0  0  0  0  0
    9.2850   -3.7090   25.1090 C   0  0  0  0  0  0  0  0  0  0  0  0
   11.4996    1.0388   23.7597 C   0  0  0  0  0  0  0  0  0  0  0  0
    9.3300   -1.3350   23.6390 C   0  0  0  0  0  0  0  0  0  0  0  0
    6.1600    0.3870   20.1140 C   0  0  0  0  0  0  0  0  0  0  0  0
    7.2210   -0.4620   20.0350 C   0  0  0  0  0  0  0  0  0  0  0  0
    5.3360    0.8000   21.1530 C   0  0  0  0  0  0  0  0  0  0  0  0
    4.2970    1.6690   20.8430 C   0  0  0  0  0  0  0  0  0  0  0  0
    4.0980    2.1130   19.5350 C   0  0  0  0  0  0  0  0  0  0  0  0
    4.9400    1.7060   18.5060 C   0  0  0  0  0  0  0  0  0  0  0  0
    8.9510    0.1280   21.6880 C   0  0  0  0  0  0  0  0  0  0  0  0
    9.2610   -4.9721   25.8916 C   0  0  0  0  0  0  0  0  0  0  0  0
    9.9983    1.0521   23.7484 C   0  0  0  0  0  0  0  0  0  0  0  0
    7.6830   -0.5170   18.7600 N   0  0  0  0  0  0  0  0  0  0  0  0
    6.9440    0.2550   18.0100 N   0  0  0  0  0  0  0  0  0  0  0  0
    5.9810    0.8330   18.8060 N   0  0  0  0  0  0  0  0  0  0  0  0
    8.0810   -0.9750   21.0820 N   0  0  0  0  0  0  0  0  0  0  0  0
    9.4200   -0.0840   22.9530 N   0  0  0  0  0  0  0  0  0  0  0  0
    9.1870    1.1500   21.0630 O   0  0  0  0  0  0  0  0  0  0  0  0
   15.3752    1.0060   23.7879 H   0  0  0  0  0  0  0  0  0  0  0  0
   14.1116   -0.2074   25.5446 H   0  0  0  0  0  0  0  0  0  0  0  0
   14.1575    2.2409   22.0132 H   0  0  0  0  0  0  0  0  0  0  0  0
   11.6389   -0.1899   25.5308 H   0  0  0  0  0  0  0  0  0  0  0  0
   11.6852    2.2645   21.9907 H   0  0  0  0  0  0  0  0  0  0  0  0
    7.5665   -2.8638   26.1066 H   0  0  0  0  0  0  0  0  0  0  0  0
   11.0137   -4.2652   23.9447 H   0  0  0  0  0  0  0  0  0  0  0  0
    7.5948   -0.7788   24.7997 H   0  0  0  0  0  0  0  0  0  0  0  0
   11.0411   -2.1856   22.6358 H   0  0  0  0  0  0  0  0  0  0  0  0
    5.4735    0.4758   22.1644 H   0  0  0  0  0  0  0  0  0  0  0  0
    3.6415    1.9967   21.6408 H   0  0  0  0  0  0  0  0  0  0  0  0
    3.2720    2.7926   19.2921 H   0  0  0  0  0  0  0  0  0  0  0  0
    4.8119    2.0418   17.5005 H   0  0  0  0  0  0  0  0  0  0  0  0
    8.6398   -5.7223   25.3871 H   0  0  0  0  0  0  0  0  0  0  0  0
   10.2715   -5.3829   26.0145 H   0  0  0  0  0  0  0  0  0  0  0  0
    8.8596   -4.8092   26.9004 H   0  0  0  0  0  0  0  0  0  0  0  0
    9.6039    0.9802   24.7679 H   0  0  0  0  0  0  0  0  0  0  0  0
    9.6168    1.9835   23.3170 H   0  0  0  0  0  0  0  0  0  0  0  0
    8.1135   -1.8119   21.3500 H   0  0  0  0  0  0  0  0  0  0  0  0
  1  2  1  0  0  0  0
  1  3  2  0  0  0  0
  2  4  2  0  0  0  0
  3  5  1  0  0  0  0
  4 11  1  0  0  0  0
  5 11  2  0  0  0  0
  6  8  2  0  0  0  0
  6 10  1  0  0  0  0
  7  9  1  0  0  0  0
  7 10  2  0  0  0  0
  8 12  1  0  0  0  0
  9 12  2  0  0  0  0
 10 20  1  0  0  0  0
 11 21  1  0  0  0  0
 12 26  1  0  0  0  0
 13 14  2  0  0  0  0
 13 15  1  0  0  0  0
 13 24  1  0  0  0  0
 14 22  1  0  0  0  0
 14 25  1  0  0  0  0
 15 16  2  0  0  0  0
 16 17  1  0  0  0  0
 17 18  2  0  0  0  0
 18 24  1  0  0  0  0
 19 25  1  0  0  0  0
 19 26  1  0  0  0  0
 19 27  2  0  0  0  0
 21 26  1  0  0  0  0
 22 23  2  0  0  0  0
 23 24  1  0  0  0  0
  1 28  1  0  0  0  0
  2 29  1  0  0  0  0
  3 30  1  0  0  0  0
  4 31  1  0  0  0  0
  5 32  1  0  0  0  0
  6 33  1  0  0  0  0
  7 34  1  0  0  0  0
  8 35  1  0  0  0  0
  9 36  1  0  0  0  0
 15 37  1  0  0  0  0
 16 38  1  0  0  0  0
 17 39  1  0  0  0  0
 18 40  1  0  0  0  0
 20 41  1  0  0  0  0
 20 42  1  0  0  0  0
 20 43  1  0  0  0  0
 21 44  1  0  0  0  0
 21 45  1  0  0  0  0
 25 46  1  0  0  0  0
M  END
> <clash_score>
0

> <docking_score>
-9.211991310119629

> <overlap_score>
0.9648507833480835

$$$$
BENZO_96_1
  -OEChem-08232013483D

 43 46  0     0  0  0  0  0  0999 V2000
    8.3310   -2.7170   25.3430 C   0  0  0  0  0  0  0  0  0  0  0  0
   10.2570   -3.5000   24.1350 C   0  0  0  0  0  0  0  0  0  0  0  0
    8.3510   -1.5420   24.6110 C   0  0  0  0  0  0  0  0  0  0  0  0
   10.2760   -2.3270   23.4020 C   0  0  0  0  0  0  0  0  0  0  0  0
   12.3038    1.1187   22.5862 C   0  0  0  0  0  0  0  0  0  0  0  0
   13.6496    1.0853   22.8779 C   0  0  0  0  0  0  0  0  0  0  0  0
   12.2616    0.9472   24.9038 C   0  0  0  0  0  0  0  0  0  0  0  0
    9.2850   -3.7090   25.1090 C   0  0  0  0  0  0  0  0  0  0  0  0
   11.4996    1.0388   23.7597 C   0  0  0  0  0  0  0  0  0  0  0  0
    9.3300   -1.3350   23.6390 C   0  0  0  0  0  0  0  0  0  0  0  0
    6.1600    0.3870   20.1140 C   0  0  0  0  0  0  0  0  0  0  0  0
    7.2210   -0.4620   20.0350 C   0  0  0  0  0  0  0  0  0  0  0  0
    5.3360    0.8000   21.1530 C   0  0  0  0  0  0  0  0  0  0  0  0
    4.2970    1.6690   20.8430 C   0  0  0  0  0  0  0  0  0  0  0  0
    4.0980    2.1130   19.5350 C   0  0  0  0  0  0  0  0  0  0  0  0
    4.9400    1.7060   18.5060 C   0  0  0  0  0  0  0  0  0  0  0  0
    8.9510    0.1280   21.6880 C   0  0  0  0  0  0  0  0  0  0  0  0
    9.2610   -4.9721   25.8916 C   0  0  0  0  0  0  0  0  0  0  0  0
    9.9983    1.0521   23.7484 C   0  0  0  0  0  0  0  0  0  0  0  0
    7.6830   -0.5170   18.7600 N   0  0  0  0  0  0  0  0  0  0  0  0
    6.9440    0.2550   18.0100 N   0  0  0  0  0  0  0  0  0  0  0  0
    5.9810    0.8330   18.8060 N   0  0  0  0  0  0  0  0  0  0  0  0
    8.0810   -0.9750   21.0820 N   0  0  0  0  0  0  0  0  0  0  0  0
    9.4200   -0.0840   22.9530 N   0  0  0  0  0  0  0  0  0  0  0  0
    9.1870    1.1500   21.0630 O   0  0  0  0  0  0  0  0  0  0  0  0
   13.9393    0.9580   24.5608 S   0  0  0  0  0  0  0  0  0  0  0  0
    7.5665   -2.8638   26.1066 H   0  0  0  0  0  0  0  0  0  0  0  0
   11.0137   -4.2652   23.9447 H   0  0  0  0  0  0  0  0  0  0  0  0
    7.5948   -0.7788   24.7997 H   0  0  0  0  0  0  0  0  0  0  0  0
   11.0411   -2.1856   22.6358 H   0  0  0  0  0  0  0  0  0  0  0  0
   11.9187    1.1964   21.5772 H   0  0  0  0  0  0  0  0  0  0  0  0
   14.4766    1.1289   22.1833 H   0  0  0  0  0  0  0  0  0  0  0  0
   11.9176    0.8730   25.9261 H   0  0  0  0  0  0  0  0  0  0  0  0
    5.4735    0.4758   22.1644 H   0  0  0  0  0  0  0  0  0  0  0  0
    3.6415    1.9967   21.6408 H   0  0  0  0  0  0  0  0  0  0  0  0
    3.2720    2.7926   19.2921 H   0  0  0  0  0  0  0  0  0  0  0  0
    4.8119    2.0418   17.5005 H   0  0  0  0  0  0  0  0  0  0  0  0
    8.6398   -5.7223   25.3871 H   0  0  0  0  0  0  0  0  0  0  0  0
   10.2715   -5.3829   26.0145 H   0  0  0  0  0  0  0  0  0  0  0  0
    8.8596   -4.8092   26.9004 H   0  0  0  0  0  0  0  0  0  0  0  0
    9.6039    0.9802   24.7679 H   0  0  0  0  0  0  0  0  0  0  0  0
    9.6168    1.9835   23.3170 H   0  0  0  0  0  0  0  0  0  0  0  0
    8.1135   -1.8119   21.3500 H   0  0  0  0  0  0  0  0  0  0  0  0
  1  3  2  0  0  0  0
  1  8  1  0  0  0  0
  2  4  1  0  0  0  0
  2  8  2  0  0  0  0
  3 10  1  0  0  0  0
  4 10  2  0  0  0  0
  5  6  2  0  0  0  0
  5  9  1  0  0  0  0
  6 26  1  0  0  0  0
  7  9  2  0  0  0  0
  7 26  1  0  0  0  0
  8 18  1  0  0  0  0
  9 19  1  0  0  0  0
 10 24  1  0  0  0  0
 11 12  2  0  0  0  0
 11 13  1  0  0  0  0
 11 22  1  0  0  0  0
 12 20  1  0  0  0  0
 12 23  1  0  0  0  0
 13 14  2  0  0  0  0
 14 15  1  0  0  0  0
 15 16  2  0  0  0  0
 16 22  1  0  0  0  0
 17 23  1  0  0  0  0
 17 24  1  0  0  0  0
 17 25  2  0  0  0  0
 19 24  1  0  0  0  0
 20 21  2  0  0  0  0
 21 22  1  0  0  0  0
  1 27  1  0  0  0  0
  2 28  1  0  0  0  0
  3 29  1  0  0  0  0
  4 30  1  0  0  0  0
  5 31  1  0  0  0  0
  6 32  1  0  0  0  0
  7 33  1  0  0  0  0
 13 34  1  0  0  0  0
 14 35  1  0  0  0  0
 15 36  1  0  0  0  0
 16 37  1  0  0  0  0
 18 38  1  0  0  0  0
 18 39  1  0  0  0  0
 18 40  1  0  0  0  0
 19 41  1  0  0  0  0
 19 42  1  0  0  0  0
 23 43  1  0  0  0  0
M  END
> <clash_score>
0

> <docking_score>
-9.603184700012207

> <overlap_score>
0.9422006011009216

$$$$
BENZO_94_1
  -OEChem-08232013483D

 58 62  0     0  0  0  0  0  0999 V2000
   13.5765    2.0245   22.9155 C   0  0  0  0  0  0  0  0  0  0  0  0
   12.1819    2.0010   22.9146 C   0  0  0  0  0  0  0  0  0  0  0  0
    8.3310   -2.7170   25.3430 C   0  0  0  0  0  0  0  0  0  0  0  0
   10.2570   -3.5000   24.1350 C   0  0  0  0  0  0  0  0  0  0  0  0
    8.3510   -1.5420   24.6110 C   0  0  0  0  0  0  0  0  0  0  0  0
   10.2760   -2.3270   23.4020 C   0  0  0  0  0  0  0  0  0  0  0  0
   14.2884    1.1463   23.7327 C   0  0  0  0  0  0  0  0  0  0  0  0
   12.2109    0.2212   24.5483 C   0  0  0  0  0  0  0  0  0  0  0  0
   11.4991    1.0994   23.7311 C   0  0  0  0  0  0  0  0  0  0  0  0
    9.2850   -3.7090   25.1090 C   0  0  0  0  0  0  0  0  0  0  0  0
    9.3300   -1.3350   23.6390 C   0  0  0  0  0  0  0  0  0  0  0  0
   13.6056    0.2447   24.5491 C   0  0  0  0  0  0  0  0  0  0  0  0
    6.1600    0.3870   20.1140 C   0  0  0  0  0  0  0  0  0  0  0  0
    7.2210   -0.4620   20.0350 C   0  0  0  0  0  0  0  0  0  0  0  0
    5.3360    0.8000   21.1530 C   0  0  0  0  0  0  0  0  0  0  0  0
    4.2970    1.6690   20.8430 C   0  0  0  0  0  0  0  0  0  0  0  0
    4.0980    2.1130   19.5350 C   0  0  0  0  0  0  0  0  0  0  0  0
    4.9400    1.7060   18.5060 C   0  0  0  0  0  0  0  0  0  0  0  0
    8.9510    0.1280   21.6880 C   0  0  0  0  0  0  0  0  0  0  0  0
    7.3162   -6.8835   26.5210 C   0  0  0  0  0  0  0  0  0  0  0  0
    7.3507   -5.5245   27.2240 C   0  0  0  0  0  0  0  0  0  0  0  0
    7.9375   -6.8069   25.1245 C   0  0  0  0  0  0  0  0  0  0  0  0
    8.7638   -4.9418   27.2163 C   0  0  0  0  0  0  0  0  0  0  0  0
    9.3378   -6.1874   25.1659 C   0  0  0  0  0  0  0  0  0  0  0  0
    9.9979    1.0755   23.7305 C   0  0  0  0  0  0  0  0  0  0  0  0
    7.6830   -0.5170   18.7600 N   0  0  0  0  0  0  0  0  0  0  0  0
    6.9440    0.2550   18.0100 N   0  0  0  0  0  0  0  0  0  0  0  0
    5.9810    0.8330   18.8060 N   0  0  0  0  0  0  0  0  0  0  0  0
    9.2639   -4.8860   25.8399 N   0  0  0  0  0  0  0  0  0  0  0  0
    8.0810   -0.9750   21.0820 N   0  0  0  0  0  0  0  0  0  0  0  0
    9.4200   -0.0840   22.9530 N   0  0  0  0  0  0  0  0  0  0  0  0
    9.1870    1.1500   21.0630 O   0  0  0  0  0  0  0  0  0  0  0  0
   14.4844   -0.8377   25.5580 Cl  0  0  0  0  0  0  0  0  0  0  0  0
   14.1079    2.7268   22.2797 H   0  0  0  0  0  0  0  0  0  0  0  0
   11.6354    2.6889   22.2748 H   0  0  0  0  0  0  0  0  0  0  0  0
    7.5647   -2.8621   26.1053 H   0  0  0  0  0  0  0  0  0  0  0  0
   11.0144   -4.2642   23.9425 H   0  0  0  0  0  0  0  0  0  0  0  0
    7.5958   -0.7779   24.8006 H   0  0  0  0  0  0  0  0  0  0  0  0
   11.0406   -2.1848   22.6356 H   0  0  0  0  0  0  0  0  0  0  0  0
   15.3752    1.1761   23.7233 H   0  0  0  0  0  0  0  0  0  0  0  0
   11.6739   -0.4802   25.1826 H   0  0  0  0  0  0  0  0  0  0  0  0
    5.4735    0.4758   22.1644 H   0  0  0  0  0  0  0  0  0  0  0  0
    3.6415    1.9967   21.6408 H   0  0  0  0  0  0  0  0  0  0  0  0
    3.2720    2.7926   19.2921 H   0  0  0  0  0  0  0  0  0  0  0  0
    4.8119    2.0418   17.5005 H   0  0  0  0  0  0  0  0  0  0  0  0
    7.8578   -7.6261   27.1266 H   0  0  0  0  0  0  0  0  0  0  0  0
    6.2773   -7.2358   26.4459 H   0  0  0  0  0  0  0  0  0  0  0  0
    6.6663   -4.8351   26.7223 H   0  0  0  0  0  0  0  0  0  0  0  0
    7.0044   -5.6368   28.2534 H   0  0  0  0  0  0  0  0  0  0  0  0
    7.9946   -7.8119   24.6937 H   0  0  0  0  0  0  0  0  0  0  0  0
    7.2929   -6.2123   24.4668 H   0  0  0  0  0  0  0  0  0  0  0  0
    8.7343   -3.9408   27.6542 H   0  0  0  0  0  0  0  0  0  0  0  0
    9.4243   -5.5632   27.8278 H   0  0  0  0  0  0  0  0  0  0  0  0
   10.0200   -6.8490   25.7011 H   0  0  0  0  0  0  0  0  0  0  0  0
    9.6984   -6.0694   24.1436 H   0  0  0  0  0  0  0  0  0  0  0  0
    9.6122    1.0250   24.7546 H   0  0  0  0  0  0  0  0  0  0  0  0
    9.5906    1.9837   23.2740 H   0  0  0  0  0  0  0  0  0  0  0  0
    8.1334   -1.7992   21.3673 H   0  0  0  0  0  0  0  0  0  0  0  0
  1  2  2  0  0  0  0
  1  7  1  0  0  0  0
  2  9  1  0  0  0  0
  3  5  2  0  0  0  0
  3 10  1  0  0  0  0
  4  6  1  0  0  0  0
  4 10  2  0  0  0  0
  5 11  1  0  0  0  0
  6 11  2  0  0  0  0
  7 12  2  0  0  0  0
  8  9  2  0  0  0  0
  8 12  1  0  0  0  0
  9 25  1  0  0  0  0
 10 29  1  0  0  0  0
 11 31  1  0  0  0  0
 12 33  1  0  0  0  0
 13 14  2  0  0  0  0
 13 15  1  0  0  0  0
 13 28  1  0  0  0  0
 14 26  1  0  0  0  0
 14 30  1  0  0  0  0
 15 16  2  0  0  0  0
 16 17  1  0  0  0  0
 17 18  2  0  0  0  0
 18 28  1  0  0  0  0
 19 30  1  0  0  0  0
 19 31  1  0  0  0  0
 19 32  2  0  0  0  0
 20 21  1  0  0  0  0
 20 22  1  0  0  0  0
 21 23  1  0  0  0  0
 22 24  1  0  0  0  0
 23 29  1  0  0  0  0
 24 29  1  0  0  0  0
 25 31  1  0  0  0  0
 26 27  2  0  0  0  0
 27 28  1  0  0  0  0
  1 34  1  0  0  0  0
  2 35  1  0  0  0  0
  3 36  1  0  0  0  0
  4 37  1  0  0  0  0
  5 38  1  0  0  0  0
  6 39  1  0  0  0  0
  7 40  1  0  0  0  0
  8 41  1  0  0  0  0
 15 42  1  0  0  0  0
 16 43  1  0  0  0  0
 17 44  1  0  0  0  0
 18 45  1  0  0  0  0
 20 46  1  0  0  0  0
 20 47  1  0  0  0  0
 21 48  1  0  0  0  0
 21 49  1  0  0  0  0
 22 50  1  0  0  0  0
 22 51  1  0  0  0  0
 23 52  1  0  0  0  0
 23 53  1  0  0  0  0
 24 54  1  0  0  0  0
 24 55  1  0  0  0  0
 25 56  1  0  0  0  0
 25 57  1  0  0  0  0
 30 58  1  0  0  0  0
M  END
> <clash_score>
0.6893404029544469

> <docking_score>
-7.189103126525879

> <overlap_score>
1.0125755071640015

$$$$
BENZO_99_1
  -OEChem-08232013483D

 46 49  0     0  0  0  0  0  0999 V2000
    8.3310   -2.7170   25.3430 C   0  0  0  0  0  0  0  0  0  0  0  0
   10.2570   -3.5000   24.1350 C   0  0  0  0  0  0  0  0  0  0  0  0
    8.3510   -1.5420   24.6110 C   0  0  0  0  0  0  0  0  0  0  0  0
   10.2760   -2.3270   23.4020 C   0  0  0  0  0  0  0  0  0  0  0  0
   12.3543    0.9495   24.8747 C   0  0  0  0  0  0  0  0  0  0  0  0
   12.3478    1.1086   22.6817 C   0  0  0  0  0  0  0  0  0  0  0  0
    9.2850   -3.7090   25.1090 C   0  0  0  0  0  0  0  0  0  0  0  0
   11.4996    1.0388   23.7597 C   0  0  0  0  0  0  0  0  0  0  0  0
    9.3300   -1.3350   23.6390 C   0  0  0  0  0  0  0  0  0  0  0  0
    6.1600    0.3870   20.1140 C   0  0  0  0  0  0  0  0  0  0  0  0
    7.2210   -0.4620   20.0350 C   0  0  0  0  0  0  0  0  0  0  0  0
    5.3360    0.8000   21.1530 C   0  0  0  0  0  0  0  0  0  0  0  0
    4.2970    1.6690   20.8430 C   0  0  0  0  0  0  0  0  0  0  0  0
    4.0980    2.1130   19.5350 C   0  0  0  0  0  0  0  0  0  0  0  0
    4.9400    1.7060   18.5060 C   0  0  0  0  0  0  0  0  0  0  0  0
    8.9510    0.1280   21.6880 C   0  0  0  0  0  0  0  0  0  0  0  0
    9.2610   -4.9721   25.8916 C   0  0  0  0  0  0  0  0  0  0  0  0
   14.8425    1.1003   22.4470 C   0  0  0  0  0  0  0  0  0  0  0  0
    9.9983    1.0521   23.7484 C   0  0  0  0  0  0  0  0  0  0  0  0
   13.6463    0.9611   24.5363 N   0  0  0  0  0  0  0  0  0  0  0  0
    7.6830   -0.5170   18.7600 N   0  0  0  0  0  0  0  0  0  0  0  0
    6.9440    0.2550   18.0100 N   0  0  0  0  0  0  0  0  0  0  0  0
   13.6098    1.0584   23.1964 N   0  0  0  0  0  0  0  0  0  0  0  0
    5.9810    0.8330   18.8060 N   0  0  0  0  0  0  0  0  0  0  0  0
    8.0810   -0.9750   21.0820 N   0  0  0  0  0  0  0  0  0  0  0  0
    9.4200   -0.0840   22.9530 N   0  0  0  0  0  0  0  0  0  0  0  0
    9.1870    1.1500   21.0630 O   0  0  0  0  0  0  0  0  0  0  0  0
    7.5665   -2.8638   26.1066 H   0  0  0  0  0  0  0  0  0  0  0  0
   11.0137   -4.2652   23.9447 H   0  0  0  0  0  0  0  0  0  0  0  0
    7.5948   -0.7788   24.7997 H   0  0  0  0  0  0  0  0  0  0  0  0
   11.0411   -2.1856   22.6358 H   0  0  0  0  0  0  0  0  0  0  0  0
   12.0919    0.8755   25.9206 H   0  0  0  0  0  0  0  0  0  0  0  0
   12.1654    1.1864   21.6184 H   0  0  0  0  0  0  0  0  0  0  0  0
    5.4735    0.4758   22.1644 H   0  0  0  0  0  0  0  0  0  0  0  0
    3.6415    1.9967   21.6408 H   0  0  0  0  0  0  0  0  0  0  0  0
    3.2720    2.7926   19.2921 H   0  0  0  0  0  0  0  0  0  0  0  0
    4.8119    2.0418   17.5005 H   0  0  0  0  0  0  0  0  0  0  0  0
    8.6398   -5.7223   25.3871 H   0  0  0  0  0  0  0  0  0  0  0  0
   10.2715   -5.3829   26.0145 H   0  0  0  0  0  0  0  0  0  0  0  0
    8.8596   -4.8092   26.9004 H   0  0  0  0  0  0  0  0  0  0  0  0
   15.1411    2.1472   22.3471 H   0  0  0  0  0  0  0  0  0  0  0  0
   15.6113    0.5325   22.9785 H   0  0  0  0  0  0  0  0  0  0  0  0
   14.6824    0.6517   21.4626 H   0  0  0  0  0  0  0  0  0  0  0  0
    9.6039    0.9802   24.7679 H   0  0  0  0  0  0  0  0  0  0  0  0
    9.6168    1.9835   23.3170 H   0  0  0  0  0  0  0  0  0  0  0  0
    8.1135   -1.8119   21.3500 H   0  0  0  0  0  0  0  0  0  0  0  0
  1  3  2  0  0  0  0
  1  7  1  0  0  0  0
  2  4  1  0  0  0  0
  2  7  2  0  0  0  0
  3  9  1  0  0  0  0
  4  9  2  0  0  0  0
  5  8  1  0  0  0  0
  5 20  2  0  0  0  0
  6  8  2  0  0  0  0
  6 23  1  0  0  0  0
  7 17  1  0  0  0  0
  8 19  1  0  0  0  0
  9 26  1  0  0  0  0
 10 11  2  0  0  0  0
 10 12  1  0  0  0  0
 10 24  1  0  0  0  0
 11 21  1  0  0  0  0
 11 25  1  0  0  0  0
 12 13  2  0  0  0  0
 13 14  1  0  0  0  0
 14 15  2  0  0  0  0
 15 24  1  0  0  0  0
 16 25  1  0  0  0  0
 16 26  1  0  0  0  0
 16 27  2  0  0  0  0
 18 23  1  0  0  0  0
 19 26  1  0  0  0  0
 20 23  1  0  0  0  0
 21 22  2  0  0  0  0
 22 24  1  0  0  0  0
  1 28  1  0  0  0  0
  2 29  1  0  0  0  0
  3 30  1  0  0  0  0
  4 31  1  0  0  0  0
  5 32  1  0  0  0  0
  6 33  1  0  0  0  0
 12 34  1  0  0  0  0
 13 35  1  0  0  0  0
 14 36  1  0  0  0  0
 15 37  1  0  0  0  0
 17 38  1  0  0  0  0
 17 39  1  0  0  0  0
 17 40  1  0  0  0  0
 18 41  1  0  0  0  0
 18 42  1  0  0  0  0
 18 43  1  0  0  0  0
 19 44  1  0  0  0  0
 19 45  1  0  0  0  0
 25 46  1  0  0  0  0
M  END
> <clash_score>
0

> <docking_score>
-8.899592399597168

> <overlap_score>
0.9584411382675171

$$$$
BENZO_98_1
  -OEChem-08232013483D

 46 49  0     0  0  0  0  0  0999 V2000
   13.6051    1.9365   22.9866 C   0  0  0  0  0  0  0  0  0  0  0  0
   12.2104    1.9475   22.9757 C   0  0  0  0  0  0  0  0  0  0  0  0
    8.3310   -2.7170   25.3430 C   0  0  0  0  0  0  0  0  0  0  0  0
   10.2570   -3.5000   24.1350 C   0  0  0  0  0  0  0  0  0  0  0  0
    8.3510   -1.5420   24.6110 C   0  0  0  0  0  0  0  0  0  0  0  0
   10.2760   -2.3270   23.4020 C   0  0  0  0  0  0  0  0  0  0  0  0
   14.2892    1.0167   23.7814 C   0  0  0  0  0  0  0  0  0  0  0  0
   12.1836    0.1190   24.5546 C   0  0  0  0  0  0  0  0  0  0  0  0
    9.2850   -3.7090   25.1090 C   0  0  0  0  0  0  0  0  0  0  0  0
   11.4996    1.0388   23.7597 C   0  0  0  0  0  0  0  0  0  0  0  0
    9.3300   -1.3350   23.6390 C   0  0  0  0  0  0  0  0  0  0  0  0
   13.5784    0.1080   24.5654 C   0  0  0  0  0  0  0  0  0  0  0  0
    6.1600    0.3870   20.1140 C   0  0  0  0  0  0  0  0  0  0  0  0
    7.2210   -0.4620   20.0350 C   0  0  0  0  0  0  0  0  0  0  0  0
    5.3360    0.8000   21.1530 C   0  0  0  0  0  0  0  0  0  0  0  0
    4.2970    1.6690   20.8430 C   0  0  0  0  0  0  0  0  0  0  0  0
    4.0980    2.1130   19.5350 C   0  0  0  0  0  0  0  0  0  0  0  0
    4.9400    1.7060   18.5060 C   0  0  0  0  0  0  0  0  0  0  0  0
    8.9510    0.1280   21.6880 C   0  0  0  0  0  0  0  0  0  0  0  0
    9.2610   -4.9721   25.8916 C   0  0  0  0  0  0  0  0  0  0  0  0
    9.9983    1.0521   23.7484 C   0  0  0  0  0  0  0  0  0  0  0  0
    7.6830   -0.5170   18.7600 N   0  0  0  0  0  0  0  0  0  0  0  0
    6.9440    0.2550   18.0100 N   0  0  0  0  0  0  0  0  0  0  0  0
    5.9810    0.8330   18.8060 N   0  0  0  0  0  0  0  0  0  0  0  0
    8.0810   -0.9750   21.0820 N   0  0  0  0  0  0  0  0  0  0  0  0
    9.4200   -0.0840   22.9530 N   0  0  0  0  0  0  0  0  0  0  0  0
    9.1870    1.1500   21.0630 O   0  0  0  0  0  0  0  0  0  0  0  0
   14.4229   -1.0259   25.5468 Cl  0  0  0  0  0  0  0  0  0  0  0  0
   14.1583    2.6444   22.3760 H   0  0  0  0  0  0  0  0  0  0  0  0
   11.6857    2.6678   22.3534 H   0  0  0  0  0  0  0  0  0  0  0  0
    7.5665   -2.8638   26.1066 H   0  0  0  0  0  0  0  0  0  0  0  0
   11.0137   -4.2652   23.9447 H   0  0  0  0  0  0  0  0  0  0  0  0
    7.5948   -0.7788   24.7997 H   0  0  0  0  0  0  0  0  0  0  0  0
   11.0411   -2.1856   22.6358 H   0  0  0  0  0  0  0  0  0  0  0  0
   15.3764    1.0198   23.7802 H   0  0  0  0  0  0  0  0  0  0  0  0
   11.6248   -0.5878   25.1637 H   0  0  0  0  0  0  0  0  0  0  0  0
    5.4735    0.4758   22.1644 H   0  0  0  0  0  0  0  0  0  0  0  0
    3.6415    1.9967   21.6408 H   0  0  0  0  0  0  0  0  0  0  0  0
    3.2720    2.7926   19.2921 H   0  0  0  0  0  0  0  0  0  0  0  0
    4.8119    2.0418   17.5005 H   0  0  0  0  0  0  0  0  0  0  0  0
    8.6398   -5.7223   25.3871 H   0  0  0  0  0  0  0  0  0  0  0  0
   10.2715   -5.3829   26.0145 H   0  0  0  0  0  0  0  0  0  0  0  0
    8.8596   -4.8092   26.9004 H   0  0  0  0  0  0  0  0  0  0  0  0
    9.6039    0.9802   24.7679 H   0  0  0  0  0  0  0  0  0  0  0  0
    9.6168    1.9835   23.3170 H   0  0  0  0  0  0  0  0  0  0  0  0
    8.1135   -1.8119   21.3500 H   0  0  0  0  0  0  0  0  0  0  0  0
  1  2  2  0  0  0  0
  1  7  1  0  0  0  0
  2 10  1  0  0  0  0
  3  5  2  0  0  0  0
  3  9  1  0  0  0  0
  4  6  1  0  0  0  0
  4  9  2  0  0  0  0
  5 11  1  0  0  0  0
  6 11  2  0  0  0  0
  7 12  2  0  0  0  0
  8 10  2  0  0  0  0
  8 12  1  0  0  0  0
  9 20  1  0  0  0  0
 10 21  1  0  0  0  0
 11 26  1  0  0  0  0
 12 28  1  0  0  0  0
 13 14  2  0  0  0  0
 13 15  1  0  0  0  0
 13 24  1  0  0  0  0
 14 22  1  0  0  0  0
 14 25  1  0  0  0  0
 15 16  2  0  0  0  0
 16 17  1  0  0  0  0
 17 18  2  0  0  0  0
 18 24  1  0  0  0  0
 19 25  1  0  0  0  0
 19 26  1  0  0  0  0
 19 27  2  0  0  0  0
 21 26  1  0  0  0  0
 22 23  2  0  0  0  0
 23 24  1  0  0  0  0
  1 29  1  0  0  0  0
  2 30  1  0  0  0  0
  3 31  1  0  0  0  0
  4 32  1  0  0  0  0
  5 33  1  0  0  0  0
  6 34  1  0  0  0  0
  7 35  1  0  0  0  0
  8 36  1  0  0  0  0
 15 37  1  0  0  0  0
 16 38  1  0  0  0  0
 17 39  1  0  0  0  0
 18 40  1  0  0  0  0
 20 41  1  0  0  0  0
 20 42  1  0  0  0  0
 20 43  1  0  0  0  0
 21 44  1  0  0  0  0
 21 45  1  0  0  0  0
 25 46  1  0  0  0  0
M  END
> <clash_score>
0.739262110113481

> <docking_score>
-8.091367721557617

> <overlap_score>
0.966786801815033

$$$$
BENZO_95_1
  -OEChem-08232013483D

 58 62  0     0  0  0  0  0  0999 V2000
    8.3310   -2.7170   25.3430 C   0  0  0  0  0  0  0  0  0  0  0  0
   10.2570   -3.5000   24.1350 C   0  0  0  0  0  0  0  0  0  0  0  0
    8.3510   -1.5420   24.6110 C   0  0  0  0  0  0  0  0  0  0  0  0
   10.2760   -2.3270   23.4020 C   0  0  0  0  0  0  0  0  0  0  0  0
   12.3632    1.0650   24.8419 C   0  0  0  0  0  0  0  0  0  0  0  0
   12.3381    1.1571   22.6451 C   0  0  0  0  0  0  0  0  0  0  0  0
   11.4991    1.0994   23.7311 C   0  0  0  0  0  0  0  0  0  0  0  0
    9.2850   -3.7090   25.1090 C   0  0  0  0  0  0  0  0  0  0  0  0
    9.3300   -1.3350   23.6390 C   0  0  0  0  0  0  0  0  0  0  0  0
    6.1600    0.3870   20.1140 C   0  0  0  0  0  0  0  0  0  0  0  0
    7.2210   -0.4620   20.0350 C   0  0  0  0  0  0  0  0  0  0  0  0
    5.3360    0.8000   21.1530 C   0  0  0  0  0  0  0  0  0  0  0  0
    4.2970    1.6690   20.8430 C   0  0  0  0  0  0  0  0  0  0  0  0
    4.0980    2.1130   19.5350 C   0  0  0  0  0  0  0  0  0  0  0  0
    4.9400    1.7060   18.5060 C   0  0  0  0  0  0  0  0  0  0  0  0
    8.9510    0.1280   21.6880 C   0  0  0  0  0  0  0  0  0  0  0  0
    7.3162   -6.8835   26.5210 C   0  0  0  0  0  0  0  0  0  0  0  0
    7.3507   -5.5245   27.2240 C   0  0  0  0  0  0  0  0  0  0  0  0
    7.9375   -6.8069   25.1245 C   0  0  0  0  0  0  0  0  0  0  0  0
    8.7638   -4.9418   27.2163 C   0  0  0  0  0  0  0  0  0  0  0  0
    9.3378   -6.1874   25.1659 C   0  0  0  0  0  0  0  0  0  0  0  0
   14.8306    1.2029   22.3922 C   0  0  0  0  0  0  0  0  0  0  0  0
    9.9979    1.0755   23.7305 C   0  0  0  0  0  0  0  0  0  0  0  0
   13.6522    1.0980   24.4937 N   0  0  0  0  0  0  0  0  0  0  0  0
    7.6830   -0.5170   18.7600 N   0  0  0  0  0  0  0  0  0  0  0  0
    6.9440    0.2550   18.0100 N   0  0  0  0  0  0  0  0  0  0  0  0
   13.6043    1.1536   23.1518 N   0  0  0  0  0  0  0  0  0  0  0  0
    5.9810    0.8330   18.8060 N   0  0  0  0  0  0  0  0  0  0  0  0
    9.2639   -4.8860   25.8399 N   0  0  0  0  0  0  0  0  0  0  0  0
    8.0810   -0.9750   21.0820 N   0  0  0  0  0  0  0  0  0  0  0  0
    9.4200   -0.0840   22.9530 N   0  0  0  0  0  0  0  0  0  0  0  0
    9.1870    1.1500   21.0630 O   0  0  0  0  0  0  0  0  0  0  0  0
    7.5647   -2.8621   26.1053 H   0  0  0  0  0  0  0  0  0  0  0  0
   11.0144   -4.2642   23.9425 H   0  0  0  0  0  0  0  0  0  0  0  0
    7.5958   -0.7779   24.8006 H   0  0  0  0  0  0  0  0  0  0  0  0
   11.0406   -2.1848   22.6356 H   0  0  0  0  0  0  0  0  0  0  0  0
   12.1097    1.0164   25.8915 H   0  0  0  0  0  0  0  0  0  0  0  0
   12.1467    1.1980   21.5814 H   0  0  0  0  0  0  0  0  0  0  0  0
    5.4735    0.4758   22.1644 H   0  0  0  0  0  0  0  0  0  0  0  0
    3.6415    1.9967   21.6408 H   0  0  0  0  0  0  0  0  0  0  0  0
    3.2720    2.7926   19.2921 H   0  0  0  0  0  0  0  0  0  0  0  0
    4.8119    2.0418   17.5005 H   0  0  0  0  0  0  0  0  0  0  0  0
    7.8578   -7.6261   27.1266 H   0  0  0  0  0  0  0  0  0  0  0  0
    6.2773   -7.2358   26.4459 H   0  0  0  0  0  0  0  0  0  0  0  0
    6.6663   -4.8351   26.7223 H   0  0  0  0  0  0  0  0  0  0  0  0
    7.0044   -5.6368   28.2534 H   0  0  0  0  0  0  0  0  0  0  0  0
    7.9946   -7.8119   24.6937 H   0  0  0  0  0  0  0  0  0  0  0  0
    7.2929   -6.2123   24.4668 H   0  0  0  0  0  0  0  0  0  0  0  0
    8.7343   -3.9408   27.6542 H   0  0  0  0  0  0  0  0  0  0  0  0
    9.4243   -5.5632   27.8278 H   0  0  0  0  0  0  0  0  0  0  0  0
   10.0200   -6.8490   25.7011 H   0  0  0  0  0  0  0  0  0  0  0  0
    9.6984   -6.0694   24.1436 H   0  0  0  0  0  0  0  0  0  0  0  0
   15.1025    2.2532   22.2585 H   0  0  0  0  0  0  0  0  0  0  0  0
   15.6167    0.6705   22.9349 H   0  0  0  0  0  0  0  0  0  0  0  0
   14.6750    0.7207   21.4231 H   0  0  0  0  0  0  0  0  0  0  0  0
    9.6122    1.0250   24.7546 H   0  0  0  0  0  0  0  0  0  0  0  0
    9.5906    1.9837   23.2740 H   0  0  0  0  0  0  0  0  0  0  0  0
    8.1334   -1.7992   21.3673 H   0  0  0  0  0  0  0  0  0  0  0  0
  1  3  2  0  0  0  0
  1  8  1  0  0  0  0
  2  4  1  0  0  0  0
  2  8  2  0  0  0  0
  3  9  1  0  0  0  0
  4  9  2  0  0  0  0
  5  7  1  0  0  0  0
  5 24  2  0  0  0  0
  6  7  2  0  0  0  0
  6 27  1  0  0  0  0
  7 23  1  0  0  0  0
  8 29  1  0  0  0  0
  9 31  1  0  0  0  0
 10 11  2  0  0  0  0
 10 12  1  0  0  0  0
 10 28  1  0  0  0  0
 11 25  1  0  0  0  0
 11 30  1  0  0  0  0
 12 13  2  0  0  0  0
 13 14  1  0  0  0  0
 14 15  2  0  0  0  0
 15 28  1  0  0  0  0
 16 30  1  0  0  0  0
 16 31  1  0  0  0  0
 16 32  2  0  0  0  0
 17 18  1  0  0  0  0
 17 19  1  0  0  0  0
 18 20  1  0  0  0  0
 19 21  1  0  0  0  0
 20 29  1  0  0  0  0
 21 29  1  0  0  0  0
 22 27  1  0  0  0  0
 23 31  1  0  0  0  0
 24 27  1  0  0  0  0
 25 26  2  0  0  0  0
 26 28  1  0  0  0  0
  1 33  1  0  0  0  0
  2 34  1  0  0  0  0
  3 35  1  0  0  0  0
  4 36  1  0  0  0  0
  5 37  1  0  0  0  0
  6 38  1  0  0  0  0
 12 39  1  0  0  0  0
 13 40  1  0  0  0  0
 14 41  1  0  0  0  0
 15 42  1  0  0  0  0
 17 43  1  0  0  0  0
 17 44  1  0  0  0  0
 18 45  1  0  0  0  0
 18 46  1  0  0  0  0
 19 47  1  0  0  0  0
 19 48  1  0  0  0  0
 20 49  1  0  0  0  0
 20 50  1  0  0  0  0
 21 51  1  0  0  0  0
 21 52  1  0  0  0  0
 22 53  1  0  0  0  0
 22 54  1  0  0  0  0
 22 55  1  0  0  0  0
 23 56  1  0  0  0  0
 23 57  1  0  0  0  0
 30 58  1  0  0  0  0
M  END
> <clash_score>
0

> <docking_score>
-8.078246116638184

> <overlap_score>
1.003841519355774

$$$$
BENZO_100_1
  -OEChem-08232013483D

 44 47  0     0  0  0  0  0  0999 V2000
    8.3510   -1.5420   24.6110 C   0  0  0  0  0  0  0  0  0  0  0  0
   10.2760   -2.3270   23.4020 C   0  0  0  0  0  0  0  0  0  0  0  0
    8.3310   -2.7170   25.3430 C   0  0  0  0  0  0  0  0  0  0  0  0
   10.2570   -3.5000   24.1350 C   0  0  0  0  0  0  0  0  0  0  0  0
   12.3038    1.1187   22.5862 C   0  0  0  0  0  0  0  0  0  0  0  0
   13.6496    1.0853   22.8779 C   0  0  0  0  0  0  0  0  0  0  0  0
   12.2616    0.9472   24.9038 C   0  0  0  0  0  0  0  0  0  0  0  0
   11.4996    1.0388   23.7597 C   0  0  0  0  0  0  0  0  0  0  0  0
    9.3300   -1.3350   23.6390 C   0  0  0  0  0  0  0  0  0  0  0  0
    9.2850   -3.7090   25.1090 C   0  0  0  0  0  0  0  0  0  0  0  0
    6.1600    0.3870   20.1140 C   0  0  0  0  0  0  0  0  0  0  0  0
    7.2210   -0.4620   20.0350 C   0  0  0  0  0  0  0  0  0  0  0  0
    5.3360    0.8000   21.1530 C   0  0  0  0  0  0  0  0  0  0  0  0
    4.2970    1.6690   20.8430 C   0  0  0  0  0  0  0  0  0  0  0  0
    4.0980    2.1130   19.5350 C   0  0  0  0  0  0  0  0  0  0  0  0
    4.9400    1.7060   18.5060 C   0  0  0  0  0  0  0  0  0  0  0  0
    8.9510    0.1280   21.6880 C   0  0  0  0  0  0  0  0  0  0  0  0
    8.2346   -4.9975   26.8023 C   0  0  0  0  0  0  0  0  0  0  0  0
    9.9983    1.0521   23.7484 C   0  0  0  0  0  0  0  0  0  0  0  0
    7.6830   -0.5170   18.7600 N   0  0  0  0  0  0  0  0  0  0  0  0
    6.9440    0.2550   18.0100 N   0  0  0  0  0  0  0  0  0  0  0  0
    5.9810    0.8330   18.8060 N   0  0  0  0  0  0  0  0  0  0  0  0
    8.0810   -0.9750   21.0820 N   0  0  0  0  0  0  0  0  0  0  0  0
    9.4200   -0.0840   22.9530 N   0  0  0  0  0  0  0  0  0  0  0  0
    9.1870    1.1500   21.0630 O   0  0  0  0  0  0  0  0  0  0  0  0
    9.2631   -4.8614   25.8229 O   0  0  0  0  0  0  0  0  0  0  0  0
   13.9393    0.9580   24.5608 S   0  0  0  0  0  0  0  0  0  0  0  0
    7.5951   -0.7786   24.8000 H   0  0  0  0  0  0  0  0  0  0  0  0
   11.0406   -2.1866   22.6351 H   0  0  0  0  0  0  0  0  0  0  0  0
    7.5664   -2.8674   26.1055 H   0  0  0  0  0  0  0  0  0  0  0  0
   11.0119   -4.2671   23.9461 H   0  0  0  0  0  0  0  0  0  0  0  0
   11.9187    1.1964   21.5772 H   0  0  0  0  0  0  0  0  0  0  0  0
   14.4766    1.1289   22.1833 H   0  0  0  0  0  0  0  0  0  0  0  0
   11.9176    0.8730   25.9261 H   0  0  0  0  0  0  0  0  0  0  0  0
    5.4735    0.4758   22.1644 H   0  0  0  0  0  0  0  0  0  0  0  0
    3.6415    1.9967   21.6408 H   0  0  0  0  0  0  0  0  0  0  0  0
    3.2720    2.7926   19.2921 H   0  0  0  0  0  0  0  0  0  0  0  0
    4.8119    2.0418   17.5005 H   0  0  0  0  0  0  0  0  0  0  0  0
    8.3309   -5.9651   27.3009 H   0  0  0  0  0  0  0  0  0  0  0  0
    7.2574   -4.9205   26.3189 H   0  0  0  0  0  0  0  0  0  0  0  0
    8.3380   -4.1982   27.5399 H   0  0  0  0  0  0  0  0  0  0  0  0
    9.6039    0.9802   24.7679 H   0  0  0  0  0  0  0  0  0  0  0  0
    9.6168    1.9835   23.3170 H   0  0  0  0  0  0  0  0  0  0  0  0
    8.1135   -1.8119   21.3500 H   0  0  0  0  0  0  0  0  0  0  0  0
  1  3  2  0  0  0  0
  1  9  1  0  0  0  0
  2  4  1  0  0  0  0
  2  9  2  0  0  0  0
  3 10  1  0  0  0  0
  4 10  2  0  0  0  0
  5  6  2  0  0  0  0
  5  8  1  0  0  0  0
  6 27  1  0  0  0  0
  7  8  2  0  0  0  0
  7 27  1  0  0  0  0
  8 19  1  0  0  0  0
  9 24  1  0  0  0  0
 10 26  1  0  0  0  0
 11 12  2  0  0  0  0
 11 13  1  0  0  0  0
 11 22  1  0  0  0  0
 12 20  1  0  0  0  0
 12 23  1  0  0  0  0
 13 14  2  0  0  0  0
 14 15  1  0  0  0  0
 15 16  2  0  0  0  0
 16 22  1  0  0  0  0
 17 23  1  0  0  0  0
 17 24  1  0  0  0  0
 17 25  2  0  0  0  0
 18 26  1  0  0  0  0
 19 24  1  0  0  0  0
 20 21  2  0  0  0  0
 21 22  1  0  0  0  0
  1 28  1  0  0  0  0
  2 29  1  0  0  0  0
  3 30  1  0  0  0  0
  4 31  1  0  0  0  0
  5 32  1  0  0  0  0
  6 33  1  0  0  0  0
  7 34  1  0  0  0  0
 13 35  1  0  0  0  0
 14 36  1  0  0  0  0
 15 37  1  0  0  0  0
 16 38  1  0  0  0  0
 18 39  1  0  0  0  0
 18 40  1  0  0  0  0
 18 41  1  0  0  0  0
 19 42  1  0  0  0  0
 19 43  1  0  0  0  0
 23 44  1  0  0  0  0
M  END
> <clash_score>
0

> <docking_score>
-9.312201499938965

> <overlap_score>
0.9661996960639954

$$$$
BENZO_101_1
  -OEChem-08232013483D

 47 50  0     0  0  0  0  0  0999 V2000
   14.2892    1.0145   23.7793 C   0  0  0  0  0  0  0  0  0  0  0  0
   13.5789    0.3324   24.7671 C   0  0  0  0  0  0  0  0  0  0  0  0
   13.6048    1.7088   22.7817 C   0  0  0  0  0  0  0  0  0  0  0  0
   12.1841    0.3445   24.7573 C   0  0  0  0  0  0  0  0  0  0  0  0
   12.2100    1.7210   22.7719 C   0  0  0  0  0  0  0  0  0  0  0  0
    8.3510   -1.5420   24.6110 C   0  0  0  0  0  0  0  0  0  0  0  0
   10.2760   -2.3270   23.4020 C   0  0  0  0  0  0  0  0  0  0  0  0
    8.3310   -2.7170   25.3430 C   0  0  0  0  0  0  0  0  0  0  0  0
   10.2570   -3.5000   24.1350 C   0  0  0  0  0  0  0  0  0  0  0  0
   11.4996    1.0388   23.7597 C   0  0  0  0  0  0  0  0  0  0  0  0
    9.3300   -1.3350   23.6390 C   0  0  0  0  0  0  0  0  0  0  0  0
    9.2850   -3.7090   25.1090 C   0  0  0  0  0  0  0  0  0  0  0  0
    6.1600    0.3870   20.1140 C   0  0  0  0  0  0  0  0  0  0  0  0
    7.2210   -0.4620   20.0350 C   0  0  0  0  0  0  0  0  0  0  0  0
    5.3360    0.8000   21.1530 C   0  0  0  0  0  0  0  0  0  0  0  0
    4.2970    1.6690   20.8430 C   0  0  0  0  0  0  0  0  0  0  0  0
    4.0980    2.1130   19.5350 C   0  0  0  0  0  0  0  0  0  0  0  0
    4.9400    1.7060   18.5060 C   0  0  0  0  0  0  0  0  0  0  0  0
    8.9510    0.1280   21.6880 C   0  0  0  0  0  0  0  0  0  0  0  0
    8.2346   -4.9975   26.8023 C   0  0  0  0  0  0  0  0  0  0  0  0
    9.9983    1.0521   23.7484 C   0  0  0  0  0  0  0  0  0  0  0  0
    7.6830   -0.5170   18.7600 N   0  0  0  0  0  0  0  0  0  0  0  0
    6.9440    0.2550   18.0100 N   0  0  0  0  0  0  0  0  0  0  0  0
    5.9810    0.8330   18.8060 N   0  0  0  0  0  0  0  0  0  0  0  0
    8.0810   -0.9750   21.0820 N   0  0  0  0  0  0  0  0  0  0  0  0
    9.4200   -0.0840   22.9530 N   0  0  0  0  0  0  0  0  0  0  0  0
    9.1870    1.1500   21.0630 O   0  0  0  0  0  0  0  0  0  0  0  0
    9.2631   -4.8614   25.8229 O   0  0  0  0  0  0  0  0  0  0  0  0
   15.3752    1.0060   23.7879 H   0  0  0  0  0  0  0  0  0  0  0  0
   14.1116   -0.2074   25.5446 H   0  0  0  0  0  0  0  0  0  0  0  0
   14.1575    2.2409   22.0132 H   0  0  0  0  0  0  0  0  0  0  0  0
   11.6389   -0.1899   25.5308 H   0  0  0  0  0  0  0  0  0  0  0  0
   11.6852    2.2645   21.9907 H   0  0  0  0  0  0  0  0  0  0  0  0
    7.5951   -0.7786   24.8000 H   0  0  0  0  0  0  0  0  0  0  0  0
   11.0406   -2.1866   22.6351 H   0  0  0  0  0  0  0  0  0  0  0  0
    7.5664   -2.8674   26.1055 H   0  0  0  0  0  0  0  0  0  0  0  0
   11.0119   -4.2671   23.9461 H   0  0  0  0  0  0  0  0  0  0  0  0
    5.4735    0.4758   22.1644 H   0  0  0  0  0  0  0  0  0  0  0  0
    3.6415    1.9967   21.6408 H   0  0  0  0  0  0  0  0  0  0  0  0
    3.2720    2.7926   19.2921 H   0  0  0  0  0  0  0  0  0  0  0  0
    4.8119    2.0418   17.5005 H   0  0  0  0  0  0  0  0  0  0  0  0
    8.3309   -5.9651   27.3009 H   0  0  0  0  0  0  0  0  0  0  0  0
    7.2574   -4.9205   26.3189 H   0  0  0  0  0  0  0  0  0  0  0  0
    8.3380   -4.1982   27.5399 H   0  0  0  0  0  0  0  0  0  0  0  0
    9.6039    0.9802   24.7679 H   0  0  0  0  0  0  0  0  0  0  0  0
    9.6168    1.9835   23.3170 H   0  0  0  0  0  0  0  0  0  0  0  0
    8.1135   -1.8119   21.3500 H   0  0  0  0  0  0  0  0  0  0  0  0
  1  2  1  0  0  0  0
  1  3  2  0  0  0  0
  2  4  2  0  0  0  0
  3  5  1  0  0  0  0
  4 10  1  0  0  0  0
  5 10  2  0  0  0  0
  6  8  2  0  0  0  0
  6 11  1  0  0  0  0
  7  9  1  0  0  0  0
  7 11  2  0  0  0  0
  8 12  1  0  0  0  0
  9 12  2  0  0  0  0
 10 21  1  0  0  0  0
 11 26  1  0  0  0  0
 12 28  1  0  0  0  0
 13 14  2  0  0  0  0
 13 15  1  0  0  0  0
 13 24  1  0  0  0  0
 14 22  1  0  0  0  0
 14 25  1  0  0  0  0
 15 16  2  0  0  0  0
 16 17  1  0  0  0  0
 17 18  2  0  0  0  0
 18 24  1  0  0  0  0
 19 25  1  0  0  0  0
 19 26  1  0  0  0  0
 19 27  2  0  0  0  0
 20 28  1  0  0  0  0
 21 26  1  0  0  0  0
 22 23  2  0  0  0  0
 23 24  1  0  0  0  0
  1 29  1  0  0  0  0
  2 30  1  0  0  0  0
  3 31  1  0  0  0  0
  4 32  1  0  0  0  0
  5 33  1  0  0  0  0
  6 34  1  0  0  0  0
  7 35  1  0  0  0  0
  8 36  1  0  0  0  0
  9 37  1  0  0  0  0
 15 38  1  0  0  0  0
 16 39  1  0  0  0  0
 17 40  1  0  0  0  0
 18 41  1  0  0  0  0
 20 42  1  0  0  0  0
 20 43  1  0  0  0  0
 20 44  1  0  0  0  0
 21 45  1  0  0  0  0
 21 46  1  0  0  0  0
 25 47  1  0  0  0  0
M  END
> <clash_score>
0

> <docking_score>
-8.921008110046387

> <overlap_score>
0.988749086856842

$$$$
BENZO_103_1
  -OEChem-08232013483D

 47 50  0     0  0  0  0  0  0999 V2000
    8.3510   -1.5420   24.6110 C   0  0  0  0  0  0  0  0  0  0  0  0
   10.2760   -2.3270   23.4020 C   0  0  0  0  0  0  0  0  0  0  0  0
    8.3310   -2.7170   25.3430 C   0  0  0  0  0  0  0  0  0  0  0  0
   10.2570   -3.5000   24.1350 C   0  0  0  0  0  0  0  0  0  0  0  0
   12.3635    1.7573   24.6079 C   0  0  0  0  0  0  0  0  0  0  0  0
   12.3389    0.3192   22.9446 C   0  0  0  0  0  0  0  0  0  0  0  0
   11.4996    1.0388   23.7597 C   0  0  0  0  0  0  0  0  0  0  0  0
    9.3300   -1.3350   23.6390 C   0  0  0  0  0  0  0  0  0  0  0  0
    9.2850   -3.7090   25.1090 C   0  0  0  0  0  0  0  0  0  0  0  0
    6.1600    0.3870   20.1140 C   0  0  0  0  0  0  0  0  0  0  0  0
    7.2210   -0.4620   20.0350 C   0  0  0  0  0  0  0  0  0  0  0  0
    5.3360    0.8000   21.1530 C   0  0  0  0  0  0  0  0  0  0  0  0
    4.2970    1.6690   20.8430 C   0  0  0  0  0  0  0  0  0  0  0  0
    4.0980    2.1130   19.5350 C   0  0  0  0  0  0  0  0  0  0  0  0
    4.9400    1.7060   18.5060 C   0  0  0  0  0  0  0  0  0  0  0  0
    8.9510    0.1280   21.6880 C   0  0  0  0  0  0  0  0  0  0  0  0
   14.8315    0.1277   22.7744 C   0  0  0  0  0  0  0  0  0  0  0  0
    8.2346   -4.9975   26.8023 C   0  0  0  0  0  0  0  0  0  0  0  0
    9.9983    1.0521   23.7484 C   0  0  0  0  0  0  0  0  0  0  0  0
   13.6526    1.5160   24.3552 N   0  0  0  0  0  0  0  0  0  0  0  0
    7.6830   -0.5170   18.7600 N   0  0  0  0  0  0  0  0  0  0  0  0
    6.9440    0.2550   18.0100 N   0  0  0  0  0  0  0  0  0  0  0  0
   13.6050    0.6377   23.3390 N   0  0  0  0  0  0  0  0  0  0  0  0
    5.9810    0.8330   18.8060 N   0  0  0  0  0  0  0  0  0  0  0  0
    8.0810   -0.9750   21.0820 N   0  0  0  0  0  0  0  0  0  0  0  0
    9.4200   -0.0840   22.9530 N   0  0  0  0  0  0  0  0  0  0  0  0
    9.1870    1.1500   21.0630 O   0  0  0  0  0  0  0  0  0  0  0  0
    9.2631   -4.8614   25.8229 O   0  0  0  0  0  0  0  0  0  0  0  0
    7.5951   -0.7786   24.8000 H   0  0  0  0  0  0  0  0  0  0  0  0
   11.0406   -2.1866   22.6351 H   0  0  0  0  0  0  0  0  0  0  0  0
    7.5664   -2.8674   26.1055 H   0  0  0  0  0  0  0  0  0  0  0  0
   11.0119   -4.2671   23.9461 H   0  0  0  0  0  0  0  0  0  0  0  0
   12.1097    2.4465   25.4009 H   0  0  0  0  0  0  0  0  0  0  0  0
   12.1477   -0.3761   22.1385 H   0  0  0  0  0  0  0  0  0  0  0  0
    5.4735    0.4758   22.1644 H   0  0  0  0  0  0  0  0  0  0  0  0
    3.6415    1.9967   21.6408 H   0  0  0  0  0  0  0  0  0  0  0  0
    3.2720    2.7926   19.2921 H   0  0  0  0  0  0  0  0  0  0  0  0
    4.8119    2.0418   17.5005 H   0  0  0  0  0  0  0  0  0  0  0  0
   15.1321    0.7950   21.9624 H   0  0  0  0  0  0  0  0  0  0  0  0
   15.6031    0.0959   23.5486 H   0  0  0  0  0  0  0  0  0  0  0  0
   14.6618   -0.8842   22.3962 H   0  0  0  0  0  0  0  0  0  0  0  0
    8.3309   -5.9651   27.3009 H   0  0  0  0  0  0  0  0  0  0  0  0
    7.2574   -4.9205   26.3189 H   0  0  0  0  0  0  0  0  0  0  0  0
    8.3380   -4.1982   27.5399 H   0  0  0  0  0  0  0  0  0  0  0  0
    9.6039    0.9802   24.7679 H   0  0  0  0  0  0  0  0  0  0  0  0
    9.6168    1.9835   23.3170 H   0  0  0  0  0  0  0  0  0  0  0  0
    8.1135   -1.8119   21.3500 H   0  0  0  0  0  0  0  0  0  0  0  0
  1  3  2  0  0  0  0
  1  8  1  0  0  0  0
  2  4  1  0  0  0  0
  2  8  2  0  0  0  0
  3  9  1  0  0  0  0
  4  9  2  0  0  0  0
  5  7  1  0  0  0  0
  5 20  2  0  0  0  0
  6  7  2  0  0  0  0
  6 23  1  0  0  0  0
  7 19  1  0  0  0  0
  8 26  1  0  0  0  0
  9 28  1  0  0  0  0
 10 11  2  0  0  0  0
 10 12  1  0  0  0  0
 10 24  1  0  0  0  0
 11 21  1  0  0  0  0
 11 25  1  0  0  0  0
 12 13  2  0  0  0  0
 13 14  1  0  0  0  0
 14 15  2  0  0  0  0
 15 24  1  0  0  0  0
 16 25  1  0  0  0  0
 16 26  1  0  0  0  0
 16 27  2  0  0  0  0
 17 23  1  0  0  0  0
 18 28  1  0  0  0  0
 19 26  1  0  0  0  0
 20 23  1  0  0  0  0
 21 22  2  0  0  0  0
 22 24  1  0  0  0  0
  1 29  1  0  0  0  0
  2 30  1  0  0  0  0
  3 31  1  0  0  0  0
  4 32  1  0  0  0  0
  5 33  1  0  0  0  0
  6 34  1  0  0  0  0
 12 35  1  0  0  0  0
 13 36  1  0  0  0  0
 14 37  1  0  0  0  0
 15 38  1  0  0  0  0
 17 39  1  0  0  0  0
 17 40  1  0  0  0  0
 17 41  1  0  0  0  0
 18 42  1  0  0  0  0
 18 43  1  0  0  0  0
 18 44  1  0  0  0  0
 19 45  1  0  0  0  0
 19 46  1  0  0  0  0
 25 47  1  0  0  0  0
M  END
> <clash_score>
0

> <docking_score>
-8.781941413879395

> <overlap_score>
0.9746685028076172

$$$$
BENZO_102_1
  -OEChem-08232013483D

 47 50  0     0  0  0  0  0  0999 V2000
   13.6051    1.9365   22.9866 C   0  0  0  0  0  0  0  0  0  0  0  0
   12.2104    1.9475   22.9757 C   0  0  0  0  0  0  0  0  0  0  0  0
    8.3510   -1.5420   24.6110 C   0  0  0  0  0  0  0  0  0  0  0  0
   10.2760   -2.3270   23.4020 C   0  0  0  0  0  0  0  0  0  0  0  0
    8.3310   -2.7170   25.3430 C   0  0  0  0  0  0  0  0  0  0  0  0
   10.2570   -3.5000   24.1350 C   0  0  0  0  0  0  0  0  0  0  0  0
   14.2892    1.0167   23.7814 C   0  0  0  0  0  0  0  0  0  0  0  0
   12.1836    0.1190   24.5546 C   0  0  0  0  0  0  0  0  0  0  0  0
   11.4996    1.0388   23.7597 C   0  0  0  0  0  0  0  0  0  0  0  0
    9.3300   -1.3350   23.6390 C   0  0  0  0  0  0  0  0  0  0  0  0
    9.2850   -3.7090   25.1090 C   0  0  0  0  0  0  0  0  0  0  0  0
   13.5784    0.1080   24.5654 C   0  0  0  0  0  0  0  0  0  0  0  0
    6.1600    0.3870   20.1140 C   0  0  0  0  0  0  0  0  0  0  0  0
    7.2210   -0.4620   20.0350 C   0  0  0  0  0  0  0  0  0  0  0  0
    5.3360    0.8000   21.1530 C   0  0  0  0  0  0  0  0  0  0  0  0
    4.2970    1.6690   20.8430 C   0  0  0  0  0  0  0  0  0  0  0  0
    4.0980    2.1130   19.5350 C   0  0  0  0  0  0  0  0  0  0  0  0
    4.9400    1.7060   18.5060 C   0  0  0  0  0  0  0  0  0  0  0  0
    8.9510    0.1280   21.6880 C   0  0  0  0  0  0  0  0  0  0  0  0
    8.2346   -4.9975   26.8023 C   0  0  0  0  0  0  0  0  0  0  0  0
    9.9983    1.0521   23.7484 C   0  0  0  0  0  0  0  0  0  0  0  0
    7.6830   -0.5170   18.7600 N   0  0  0  0  0  0  0  0  0  0  0  0
    6.9440    0.2550   18.0100 N   0  0  0  0  0  0  0  0  0  0  0  0
    5.9810    0.8330   18.8060 N   0  0  0  0  0  0  0  0  0  0  0  0
    8.0810   -0.9750   21.0820 N   0  0  0  0  0  0  0  0  0  0  0  0
    9.4200   -0.0840   22.9530 N   0  0  0  0  0  0  0  0  0  0  0  0
    9.1870    1.1500   21.0630 O   0  0  0  0  0  0  0  0  0  0  0  0
    9.2631   -4.8614   25.8229 O   0  0  0  0  0  0  0  0  0  0  0  0
   14.4229   -1.0259   25.5468 Cl  0  0  0  0  0  0  0  0  0  0  0  0
   14.1583    2.6444   22.3760 H   0  0  0  0  0  0  0  0  0  0  0  0
   11.6857    2.6678   22.3534 H   0  0  0  0  0  0  0  0  0  0  0  0
    7.5951   -0.7786   24.8000 H   0  0  0  0  0  0  0  0  0  0  0  0
   11.0406   -2.1866   22.6351 H   0  0  0  0  0  0  0  0  0  0  0  0
    7.5664   -2.8674   26.1055 H   0  0  0  0  0  0  0  0  0  0  0  0
   11.0119   -4.2671   23.9461 H   0  0  0  0  0  0  0  0  0  0  0  0
   15.3764    1.0198   23.7802 H   0  0  0  0  0  0  0  0  0  0  0  0
   11.6248   -0.5878   25.1637 H   0  0  0  0  0  0  0  0  0  0  0  0
    5.4735    0.4758   22.1644 H   0  0  0  0  0  0  0  0  0  0  0  0
    3.6415    1.9967   21.6408 H   0  0  0  0  0  0  0  0  0  0  0  0
    3.2720    2.7926   19.2921 H   0  0  0  0  0  0  0  0  0  0  0  0
    4.8119    2.0418   17.5005 H   0  0  0  0  0  0  0  0  0  0  0  0
    8.3309   -5.9651   27.3009 H   0  0  0  0  0  0  0  0  0  0  0  0
    7.2574   -4.9205   26.3189 H   0  0  0  0  0  0  0  0  0  0  0  0
    8.3380   -4.1982   27.5399 H   0  0  0  0  0  0  0  0  0  0  0  0
    9.6039    0.9802   24.7679 H   0  0  0  0  0  0  0  0  0  0  0  0
    9.6168    1.9835   23.3170 H   0  0  0  0  0  0  0  0  0  0  0  0
    8.1135   -1.8119   21.3500 H   0  0  0  0  0  0  0  0  0  0  0  0
  1  2  2  0  0  0  0
  1  7  1  0  0  0  0
  2  9  1  0  0  0  0
  3  5  2  0  0  0  0
  3 10  1  0  0  0  0
  4  6  1  0  0  0  0
  4 10  2  0  0  0  0
  5 11  1  0  0  0  0
  6 11  2  0  0  0  0
  7 12  2  0  0  0  0
  8  9  2  0  0  0  0
  8 12  1  0  0  0  0
  9 21  1  0  0  0  0
 10 26  1  0  0  0  0
 11 28  1  0  0  0  0
 12 29  1  0  0  0  0
 13 14  2  0  0  0  0
 13 15  1  0  0  0  0
 13 24  1  0  0  0  0
 14 22  1  0  0  0  0
 14 25  1  0  0  0  0
 15 16  2  0  0  0  0
 16 17  1  0  0  0  0
 17 18  2  0  0  0  0
 18 24  1  0  0  0  0
 19 25  1  0  0  0  0
 19 26  1  0  0  0  0
 19 27  2  0  0  0  0
 20 28  1  0  0  0  0
 21 26  1  0  0  0  0
 22 23  2  0  0  0  0
 23 24  1  0  0  0  0
  1 30  1  0  0  0  0
  2 31  1  0  0  0  0
  3 32  1  0  0  0  0
  4 33  1  0  0  0  0
  5 34  1  0  0  0  0
  6 35  1  0  0  0  0
  7 36  1  0  0  0  0
  8 37  1  0  0  0  0
 15 38  1  0  0  0  0
 16 39  1  0  0  0  0
 17 40  1  0  0  0  0
 18 41  1  0  0  0  0
 20 42  1  0  0  0  0
 20 43  1  0  0  0  0
 20 44  1  0  0  0  0
 21 45  1  0  0  0  0
 21 46  1  0  0  0  0
 25 47  1  0  0  0  0
M  END
> <clash_score>
0.739262110113481

> <docking_score>
-7.800386428833008

> <overlap_score>
0.9906467795372009

$$$$
BENZO_105_1
  -OEChem-08232013483D

 57 61  0     0  0  0  0  0  0999 V2000
   14.2876    0.9747   23.7797 C   0  0  0  0  0  0  0  0  0  0  0  0
   13.5635    0.3279   24.7811 C   0  0  0  0  0  0  0  0  0  0  0  0
   13.6173    1.6544   22.7626 C   0  0  0  0  0  0  0  0  0  0  0  0
   12.1691    0.3605   24.7654 C   0  0  0  0  0  0  0  0  0  0  0  0
   12.2229    1.6870   22.7468 C   0  0  0  0  0  0  0  0  0  0  0  0
    8.3310   -2.7170   25.3430 C   0  0  0  0  0  0  0  0  0  0  0  0
   10.2570   -3.5000   24.1350 C   0  0  0  0  0  0  0  0  0  0  0  0
    8.3510   -1.5420   24.6110 C   0  0  0  0  0  0  0  0  0  0  0  0
   10.2760   -2.3270   23.4020 C   0  0  0  0  0  0  0  0  0  0  0  0
   11.4988    1.0401   23.7482 C   0  0  0  0  0  0  0  0  0  0  0  0
    9.2850   -3.7090   25.1090 C   0  0  0  0  0  0  0  0  0  0  0  0
    9.3300   -1.3350   23.6390 C   0  0  0  0  0  0  0  0  0  0  0  0
    6.1600    0.3870   20.1140 C   0  0  0  0  0  0  0  0  0  0  0  0
    7.2210   -0.4620   20.0350 C   0  0  0  0  0  0  0  0  0  0  0  0
    5.3360    0.8000   21.1530 C   0  0  0  0  0  0  0  0  0  0  0  0
    4.2970    1.6690   20.8430 C   0  0  0  0  0  0  0  0  0  0  0  0
    4.0980    2.1130   19.5350 C   0  0  0  0  0  0  0  0  0  0  0  0
    4.9400    1.7060   18.5060 C   0  0  0  0  0  0  0  0  0  0  0  0
    8.0635   -5.4710   26.3667 C   0  0  0  0  0  0  0  0  0  0  0  0
    8.9510    0.1280   21.6880 C   0  0  0  0  0  0  0  0  0  0  0  0
    8.2626   -6.7580   27.1475 C   0  0  0  0  0  0  0  0  0  0  0  0
    9.4048   -6.6156   28.1380 C   0  0  0  0  0  0  0  0  0  0  0  0
   10.6949   -6.1500   27.4702 C   0  0  0  0  0  0  0  0  0  0  0  0
   10.4942   -5.7069   26.0219 C   0  0  0  0  0  0  0  0  0  0  0  0
    9.9979    1.0755   23.7305 C   0  0  0  0  0  0  0  0  0  0  0  0
    7.6830   -0.5170   18.7600 N   0  0  0  0  0  0  0  0  0  0  0  0
    6.9440    0.2550   18.0100 N   0  0  0  0  0  0  0  0  0  0  0  0
    5.9810    0.8330   18.8060 N   0  0  0  0  0  0  0  0  0  0  0  0
    9.2623   -4.9266   25.8635 N   0  0  0  0  0  0  0  0  0  0  0  0
    8.0810   -0.9750   21.0820 N   0  0  0  0  0  0  0  0  0  0  0  0
    9.4200   -0.0840   22.9530 N   0  0  0  0  0  0  0  0  0  0  0  0
    6.9244   -5.0476   26.1739 O   0  0  0  0  0  0  0  0  0  0  0  0
    9.1870    1.1500   21.0630 O   0  0  0  0  0  0  0  0  0  0  0  0
   15.3733    0.9503   23.7929 H   0  0  0  0  0  0  0  0  0  0  0  0
   14.0852   -0.2004   25.5738 H   0  0  0  0  0  0  0  0  0  0  0  0
   14.1808    2.1590   21.9834 H   0  0  0  0  0  0  0  0  0  0  0  0
   11.6131   -0.1465   25.5497 H   0  0  0  0  0  0  0  0  0  0  0  0
   11.7092    2.2189   21.9503 H   0  0  0  0  0  0  0  0  0  0  0  0
    7.5639   -2.8621   26.1045 H   0  0  0  0  0  0  0  0  0  0  0  0
   11.0141   -4.2644   23.9422 H   0  0  0  0  0  0  0  0  0  0  0  0
    7.5950   -0.7788   24.8007 H   0  0  0  0  0  0  0  0  0  0  0  0
   11.0408   -2.1861   22.6359 H   0  0  0  0  0  0  0  0  0  0  0  0
    5.4735    0.4758   22.1644 H   0  0  0  0  0  0  0  0  0  0  0  0
    3.6415    1.9967   21.6408 H   0  0  0  0  0  0  0  0  0  0  0  0
    3.2720    2.7926   19.2920 H   0  0  0  0  0  0  0  0  0  0  0  0
    4.8119    2.0418   17.5005 H   0  0  0  0  0  0  0  0  0  0  0  0
    7.3516   -6.9810   27.6812 H   0  0  0  0  0  0  0  0  0  0  0  0
    8.4757   -7.5428   26.4371 H   0  0  0  0  0  0  0  0  0  0  0  0
    9.1234   -5.9016   28.9400 H   0  0  0  0  0  0  0  0  0  0  0  0
    9.5778   -7.5840   28.6491 H   0  0  0  0  0  0  0  0  0  0  0  0
   11.1305   -5.3108   28.0523 H   0  0  0  0  0  0  0  0  0  0  0  0
   11.4565   -6.9587   27.5131 H   0  0  0  0  0  0  0  0  0  0  0  0
   11.3212   -5.0729   25.7168 H   0  0  0  0  0  0  0  0  0  0  0  0
   10.4483   -6.5796   25.3796 H   0  0  0  0  0  0  0  0  0  0  0  0
    9.5979    1.0021   24.7477 H   0  0  0  0  0  0  0  0  0  0  0  0
    9.6320    2.0154   23.3042 H   0  0  0  0  0  0  0  0  0  0  0  0
    8.1334   -1.7992   21.3673 H   0  0  0  0  0  0  0  0  0  0  0  0
  1  2  1  0  0  0  0
  1  3  2  0  0  0  0
  2  4  2  0  0  0  0
  3  5  1  0  0  0  0
  4 10  1  0  0  0  0
  5 10  2  0  0  0  0
  6  8  2  0  0  0  0
  6 11  1  0  0  0  0
  7  9  1  0  0  0  0
  7 11  2  0  0  0  0
  8 12  1  0  0  0  0
  9 12  2  0  0  0  0
 10 25  1  0  0  0  0
 11 29  1  0  0  0  0
 12 31  1  0  0  0  0
 13 14  2  0  0  0  0
 13 15  1  0  0  0  0
 13 28  1  0  0  0  0
 14 26  1  0  0  0  0
 14 30  1  0  0  0  0
 15 16  2  0  0  0  0
 16 17  1  0  0  0  0
 17 18  2  0  0  0  0
 18 28  1  0  0  0  0
 19 21  1  0  0  0  0
 19 29  1  0  0  0  0
 19 32  2  0  0  0  0
 20 30  1  0  0  0  0
 20 31  1  0  0  0  0
 20 33  2  0  0  0  0
 21 22  1  0  0  0  0
 22 23  1  0  0  0  0
 23 24  1  0  0  0  0
 24 29  1  0  0  0  0
 25 31  1  0  0  0  0
 26 27  2  0  0  0  0
 27 28  1  0  0  0  0
  1 34  1  0  0  0  0
  2 35  1  0  0  0  0
  3 36  1  0  0  0  0
  4 37  1  0  0  0  0
  5 38  1  0  0  0  0
  6 39  1  0  0  0  0
  7 40  1  0  0  0  0
  8 41  1  0  0  0  0
  9 42  1  0  0  0  0
 15 43  1  0  0  0  0
 16 44  1  0  0  0  0
 17 45  1  0  0  0  0
 18 46  1  0  0  0  0
 21 47  1  0  0  0  0
 21 48  1  0  0  0  0
 22 49  1  0  0  0  0
 22 50  1  0  0  0  0
 23 51  1  0  0  0  0
 23 52  1  0  0  0  0
 24 53  1  0  0  0  0
 24 54  1  0  0  0  0
 25 55  1  0  0  0  0
 25 56  1  0  0  0  0
 30 57  1  0  0  0  0
M  END
> <clash_score>
1.272782601224562

> <docking_score>
-7.410746097564697

> <overlap_score>
1.0088165998458862

$$$$
BENZO_104_1
  -OEChem-08232013483D

 54 58  0     0  0  0  0  0  0999 V2000
    8.3310   -2.7170   25.3430 C   0  0  0  0  0  0  0  0  0  0  0  0
   10.2570   -3.5000   24.1350 C   0  0  0  0  0  0  0  0  0  0  0  0
    8.3510   -1.5420   24.6110 C   0  0  0  0  0  0  0  0  0  0  0  0
   10.2760   -2.3270   23.4020 C   0  0  0  0  0  0  0  0  0  0  0  0
   12.3092    1.1165   22.5788 C   0  0  0  0  0  0  0  0  0  0  0  0
   13.6531    1.0614   22.8761 C   0  0  0  0  0  0  0  0  0  0  0  0
   12.2543    0.9292   24.8949 C   0  0  0  0  0  0  0  0  0  0  0  0
   11.4988    1.0401   23.7482 C   0  0  0  0  0  0  0  0  0  0  0  0
    9.2850   -3.7090   25.1090 C   0  0  0  0  0  0  0  0  0  0  0  0
    9.3300   -1.3350   23.6390 C   0  0  0  0  0  0  0  0  0  0  0  0
    6.1600    0.3870   20.1140 C   0  0  0  0  0  0  0  0  0  0  0  0
    7.2210   -0.4620   20.0350 C   0  0  0  0  0  0  0  0  0  0  0  0
    5.3360    0.8000   21.1530 C   0  0  0  0  0  0  0  0  0  0  0  0
    4.2970    1.6690   20.8430 C   0  0  0  0  0  0  0  0  0  0  0  0
    4.0980    2.1130   19.5350 C   0  0  0  0  0  0  0  0  0  0  0  0
    4.9400    1.7060   18.5060 C   0  0  0  0  0  0  0  0  0  0  0  0
    8.0635   -5.4710   26.3667 C   0  0  0  0  0  0  0  0  0  0  0  0
    8.9510    0.1280   21.6880 C   0  0  0  0  0  0  0  0  0  0  0  0
    8.2626   -6.7580   27.1475 C   0  0  0  0  0  0  0  0  0  0  0  0
    9.4048   -6.6156   28.1380 C   0  0  0  0  0  0  0  0  0  0  0  0
   10.6949   -6.1500   27.4702 C   0  0  0  0  0  0  0  0  0  0  0  0
   10.4942   -5.7069   26.0219 C   0  0  0  0  0  0  0  0  0  0  0  0
    9.9979    1.0755   23.7305 C   0  0  0  0  0  0  0  0  0  0  0  0
    7.6830   -0.5170   18.7600 N   0  0  0  0  0  0  0  0  0  0  0  0
    6.9440    0.2550   18.0100 N   0  0  0  0  0  0  0  0  0  0  0  0
    5.9810    0.8330   18.8060 N   0  0  0  0  0  0  0  0  0  0  0  0
    9.2623   -4.9266   25.8635 N   0  0  0  0  0  0  0  0  0  0  0  0
    8.0810   -0.9750   21.0820 N   0  0  0  0  0  0  0  0  0  0  0  0
    9.4200   -0.0840   22.9530 N   0  0  0  0  0  0  0  0  0  0  0  0
    6.9244   -5.0476   26.1739 O   0  0  0  0  0  0  0  0  0  0  0  0
    9.1870    1.1500   21.0630 O   0  0  0  0  0  0  0  0  0  0  0  0
   13.9334    0.9179   24.5593 S   0  0  0  0  0  0  0  0  0  0  0  0
    7.5639   -2.8621   26.1045 H   0  0  0  0  0  0  0  0  0  0  0  0
   11.0141   -4.2644   23.9422 H   0  0  0  0  0  0  0  0  0  0  0  0
    7.5950   -0.7788   24.8007 H   0  0  0  0  0  0  0  0  0  0  0  0
   11.0408   -2.1861   22.6359 H   0  0  0  0  0  0  0  0  0  0  0  0
   11.9298    1.2070   21.5688 H   0  0  0  0  0  0  0  0  0  0  0  0
   14.4837    1.0977   22.1855 H   0  0  0  0  0  0  0  0  0  0  0  0
   11.9046    0.8529   25.9152 H   0  0  0  0  0  0  0  0  0  0  0  0
    5.4735    0.4758   22.1644 H   0  0  0  0  0  0  0  0  0  0  0  0
    3.6415    1.9967   21.6408 H   0  0  0  0  0  0  0  0  0  0  0  0
    3.2720    2.7926   19.2920 H   0  0  0  0  0  0  0  0  0  0  0  0
    4.8119    2.0418   17.5005 H   0  0  0  0  0  0  0  0  0  0  0  0
    7.3516   -6.9810   27.6812 H   0  0  0  0  0  0  0  0  0  0  0  0
    8.4757   -7.5428   26.4371 H   0  0  0  0  0  0  0  0  0  0  0  0
    9.1234   -5.9016   28.9400 H   0  0  0  0  0  0  0  0  0  0  0  0
    9.5778   -7.5840   28.6491 H   0  0  0  0  0  0  0  0  0  0  0  0
   11.1305   -5.3108   28.0523 H   0  0  0  0  0  0  0  0  0  0  0  0
   11.4565   -6.9587   27.5131 H   0  0  0  0  0  0  0  0  0  0  0  0
   11.3212   -5.0729   25.7168 H   0  0  0  0  0  0  0  0  0  0  0  0
   10.4483   -6.5796   25.3796 H   0  0  0  0  0  0  0  0  0  0  0  0
    9.5979    1.0021   24.7477 H   0  0  0  0  0  0  0  0  0  0  0  0
    9.6320    2.0154   23.3042 H   0  0  0  0  0  0  0  0  0  0  0  0
    8.1334   -1.7992   21.3673 H   0  0  0  0  0  0  0  0  0  0  0  0
  1  3  2  0  0  0  0
  1  9  1  0  0  0  0
  2  4  1  0  0  0  0
  2  9  2  0  0  0  0
  3 10  1  0  0  0  0
  4 10  2  0  0  0  0
  5  6  2  0  0  0  0
  5  8  1  0  0  0  0
  6 32  1  0  0  0  0
  7  8  2  0  0  0  0
  7 32  1  0  0  0  0
  8 23  1  0  0  0  0
  9 27  1  0  0  0  0
 10 29  1  0  0  0  0
 11 12  2  0  0  0  0
 11 13  1  0  0  0  0
 11 26  1  0  0  0  0
 12 24  1  0  0  0  0
 12 28  1  0  0  0  0
 13 14  2  0  0  0  0
 14 15  1  0  0  0  0
 15 16  2  0  0  0  0
 16 26  1  0  0  0  0
 17 19  1  0  0  0  0
 17 27  1  0  0  0  0
 17 30  2  0  0  0  0
 18 28  1  0  0  0  0
 18 29  1  0  0  0  0
 18 31  2  0  0  0  0
 19 20  1  0  0  0  0
 20 21  1  0  0  0  0
 21 22  1  0  0  0  0
 22 27  1  0  0  0  0
 23 29  1  0  0  0  0
 24 25  2  0  0  0  0
 25 26  1  0  0  0  0
  1 33  1  0  0  0  0
  2 34  1  0  0  0  0
  3 35  1  0  0  0  0
  4 36  1  0  0  0  0
  5 37  1  0  0  0  0
  6 38  1  0  0  0  0
  7 39  1  0  0  0  0
 13 40  1  0  0  0  0
 14 41  1  0  0  0  0
 15 42  1  0  0  0  0
 16 43  1  0  0  0  0
 19 44  1  0  0  0  0
 19 45  1  0  0  0  0
 20 46  1  0  0  0  0
 20 47  1  0  0  0  0
 21 48  1  0  0  0  0
 21 49  1  0  0  0  0
 22 50  1  0  0  0  0
 22 51  1  0  0  0  0
 23 52  1  0  0  0  0
 23 53  1  0  0  0  0
 28 54  1  0  0  0  0
M  END
> <clash_score>
1.272782601224562

> <docking_score>
-7.8113274574279785

> <overlap_score>
0.9869235754013062

$$$$
BENZO_109_1
  -OEChem-08232013483D

 56 60  0     0  0  0  0  0  0999 V2000
   14.2885    1.1440   23.7306 C   0  0  0  0  0  0  0  0  0  0  0  0
   13.6022    0.4565   24.7315 C   0  0  0  0  0  0  0  0  0  0  0  0
   13.5801    1.8094   22.7299 C   0  0  0  0  0  0  0  0  0  0  0  0
   12.2075    0.4341   24.7317 C   0  0  0  0  0  0  0  0  0  0  0  0
   12.1854    1.7870   22.7301 C   0  0  0  0  0  0  0  0  0  0  0  0
    8.3310   -2.7170   25.3430 C   0  0  0  0  0  0  0  0  0  0  0  0
   10.2570   -3.5000   24.1350 C   0  0  0  0  0  0  0  0  0  0  0  0
    8.3510   -1.5420   24.6110 C   0  0  0  0  0  0  0  0  0  0  0  0
   10.2760   -2.3270   23.4020 C   0  0  0  0  0  0  0  0  0  0  0  0
   11.4991    1.0994   23.7310 C   0  0  0  0  0  0  0  0  0  0  0  0
    9.2850   -3.7090   25.1090 C   0  0  0  0  0  0  0  0  0  0  0  0
    9.3300   -1.3350   23.6390 C   0  0  0  0  0  0  0  0  0  0  0  0
    6.1600    0.3870   20.1140 C   0  0  0  0  0  0  0  0  0  0  0  0
    7.2210   -0.4620   20.0350 C   0  0  0  0  0  0  0  0  0  0  0  0
    5.3360    0.8000   21.1530 C   0  0  0  0  0  0  0  0  0  0  0  0
    4.2970    1.6690   20.8430 C   0  0  0  0  0  0  0  0  0  0  0  0
    4.0980    2.1130   19.5350 C   0  0  0  0  0  0  0  0  0  0  0  0
    4.9400    1.7060   18.5060 C   0  0  0  0  0  0  0  0  0  0  0  0
    8.9510    0.1280   21.6880 C   0  0  0  0  0  0  0  0  0  0  0  0
    8.7666   -4.9523   27.2147 C   0  0  0  0  0  0  0  0  0  0  0  0
    9.3034   -6.1866   25.1651 C   0  0  0  0  0  0  0  0  0  0  0  0
    7.3827   -5.5925   27.1999 C   0  0  0  0  0  0  0  0  0  0  0  0
    7.9024   -6.7967   25.2263 C   0  0  0  0  0  0  0  0  0  0  0  0
    9.9979    1.0755   23.7305 C   0  0  0  0  0  0  0  0  0  0  0  0
    7.6830   -0.5170   18.7600 N   0  0  0  0  0  0  0  0  0  0  0  0
    6.9440    0.2550   18.0100 N   0  0  0  0  0  0  0  0  0  0  0  0
    5.9810    0.8330   18.8060 N   0  0  0  0  0  0  0  0  0  0  0  0
    9.2640   -4.8844   25.8389 N   0  0  0  0  0  0  0  0  0  0  0  0
    8.0810   -0.9750   21.0820 N   0  0  0  0  0  0  0  0  0  0  0  0
    9.4200   -0.0840   22.9530 N   0  0  0  0  0  0  0  0  0  0  0  0
    9.1870    1.1500   21.0630 O   0  0  0  0  0  0  0  0  0  0  0  0
    7.4483   -6.8833   26.5817 O   0  0  0  0  0  0  0  0  0  0  0  0
   15.3744    1.1625   23.7313 H   0  0  0  0  0  0  0  0  0  0  0  0
   14.1536   -0.0607   25.5113 H   0  0  0  0  0  0  0  0  0  0  0  0
   14.1141    2.3457   21.9511 H   0  0  0  0  0  0  0  0  0  0  0  0
   11.6812   -0.1044   25.5154 H   0  0  0  0  0  0  0  0  0  0  0  0
   11.6419    2.3080   21.9464 H   0  0  0  0  0  0  0  0  0  0  0  0
    7.5647   -2.8621   26.1053 H   0  0  0  0  0  0  0  0  0  0  0  0
   11.0144   -4.2642   23.9425 H   0  0  0  0  0  0  0  0  0  0  0  0
    7.5958   -0.7779   24.8006 H   0  0  0  0  0  0  0  0  0  0  0  0
   11.0406   -2.1848   22.6356 H   0  0  0  0  0  0  0  0  0  0  0  0
    5.4735    0.4758   22.1644 H   0  0  0  0  0  0  0  0  0  0  0  0
    3.6415    1.9967   21.6408 H   0  0  0  0  0  0  0  0  0  0  0  0
    3.2720    2.7926   19.2921 H   0  0  0  0  0  0  0  0  0  0  0  0
    4.8119    2.0418   17.5005 H   0  0  0  0  0  0  0  0  0  0  0  0
    8.7030   -3.9561   27.6574 H   0  0  0  0  0  0  0  0  0  0  0  0
    9.4460   -5.5639   27.8143 H   0  0  0  0  0  0  0  0  0  0  0  0
   10.0083   -6.8392   25.6817 H   0  0  0  0  0  0  0  0  0  0  0  0
    9.6089   -6.0802   24.1251 H   0  0  0  0  0  0  0  0  0  0  0  0
    7.0281   -5.7334   28.2231 H   0  0  0  0  0  0  0  0  0  0  0  0
    6.6541   -4.9678   26.6754 H   0  0  0  0  0  0  0  0  0  0  0  0
    7.1860   -6.2177   24.6318 H   0  0  0  0  0  0  0  0  0  0  0  0
    7.9246   -7.8119   24.8187 H   0  0  0  0  0  0  0  0  0  0  0  0
    9.6122    1.0250   24.7546 H   0  0  0  0  0  0  0  0  0  0  0  0
    9.5906    1.9837   23.2740 H   0  0  0  0  0  0  0  0  0  0  0  0
    8.1334   -1.7992   21.3673 H   0  0  0  0  0  0  0  0  0  0  0  0
  1  2  1  0  0  0  0
  1  3  2  0  0  0  0
  2  4  2  0  0  0  0
  3  5  1  0  0  0  0
  4 10  1  0  0  0  0
  5 10  2  0  0  0  0
  6  8  2  0  0  0  0
  6 11  1  0  0  0  0
  7  9  1  0  0  0  0
  7 11  2  0  0  0  0
  8 12  1  0  0  0  0
  9 12  2  0  0  0  0
 10 24  1  0  0  0  0
 11 28  1  0  0  0  0
 12 30  1  0  0  0  0
 13 14  2  0  0  0  0
 13 15  1  0  0  0  0
 13 27  1  0  0  0  0
 14 25  1  0  0  0  0
 14 29  1  0  0  0  0
 15 16  2  0  0  0  0
 16 17  1  0  0  0  0
 17 18  2  0  0  0  0
 18 27  1  0  0  0  0
 19 29  1  0  0  0  0
 19 30  1  0  0  0  0
 19 31  2  0  0  0  0
 20 22  1  0  0  0  0
 20 28  1  0  0  0  0
 21 23  1  0  0  0  0
 21 28  1  0  0  0  0
 22 32  1  0  0  0  0
 23 32  1  0  0  0  0
 24 30  1  0  0  0  0
 25 26  2  0  0  0  0
 26 27  1  0  0  0  0
  1 33  1  0  0  0  0
  2 34  1  0  0  0  0
  3 35  1  0  0  0  0
  4 36  1  0  0  0  0
  5 37  1  0  0  0  0
  6 38  1  0  0  0  0
  7 39  1  0  0  0  0
  8 40  1  0  0  0  0
  9 41  1  0  0  0  0
 15 42  1  0  0  0  0
 16 43  1  0  0  0  0
 17 44  1  0  0  0  0
 18 45  1  0  0  0  0
 20 46  1  0  0  0  0
 20 47  1  0  0  0  0
 21 48  1  0  0  0  0
 21 49  1  0  0  0  0
 22 50  1  0  0  0  0
 22 51  1  0  0  0  0
 23 52  1  0  0  0  0
 23 53  1  0  0  0  0
 24 54  1  0  0  0  0
 24 55  1  0  0  0  0
 29 56  1  0  0  0  0
M  END
> <clash_score>
0

> <docking_score>
-8.562149047851562

> <overlap_score>
1.0113210678100586

$$$$
BENZO_107_1
  -OEChem-08232013483D

 57 61  0     0  0  0  0  0  0999 V2000
    8.3310   -2.7170   25.3430 C   0  0  0  0  0  0  0  0  0  0  0  0
   10.2570   -3.5000   24.1350 C   0  0  0  0  0  0  0  0  0  0  0  0
    8.3510   -1.5420   24.6110 C   0  0  0  0  0  0  0  0  0  0  0  0
   10.2760   -2.3270   23.4020 C   0  0  0  0  0  0  0  0  0  0  0  0
   12.3692    1.7398   24.6052 C   0  0  0  0  0  0  0  0  0  0  0  0
   12.3310    0.3141   22.9317 C   0  0  0  0  0  0  0  0  0  0  0  0
   11.4988    1.0401   23.7482 C   0  0  0  0  0  0  0  0  0  0  0  0
    9.2850   -3.7090   25.1090 C   0  0  0  0  0  0  0  0  0  0  0  0
    9.3300   -1.3350   23.6390 C   0  0  0  0  0  0  0  0  0  0  0  0
    6.1600    0.3870   20.1140 C   0  0  0  0  0  0  0  0  0  0  0  0
    7.2210   -0.4620   20.0350 C   0  0  0  0  0  0  0  0  0  0  0  0
    5.3360    0.8000   21.1530 C   0  0  0  0  0  0  0  0  0  0  0  0
    4.2970    1.6690   20.8430 C   0  0  0  0  0  0  0  0  0  0  0  0
    4.0980    2.1130   19.5350 C   0  0  0  0  0  0  0  0  0  0  0  0
    4.9400    1.7060   18.5060 C   0  0  0  0  0  0  0  0  0  0  0  0
    8.2930   -5.1714   26.8572 C   0  0  0  0  0  0  0  0  0  0  0  0
    8.9510    0.1280   21.6880 C   0  0  0  0  0  0  0  0  0  0  0  0
    8.4551   -6.5156   27.5444 C   0  0  0  0  0  0  0  0  0  0  0  0
    9.9019   -6.7444   27.9450 C   0  0  0  0  0  0  0  0  0  0  0  0
   10.8596   -6.5882   26.7680 C   0  0  0  0  0  0  0  0  0  0  0  0
   10.1895   -6.0108   25.5223 C   0  0  0  0  0  0  0  0  0  0  0  0
   14.8213    0.0873   22.7709 C   0  0  0  0  0  0  0  0  0  0  0  0
    9.9979    1.0755   23.7305 C   0  0  0  0  0  0  0  0  0  0  0  0
   13.6558    1.4814   24.3564 N   0  0  0  0  0  0  0  0  0  0  0  0
    7.6830   -0.5170   18.7600 N   0  0  0  0  0  0  0  0  0  0  0  0
    6.9440    0.2550   18.0100 N   0  0  0  0  0  0  0  0  0  0  0  0
   13.5999    0.6112   23.3338 N   0  0  0  0  0  0  0  0  0  0  0  0
    5.9810    0.8330   18.8060 N   0  0  0  0  0  0  0  0  0  0  0  0
    9.2623   -4.9266   25.8635 N   0  0  0  0  0  0  0  0  0  0  0  0
    8.0810   -0.9750   21.0820 N   0  0  0  0  0  0  0  0  0  0  0  0
    9.4200   -0.0840   22.9530 N   0  0  0  0  0  0  0  0  0  0  0  0
    7.3370   -4.4527   27.1463 O   0  0  0  0  0  0  0  0  0  0  0  0
    9.1870    1.1500   21.0630 O   0  0  0  0  0  0  0  0  0  0  0  0
    7.5639   -2.8621   26.1045 H   0  0  0  0  0  0  0  0  0  0  0  0
   11.0141   -4.2644   23.9422 H   0  0  0  0  0  0  0  0  0  0  0  0
    7.5950   -0.7788   24.8007 H   0  0  0  0  0  0  0  0  0  0  0  0
   11.0408   -2.1861   22.6359 H   0  0  0  0  0  0  0  0  0  0  0  0
   12.1221    2.4270   25.4020 H   0  0  0  0  0  0  0  0  0  0  0  0
   12.1332   -0.3726   22.1198 H   0  0  0  0  0  0  0  0  0  0  0  0
    5.4735    0.4758   22.1644 H   0  0  0  0  0  0  0  0  0  0  0  0
    3.6415    1.9967   21.6408 H   0  0  0  0  0  0  0  0  0  0  0  0
    3.2720    2.7926   19.2920 H   0  0  0  0  0  0  0  0  0  0  0  0
    4.8119    2.0418   17.5005 H   0  0  0  0  0  0  0  0  0  0  0  0
    7.8332   -6.5283   28.4263 H   0  0  0  0  0  0  0  0  0  0  0  0
    8.1305   -7.2787   26.8530 H   0  0  0  0  0  0  0  0  0  0  0  0
   10.1875   -6.0379   28.7521 H   0  0  0  0  0  0  0  0  0  0  0  0
   10.0116   -7.7568   28.3834 H   0  0  0  0  0  0  0  0  0  0  0  0
   11.7061   -5.9337   27.0644 H   0  0  0  0  0  0  0  0  0  0  0  0
   11.3230   -7.5689   26.5243 H   0  0  0  0  0  0  0  0  0  0  0  0
   10.9445   -5.5959   24.8614 H   0  0  0  0  0  0  0  0  0  0  0  0
    9.6461   -6.7954   25.0072 H   0  0  0  0  0  0  0  0  0  0  0  0
   15.1352    0.7559   21.9650 H   0  0  0  0  0  0  0  0  0  0  0  0
   15.5889    0.0387   23.5482 H   0  0  0  0  0  0  0  0  0  0  0  0
   14.6385   -0.9194   22.3847 H   0  0  0  0  0  0  0  0  0  0  0  0
    9.5979    1.0021   24.7477 H   0  0  0  0  0  0  0  0  0  0  0  0
    9.6320    2.0154   23.3042 H   0  0  0  0  0  0  0  0  0  0  0  0
    8.1334   -1.7992   21.3673 H   0  0  0  0  0  0  0  0  0  0  0  0
  1  3  2  0  0  0  0
  1  8  1  0  0  0  0
  2  4  1  0  0  0  0
  2  8  2  0  0  0  0
  3  9  1  0  0  0  0
  4  9  2  0  0  0  0
  5  7  1  0  0  0  0
  5 24  2  0  0  0  0
  6  7  2  0  0  0  0
  6 27  1  0  0  0  0
  7 23  1  0  0  0  0
  8 29  1  0  0  0  0
  9 31  1  0  0  0  0
 10 11  2  0  0  0  0
 10 12  1  0  0  0  0
 10 28  1  0  0  0  0
 11 25  1  0  0  0  0
 11 30  1  0  0  0  0
 12 13  2  0  0  0  0
 13 14  1  0  0  0  0
 14 15  2  0  0  0  0
 15 28  1  0  0  0  0
 16 18  1  0  0  0  0
 16 29  1  0  0  0  0
 16 32  2  0  0  0  0
 17 30  1  0  0  0  0
 17 31  1  0  0  0  0
 17 33  2  0  0  0  0
 18 19  1  0  0  0  0
 19 20  1  0  0  0  0
 20 21  1  0  0  0  0
 21 29  1  0  0  0  0
 22 27  1  0  0  0  0
 23 31  1  0  0  0  0
 24 27  1  0  0  0  0
 25 26  2  0  0  0  0
 26 28  1  0  0  0  0
  1 34  1  0  0  0  0
  2 35  1  0  0  0  0
  3 36  1  0  0  0  0
  4 37  1  0  0  0  0
  5 38  1  0  0  0  0
  6 39  1  0  0  0  0
 12 40  1  0  0  0  0
 13 41  1  0  0  0  0
 14 42  1  0  0  0  0
 15 43  1  0  0  0  0
 18 44  1  0  0  0  0
 18 45  1  0  0  0  0
 19 46  1  0  0  0  0
 19 47  1  0  0  0  0
 20 48  1  0  0  0  0
 20 49  1  0  0  0  0
 21 50  1  0  0  0  0
 21 51  1  0  0  0  0
 22 52  1  0  0  0  0
 22 53  1  0  0  0  0
 22 54  1  0  0  0  0
 23 55  1  0  0  0  0
 23 56  1  0  0  0  0
 30 57  1  0  0  0  0
M  END
> <clash_score>
2.0596949410317893

> <docking_score>
-7.300909042358398

> <overlap_score>
0.995715856552124

$$$$
BENZO_106_1
  -OEChem-08232013483D

 57 61  0     0  0  0  0  0  0999 V2000
   13.6206    1.9123   22.9907 C   0  0  0  0  0  0  0  0  0  0  0  0
   12.2262    1.9439   22.9738 C   0  0  0  0  0  0  0  0  0  0  0  0
    8.3310   -2.7170   25.3430 C   0  0  0  0  0  0  0  0  0  0  0  0
   10.2570   -3.5000   24.1350 C   0  0  0  0  0  0  0  0  0  0  0  0
    8.3510   -1.5420   24.6110 C   0  0  0  0  0  0  0  0  0  0  0  0
   10.2760   -2.3270   23.4020 C   0  0  0  0  0  0  0  0  0  0  0  0
   14.2876    0.9769   23.7819 C   0  0  0  0  0  0  0  0  0  0  0  0
   12.1657    0.1048   24.5395 C   0  0  0  0  0  0  0  0  0  0  0  0
   11.4988    1.0401   23.7482 C   0  0  0  0  0  0  0  0  0  0  0  0
    9.2850   -3.7090   25.1090 C   0  0  0  0  0  0  0  0  0  0  0  0
    9.3300   -1.3350   23.6390 C   0  0  0  0  0  0  0  0  0  0  0  0
   13.5601    0.0732   24.5563 C   0  0  0  0  0  0  0  0  0  0  0  0
    6.1600    0.3870   20.1140 C   0  0  0  0  0  0  0  0  0  0  0  0
    7.2210   -0.4620   20.0350 C   0  0  0  0  0  0  0  0  0  0  0  0
    5.3360    0.8000   21.1530 C   0  0  0  0  0  0  0  0  0  0  0  0
    4.2970    1.6690   20.8430 C   0  0  0  0  0  0  0  0  0  0  0  0
    4.0980    2.1130   19.5350 C   0  0  0  0  0  0  0  0  0  0  0  0
    4.9400    1.7060   18.5060 C   0  0  0  0  0  0  0  0  0  0  0  0
    8.2930   -5.1714   26.8572 C   0  0  0  0  0  0  0  0  0  0  0  0
    8.9510    0.1280   21.6880 C   0  0  0  0  0  0  0  0  0  0  0  0
    8.4551   -6.5156   27.5444 C   0  0  0  0  0  0  0  0  0  0  0  0
    9.9019   -6.7444   27.9450 C   0  0  0  0  0  0  0  0  0  0  0  0
   10.8596   -6.5882   26.7680 C   0  0  0  0  0  0  0  0  0  0  0  0
   10.1895   -6.0108   25.5223 C   0  0  0  0  0  0  0  0  0  0  0  0
    9.9979    1.0755   23.7305 C   0  0  0  0  0  0  0  0  0  0  0  0
    7.6830   -0.5170   18.7600 N   0  0  0  0  0  0  0  0  0  0  0  0
    6.9440    0.2550   18.0100 N   0  0  0  0  0  0  0  0  0  0  0  0
    5.9810    0.8330   18.8060 N   0  0  0  0  0  0  0  0  0  0  0  0
    9.2623   -4.9266   25.8635 N   0  0  0  0  0  0  0  0  0  0  0  0
    8.0810   -0.9750   21.0820 N   0  0  0  0  0  0  0  0  0  0  0  0
    9.4200   -0.0840   22.9530 N   0  0  0  0  0  0  0  0  0  0  0  0
    7.3370   -4.4527   27.1463 O   0  0  0  0  0  0  0  0  0  0  0  0
    9.1870    1.1500   21.0630 O   0  0  0  0  0  0  0  0  0  0  0  0
   14.3836   -1.0798   25.5331 Cl  0  0  0  0  0  0  0  0  0  0  0  0
   14.1867    2.6163   22.3876 H   0  0  0  0  0  0  0  0  0  0  0  0
   11.7149    2.6762   22.3545 H   0  0  0  0  0  0  0  0  0  0  0  0
    7.5639   -2.8621   26.1045 H   0  0  0  0  0  0  0  0  0  0  0  0
   11.0141   -4.2644   23.9422 H   0  0  0  0  0  0  0  0  0  0  0  0
    7.5950   -0.7788   24.8007 H   0  0  0  0  0  0  0  0  0  0  0  0
   11.0408   -2.1861   22.6359 H   0  0  0  0  0  0  0  0  0  0  0  0
   15.3747    0.9641   23.7853 H   0  0  0  0  0  0  0  0  0  0  0  0
   11.5940   -0.5981   25.1411 H   0  0  0  0  0  0  0  0  0  0  0  0
    5.4735    0.4758   22.1644 H   0  0  0  0  0  0  0  0  0  0  0  0
    3.6415    1.9967   21.6408 H   0  0  0  0  0  0  0  0  0  0  0  0
    3.2720    2.7926   19.2920 H   0  0  0  0  0  0  0  0  0  0  0  0
    4.8119    2.0418   17.5005 H   0  0  0  0  0  0  0  0  0  0  0  0
    7.8332   -6.5283   28.4263 H   0  0  0  0  0  0  0  0  0  0  0  0
    8.1305   -7.2787   26.8530 H   0  0  0  0  0  0  0  0  0  0  0  0
   10.1875   -6.0379   28.7521 H   0  0  0  0  0  0  0  0  0  0  0  0
   10.0116   -7.7568   28.3834 H   0  0  0  0  0  0  0  0  0  0  0  0
   11.7061   -5.9337   27.0644 H   0  0  0  0  0  0  0  0  0  0  0  0
   11.3230   -7.5689   26.5243 H   0  0  0  0  0  0  0  0  0  0  0  0
   10.9445   -5.5959   24.8614 H   0  0  0  0  0  0  0  0  0  0  0  0
    9.6461   -6.7954   25.0072 H   0  0  0  0  0  0  0  0  0  0  0  0
    9.5979    1.0021   24.7477 H   0  0  0  0  0  0  0  0  0  0  0  0
    9.6320    2.0154   23.3042 H   0  0  0  0  0  0  0  0  0  0  0  0
    8.1334   -1.7992   21.3673 H   0  0  0  0  0  0  0  0  0  0  0  0
  1  2  2  0  0  0  0
  1  7  1  0  0  0  0
  2  9  1  0  0  0  0
  3  5  2  0  0  0  0
  3 10  1  0  0  0  0
  4  6  1  0  0  0  0
  4 10  2  0  0  0  0
  5 11  1  0  0  0  0
  6 11  2  0  0  0  0
  7 12  2  0  0  0  0
  8  9  2  0  0  0  0
  8 12  1  0  0  0  0
  9 25  1  0  0  0  0
 10 29  1  0  0  0  0
 11 31  1  0  0  0  0
 12 34  1  0  0  0  0
 13 14  2  0  0  0  0
 13 15  1  0  0  0  0
 13 28  1  0  0  0  0
 14 26  1  0  0  0  0
 14 30  1  0  0  0  0
 15 16  2  0  0  0  0
 16 17  1  0  0  0  0
 17 18  2  0  0  0  0
 18 28  1  0  0  0  0
 19 21  1  0  0  0  0
 19 29  1  0  0  0  0
 19 32  2  0  0  0  0
 20 30  1  0  0  0  0
 20 31  1  0  0  0  0
 20 33  2  0  0  0  0
 21 22  1  0  0  0  0
 22 23  1  0  0  0  0
 23 24  1  0  0  0  0
 24 29  1  0  0  0  0
 25 31  1  0  0  0  0
 26 27  2  0  0  0  0
 27 28  1  0  0  0  0
  1 35  1  0  0  0  0
  2 36  1  0  0  0  0
  3 37  1  0  0  0  0
  4 38  1  0  0  0  0
  5 39  1  0  0  0  0
  6 40  1  0  0  0  0
  7 41  1  0  0  0  0
  8 42  1  0  0  0  0
 15 43  1  0  0  0  0
 16 44  1  0  0  0  0
 17 45  1  0  0  0  0
 18 46  1  0  0  0  0
 21 47  1  0  0  0  0
 21 48  1  0  0  0  0
 22 49  1  0  0  0  0
 22 50  1  0  0  0  0
 23 51  1  0  0  0  0
 23 52  1  0  0  0  0
 24 53  1  0  0  0  0
 24 54  1  0  0  0  0
 25 55  1  0  0  0  0
 25 56  1  0  0  0  0
 30 57  1  0  0  0  0
M  END
> <clash_score>
2.816420981810531

> <docking_score>
-6.312840938568115

> <overlap_score>
1.0119659900665283

$$$$
BENZO_108_1
  -OEChem-08232013483D

 53 57  0     0  0  0  0  0  0999 V2000
    8.3310   -2.7170   25.3430 C   0  0  0  0  0  0  0  0  0  0  0  0
   10.2570   -3.5000   24.1350 C   0  0  0  0  0  0  0  0  0  0  0  0
    8.3510   -1.5420   24.6110 C   0  0  0  0  0  0  0  0  0  0  0  0
   10.2760   -2.3270   23.4020 C   0  0  0  0  0  0  0  0  0  0  0  0
   12.2931    1.1632   22.5497 C   0  0  0  0  0  0  0  0  0  0  0  0
   13.6413    1.1717   22.8322 C   0  0  0  0  0  0  0  0  0  0  0  0
   12.2708    1.0613   24.8716 C   0  0  0  0  0  0  0  0  0  0  0  0
   11.4991    1.0994   23.7310 C   0  0  0  0  0  0  0  0  0  0  0  0
    9.2850   -3.7090   25.1090 C   0  0  0  0  0  0  0  0  0  0  0  0
    9.3300   -1.3350   23.6390 C   0  0  0  0  0  0  0  0  0  0  0  0
    6.1600    0.3870   20.1140 C   0  0  0  0  0  0  0  0  0  0  0  0
    7.2210   -0.4620   20.0350 C   0  0  0  0  0  0  0  0  0  0  0  0
    5.3360    0.8000   21.1530 C   0  0  0  0  0  0  0  0  0  0  0  0
    4.2970    1.6690   20.8430 C   0  0  0  0  0  0  0  0  0  0  0  0
    4.0980    2.1130   19.5350 C   0  0  0  0  0  0  0  0  0  0  0  0
    4.9400    1.7060   18.5060 C   0  0  0  0  0  0  0  0  0  0  0  0
    8.9510    0.1280   21.6880 C   0  0  0  0  0  0  0  0  0  0  0  0
    8.7666   -4.9523   27.2147 C   0  0  0  0  0  0  0  0  0  0  0  0
    9.3034   -6.1866   25.1651 C   0  0  0  0  0  0  0  0  0  0  0  0
    7.3827   -5.5925   27.1999 C   0  0  0  0  0  0  0  0  0  0  0  0
    7.9024   -6.7967   25.2263 C   0  0  0  0  0  0  0  0  0  0  0  0
    9.9979    1.0755   23.7305 C   0  0  0  0  0  0  0  0  0  0  0  0
    7.6830   -0.5170   18.7600 N   0  0  0  0  0  0  0  0  0  0  0  0
    6.9440    0.2550   18.0100 N   0  0  0  0  0  0  0  0  0  0  0  0
    5.9810    0.8330   18.8060 N   0  0  0  0  0  0  0  0  0  0  0  0
    9.2640   -4.8844   25.8389 N   0  0  0  0  0  0  0  0  0  0  0  0
    8.0810   -0.9750   21.0820 N   0  0  0  0  0  0  0  0  0  0  0  0
    9.4200   -0.0840   22.9530 N   0  0  0  0  0  0  0  0  0  0  0  0
    9.1870    1.1500   21.0630 O   0  0  0  0  0  0  0  0  0  0  0  0
    7.4483   -6.8833   26.5817 O   0  0  0  0  0  0  0  0  0  0  0  0
   13.9454    1.1028   24.5160 S   0  0  0  0  0  0  0  0  0  0  0  0
    7.5647   -2.8621   26.1053 H   0  0  0  0  0  0  0  0  0  0  0  0
   11.0144   -4.2642   23.9425 H   0  0  0  0  0  0  0  0  0  0  0  0
    7.5958   -0.7779   24.8006 H   0  0  0  0  0  0  0  0  0  0  0  0
   11.0406   -2.1848   22.6356 H   0  0  0  0  0  0  0  0  0  0  0  0
   11.8995    1.2006   21.5417 H   0  0  0  0  0  0  0  0  0  0  0  0
   14.4623    1.2143   22.1305 H   0  0  0  0  0  0  0  0  0  0  0  0
   11.9355    1.0099   25.8983 H   0  0  0  0  0  0  0  0  0  0  0  0
    5.4735    0.4758   22.1644 H   0  0  0  0  0  0  0  0  0  0  0  0
    3.6415    1.9967   21.6408 H   0  0  0  0  0  0  0  0  0  0  0  0
    3.2720    2.7926   19.2921 H   0  0  0  0  0  0  0  0  0  0  0  0
    4.8119    2.0418   17.5005 H   0  0  0  0  0  0  0  0  0  0  0  0
    8.7030   -3.9561   27.6574 H   0  0  0  0  0  0  0  0  0  0  0  0
    9.4460   -5.5639   27.8143 H   0  0  0  0  0  0  0  0  0  0  0  0
   10.0083   -6.8392   25.6817 H   0  0  0  0  0  0  0  0  0  0  0  0
    9.6089   -6.0802   24.1251 H   0  0  0  0  0  0  0  0  0  0  0  0
    7.0281   -5.7334   28.2231 H   0  0  0  0  0  0  0  0  0  0  0  0
    6.6541   -4.9678   26.6754 H   0  0  0  0  0  0  0  0  0  0  0  0
    7.1860   -6.2177   24.6318 H   0  0  0  0  0  0  0  0  0  0  0  0
    7.9246   -7.8119   24.8187 H   0  0  0  0  0  0  0  0  0  0  0  0
    9.6122    1.0250   24.7546 H   0  0  0  0  0  0  0  0  0  0  0  0
    9.5906    1.9837   23.2740 H   0  0  0  0  0  0  0  0  0  0  0  0
    8.1334   -1.7992   21.3673 H   0  0  0  0  0  0  0  0  0  0  0  0
  1  3  2  0  0  0  0
  1  9  1  0  0  0  0
  2  4  1  0  0  0  0
  2  9  2  0  0  0  0
  3 10  1  0  0  0  0
  4 10  2  0  0  0  0
  5  6  2  0  0  0  0
  5  8  1  0  0  0  0
  6 31  1  0  0  0  0
  7  8  2  0  0  0  0
  7 31  1  0  0  0  0
  8 22  1  0  0  0  0
  9 26  1  0  0  0  0
 10 28  1  0  0  0  0
 11 12  2  0  0  0  0
 11 13  1  0  0  0  0
 11 25  1  0  0  0  0
 12 23  1  0  0  0  0
 12 27  1  0  0  0  0
 13 14  2  0  0  0  0
 14 15  1  0  0  0  0
 15 16  2  0  0  0  0
 16 25  1  0  0  0  0
 17 27  1  0  0  0  0
 17 28  1  0  0  0  0
 17 29  2  0  0  0  0
 18 20  1  0  0  0  0
 18 26  1  0  0  0  0
 19 21  1  0  0  0  0
 19 26  1  0  0  0  0
 20 30  1  0  0  0  0
 21 30  1  0  0  0  0
 22 28  1  0  0  0  0
 23 24  2  0  0  0  0
 24 25  1  0  0  0  0
  1 32  1  0  0  0  0
  2 33  1  0  0  0  0
  3 34  1  0  0  0  0
  4 35  1  0  0  0  0
  5 36  1  0  0  0  0
  6 37  1  0  0  0  0
  7 38  1  0  0  0  0
 13 39  1  0  0  0  0
 14 40  1  0  0  0  0
 15 41  1  0  0  0  0
 16 42  1  0  0  0  0
 18 43  1  0  0  0  0
 18 44  1  0  0  0  0
 19 45  1  0  0  0  0
 19 46  1  0  0  0  0
 20 47  1  0  0  0  0
 20 48  1  0  0  0  0
 21 49  1  0  0  0  0
 21 50  1  0  0  0  0
 22 51  1  0  0  0  0
 22 52  1  0  0  0  0
 27 53  1  0  0  0  0
M  END
> <clash_score>
0

> <docking_score>
-8.94230842590332

> <overlap_score>
0.9885499477386475

$$$$
BENZO_110_1
  -OEChem-08232013483D

 56 60  0     0  0  0  0  0  0999 V2000
   13.5765    2.0244   22.9154 C   0  0  0  0  0  0  0  0  0  0  0  0
   12.1819    2.0009   22.9146 C   0  0  0  0  0  0  0  0  0  0  0  0
    8.3310   -2.7170   25.3430 C   0  0  0  0  0  0  0  0  0  0  0  0
   10.2570   -3.5000   24.1350 C   0  0  0  0  0  0  0  0  0  0  0  0
    8.3510   -1.5420   24.6110 C   0  0  0  0  0  0  0  0  0  0  0  0
   10.2760   -2.3270   23.4020 C   0  0  0  0  0  0  0  0  0  0  0  0
   14.2884    1.1463   23.7326 C   0  0  0  0  0  0  0  0  0  0  0  0
   12.2109    0.2212   24.5483 C   0  0  0  0  0  0  0  0  0  0  0  0
   11.4991    1.0994   23.7310 C   0  0  0  0  0  0  0  0  0  0  0  0
    9.2850   -3.7090   25.1090 C   0  0  0  0  0  0  0  0  0  0  0  0
    9.3300   -1.3350   23.6390 C   0  0  0  0  0  0  0  0  0  0  0  0
   13.6056    0.2447   24.5490 C   0  0  0  0  0  0  0  0  0  0  0  0
    6.1600    0.3870   20.1140 C   0  0  0  0  0  0  0  0  0  0  0  0
    7.2210   -0.4620   20.0350 C   0  0  0  0  0  0  0  0  0  0  0  0
    5.3360    0.8000   21.1530 C   0  0  0  0  0  0  0  0  0  0  0  0
    4.2970    1.6690   20.8430 C   0  0  0  0  0  0  0  0  0  0  0  0
    4.0980    2.1130   19.5350 C   0  0  0  0  0  0  0  0  0  0  0  0
    4.9400    1.7060   18.5060 C   0  0  0  0  0  0  0  0  0  0  0  0
    8.9510    0.1280   21.6880 C   0  0  0  0  0  0  0  0  0  0  0  0
    8.7666   -4.9523   27.2147 C   0  0  0  0  0  0  0  0  0  0  0  0
    9.3034   -6.1866   25.1651 C   0  0  0  0  0  0  0  0  0  0  0  0
    7.3827   -5.5925   27.1999 C   0  0  0  0  0  0  0  0  0  0  0  0
    7.9024   -6.7967   25.2263 C   0  0  0  0  0  0  0  0  0  0  0  0
    9.9979    1.0755   23.7305 C   0  0  0  0  0  0  0  0  0  0  0  0
    7.6830   -0.5170   18.7600 N   0  0  0  0  0  0  0  0  0  0  0  0
    6.9440    0.2550   18.0100 N   0  0  0  0  0  0  0  0  0  0  0  0
    5.9810    0.8330   18.8060 N   0  0  0  0  0  0  0  0  0  0  0  0
    9.2640   -4.8844   25.8389 N   0  0  0  0  0  0  0  0  0  0  0  0
    8.0810   -0.9750   21.0820 N   0  0  0  0  0  0  0  0  0  0  0  0
    9.4200   -0.0840   22.9530 N   0  0  0  0  0  0  0  0  0  0  0  0
    9.1870    1.1500   21.0630 O   0  0  0  0  0  0  0  0  0  0  0  0
    7.4483   -6.8833   26.5817 O   0  0  0  0  0  0  0  0  0  0  0  0
   14.4844   -0.8377   25.5579 Cl  0  0  0  0  0  0  0  0  0  0  0  0
   14.1079    2.7267   22.2796 H   0  0  0  0  0  0  0  0  0  0  0  0
   11.6354    2.6889   22.2747 H   0  0  0  0  0  0  0  0  0  0  0  0
    7.5647   -2.8621   26.1053 H   0  0  0  0  0  0  0  0  0  0  0  0
   11.0144   -4.2642   23.9425 H   0  0  0  0  0  0  0  0  0  0  0  0
    7.5958   -0.7779   24.8006 H   0  0  0  0  0  0  0  0  0  0  0  0
   11.0406   -2.1848   22.6356 H   0  0  0  0  0  0  0  0  0  0  0  0
   15.3752    1.1760   23.7232 H   0  0  0  0  0  0  0  0  0  0  0  0
   11.6739   -0.4802   25.1826 H   0  0  0  0  0  0  0  0  0  0  0  0
    5.4735    0.4758   22.1644 H   0  0  0  0  0  0  0  0  0  0  0  0
    3.6415    1.9967   21.6408 H   0  0  0  0  0  0  0  0  0  0  0  0
    3.2720    2.7926   19.2921 H   0  0  0  0  0  0  0  0  0  0  0  0
    4.8119    2.0418   17.5005 H   0  0  0  0  0  0  0  0  0  0  0  0
    8.7030   -3.9561   27.6574 H   0  0  0  0  0  0  0  0  0  0  0  0
    9.4460   -5.5639   27.8143 H   0  0  0  0  0  0  0  0  0  0  0  0
   10.0083   -6.8392   25.6817 H   0  0  0  0  0  0  0  0  0  0  0  0
    9.6089   -6.0802   24.1251 H   0  0  0  0  0  0  0  0  0  0  0  0
    7.0281   -5.7334   28.2231 H   0  0  0  0  0  0  0  0  0  0  0  0
    6.6541   -4.9678   26.6754 H   0  0  0  0  0  0  0  0  0  0  0  0
    7.1860   -6.2177   24.6318 H   0  0  0  0  0  0  0  0  0  0  0  0
    7.9246   -7.8119   24.8187 H   0  0  0  0  0  0  0  0  0  0  0  0
    9.6122    1.0250   24.7546 H   0  0  0  0  0  0  0  0  0  0  0  0
    9.5906    1.9837   23.2740 H   0  0  0  0  0  0  0  0  0  0  0  0
    8.1334   -1.7992   21.3673 H   0  0  0  0  0  0  0  0  0  0  0  0
  1  2  2  0  0  0  0
  1  7  1  0  0  0  0
  2  9  1  0  0  0  0
  3  5  2  0  0  0  0
  3 10  1  0  0  0  0
  4  6  1  0  0  0  0
  4 10  2  0  0  0  0
  5 11  1  0  0  0  0
  6 11  2  0  0  0  0
  7 12  2  0  0  0  0
  8  9  2  0  0  0  0
  8 12  1  0  0  0  0
  9 24  1  0  0  0  0
 10 28  1  0  0  0  0
 11 30  1  0  0  0  0
 12 33  1  0  0  0  0
 13 14  2  0  0  0  0
 13 15  1  0  0  0  0
 13 27  1  0  0  0  0
 14 25  1  0  0  0  0
 14 29  1  0  0  0  0
 15 16  2  0  0  0  0
 16 17  1  0  0  0  0
 17 18  2  0  0  0  0
 18 27  1  0  0  0  0
 19 29  1  0  0  0  0
 19 30  1  0  0  0  0
 19 31  2  0  0  0  0
 20 22  1  0  0  0  0
 20 28  1  0  0  0  0
 21 23  1  0  0  0  0
 21 28  1  0  0  0  0
 22 32  1  0  0  0  0
 23 32  1  0  0  0  0
 24 30  1  0  0  0  0
 25 26  2  0  0  0  0
 26 27  1  0  0  0  0
  1 34  1  0  0  0  0
  2 35  1  0  0  0  0
  3 36  1  0  0  0  0
  4 37  1  0  0  0  0
  5 38  1  0  0  0  0
  6 39  1  0  0  0  0
  7 40  1  0  0  0  0
  8 41  1  0  0  0  0
 15 42  1  0  0  0  0
 16 43  1  0  0  0  0
 17 44  1  0  0  0  0
 18 45  1  0  0  0  0
 20 46  1  0  0  0  0
 20 47  1  0  0  0  0
 21 48  1  0  0  0  0
 21 49  1  0  0  0  0
 22 50  1  0  0  0  0
 22 51  1  0  0  0  0
 23 52  1  0  0  0  0
 23 53  1  0  0  0  0
 24 54  1  0  0  0  0
 24 55  1  0  0  0  0
 29 56  1  0  0  0  0
M  END
> <clash_score>
0.6893493578249971

> <docking_score>
-7.587577819824219

> <overlap_score>
1.013511061668396

$$$$
BENZO_111_1
  -OEChem-08232013483D

 56 60  0     0  0  0  0  0  0999 V2000
    8.3310   -2.7170   25.3430 C   0  0  0  0  0  0  0  0  0  0  0  0
   10.2570   -3.5000   24.1350 C   0  0  0  0  0  0  0  0  0  0  0  0
    8.3510   -1.5420   24.6110 C   0  0  0  0  0  0  0  0  0  0  0  0
   10.2760   -2.3270   23.4020 C   0  0  0  0  0  0  0  0  0  0  0  0
   12.3632    1.0650   24.8419 C   0  0  0  0  0  0  0  0  0  0  0  0
   12.3380    1.1570   22.6451 C   0  0  0  0  0  0  0  0  0  0  0  0
   11.4991    1.0994   23.7310 C   0  0  0  0  0  0  0  0  0  0  0  0
    9.2850   -3.7090   25.1090 C   0  0  0  0  0  0  0  0  0  0  0  0
    9.3300   -1.3350   23.6390 C   0  0  0  0  0  0  0  0  0  0  0  0
    6.1600    0.3870   20.1140 C   0  0  0  0  0  0  0  0  0  0  0  0
    7.2210   -0.4620   20.0350 C   0  0  0  0  0  0  0  0  0  0  0  0
    5.3360    0.8000   21.1530 C   0  0  0  0  0  0  0  0  0  0  0  0
    4.2970    1.6690   20.8430 C   0  0  0  0  0  0  0  0  0  0  0  0
    4.0980    2.1130   19.5350 C   0  0  0  0  0  0  0  0  0  0  0  0
    4.9400    1.7060   18.5060 C   0  0  0  0  0  0  0  0  0  0  0  0
    8.9510    0.1280   21.6880 C   0  0  0  0  0  0  0  0  0  0  0  0
    8.7666   -4.9523   27.2147 C   0  0  0  0  0  0  0  0  0  0  0  0
    9.3034   -6.1866   25.1651 C   0  0  0  0  0  0  0  0  0  0  0  0
    7.3827   -5.5925   27.1999 C   0  0  0  0  0  0  0  0  0  0  0  0
    7.9024   -6.7967   25.2263 C   0  0  0  0  0  0  0  0  0  0  0  0
   14.8306    1.2028   22.3921 C   0  0  0  0  0  0  0  0  0  0  0  0
    9.9979    1.0755   23.7305 C   0  0  0  0  0  0  0  0  0  0  0  0
   13.6522    1.0979   24.4936 N   0  0  0  0  0  0  0  0  0  0  0  0
    7.6830   -0.5170   18.7600 N   0  0  0  0  0  0  0  0  0  0  0  0
    6.9440    0.2550   18.0100 N   0  0  0  0  0  0  0  0  0  0  0  0
   13.6043    1.1535   23.1517 N   0  0  0  0  0  0  0  0  0  0  0  0
    5.9810    0.8330   18.8060 N   0  0  0  0  0  0  0  0  0  0  0  0
    9.2640   -4.8844   25.8389 N   0  0  0  0  0  0  0  0  0  0  0  0
    8.0810   -0.9750   21.0820 N   0  0  0  0  0  0  0  0  0  0  0  0
    9.4200   -0.0840   22.9530 N   0  0  0  0  0  0  0  0  0  0  0  0
    9.1870    1.1500   21.0630 O   0  0  0  0  0  0  0  0  0  0  0  0
    7.4483   -6.8833   26.5817 O   0  0  0  0  0  0  0  0  0  0  0  0
    7.5647   -2.8621   26.1053 H   0  0  0  0  0  0  0  0  0  0  0  0
   11.0144   -4.2642   23.9425 H   0  0  0  0  0  0  0  0  0  0  0  0
    7.5958   -0.7779   24.8006 H   0  0  0  0  0  0  0  0  0  0  0  0
   11.0406   -2.1848   22.6356 H   0  0  0  0  0  0  0  0  0  0  0  0
   12.1097    1.0164   25.8914 H   0  0  0  0  0  0  0  0  0  0  0  0
   12.1466    1.1979   21.5813 H   0  0  0  0  0  0  0  0  0  0  0  0
    5.4735    0.4758   22.1644 H   0  0  0  0  0  0  0  0  0  0  0  0
    3.6415    1.9967   21.6408 H   0  0  0  0  0  0  0  0  0  0  0  0
    3.2720    2.7926   19.2921 H   0  0  0  0  0  0  0  0  0  0  0  0
    4.8119    2.0418   17.5005 H   0  0  0  0  0  0  0  0  0  0  0  0
    8.7030   -3.9561   27.6574 H   0  0  0  0  0  0  0  0  0  0  0  0
    9.4460   -5.5639   27.8143 H   0  0  0  0  0  0  0  0  0  0  0  0
   10.0083   -6.8392   25.6817 H   0  0  0  0  0  0  0  0  0  0  0  0
    9.6089   -6.0802   24.1251 H   0  0  0  0  0  0  0  0  0  0  0  0
    7.0281   -5.7334   28.2231 H   0  0  0  0  0  0  0  0  0  0  0  0
    6.6541   -4.9678   26.6754 H   0  0  0  0  0  0  0  0  0  0  0  0
    7.1860   -6.2177   24.6318 H   0  0  0  0  0  0  0  0  0  0  0  0
    7.9246   -7.8119   24.8187 H   0  0  0  0  0  0  0  0  0  0  0  0
   15.1025    2.2531   22.2584 H   0  0  0  0  0  0  0  0  0  0  0  0
   15.6167    0.6704   22.9348 H   0  0  0  0  0  0  0  0  0  0  0  0
   14.6750    0.7206   21.4230 H   0  0  0  0  0  0  0  0  0  0  0  0
    9.6122    1.0250   24.7546 H   0  0  0  0  0  0  0  0  0  0  0  0
    9.5906    1.9837   23.2740 H   0  0  0  0  0  0  0  0  0  0  0  0
    8.1334   -1.7992   21.3673 H   0  0  0  0  0  0  0  0  0  0  0  0
  1  3  2  0  0  0  0
  1  8  1  0  0  0  0
  2  4  1  0  0  0  0
  2  8  2  0  0  0  0
  3  9  1  0  0  0  0
  4  9  2  0  0  0  0
  5  7  1  0  0  0  0
  5 23  2  0  0  0  0
  6  7  2  0  0  0  0
  6 26  1  0  0  0  0
  7 22  1  0  0  0  0
  8 28  1  0  0  0  0
  9 30  1  0  0  0  0
 10 11  2  0  0  0  0
 10 12  1  0  0  0  0
 10 27  1  0  0  0  0
 11 24  1  0  0  0  0
 11 29  1  0  0  0  0
 12 13  2  0  0  0  0
 13 14  1  0  0  0  0
 14 15  2  0  0  0  0
 15 27  1  0  0  0  0
 16 29  1  0  0  0  0
 16 30  1  0  0  0  0
 16 31  2  0  0  0  0
 17 19  1  0  0  0  0
 17 28  1  0  0  0  0
 18 20  1  0  0  0  0
 18 28  1  0  0  0  0
 19 32  1  0  0  0  0
 20 32  1  0  0  0  0
 21 26  1  0  0  0  0
 22 30  1  0  0  0  0
 23 26  1  0  0  0  0
 24 25  2  0  0  0  0
 25 27  1  0  0  0  0
  1 33  1  0  0  0  0
  2 34  1  0  0  0  0
  3 35  1  0  0  0  0
  4 36  1  0  0  0  0
  5 37  1  0  0  0  0
  6 38  1  0  0  0  0
 12 39  1  0  0  0  0
 13 40  1  0  0  0  0
 14 41  1  0  0  0  0
 15 42  1  0  0  0  0
 17 43  1  0  0  0  0
 17 44  1  0  0  0  0
 18 45  1  0  0  0  0
 18 46  1  0  0  0  0
 19 47  1  0  0  0  0
 19 48  1  0  0  0  0
 20 49  1  0  0  0  0
 20 50  1  0  0  0  0
 21 51  1  0  0  0  0
 21 52  1  0  0  0  0
 21 53  1  0  0  0  0
 22 54  1  0  0  0  0
 22 55  1  0  0  0  0
 29 56  1  0  0  0  0
M  END
> <clash_score>
0

> <docking_score>
-8.476635932922363

> <overlap_score>
1.0047787427902222

$$$$
BENZO_113_1
  -OEChem-08232013483D

 53 56  0     0  0  0  0  0  0999 V2000
   14.2892    1.0137   23.7809 C   0  0  0  0  0  0  0  0  0  0  0  0
    4.2970    1.6690   20.8430 C   0  0  0  0  0  0  0  0  0  0  0  0
   13.5784    0.3319   24.7685 C   0  0  0  0  0  0  0  0  0  0  0  0
   13.6052    1.7080   22.7829 C   0  0  0  0  0  0  0  0  0  0  0  0
    4.0980    2.1130   19.5350 C   0  0  0  0  0  0  0  0  0  0  0  0
    5.3360    0.8000   21.1530 C   0  0  0  0  0  0  0  0  0  0  0  0
   12.1836    0.3443   24.7582 C   0  0  0  0  0  0  0  0  0  0  0  0
   12.2105    1.7204   22.7726 C   0  0  0  0  0  0  0  0  0  0  0  0
    4.9400    1.7060   18.5060 C   0  0  0  0  0  0  0  0  0  0  0  0
    8.3510   -1.5420   24.6110 C   0  0  0  0  0  0  0  0  0  0  0  0
   10.2760   -2.3270   23.4020 C   0  0  0  0  0  0  0  0  0  0  0  0
    8.3310   -2.7170   25.3430 C   0  0  0  0  0  0  0  0  0  0  0  0
   10.2570   -3.5000   24.1350 C   0  0  0  0  0  0  0  0  0  0  0  0
    7.6830   -0.5170   18.7600 C   0  0  0  0  0  0  0  0  0  0  0  0
    6.1600    0.3870   20.1140 C   0  0  0  0  0  0  0  0  0  0  0  0
   11.4996    1.0386   23.7602 C   0  0  0  0  0  0  0  0  0  0  0  0
    5.9810    0.8330   18.8060 C   0  0  0  0  0  0  0  0  0  0  0  0
    9.3300   -1.3350   23.6390 C   0  0  0  0  0  0  0  0  0  0  0  0
    9.2850   -3.7090   25.1090 C   0  0  0  0  0  0  0  0  0  0  0  0
    7.2210   -0.4620   20.0350 C   0  0  0  0  0  0  0  0  0  0  0  0
    8.9510    0.1280   21.6880 C   0  0  0  0  0  0  0  0  0  0  0  0
    8.2502   -5.1187   26.8644 C   0  0  0  0  0  0  0  0  0  0  0  0
   10.2426   -5.9404   25.5981 C   0  0  0  0  0  0  0  0  0  0  0  0
    9.9983    1.0521   23.7484 C   0  0  0  0  0  0  0  0  0  0  0  0
    6.9440    0.2550   18.0100 N   0  0  0  0  0  0  0  0  0  0  0  0
    8.0810   -0.9750   21.0820 N   0  0  0  0  0  0  0  0  0  0  0  0
    9.4200   -0.0840   22.9530 N   0  0  0  0  0  0  0  0  0  0  0  0
    9.2624   -4.9028   25.8498 N   0  0  0  0  0  0  0  0  0  0  0  0
    9.1870    1.1500   21.0630 O   0  0  0  0  0  0  0  0  0  0  0  0
   15.3752    1.0051   23.7898 H   0  0  0  0  0  0  0  0  0  0  0  0
    3.6256    2.0106   21.6303 H   0  0  0  0  0  0  0  0  0  0  0  0
   14.1107   -0.2078   25.5463 H   0  0  0  0  0  0  0  0  0  0  0  0
   14.1583    2.2399   22.0145 H   0  0  0  0  0  0  0  0  0  0  0  0
    3.2724    2.7868   19.3204 H   0  0  0  0  0  0  0  0  0  0  0  0
    5.4858    0.4664   22.1692 H   0  0  0  0  0  0  0  0  0  0  0  0
   11.6381   -0.1899   25.5316 H   0  0  0  0  0  0  0  0  0  0  0  0
   11.6861    2.2639   21.9911 H   0  0  0  0  0  0  0  0  0  0  0  0
    4.7836    2.0664   17.4848 H   0  0  0  0  0  0  0  0  0  0  0  0
    7.5947   -0.7787   24.7997 H   0  0  0  0  0  0  0  0  0  0  0  0
   11.0404   -2.1861   22.6352 H   0  0  0  0  0  0  0  0  0  0  0  0
    7.5641   -2.8632   26.1047 H   0  0  0  0  0  0  0  0  0  0  0  0
   11.0135   -4.2647   23.9425 H   0  0  0  0  0  0  0  0  0  0  0  0
    8.5274   -1.0858   18.3384 H   0  0  0  0  0  0  0  0  0  0  0  0
    8.3996   -6.1050   27.3280 H   0  0  0  0  0  0  0  0  0  0  0  0
    8.3293   -4.3363   27.6335 H   0  0  0  0  0  0  0  0  0  0  0  0
    7.2531   -5.0785   26.4017 H   0  0  0  0  0  0  0  0  0  0  0  0
   10.0599   -6.7897   26.2729 H   0  0  0  0  0  0  0  0  0  0  0  0
   10.1599   -6.2773   24.5542 H   0  0  0  0  0  0  0  0  0  0  0  0
   11.2523   -5.5417   25.7758 H   0  0  0  0  0  0  0  0  0  0  0  0
    9.6035    0.9796   24.7677 H   0  0  0  0  0  0  0  0  0  0  0  0
    9.6171    1.9839   23.3175 H   0  0  0  0  0  0  0  0  0  0  0  0
    7.0325    0.4238   17.0175 H   0  0  0  0  0  0  0  0  0  0  0  0
    8.1151   -1.8109   21.3513 H   0  0  0  0  0  0  0  0  0  0  0  0
  1  3  1  0  0  0  0
  1  4  2  0  0  0  0
  2  5  1  0  0  0  0
  2  6  2  0  0  0  0
  3  7  2  0  0  0  0
  4  8  1  0  0  0  0
  5  9  2  0  0  0  0
  6 15  1  0  0  0  0
  7 16  1  0  0  0  0
  8 16  2  0  0  0  0
  9 17  1  0  0  0  0
 10 12  2  0  0  0  0
 10 18  1  0  0  0  0
 11 13  1  0  0  0  0
 11 18  2  0  0  0  0
 12 19  1  0  0  0  0
 13 19  2  0  0  0  0
 14 20  2  0  0  0  0
 14 25  1  0  0  0  0
 15 17  2  0  0  0  0
 15 20  1  0  0  0  0
 16 24  1  0  0  0  0
 17 25  1  0  0  0  0
 18 27  1  0  0  0  0
 19 28  1  0  0  0  0
 20 26  1  0  0  0  0
 21 26  1  0  0  0  0
 21 27  1  0  0  0  0
 21 29  2  0  0  0  0
 22 28  1  0  0  0  0
 23 28  1  0  0  0  0
 24 27  1  0  0  0  0
  1 30  1  0  0  0  0
  2 31  1  0  0  0  0
  3 32  1  0  0  0  0
  4 33  1  0  0  0  0
  5 34  1  0  0  0  0
  6 35  1  0  0  0  0
  7 36  1  0  0  0  0
  8 37  1  0  0  0  0
  9 38  1  0  0  0  0
 10 39  1  0  0  0  0
 11 40  1  0  0  0  0
 12 41  1  0  0  0  0
 13 42  1  0  0  0  0
 14 43  1  0  0  0  0
 22 44  1  0  0  0  0
 22 45  1  0  0  0  0
 22 46  1  0  0  0  0
 23 47  1  0  0  0  0
 23 48  1  0  0  0  0
 23 49  1  0  0  0  0
 24 50  1  0  0  0  0
 24 51  1  0  0  0  0
 25 52  1  0  0  0  0
 26 53  1  0  0  0  0
M  END
> <clash_score>
0

> <docking_score>
-8.689391136169434

> <overlap_score>
0.9961432814598083

$$$$
BENZO_112_1
  -OEChem-08232013483D

 50 53  0     0  0  0  0  0  0999 V2000
    4.2970    1.6690   20.8430 C   0  0  0  0  0  0  0  0  0  0  0  0
    4.0980    2.1130   19.5350 C   0  0  0  0  0  0  0  0  0  0  0  0
    5.3360    0.8000   21.1530 C   0  0  0  0  0  0  0  0  0  0  0  0
    4.9400    1.7060   18.5060 C   0  0  0  0  0  0  0  0  0  0  0  0
    8.3510   -1.5420   24.6110 C   0  0  0  0  0  0  0  0  0  0  0  0
   10.2760   -2.3270   23.4020 C   0  0  0  0  0  0  0  0  0  0  0  0
    8.3310   -2.7170   25.3430 C   0  0  0  0  0  0  0  0  0  0  0  0
   10.2570   -3.5000   24.1350 C   0  0  0  0  0  0  0  0  0  0  0  0
   12.3042    1.1191   22.5871 C   0  0  0  0  0  0  0  0  0  0  0  0
    7.6830   -0.5170   18.7600 C   0  0  0  0  0  0  0  0  0  0  0  0
   13.6500    1.0853   22.8793 C   0  0  0  0  0  0  0  0  0  0  0  0
   12.2612    0.9460   24.9045 C   0  0  0  0  0  0  0  0  0  0  0  0
    6.1600    0.3870   20.1140 C   0  0  0  0  0  0  0  0  0  0  0  0
   11.4996    1.0386   23.7602 C   0  0  0  0  0  0  0  0  0  0  0  0
    5.9810    0.8330   18.8060 C   0  0  0  0  0  0  0  0  0  0  0  0
    9.3300   -1.3350   23.6390 C   0  0  0  0  0  0  0  0  0  0  0  0
    9.2850   -3.7090   25.1090 C   0  0  0  0  0  0  0  0  0  0  0  0
    7.2210   -0.4620   20.0350 C   0  0  0  0  0  0  0  0  0  0  0  0
    8.9510    0.1280   21.6880 C   0  0  0  0  0  0  0  0  0  0  0  0
    8.2502   -5.1187   26.8644 C   0  0  0  0  0  0  0  0  0  0  0  0
   10.2426   -5.9404   25.5981 C   0  0  0  0  0  0  0  0  0  0  0  0
    9.9983    1.0521   23.7484 C   0  0  0  0  0  0  0  0  0  0  0  0
    6.9440    0.2550   18.0100 N   0  0  0  0  0  0  0  0  0  0  0  0
    8.0810   -0.9750   21.0820 N   0  0  0  0  0  0  0  0  0  0  0  0
    9.4200   -0.0840   22.9530 N   0  0  0  0  0  0  0  0  0  0  0  0
    9.2624   -4.9028   25.8498 N   0  0  0  0  0  0  0  0  0  0  0  0
    9.1870    1.1500   21.0630 O   0  0  0  0  0  0  0  0  0  0  0  0
   13.9390    0.9568   24.5622 S   0  0  0  0  0  0  0  0  0  0  0  0
    3.6256    2.0106   21.6303 H   0  0  0  0  0  0  0  0  0  0  0  0
    3.2724    2.7868   19.3204 H   0  0  0  0  0  0  0  0  0  0  0  0
    5.4858    0.4664   22.1692 H   0  0  0  0  0  0  0  0  0  0  0  0
    4.7836    2.0664   17.4848 H   0  0  0  0  0  0  0  0  0  0  0  0
    7.5947   -0.7787   24.7997 H   0  0  0  0  0  0  0  0  0  0  0  0
   11.0404   -2.1861   22.6352 H   0  0  0  0  0  0  0  0  0  0  0  0
    7.5641   -2.8632   26.1047 H   0  0  0  0  0  0  0  0  0  0  0  0
   11.0135   -4.2647   23.9425 H   0  0  0  0  0  0  0  0  0  0  0  0
   11.9195    1.1975   21.5780 H   0  0  0  0  0  0  0  0  0  0  0  0
    8.5274   -1.0858   18.3384 H   0  0  0  0  0  0  0  0  0  0  0  0
   14.4772    1.1292   22.1850 H   0  0  0  0  0  0  0  0  0  0  0  0
   11.9167    0.8713   25.9267 H   0  0  0  0  0  0  0  0  0  0  0  0
    8.3996   -6.1050   27.3280 H   0  0  0  0  0  0  0  0  0  0  0  0
    8.3293   -4.3363   27.6335 H   0  0  0  0  0  0  0  0  0  0  0  0
    7.2531   -5.0785   26.4017 H   0  0  0  0  0  0  0  0  0  0  0  0
   10.0599   -6.7897   26.2729 H   0  0  0  0  0  0  0  0  0  0  0  0
   10.1599   -6.2773   24.5542 H   0  0  0  0  0  0  0  0  0  0  0  0
   11.2523   -5.5417   25.7758 H   0  0  0  0  0  0  0  0  0  0  0  0
    9.6035    0.9796   24.7677 H   0  0  0  0  0  0  0  0  0  0  0  0
    9.6171    1.9839   23.3175 H   0  0  0  0  0  0  0  0  0  0  0  0
    7.0325    0.4238   17.0175 H   0  0  0  0  0  0  0  0  0  0  0  0
    8.1151   -1.8109   21.3513 H   0  0  0  0  0  0  0  0  0  0  0  0
  1  2  1  0  0  0  0
  1  3  2  0  0  0  0
  2  4  2  0  0  0  0
  3 13  1  0  0  0  0
  4 15  1  0  0  0  0
  5  7  2  0  0  0  0
  5 16  1  0  0  0  0
  6  8  1  0  0  0  0
  6 16  2  0  0  0  0
  7 17  1  0  0  0  0
  8 17  2  0  0  0  0
  9 11  2  0  0  0  0
  9 14  1  0  0  0  0
 10 18  2  0  0  0  0
 10 23  1  0  0  0  0
 11 28  1  0  0  0  0
 12 14  2  0  0  0  0
 12 28  1  0  0  0  0
 13 15  2  0  0  0  0
 13 18  1  0  0  0  0
 14 22  1  0  0  0  0
 15 23  1  0  0  0  0
 16 25  1  0  0  0  0
 17 26  1  0  0  0  0
 18 24  1  0  0  0  0
 19 24  1  0  0  0  0
 19 25  1  0  0  0  0
 19 27  2  0  0  0  0
 20 26  1  0  0  0  0
 21 26  1  0  0  0  0
 22 25  1  0  0  0  0
  1 29  1  0  0  0  0
  2 30  1  0  0  0  0
  3 31  1  0  0  0  0
  4 32  1  0  0  0  0
  5 33  1  0  0  0  0
  6 34  1  0  0  0  0
  7 35  1  0  0  0  0
  8 36  1  0  0  0  0
  9 37  1  0  0  0  0
 10 38  1  0  0  0  0
 11 39  1  0  0  0  0
 12 40  1  0  0  0  0
 20 41  1  0  0  0  0
 20 42  1  0  0  0  0
 20 43  1  0  0  0  0
 21 44  1  0  0  0  0
 21 45  1  0  0  0  0
 21 46  1  0  0  0  0
 22 47  1  0  0  0  0
 22 48  1  0  0  0  0
 23 49  1  0  0  0  0
 24 50  1  0  0  0  0
M  END
> <clash_score>
0

> <docking_score>
-9.080453872680664

> <overlap_score>
0.9736822843551636

$$$$
BENZO_115_1
  -OEChem-08232013483D

 53 56  0     0  0  0  0  0  0999 V2000
    4.2970    1.6690   20.8430 C   0  0  0  0  0  0  0  0  0  0  0  0
    4.0980    2.1130   19.5350 C   0  0  0  0  0  0  0  0  0  0  0  0
    5.3360    0.8000   21.1530 C   0  0  0  0  0  0  0  0  0  0  0  0
    4.9400    1.7060   18.5060 C   0  0  0  0  0  0  0  0  0  0  0  0
    8.3510   -1.5420   24.6110 C   0  0  0  0  0  0  0  0  0  0  0  0
   10.2760   -2.3270   23.4020 C   0  0  0  0  0  0  0  0  0  0  0  0
    8.3310   -2.7170   25.3430 C   0  0  0  0  0  0  0  0  0  0  0  0
   10.2570   -3.5000   24.1350 C   0  0  0  0  0  0  0  0  0  0  0  0
   12.3539    0.9483   24.8755 C   0  0  0  0  0  0  0  0  0  0  0  0
   12.3482    1.1089   22.6826 C   0  0  0  0  0  0  0  0  0  0  0  0
    7.6830   -0.5170   18.7600 C   0  0  0  0  0  0  0  0  0  0  0  0
    6.1600    0.3870   20.1140 C   0  0  0  0  0  0  0  0  0  0  0  0
   11.4996    1.0386   23.7602 C   0  0  0  0  0  0  0  0  0  0  0  0
    5.9810    0.8330   18.8060 C   0  0  0  0  0  0  0  0  0  0  0  0
    9.3300   -1.3350   23.6390 C   0  0  0  0  0  0  0  0  0  0  0  0
    9.2850   -3.7090   25.1090 C   0  0  0  0  0  0  0  0  0  0  0  0
    7.2210   -0.4620   20.0350 C   0  0  0  0  0  0  0  0  0  0  0  0
    8.9510    0.1280   21.6880 C   0  0  0  0  0  0  0  0  0  0  0  0
   14.8430    1.1003   22.4488 C   0  0  0  0  0  0  0  0  0  0  0  0
    8.2502   -5.1187   26.8644 C   0  0  0  0  0  0  0  0  0  0  0  0
   10.2426   -5.9404   25.5981 C   0  0  0  0  0  0  0  0  0  0  0  0
    9.9983    1.0521   23.7484 C   0  0  0  0  0  0  0  0  0  0  0  0
   13.6460    0.9599   24.5376 N   0  0  0  0  0  0  0  0  0  0  0  0
    6.9440    0.2550   18.0100 N   0  0  0  0  0  0  0  0  0  0  0  0
   13.6100    1.0581   23.1978 N   0  0  0  0  0  0  0  0  0  0  0  0
    8.0810   -0.9750   21.0820 N   0  0  0  0  0  0  0  0  0  0  0  0
    9.4200   -0.0840   22.9530 N   0  0  0  0  0  0  0  0  0  0  0  0
    9.2624   -4.9028   25.8498 N   0  0  0  0  0  0  0  0  0  0  0  0
    9.1870    1.1500   21.0630 O   0  0  0  0  0  0  0  0  0  0  0  0
    3.6256    2.0106   21.6303 H   0  0  0  0  0  0  0  0  0  0  0  0
    3.2724    2.7868   19.3204 H   0  0  0  0  0  0  0  0  0  0  0  0
    5.4858    0.4664   22.1692 H   0  0  0  0  0  0  0  0  0  0  0  0
    4.7836    2.0664   17.4848 H   0  0  0  0  0  0  0  0  0  0  0  0
    7.5947   -0.7787   24.7997 H   0  0  0  0  0  0  0  0  0  0  0  0
   11.0404   -2.1861   22.6352 H   0  0  0  0  0  0  0  0  0  0  0  0
    7.5641   -2.8632   26.1047 H   0  0  0  0  0  0  0  0  0  0  0  0
   11.0135   -4.2647   23.9425 H   0  0  0  0  0  0  0  0  0  0  0  0
   12.0911    0.8736   25.9213 H   0  0  0  0  0  0  0  0  0  0  0  0
   12.1662    1.1875   21.6193 H   0  0  0  0  0  0  0  0  0  0  0  0
    8.5274   -1.0858   18.3384 H   0  0  0  0  0  0  0  0  0  0  0  0
   15.1418    2.1472   22.3498 H   0  0  0  0  0  0  0  0  0  0  0  0
   15.6115    0.5320   22.9802 H   0  0  0  0  0  0  0  0  0  0  0  0
   14.6832    0.6524   21.4640 H   0  0  0  0  0  0  0  0  0  0  0  0
    8.3996   -6.1050   27.3280 H   0  0  0  0  0  0  0  0  0  0  0  0
    8.3293   -4.3363   27.6335 H   0  0  0  0  0  0  0  0  0  0  0  0
    7.2531   -5.0785   26.4017 H   0  0  0  0  0  0  0  0  0  0  0  0
   10.0599   -6.7897   26.2729 H   0  0  0  0  0  0  0  0  0  0  0  0
   10.1599   -6.2773   24.5542 H   0  0  0  0  0  0  0  0  0  0  0  0
   11.2523   -5.5417   25.7758 H   0  0  0  0  0  0  0  0  0  0  0  0
    9.6035    0.9796   24.7677 H   0  0  0  0  0  0  0  0  0  0  0  0
    9.6171    1.9839   23.3175 H   0  0  0  0  0  0  0  0  0  0  0  0
    7.0325    0.4238   17.0175 H   0  0  0  0  0  0  0  0  0  0  0  0
    8.1151   -1.8109   21.3513 H   0  0  0  0  0  0  0  0  0  0  0  0
  1  2  1  0  0  0  0
  1  3  2  0  0  0  0
  2  4  2  0  0  0  0
  3 12  1  0  0  0  0
  4 14  1  0  0  0  0
  5  7  2  0  0  0  0
  5 15  1  0  0  0  0
  6  8  1  0  0  0  0
  6 15  2  0  0  0  0
  7 16  1  0  0  0  0
  8 16  2  0  0  0  0
  9 13  1  0  0  0  0
  9 23  2  0  0  0  0
 10 13  2  0  0  0  0
 10 25  1  0  0  0  0
 11 17  2  0  0  0  0
 11 24  1  0  0  0  0
 12 14  2  0  0  0  0
 12 17  1  0  0  0  0
 13 22  1  0  0  0  0
 14 24  1  0  0  0  0
 15 27  1  0  0  0  0
 16 28  1  0  0  0  0
 17 26  1  0  0  0  0
 18 26  1  0  0  0  0
 18 27  1  0  0  0  0
 18 29  2  0  0  0  0
 19 25  1  0  0  0  0
 20 28  1  0  0  0  0
 21 28  1  0  0  0  0
 22 27  1  0  0  0  0
 23 25  1  0  0  0  0
  1 30  1  0  0  0  0
  2 31  1  0  0  0  0
  3 32  1  0  0  0  0
  4 33  1  0  0  0  0
  5 34  1  0  0  0  0
  6 35  1  0  0  0  0
  7 36  1  0  0  0  0
  8 37  1  0  0  0  0
  9 38  1  0  0  0  0
 10 39  1  0  0  0  0
 11 40  1  0  0  0  0
 19 41  1  0  0  0  0
 19 42  1  0  0  0  0
 19 43  1  0  0  0  0
 20 44  1  0  0  0  0
 20 45  1  0  0  0  0
 20 46  1  0  0  0  0
 21 47  1  0  0  0  0
 21 48  1  0  0  0  0
 21 49  1  0  0  0  0
 22 50  1  0  0  0  0
 22 51  1  0  0  0  0
 24 52  1  0  0  0  0
 26 53  1  0  0  0  0
M  END
> <clash_score>
0

> <docking_score>
-8.372746467590332

> <overlap_score>
0.989770770072937

$$$$
BENZO_114_1
  -OEChem-08232013483D

 53 56  0     0  0  0  0  0  0999 V2000
    4.2970    1.6690   20.8430 C   0  0  0  0  0  0  0  0  0  0  0  0
    4.0980    2.1130   19.5350 C   0  0  0  0  0  0  0  0  0  0  0  0
   13.6056    1.9364   22.9885 C   0  0  0  0  0  0  0  0  0  0  0  0
    5.3360    0.8000   21.1530 C   0  0  0  0  0  0  0  0  0  0  0  0
   12.2108    1.9477   22.9771 C   0  0  0  0  0  0  0  0  0  0  0  0
    4.9400    1.7060   18.5060 C   0  0  0  0  0  0  0  0  0  0  0  0
    8.3510   -1.5420   24.6110 C   0  0  0  0  0  0  0  0  0  0  0  0
   10.2760   -2.3270   23.4020 C   0  0  0  0  0  0  0  0  0  0  0  0
    8.3310   -2.7170   25.3430 C   0  0  0  0  0  0  0  0  0  0  0  0
   10.2570   -3.5000   24.1350 C   0  0  0  0  0  0  0  0  0  0  0  0
   14.2892    1.0159   23.7830 C   0  0  0  0  0  0  0  0  0  0  0  0
   12.1832    0.1181   24.5548 C   0  0  0  0  0  0  0  0  0  0  0  0
    7.6830   -0.5170   18.7600 C   0  0  0  0  0  0  0  0  0  0  0  0
    6.1600    0.3870   20.1140 C   0  0  0  0  0  0  0  0  0  0  0  0
   11.4996    1.0386   23.7602 C   0  0  0  0  0  0  0  0  0  0  0  0
    5.9810    0.8330   18.8060 C   0  0  0  0  0  0  0  0  0  0  0  0
    9.3300   -1.3350   23.6390 C   0  0  0  0  0  0  0  0  0  0  0  0
    9.2850   -3.7090   25.1090 C   0  0  0  0  0  0  0  0  0  0  0  0
    7.2210   -0.4620   20.0350 C   0  0  0  0  0  0  0  0  0  0  0  0
   13.5779    0.1068   24.5661 C   0  0  0  0  0  0  0  0  0  0  0  0
    8.9510    0.1280   21.6880 C   0  0  0  0  0  0  0  0  0  0  0  0
    8.2502   -5.1187   26.8644 C   0  0  0  0  0  0  0  0  0  0  0  0
   10.2426   -5.9404   25.5981 C   0  0  0  0  0  0  0  0  0  0  0  0
    9.9983    1.0521   23.7484 C   0  0  0  0  0  0  0  0  0  0  0  0
    6.9440    0.2550   18.0100 N   0  0  0  0  0  0  0  0  0  0  0  0
    8.0810   -0.9750   21.0820 N   0  0  0  0  0  0  0  0  0  0  0  0
    9.4200   -0.0840   22.9530 N   0  0  0  0  0  0  0  0  0  0  0  0
    9.2624   -4.9028   25.8498 N   0  0  0  0  0  0  0  0  0  0  0  0
    9.1870    1.1500   21.0630 O   0  0  0  0  0  0  0  0  0  0  0  0
   14.4218   -1.0279   25.5470 Cl  0  0  0  0  0  0  0  0  0  0  0  0
    3.6256    2.0106   21.6303 H   0  0  0  0  0  0  0  0  0  0  0  0
    3.2724    2.7868   19.3204 H   0  0  0  0  0  0  0  0  0  0  0  0
   14.1590    2.6446   22.3786 H   0  0  0  0  0  0  0  0  0  0  0  0
    5.4858    0.4664   22.1692 H   0  0  0  0  0  0  0  0  0  0  0  0
   11.6865    2.6685   22.3551 H   0  0  0  0  0  0  0  0  0  0  0  0
    4.7836    2.0664   17.4848 H   0  0  0  0  0  0  0  0  0  0  0  0
    7.5947   -0.7787   24.7997 H   0  0  0  0  0  0  0  0  0  0  0  0
   11.0404   -2.1861   22.6352 H   0  0  0  0  0  0  0  0  0  0  0  0
    7.5641   -2.8632   26.1047 H   0  0  0  0  0  0  0  0  0  0  0  0
   11.0135   -4.2647   23.9425 H   0  0  0  0  0  0  0  0  0  0  0  0
   15.3764    1.0188   23.7822 H   0  0  0  0  0  0  0  0  0  0  0  0
   11.6240   -0.5890   25.1632 H   0  0  0  0  0  0  0  0  0  0  0  0
    8.5274   -1.0858   18.3384 H   0  0  0  0  0  0  0  0  0  0  0  0
    8.3996   -6.1050   27.3280 H   0  0  0  0  0  0  0  0  0  0  0  0
    8.3293   -4.3363   27.6335 H   0  0  0  0  0  0  0  0  0  0  0  0
    7.2531   -5.0785   26.4017 H   0  0  0  0  0  0  0  0  0  0  0  0
   10.0599   -6.7897   26.2729 H   0  0  0  0  0  0  0  0  0  0  0  0
   10.1599   -6.2773   24.5542 H   0  0  0  0  0  0  0  0  0  0  0  0
   11.2523   -5.5417   25.7758 H   0  0  0  0  0  0  0  0  0  0  0  0
    9.6035    0.9796   24.7677 H   0  0  0  0  0  0  0  0  0  0  0  0
    9.6171    1.9839   23.3175 H   0  0  0  0  0  0  0  0  0  0  0  0
    7.0325    0.4238   17.0175 H   0  0  0  0  0  0  0  0  0  0  0  0
    8.1151   -1.8109   21.3513 H   0  0  0  0  0  0  0  0  0  0  0  0
  1  2  1  0  0  0  0
  1  4  2  0  0  0  0
  2  6  2  0  0  0  0
  3  5  2  0  0  0  0
  3 11  1  0  0  0  0
  4 14  1  0  0  0  0
  5 15  1  0  0  0  0
  6 16  1  0  0  0  0
  7  9  2  0  0  0  0
  7 17  1  0  0  0  0
  8 10  1  0  0  0  0
  8 17  2  0  0  0  0
  9 18  1  0  0  0  0
 10 18  2  0  0  0  0
 11 20  2  0  0  0  0
 12 15  2  0  0  0  0
 12 20  1  0  0  0  0
 13 19  2  0  0  0  0
 13 25  1  0  0  0  0
 14 16  2  0  0  0  0
 14 19  1  0  0  0  0
 15 24  1  0  0  0  0
 16 25  1  0  0  0  0
 17 27  1  0  0  0  0
 18 28  1  0  0  0  0
 19 26  1  0  0  0  0
 20 30  1  0  0  0  0
 21 26  1  0  0  0  0
 21 27  1  0  0  0  0
 21 29  2  0  0  0  0
 22 28  1  0  0  0  0
 23 28  1  0  0  0  0
 24 27  1  0  0  0  0
  1 31  1  0  0  0  0
  2 32  1  0  0  0  0
  3 33  1  0  0  0  0
  4 34  1  0  0  0  0
  5 35  1  0  0  0  0
  6 36  1  0  0  0  0
  7 37  1  0  0  0  0
  8 38  1  0  0  0  0
  9 39  1  0  0  0  0
 10 40  1  0  0  0  0
 11 41  1  0  0  0  0
 12 42  1  0  0  0  0
 13 43  1  0  0  0  0
 22 44  1  0  0  0  0
 22 45  1  0  0  0  0
 22 46  1  0  0  0  0
 23 47  1  0  0  0  0
 23 48  1  0  0  0  0
 23 49  1  0  0  0  0
 24 50  1  0  0  0  0
 24 51  1  0  0  0  0
 25 52  1  0  0  0  0
 26 53  1  0  0  0  0
M  END
> <clash_score>
0.7397431773063575

> <docking_score>
-7.565748691558838

> <overlap_score>
0.9980195164680481

$$$$
BENZO_117_1
  -OEChem-08232013483D

 55 58  0     0  0  0  0  0  0999 V2000
   14.2892    1.0137   23.7809 C   0  0  0  0  0  0  0  0  0  0  0  0
    4.2970    1.6690   20.8430 C   0  0  0  0  0  0  0  0  0  0  0  0
   13.5784    0.3319   24.7685 C   0  0  0  0  0  0  0  0  0  0  0  0
   13.6052    1.7080   22.7829 C   0  0  0  0  0  0  0  0  0  0  0  0
    4.0980    2.1130   19.5350 C   0  0  0  0  0  0  0  0  0  0  0  0
    5.3360    0.8000   21.1530 C   0  0  0  0  0  0  0  0  0  0  0  0
   12.1836    0.3443   24.7582 C   0  0  0  0  0  0  0  0  0  0  0  0
   12.2105    1.7204   22.7726 C   0  0  0  0  0  0  0  0  0  0  0  0
    4.9400    1.7060   18.5060 C   0  0  0  0  0  0  0  0  0  0  0  0
    8.3310   -2.7170   25.3430 C   0  0  0  0  0  0  0  0  0  0  0  0
   10.2570   -3.5000   24.1350 C   0  0  0  0  0  0  0  0  0  0  0  0
    8.3510   -1.5420   24.6110 C   0  0  0  0  0  0  0  0  0  0  0  0
   10.2760   -2.3270   23.4020 C   0  0  0  0  0  0  0  0  0  0  0  0
    7.6830   -0.5170   18.7600 C   0  0  0  0  0  0  0  0  0  0  0  0
    6.1600    0.3870   20.1140 C   0  0  0  0  0  0  0  0  0  0  0  0
   11.4996    1.0386   23.7602 C   0  0  0  0  0  0  0  0  0  0  0  0
    5.9810    0.8330   18.8060 C   0  0  0  0  0  0  0  0  0  0  0  0
    9.2850   -3.7090   25.1090 C   0  0  0  0  0  0  0  0  0  0  0  0
    9.3300   -1.3350   23.6390 C   0  0  0  0  0  0  0  0  0  0  0  0
    7.2210   -0.4620   20.0350 C   0  0  0  0  0  0  0  0  0  0  0  0
    9.6834   -6.1686   25.4395 C   0  0  0  0  0  0  0  0  0  0  0  0
    8.9510    0.1280   21.6880 C   0  0  0  0  0  0  0  0  0  0  0  0
    8.0392   -7.2898   27.0032 C   0  0  0  0  0  0  0  0  0  0  0  0
    9.9983    1.0521   23.7484 C   0  0  0  0  0  0  0  0  0  0  0  0
    9.4852   -7.1872   26.5521 C   0  0  0  0  0  0  0  0  0  0  0  0
    6.9440    0.2550   18.0100 N   0  0  0  0  0  0  0  0  0  0  0  0
    9.2630   -4.8902   25.8410 N   0  0  0  0  0  0  0  0  0  0  0  0
    8.0810   -0.9750   21.0820 N   0  0  0  0  0  0  0  0  0  0  0  0
    9.4200   -0.0840   22.9530 N   0  0  0  0  0  0  0  0  0  0  0  0
   10.1549   -6.4783   24.3504 O   0  0  0  0  0  0  0  0  0  0  0  0
    9.1870    1.1500   21.0630 O   0  0  0  0  0  0  0  0  0  0  0  0
   15.3752    1.0051   23.7898 H   0  0  0  0  0  0  0  0  0  0  0  0
    3.6256    2.0106   21.6303 H   0  0  0  0  0  0  0  0  0  0  0  0
   14.1107   -0.2078   25.5463 H   0  0  0  0  0  0  0  0  0  0  0  0
   14.1583    2.2399   22.0145 H   0  0  0  0  0  0  0  0  0  0  0  0
    3.2724    2.7868   19.3204 H   0  0  0  0  0  0  0  0  0  0  0  0
    5.4858    0.4664   22.1692 H   0  0  0  0  0  0  0  0  0  0  0  0
   11.6381   -0.1899   25.5316 H   0  0  0  0  0  0  0  0  0  0  0  0
   11.6861    2.2639   21.9911 H   0  0  0  0  0  0  0  0  0  0  0  0
    4.7836    2.0664   17.4848 H   0  0  0  0  0  0  0  0  0  0  0  0
    7.5639   -2.8621   26.1045 H   0  0  0  0  0  0  0  0  0  0  0  0
   11.0141   -4.2644   23.9422 H   0  0  0  0  0  0  0  0  0  0  0  0
    7.5950   -0.7788   24.8007 H   0  0  0  0  0  0  0  0  0  0  0  0
   11.0408   -2.1861   22.6359 H   0  0  0  0  0  0  0  0  0  0  0  0
    8.5274   -1.0858   18.3384 H   0  0  0  0  0  0  0  0  0  0  0  0
    7.6716   -6.3251   27.3680 H   0  0  0  0  0  0  0  0  0  0  0  0
    7.9434   -8.0204   27.8123 H   0  0  0  0  0  0  0  0  0  0  0  0
    7.3917   -7.6058   26.1786 H   0  0  0  0  0  0  0  0  0  0  0  0
    9.6035    0.9796   24.7677 H   0  0  0  0  0  0  0  0  0  0  0  0
    9.6171    1.9839   23.3175 H   0  0  0  0  0  0  0  0  0  0  0  0
    9.8262   -8.1650   26.1929 H   0  0  0  0  0  0  0  0  0  0  0  0
   10.1140   -6.8997   27.4027 H   0  0  0  0  0  0  0  0  0  0  0  0
    7.0325    0.4238   17.0175 H   0  0  0  0  0  0  0  0  0  0  0  0
    8.8929   -4.8268   26.7965 H   0  0  0  0  0  0  0  0  0  0  0  0
    8.1151   -1.8109   21.3513 H   0  0  0  0  0  0  0  0  0  0  0  0
  1  3  1  0  0  0  0
  1  4  2  0  0  0  0
  2  5  1  0  0  0  0
  2  6  2  0  0  0  0
  3  7  2  0  0  0  0
  4  8  1  0  0  0  0
  5  9  2  0  0  0  0
  6 15  1  0  0  0  0
  7 16  1  0  0  0  0
  8 16  2  0  0  0  0
  9 17  1  0  0  0  0
 10 12  2  0  0  0  0
 10 18  1  0  0  0  0
 11 13  1  0  0  0  0
 11 18  2  0  0  0  0
 12 19  1  0  0  0  0
 13 19  2  0  0  0  0
 14 20  2  0  0  0  0
 14 26  1  0  0  0  0
 15 17  2  0  0  0  0
 15 20  1  0  0  0  0
 16 24  1  0  0  0  0
 17 26  1  0  0  0  0
 18 27  1  0  0  0  0
 19 29  1  0  0  0  0
 20 28  1  0  0  0  0
 21 25  1  0  0  0  0
 21 27  1  0  0  0  0
 21 30  2  0  0  0  0
 22 28  1  0  0  0  0
 22 29  1  0  0  0  0
 22 31  2  0  0  0  0
 23 25  1  0  0  0  0
 24 29  1  0  0  0  0
  1 32  1  0  0  0  0
  2 33  1  0  0  0  0
  3 34  1  0  0  0  0
  4 35  1  0  0  0  0
  5 36  1  0  0  0  0
  6 37  1  0  0  0  0
  7 38  1  0  0  0  0
  8 39  1  0  0  0  0
  9 40  1  0  0  0  0
 10 41  1  0  0  0  0
 11 42  1  0  0  0  0
 12 43  1  0  0  0  0
 13 44  1  0  0  0  0
 14 45  1  0  0  0  0
 23 46  1  0  0  0  0
 23 47  1  0  0  0  0
 23 48  1  0  0  0  0
 24 49  1  0  0  0  0
 24 50  1  0  0  0  0
 25 51  1  0  0  0  0
 25 52  1  0  0  0  0
 26 53  1  0  0  0  0
 27 54  1  0  0  0  0
 28 55  1  0  0  0  0
M  END
> <clash_score>
1.3333533976342378

> <docking_score>
-5.167915344238281

> <overlap_score>
0.9802289009094238

$$$$
BENZO_116_1
  -OEChem-08232013483D

 52 55  0     0  0  0  0  0  0999 V2000
    4.2970    1.6690   20.8430 C   0  0  0  0  0  0  0  0  0  0  0  0
    4.0980    2.1130   19.5350 C   0  0  0  0  0  0  0  0  0  0  0  0
    5.3360    0.8000   21.1530 C   0  0  0  0  0  0  0  0  0  0  0  0
    4.9400    1.7060   18.5060 C   0  0  0  0  0  0  0  0  0  0  0  0
    8.3310   -2.7170   25.3430 C   0  0  0  0  0  0  0  0  0  0  0  0
   10.2570   -3.5000   24.1350 C   0  0  0  0  0  0  0  0  0  0  0  0
    8.3510   -1.5420   24.6110 C   0  0  0  0  0  0  0  0  0  0  0  0
   10.2760   -2.3270   23.4020 C   0  0  0  0  0  0  0  0  0  0  0  0
   12.3042    1.1191   22.5871 C   0  0  0  0  0  0  0  0  0  0  0  0
    7.6830   -0.5170   18.7600 C   0  0  0  0  0  0  0  0  0  0  0  0
   13.6500    1.0853   22.8793 C   0  0  0  0  0  0  0  0  0  0  0  0
   12.2612    0.9460   24.9045 C   0  0  0  0  0  0  0  0  0  0  0  0
    6.1600    0.3870   20.1140 C   0  0  0  0  0  0  0  0  0  0  0  0
   11.4996    1.0386   23.7602 C   0  0  0  0  0  0  0  0  0  0  0  0
    5.9810    0.8330   18.8060 C   0  0  0  0  0  0  0  0  0  0  0  0
    9.2850   -3.7090   25.1090 C   0  0  0  0  0  0  0  0  0  0  0  0
    9.3300   -1.3350   23.6390 C   0  0  0  0  0  0  0  0  0  0  0  0
    7.2210   -0.4620   20.0350 C   0  0  0  0  0  0  0  0  0  0  0  0
    9.6834   -6.1686   25.4395 C   0  0  0  0  0  0  0  0  0  0  0  0
    8.9510    0.1280   21.6880 C   0  0  0  0  0  0  0  0  0  0  0  0
    8.0392   -7.2898   27.0032 C   0  0  0  0  0  0  0  0  0  0  0  0
    9.9983    1.0521   23.7484 C   0  0  0  0  0  0  0  0  0  0  0  0
    9.4852   -7.1872   26.5521 C   0  0  0  0  0  0  0  0  0  0  0  0
    6.9440    0.2550   18.0100 N   0  0  0  0  0  0  0  0  0  0  0  0
    9.2630   -4.8902   25.8410 N   0  0  0  0  0  0  0  0  0  0  0  0
    8.0810   -0.9750   21.0820 N   0  0  0  0  0  0  0  0  0  0  0  0
    9.4200   -0.0840   22.9530 N   0  0  0  0  0  0  0  0  0  0  0  0
   10.1549   -6.4783   24.3504 O   0  0  0  0  0  0  0  0  0  0  0  0
    9.1870    1.1500   21.0630 O   0  0  0  0  0  0  0  0  0  0  0  0
   13.9390    0.9568   24.5622 S   0  0  0  0  0  0  0  0  0  0  0  0
    3.6256    2.0106   21.6303 H   0  0  0  0  0  0  0  0  0  0  0  0
    3.2724    2.7868   19.3204 H   0  0  0  0  0  0  0  0  0  0  0  0
    5.4858    0.4664   22.1692 H   0  0  0  0  0  0  0  0  0  0  0  0
    4.7836    2.0664   17.4848 H   0  0  0  0  0  0  0  0  0  0  0  0
    7.5639   -2.8621   26.1045 H   0  0  0  0  0  0  0  0  0  0  0  0
   11.0141   -4.2644   23.9422 H   0  0  0  0  0  0  0  0  0  0  0  0
    7.5950   -0.7788   24.8007 H   0  0  0  0  0  0  0  0  0  0  0  0
   11.0408   -2.1861   22.6359 H   0  0  0  0  0  0  0  0  0  0  0  0
   11.9195    1.1975   21.5780 H   0  0  0  0  0  0  0  0  0  0  0  0
    8.5274   -1.0858   18.3384 H   0  0  0  0  0  0  0  0  0  0  0  0
   14.4772    1.1292   22.1850 H   0  0  0  0  0  0  0  0  0  0  0  0
   11.9167    0.8713   25.9267 H   0  0  0  0  0  0  0  0  0  0  0  0
    7.6716   -6.3251   27.3680 H   0  0  0  0  0  0  0  0  0  0  0  0
    7.9434   -8.0204   27.8123 H   0  0  0  0  0  0  0  0  0  0  0  0
    7.3917   -7.6058   26.1786 H   0  0  0  0  0  0  0  0  0  0  0  0
    9.6035    0.9796   24.7677 H   0  0  0  0  0  0  0  0  0  0  0  0
    9.6171    1.9839   23.3175 H   0  0  0  0  0  0  0  0  0  0  0  0
    9.8262   -8.1650   26.1929 H   0  0  0  0  0  0  0  0  0  0  0  0
   10.1140   -6.8997   27.4027 H   0  0  0  0  0  0  0  0  0  0  0  0
    7.0325    0.4238   17.0175 H   0  0  0  0  0  0  0  0  0  0  0  0
    8.8929   -4.8268   26.7965 H   0  0  0  0  0  0  0  0  0  0  0  0
    8.1151   -1.8109   21.3513 H   0  0  0  0  0  0  0  0  0  0  0  0
  1  2  1  0  0  0  0
  1  3  2  0  0  0  0
  2  4  2  0  0  0  0
  3 13  1  0  0  0  0
  4 15  1  0  0  0  0
  5  7  2  0  0  0  0
  5 16  1  0  0  0  0
  6  8  1  0  0  0  0
  6 16  2  0  0  0  0
  7 17  1  0  0  0  0
  8 17  2  0  0  0  0
  9 11  2  0  0  0  0
  9 14  1  0  0  0  0
 10 18  2  0  0  0  0
 10 24  1  0  0  0  0
 11 30  1  0  0  0  0
 12 14  2  0  0  0  0
 12 30  1  0  0  0  0
 13 15  2  0  0  0  0
 13 18  1  0  0  0  0
 14 22  1  0  0  0  0
 15 24  1  0  0  0  0
 16 25  1  0  0  0  0
 17 27  1  0  0  0  0
 18 26  1  0  0  0  0
 19 23  1  0  0  0  0
 19 25  1  0  0  0  0
 19 28  2  0  0  0  0
 20 26  1  0  0  0  0
 20 27  1  0  0  0  0
 20 29  2  0  0  0  0
 21 23  1  0  0  0  0
 22 27  1  0  0  0  0
  1 31  1  0  0  0  0
  2 32  1  0  0  0  0
  3 33  1  0  0  0  0
  4 34  1  0  0  0  0
  5 35  1  0  0  0  0
  6 36  1  0  0  0  0
  7 37  1  0  0  0  0
  8 38  1  0  0  0  0
  9 39  1  0  0  0  0
 10 40  1  0  0  0  0
 11 41  1  0  0  0  0
 12 42  1  0  0  0  0
 21 43  1  0  0  0  0
 21 44  1  0  0  0  0
 21 45  1  0  0  0  0
 22 46  1  0  0  0  0
 22 47  1  0  0  0  0
 23 48  1  0  0  0  0
 23 49  1  0  0  0  0
 24 50  1  0  0  0  0
 25 51  1  0  0  0  0
 26 52  1  0  0  0  0
M  END
> <clash_score>
1.3333533976342378

> <docking_score>
-5.558978080749512

> <overlap_score>
0.9578068852424622

$$$$
BENZO_121_1
  -OEChem-08232013483D

 60 64  0     0  0  0  0  0  0999 V2000
   14.2885    1.1441   23.7306 C   0  0  0  0  0  0  0  0  0  0  0  0
    4.2970    1.6690   20.8430 C   0  0  0  0  0  0  0  0  0  0  0  0
   13.6022    0.4565   24.7315 C   0  0  0  0  0  0  0  0  0  0  0  0
   13.5801    1.8094   22.7300 C   0  0  0  0  0  0  0  0  0  0  0  0
    4.0980    2.1130   19.5350 C   0  0  0  0  0  0  0  0  0  0  0  0
    5.3360    0.8000   21.1530 C   0  0  0  0  0  0  0  0  0  0  0  0
   12.2075    0.4341   24.7317 C   0  0  0  0  0  0  0  0  0  0  0  0
   12.1854    1.7870   22.7302 C   0  0  0  0  0  0  0  0  0  0  0  0
    4.9400    1.7060   18.5060 C   0  0  0  0  0  0  0  0  0  0  0  0
    8.3310   -2.7170   25.3430 C   0  0  0  0  0  0  0  0  0  0  0  0
   10.2570   -3.5000   24.1350 C   0  0  0  0  0  0  0  0  0  0  0  0
    8.3510   -1.5420   24.6110 C   0  0  0  0  0  0  0  0  0  0  0  0
   10.2760   -2.3270   23.4020 C   0  0  0  0  0  0  0  0  0  0  0  0
    7.6830   -0.5170   18.7600 C   0  0  0  0  0  0  0  0  0  0  0  0
    6.1600    0.3870   20.1140 C   0  0  0  0  0  0  0  0  0  0  0  0
   11.4991    1.0994   23.7311 C   0  0  0  0  0  0  0  0  0  0  0  0
    5.9810    0.8330   18.8060 C   0  0  0  0  0  0  0  0  0  0  0  0
    9.2850   -3.7090   25.1090 C   0  0  0  0  0  0  0  0  0  0  0  0
    9.3300   -1.3350   23.6390 C   0  0  0  0  0  0  0  0  0  0  0  0
    7.2210   -0.4620   20.0350 C   0  0  0  0  0  0  0  0  0  0  0  0
    8.9510    0.1280   21.6880 C   0  0  0  0  0  0  0  0  0  0  0  0
    7.3162   -6.8835   26.5210 C   0  0  0  0  0  0  0  0  0  0  0  0
    7.3507   -5.5245   27.2240 C   0  0  0  0  0  0  0  0  0  0  0  0
    7.9375   -6.8069   25.1245 C   0  0  0  0  0  0  0  0  0  0  0  0
    8.7638   -4.9418   27.2163 C   0  0  0  0  0  0  0  0  0  0  0  0
    9.3378   -6.1874   25.1659 C   0  0  0  0  0  0  0  0  0  0  0  0
    9.9979    1.0755   23.7305 C   0  0  0  0  0  0  0  0  0  0  0  0
    6.9440    0.2550   18.0100 N   0  0  0  0  0  0  0  0  0  0  0  0
    9.2639   -4.8860   25.8399 N   0  0  0  0  0  0  0  0  0  0  0  0
    8.0810   -0.9750   21.0820 N   0  0  0  0  0  0  0  0  0  0  0  0
    9.4200   -0.0840   22.9530 N   0  0  0  0  0  0  0  0  0  0  0  0
    9.1870    1.1500   21.0630 O   0  0  0  0  0  0  0  0  0  0  0  0
   15.3744    1.1626   23.7314 H   0  0  0  0  0  0  0  0  0  0  0  0
    3.6256    2.0106   21.6303 H   0  0  0  0  0  0  0  0  0  0  0  0
   14.1535   -0.0606   25.5114 H   0  0  0  0  0  0  0  0  0  0  0  0
   14.1141    2.3458   21.9512 H   0  0  0  0  0  0  0  0  0  0  0  0
    3.2724    2.7868   19.3204 H   0  0  0  0  0  0  0  0  0  0  0  0
    5.4858    0.4664   22.1692 H   0  0  0  0  0  0  0  0  0  0  0  0
   11.6811   -0.1043   25.5155 H   0  0  0  0  0  0  0  0  0  0  0  0
   11.6419    2.3081   21.9465 H   0  0  0  0  0  0  0  0  0  0  0  0
    4.7836    2.0664   17.4848 H   0  0  0  0  0  0  0  0  0  0  0  0
    7.5647   -2.8621   26.1053 H   0  0  0  0  0  0  0  0  0  0  0  0
   11.0144   -4.2642   23.9425 H   0  0  0  0  0  0  0  0  0  0  0  0
    7.5958   -0.7779   24.8006 H   0  0  0  0  0  0  0  0  0  0  0  0
   11.0406   -2.1848   22.6356 H   0  0  0  0  0  0  0  0  0  0  0  0
    8.5274   -1.0858   18.3384 H   0  0  0  0  0  0  0  0  0  0  0  0
    7.8578   -7.6261   27.1266 H   0  0  0  0  0  0  0  0  0  0  0  0
    6.2773   -7.2358   26.4459 H   0  0  0  0  0  0  0  0  0  0  0  0
    6.6663   -4.8351   26.7223 H   0  0  0  0  0  0  0  0  0  0  0  0
    7.0044   -5.6368   28.2534 H   0  0  0  0  0  0  0  0  0  0  0  0
    7.9946   -7.8119   24.6937 H   0  0  0  0  0  0  0  0  0  0  0  0
    7.2929   -6.2123   24.4668 H   0  0  0  0  0  0  0  0  0  0  0  0
    8.7343   -3.9408   27.6542 H   0  0  0  0  0  0  0  0  0  0  0  0
    9.4243   -5.5632   27.8278 H   0  0  0  0  0  0  0  0  0  0  0  0
   10.0200   -6.8490   25.7011 H   0  0  0  0  0  0  0  0  0  0  0  0
    9.6984   -6.0694   24.1436 H   0  0  0  0  0  0  0  0  0  0  0  0
    9.6122    1.0250   24.7546 H   0  0  0  0  0  0  0  0  0  0  0  0
    9.5906    1.9837   23.2740 H   0  0  0  0  0  0  0  0  0  0  0  0
    7.0325    0.4238   17.0175 H   0  0  0  0  0  0  0  0  0  0  0  0
    8.1334   -1.7992   21.3673 H   0  0  0  0  0  0  0  0  0  0  0  0
  1  3  1  0  0  0  0
  1  4  2  0  0  0  0
  2  5  1  0  0  0  0
  2  6  2  0  0  0  0
  3  7  2  0  0  0  0
  4  8  1  0  0  0  0
  5  9  2  0  0  0  0
  6 15  1  0  0  0  0
  7 16  1  0  0  0  0
  8 16  2  0  0  0  0
  9 17  1  0  0  0  0
 10 12  2  0  0  0  0
 10 18  1  0  0  0  0
 11 13  1  0  0  0  0
 11 18  2  0  0  0  0
 12 19  1  0  0  0  0
 13 19  2  0  0  0  0
 14 20  2  0  0  0  0
 14 28  1  0  0  0  0
 15 17  2  0  0  0  0
 15 20  1  0  0  0  0
 16 27  1  0  0  0  0
 17 28  1  0  0  0  0
 18 29  1  0  0  0  0
 19 31  1  0  0  0  0
 20 30  1  0  0  0  0
 21 30  1  0  0  0  0
 21 31  1  0  0  0  0
 21 32  2  0  0  0  0
 22 23  1  0  0  0  0
 22 24  1  0  0  0  0
 23 25  1  0  0  0  0
 24 26  1  0  0  0  0
 25 29  1  0  0  0  0
 26 29  1  0  0  0  0
 27 31  1  0  0  0  0
  1 33  1  0  0  0  0
  2 34  1  0  0  0  0
  3 35  1  0  0  0  0
  4 36  1  0  0  0  0
  5 37  1  0  0  0  0
  6 38  1  0  0  0  0
  7 39  1  0  0  0  0
  8 40  1  0  0  0  0
  9 41  1  0  0  0  0
 10 42  1  0  0  0  0
 11 43  1  0  0  0  0
 12 44  1  0  0  0  0
 13 45  1  0  0  0  0
 14 46  1  0  0  0  0
 22 47  1  0  0  0  0
 22 48  1  0  0  0  0
 23 49  1  0  0  0  0
 23 50  1  0  0  0  0
 24 51  1  0  0  0  0
 24 52  1  0  0  0  0
 25 53  1  0  0  0  0
 25 54  1  0  0  0  0
 26 55  1  0  0  0  0
 26 56  1  0  0  0  0
 27 57  1  0  0  0  0
 27 58  1  0  0  0  0
 28 59  1  0  0  0  0
 30 60  1  0  0  0  0
M  END
> <clash_score>
0

> <docking_score>
-7.309315204620361

> <overlap_score>
1.0103838443756104

$$$$
BENZO_118_1
  -OEChem-08232013483D

 55 58  0     0  0  0  0  0  0999 V2000
    4.2970    1.6690   20.8430 C   0  0  0  0  0  0  0  0  0  0  0  0
    4.0980    2.1130   19.5350 C   0  0  0  0  0  0  0  0  0  0  0  0
   13.6056    1.9364   22.9885 C   0  0  0  0  0  0  0  0  0  0  0  0
    5.3360    0.8000   21.1530 C   0  0  0  0  0  0  0  0  0  0  0  0
   12.2108    1.9477   22.9771 C   0  0  0  0  0  0  0  0  0  0  0  0
    4.9400    1.7060   18.5060 C   0  0  0  0  0  0  0  0  0  0  0  0
    8.3310   -2.7170   25.3430 C   0  0  0  0  0  0  0  0  0  0  0  0
   10.2570   -3.5000   24.1350 C   0  0  0  0  0  0  0  0  0  0  0  0
    8.3510   -1.5420   24.6110 C   0  0  0  0  0  0  0  0  0  0  0  0
   10.2760   -2.3270   23.4020 C   0  0  0  0  0  0  0  0  0  0  0  0
   14.2892    1.0159   23.7830 C   0  0  0  0  0  0  0  0  0  0  0  0
   12.1832    0.1181   24.5548 C   0  0  0  0  0  0  0  0  0  0  0  0
    7.6830   -0.5170   18.7600 C   0  0  0  0  0  0  0  0  0  0  0  0
    6.1600    0.3870   20.1140 C   0  0  0  0  0  0  0  0  0  0  0  0
   11.4996    1.0386   23.7602 C   0  0  0  0  0  0  0  0  0  0  0  0
    5.9810    0.8330   18.8060 C   0  0  0  0  0  0  0  0  0  0  0  0
    9.2850   -3.7090   25.1090 C   0  0  0  0  0  0  0  0  0  0  0  0
    9.3300   -1.3350   23.6390 C   0  0  0  0  0  0  0  0  0  0  0  0
    7.2210   -0.4620   20.0350 C   0  0  0  0  0  0  0  0  0  0  0  0
   13.5779    0.1068   24.5661 C   0  0  0  0  0  0  0  0  0  0  0  0
    9.6834   -6.1686   25.4395 C   0  0  0  0  0  0  0  0  0  0  0  0
    8.9510    0.1280   21.6880 C   0  0  0  0  0  0  0  0  0  0  0  0
    8.0392   -7.2898   27.0032 C   0  0  0  0  0  0  0  0  0  0  0  0
    9.9983    1.0521   23.7484 C   0  0  0  0  0  0  0  0  0  0  0  0
    9.4852   -7.1872   26.5521 C   0  0  0  0  0  0  0  0  0  0  0  0
    6.9440    0.2550   18.0100 N   0  0  0  0  0  0  0  0  0  0  0  0
    9.2630   -4.8902   25.8410 N   0  0  0  0  0  0  0  0  0  0  0  0
    8.0810   -0.9750   21.0820 N   0  0  0  0  0  0  0  0  0  0  0  0
    9.4200   -0.0840   22.9530 N   0  0  0  0  0  0  0  0  0  0  0  0
   10.1549   -6.4783   24.3504 O   0  0  0  0  0  0  0  0  0  0  0  0
    9.1870    1.1500   21.0630 O   0  0  0  0  0  0  0  0  0  0  0  0
   14.4218   -1.0279   25.5470 Cl  0  0  0  0  0  0  0  0  0  0  0  0
    3.6256    2.0106   21.6303 H   0  0  0  0  0  0  0  0  0  0  0  0
    3.2724    2.7868   19.3204 H   0  0  0  0  0  0  0  0  0  0  0  0
   14.1590    2.6446   22.3786 H   0  0  0  0  0  0  0  0  0  0  0  0
    5.4858    0.4664   22.1692 H   0  0  0  0  0  0  0  0  0  0  0  0
   11.6865    2.6685   22.3551 H   0  0  0  0  0  0  0  0  0  0  0  0
    4.7836    2.0664   17.4848 H   0  0  0  0  0  0  0  0  0  0  0  0
    7.5639   -2.8621   26.1045 H   0  0  0  0  0  0  0  0  0  0  0  0
   11.0141   -4.2644   23.9422 H   0  0  0  0  0  0  0  0  0  0  0  0
    7.5950   -0.7788   24.8007 H   0  0  0  0  0  0  0  0  0  0  0  0
   11.0408   -2.1861   22.6359 H   0  0  0  0  0  0  0  0  0  0  0  0
   15.3764    1.0188   23.7822 H   0  0  0  0  0  0  0  0  0  0  0  0
   11.6240   -0.5890   25.1632 H   0  0  0  0  0  0  0  0  0  0  0  0
    8.5274   -1.0858   18.3384 H   0  0  0  0  0  0  0  0  0  0  0  0
    7.6716   -6.3251   27.3680 H   0  0  0  0  0  0  0  0  0  0  0  0
    7.9434   -8.0204   27.8123 H   0  0  0  0  0  0  0  0  0  0  0  0
    7.3917   -7.6058   26.1786 H   0  0  0  0  0  0  0  0  0  0  0  0
    9.6035    0.9796   24.7677 H   0  0  0  0  0  0  0  0  0  0  0  0
    9.6171    1.9839   23.3175 H   0  0  0  0  0  0  0  0  0  0  0  0
    9.8262   -8.1650   26.1929 H   0  0  0  0  0  0  0  0  0  0  0  0
   10.1140   -6.8997   27.4027 H   0  0  0  0  0  0  0  0  0  0  0  0
    7.0325    0.4238   17.0175 H   0  0  0  0  0  0  0  0  0  0  0  0
    8.8929   -4.8268   26.7965 H   0  0  0  0  0  0  0  0  0  0  0  0
    8.1151   -1.8109   21.3513 H   0  0  0  0  0  0  0  0  0  0  0  0
  1  2  1  0  0  0  0
  1  4  2  0  0  0  0
  2  6  2  0  0  0  0
  3  5  2  0  0  0  0
  3 11  1  0  0  0  0
  4 14  1  0  0  0  0
  5 15  1  0  0  0  0
  6 16  1  0  0  0  0
  7  9  2  0  0  0  0
  7 17  1  0  0  0  0
  8 10  1  0  0  0  0
  8 17  2  0  0  0  0
  9 18  1  0  0  0  0
 10 18  2  0  0  0  0
 11 20  2  0  0  0  0
 12 15  2  0  0  0  0
 12 20  1  0  0  0  0
 13 19  2  0  0  0  0
 13 26  1  0  0  0  0
 14 16  2  0  0  0  0
 14 19  1  0  0  0  0
 15 24  1  0  0  0  0
 16 26  1  0  0  0  0
 17 27  1  0  0  0  0
 18 29  1  0  0  0  0
 19 28  1  0  0  0  0
 20 32  1  0  0  0  0
 21 25  1  0  0  0  0
 21 27  1  0  0  0  0
 21 30  2  0  0  0  0
 22 28  1  0  0  0  0
 22 29  1  0  0  0  0
 22 31  2  0  0  0  0
 23 25  1  0  0  0  0
 24 29  1  0  0  0  0
  1 33  1  0  0  0  0
  2 34  1  0  0  0  0
  3 35  1  0  0  0  0
  4 36  1  0  0  0  0
  5 37  1  0  0  0  0
  6 38  1  0  0  0  0
  7 39  1  0  0  0  0
  8 40  1  0  0  0  0
  9 41  1  0  0  0  0
 10 42  1  0  0  0  0
 11 43  1  0  0  0  0
 12 44  1  0  0  0  0
 13 45  1  0  0  0  0
 23 46  1  0  0  0  0
 23 47  1  0  0  0  0
 23 48  1  0  0  0  0
 24 49  1  0  0  0  0
 24 50  1  0  0  0  0
 25 51  1  0  0  0  0
 25 52  1  0  0  0  0
 26 53  1  0  0  0  0
 27 54  1  0  0  0  0
 28 55  1  0  0  0  0
M  END
> <clash_score>
2.073096574940595

> <docking_score>
-4.044273853302002

> <overlap_score>
0.9821216464042664

$$$$
BENZO_119_1
  -OEChem-08232013483D

 55 58  0     0  0  0  0  0  0999 V2000
    4.2970    1.6690   20.8430 C   0  0  0  0  0  0  0  0  0  0  0  0
    4.0980    2.1130   19.5350 C   0  0  0  0  0  0  0  0  0  0  0  0
    5.3360    0.8000   21.1530 C   0  0  0  0  0  0  0  0  0  0  0  0
    4.9400    1.7060   18.5060 C   0  0  0  0  0  0  0  0  0  0  0  0
    8.3310   -2.7170   25.3430 C   0  0  0  0  0  0  0  0  0  0  0  0
   10.2570   -3.5000   24.1350 C   0  0  0  0  0  0  0  0  0  0  0  0
    8.3510   -1.5420   24.6110 C   0  0  0  0  0  0  0  0  0  0  0  0
   10.2760   -2.3270   23.4020 C   0  0  0  0  0  0  0  0  0  0  0  0
   12.3539    0.9483   24.8755 C   0  0  0  0  0  0  0  0  0  0  0  0
   12.3482    1.1089   22.6826 C   0  0  0  0  0  0  0  0  0  0  0  0
    7.6830   -0.5170   18.7600 C   0  0  0  0  0  0  0  0  0  0  0  0
    6.1600    0.3870   20.1140 C   0  0  0  0  0  0  0  0  0  0  0  0
   11.4996    1.0386   23.7602 C   0  0  0  0  0  0  0  0  0  0  0  0
    5.9810    0.8330   18.8060 C   0  0  0  0  0  0  0  0  0  0  0  0
    9.2850   -3.7090   25.1090 C   0  0  0  0  0  0  0  0  0  0  0  0
    9.3300   -1.3350   23.6390 C   0  0  0  0  0  0  0  0  0  0  0  0
    7.2210   -0.4620   20.0350 C   0  0  0  0  0  0  0  0  0  0  0  0
    9.6834   -6.1686   25.4395 C   0  0  0  0  0  0  0  0  0  0  0  0
    8.9510    0.1280   21.6880 C   0  0  0  0  0  0  0  0  0  0  0  0
    8.0392   -7.2898   27.0032 C   0  0  0  0  0  0  0  0  0  0  0  0
   14.8430    1.1003   22.4488 C   0  0  0  0  0  0  0  0  0  0  0  0
    9.9983    1.0521   23.7484 C   0  0  0  0  0  0  0  0  0  0  0  0
    9.4852   -7.1872   26.5521 C   0  0  0  0  0  0  0  0  0  0  0  0
   13.6460    0.9599   24.5376 N   0  0  0  0  0  0  0  0  0  0  0  0
    6.9440    0.2550   18.0100 N   0  0  0  0  0  0  0  0  0  0  0  0
   13.6100    1.0581   23.1978 N   0  0  0  0  0  0  0  0  0  0  0  0
    9.2630   -4.8902   25.8410 N   0  0  0  0  0  0  0  0  0  0  0  0
    8.0810   -0.9750   21.0820 N   0  0  0  0  0  0  0  0  0  0  0  0
    9.4200   -0.0840   22.9530 N   0  0  0  0  0  0  0  0  0  0  0  0
   10.1549   -6.4783   24.3504 O   0  0  0  0  0  0  0  0  0  0  0  0
    9.1870    1.1500   21.0630 O   0  0  0  0  0  0  0  0  0  0  0  0
    3.6256    2.0106   21.6303 H   0  0  0  0  0  0  0  0  0  0  0  0
    3.2724    2.7868   19.3204 H   0  0  0  0  0  0  0  0  0  0  0  0
    5.4858    0.4664   22.1692 H   0  0  0  0  0  0  0  0  0  0  0  0
    4.7836    2.0664   17.4848 H   0  0  0  0  0  0  0  0  0  0  0  0
    7.5639   -2.8621   26.1045 H   0  0  0  0  0  0  0  0  0  0  0  0
   11.0141   -4.2644   23.9422 H   0  0  0  0  0  0  0  0  0  0  0  0
    7.5950   -0.7788   24.8007 H   0  0  0  0  0  0  0  0  0  0  0  0
   11.0408   -2.1861   22.6359 H   0  0  0  0  0  0  0  0  0  0  0  0
   12.0911    0.8736   25.9213 H   0  0  0  0  0  0  0  0  0  0  0  0
   12.1662    1.1875   21.6193 H   0  0  0  0  0  0  0  0  0  0  0  0
    8.5274   -1.0858   18.3384 H   0  0  0  0  0  0  0  0  0  0  0  0
    7.6716   -6.3251   27.3680 H   0  0  0  0  0  0  0  0  0  0  0  0
    7.9434   -8.0204   27.8123 H   0  0  0  0  0  0  0  0  0  0  0  0
    7.3917   -7.6058   26.1786 H   0  0  0  0  0  0  0  0  0  0  0  0
   15.1418    2.1472   22.3498 H   0  0  0  0  0  0  0  0  0  0  0  0
   15.6115    0.5320   22.9802 H   0  0  0  0  0  0  0  0  0  0  0  0
   14.6832    0.6524   21.4640 H   0  0  0  0  0  0  0  0  0  0  0  0
    9.6035    0.9796   24.7677 H   0  0  0  0  0  0  0  0  0  0  0  0
    9.6171    1.9839   23.3175 H   0  0  0  0  0  0  0  0  0  0  0  0
    9.8262   -8.1650   26.1929 H   0  0  0  0  0  0  0  0  0  0  0  0
   10.1140   -6.8997   27.4027 H   0  0  0  0  0  0  0  0  0  0  0  0
    7.0325    0.4238   17.0175 H   0  0  0  0  0  0  0  0  0  0  0  0
    8.8929   -4.8268   26.7965 H   0  0  0  0  0  0  0  0  0  0  0  0
    8.1151   -1.8109   21.3513 H   0  0  0  0  0  0  0  0  0  0  0  0
  1  2  1  0  0  0  0
  1  3  2  0  0  0  0
  2  4  2  0  0  0  0
  3 12  1  0  0  0  0
  4 14  1  0  0  0  0
  5  7  2  0  0  0  0
  5 15  1  0  0  0  0
  6  8  1  0  0  0  0
  6 15  2  0  0  0  0
  7 16  1  0  0  0  0
  8 16  2  0  0  0  0
  9 13  1  0  0  0  0
  9 24  2  0  0  0  0
 10 13  2  0  0  0  0
 10 26  1  0  0  0  0
 11 17  2  0  0  0  0
 11 25  1  0  0  0  0
 12 14  2  0  0  0  0
 12 17  1  0  0  0  0
 13 22  1  0  0  0  0
 14 25  1  0  0  0  0
 15 27  1  0  0  0  0
 16 29  1  0  0  0  0
 17 28  1  0  0  0  0
 18 23  1  0  0  0  0
 18 27  1  0  0  0  0
 18 30  2  0  0  0  0
 19 28  1  0  0  0  0
 19 29  1  0  0  0  0
 19 31  2  0  0  0  0
 20 23  1  0  0  0  0
 21 26  1  0  0  0  0
 22 29  1  0  0  0  0
 24 26  1  0  0  0  0
  1 32  1  0  0  0  0
  2 33  1  0  0  0  0
  3 34  1  0  0  0  0
  4 35  1  0  0  0  0
  5 36  1  0  0  0  0
  6 37  1  0  0  0  0
  7 38  1  0  0  0  0
  8 39  1  0  0  0  0
  9 40  1  0  0  0  0
 10 41  1  0  0  0  0
 11 42  1  0  0  0  0
 20 43  1  0  0  0  0
 20 44  1  0  0  0  0
 20 45  1  0  0  0  0
 21 46  1  0  0  0  0
 21 47  1  0  0  0  0
 21 48  1  0  0  0  0
 22 49  1  0  0  0  0
 22 50  1  0  0  0  0
 23 51  1  0  0  0  0
 23 52  1  0  0  0  0
 25 53  1  0  0  0  0
 27 54  1  0  0  0  0
 28 55  1  0  0  0  0
M  END
> <clash_score>
1.3333533976342378

> <docking_score>
-4.851271152496338

> <overlap_score>
0.9738836288452148

$$$$
BENZO_120_1
  -OEChem-08232013483D

 57 61  0     0  0  0  0  0  0999 V2000
    4.2970    1.6690   20.8430 C   0  0  0  0  0  0  0  0  0  0  0  0
    4.0980    2.1130   19.5350 C   0  0  0  0  0  0  0  0  0  0  0  0
    5.3360    0.8000   21.1530 C   0  0  0  0  0  0  0  0  0  0  0  0
    4.9400    1.7060   18.5060 C   0  0  0  0  0  0  0  0  0  0  0  0
    8.3310   -2.7170   25.3430 C   0  0  0  0  0  0  0  0  0  0  0  0
   10.2570   -3.5000   24.1350 C   0  0  0  0  0  0  0  0  0  0  0  0
    8.3510   -1.5420   24.6110 C   0  0  0  0  0  0  0  0  0  0  0  0
   10.2760   -2.3270   23.4020 C   0  0  0  0  0  0  0  0  0  0  0  0
   12.2931    1.1632   22.5497 C   0  0  0  0  0  0  0  0  0  0  0  0
    7.6830   -0.5170   18.7600 C   0  0  0  0  0  0  0  0  0  0  0  0
   13.6413    1.1718   22.8323 C   0  0  0  0  0  0  0  0  0  0  0  0
   12.2708    1.0613   24.8717 C   0  0  0  0  0  0  0  0  0  0  0  0
    6.1600    0.3870   20.1140 C   0  0  0  0  0  0  0  0  0  0  0  0
   11.4991    1.0994   23.7311 C   0  0  0  0  0  0  0  0  0  0  0  0
    5.9810    0.8330   18.8060 C   0  0  0  0  0  0  0  0  0  0  0  0
    9.2850   -3.7090   25.1090 C   0  0  0  0  0  0  0  0  0  0  0  0
    9.3300   -1.3350   23.6390 C   0  0  0  0  0  0  0  0  0  0  0  0
    7.2210   -0.4620   20.0350 C   0  0  0  0  0  0  0  0  0  0  0  0
    8.9510    0.1280   21.6880 C   0  0  0  0  0  0  0  0  0  0  0  0
    7.3162   -6.8835   26.5210 C   0  0  0  0  0  0  0  0  0  0  0  0
    7.3507   -5.5245   27.2240 C   0  0  0  0  0  0  0  0  0  0  0  0
    7.9375   -6.8069   25.1245 C   0  0  0  0  0  0  0  0  0  0  0  0
    8.7638   -4.9418   27.2163 C   0  0  0  0  0  0  0  0  0  0  0  0
    9.3378   -6.1874   25.1659 C   0  0  0  0  0  0  0  0  0  0  0  0
    9.9979    1.0755   23.7305 C   0  0  0  0  0  0  0  0  0  0  0  0
    6.9440    0.2550   18.0100 N   0  0  0  0  0  0  0  0  0  0  0  0
    9.2639   -4.8860   25.8399 N   0  0  0  0  0  0  0  0  0  0  0  0
    8.0810   -0.9750   21.0820 N   0  0  0  0  0  0  0  0  0  0  0  0
    9.4200   -0.0840   22.9530 N   0  0  0  0  0  0  0  0  0  0  0  0
    9.1870    1.1500   21.0630 O   0  0  0  0  0  0  0  0  0  0  0  0
   13.9453    1.1028   24.5161 S   0  0  0  0  0  0  0  0  0  0  0  0
    3.6256    2.0106   21.6303 H   0  0  0  0  0  0  0  0  0  0  0  0
    3.2724    2.7868   19.3204 H   0  0  0  0  0  0  0  0  0  0  0  0
    5.4858    0.4664   22.1692 H   0  0  0  0  0  0  0  0  0  0  0  0
    4.7836    2.0664   17.4848 H   0  0  0  0  0  0  0  0  0  0  0  0
    7.5647   -2.8621   26.1053 H   0  0  0  0  0  0  0  0  0  0  0  0
   11.0144   -4.2642   23.9425 H   0  0  0  0  0  0  0  0  0  0  0  0
    7.5958   -0.7779   24.8006 H   0  0  0  0  0  0  0  0  0  0  0  0
   11.0406   -2.1848   22.6356 H   0  0  0  0  0  0  0  0  0  0  0  0
   11.8995    1.2007   21.5418 H   0  0  0  0  0  0  0  0  0  0  0  0
    8.5274   -1.0858   18.3384 H   0  0  0  0  0  0  0  0  0  0  0  0
   14.4623    1.2144   22.1306 H   0  0  0  0  0  0  0  0  0  0  0  0
   11.9355    1.0099   25.8983 H   0  0  0  0  0  0  0  0  0  0  0  0
    7.8578   -7.6261   27.1266 H   0  0  0  0  0  0  0  0  0  0  0  0
    6.2773   -7.2358   26.4459 H   0  0  0  0  0  0  0  0  0  0  0  0
    6.6663   -4.8351   26.7223 H   0  0  0  0  0  0  0  0  0  0  0  0
    7.0044   -5.6368   28.2534 H   0  0  0  0  0  0  0  0  0  0  0  0
    7.9946   -7.8119   24.6937 H   0  0  0  0  0  0  0  0  0  0  0  0
    7.2929   -6.2123   24.4668 H   0  0  0  0  0  0  0  0  0  0  0  0
    8.7343   -3.9408   27.6542 H   0  0  0  0  0  0  0  0  0  0  0  0
    9.4243   -5.5632   27.8278 H   0  0  0  0  0  0  0  0  0  0  0  0
   10.0200   -6.8490   25.7011 H   0  0  0  0  0  0  0  0  0  0  0  0
    9.6984   -6.0694   24.1436 H   0  0  0  0  0  0  0  0  0  0  0  0
    9.6122    1.0250   24.7546 H   0  0  0  0  0  0  0  0  0  0  0  0
    9.5906    1.9837   23.2740 H   0  0  0  0  0  0  0  0  0  0  0  0
    7.0325    0.4238   17.0175 H   0  0  0  0  0  0  0  0  0  0  0  0
    8.1334   -1.7992   21.3673 H   0  0  0  0  0  0  0  0  0  0  0  0
  1  2  1  0  0  0  0
  1  3  2  0  0  0  0
  2  4  2  0  0  0  0
  3 13  1  0  0  0  0
  4 15  1  0  0  0  0
  5  7  2  0  0  0  0
  5 16  1  0  0  0  0
  6  8  1  0  0  0  0
  6 16  2  0  0  0  0
  7 17  1  0  0  0  0
  8 17  2  0  0  0  0
  9 11  2  0  0  0  0
  9 14  1  0  0  0  0
 10 18  2  0  0  0  0
 10 26  1  0  0  0  0
 11 31  1  0  0  0  0
 12 14  2  0  0  0  0
 12 31  1  0  0  0  0
 13 15  2  0  0  0  0
 13 18  1  0  0  0  0
 14 25  1  0  0  0  0
 15 26  1  0  0  0  0
 16 27  1  0  0  0  0
 17 29  1  0  0  0  0
 18 28  1  0  0  0  0
 19 28  1  0  0  0  0
 19 29  1  0  0  0  0
 19 30  2  0  0  0  0
 20 21  1  0  0  0  0
 20 22  1  0  0  0  0
 21 23  1  0  0  0  0
 22 24  1  0  0  0  0
 23 27  1  0  0  0  0
 24 27  1  0  0  0  0
 25 29  1  0  0  0  0
  1 32  1  0  0  0  0
  2 33  1  0  0  0  0
  3 34  1  0  0  0  0
  4 35  1  0  0  0  0
  5 36  1  0  0  0  0
  6 37  1  0  0  0  0
  7 38  1  0  0  0  0
  8 39  1  0  0  0  0
  9 40  1  0  0  0  0
 10 41  1  0  0  0  0
 11 42  1  0  0  0  0
 12 43  1  0  0  0  0
 20 44  1  0  0  0  0
 20 45  1  0  0  0  0
 21 46  1  0  0  0  0
 21 47  1  0  0  0  0
 22 48  1  0  0  0  0
 22 49  1  0  0  0  0
 23 50  1  0  0  0  0
 23 51  1  0  0  0  0
 24 52  1  0  0  0  0
 24 53  1  0  0  0  0
 25 54  1  0  0  0  0
 25 55  1  0  0  0  0
 26 56  1  0  0  0  0
 28 57  1  0  0  0  0
M  END
> <clash_score>
0

> <docking_score>
-7.689561367034912

> <overlap_score>
0.9876057505607605

$$$$
BENZO_124_1
  -OEChem-08232013483D

 45 48  0     0  0  0  0  0  0999 V2000
    4.2970    1.6690   20.8430 C   0  0  0  0  0  0  0  0  0  0  0  0
    4.0980    2.1130   19.5350 C   0  0  0  0  0  0  0  0  0  0  0  0
    5.3360    0.8000   21.1530 C   0  0  0  0  0  0  0  0  0  0  0  0
    8.3310   -2.7170   25.3430 C   0  0  0  0  0  0  0  0  0  0  0  0
   10.2570   -3.5000   24.1350 C   0  0  0  0  0  0  0  0  0  0  0  0
    4.9400    1.7060   18.5060 C   0  0  0  0  0  0  0  0  0  0  0  0
    8.3510   -1.5420   24.6110 C   0  0  0  0  0  0  0  0  0  0  0  0
   10.2760   -2.3270   23.4020 C   0  0  0  0  0  0  0  0  0  0  0  0
   12.3042    1.1191   22.5871 C   0  0  0  0  0  0  0  0  0  0  0  0
    7.6830   -0.5170   18.7600 C   0  0  0  0  0  0  0  0  0  0  0  0
   13.6500    1.0853   22.8793 C   0  0  0  0  0  0  0  0  0  0  0  0
   12.2612    0.9460   24.9045 C   0  0  0  0  0  0  0  0  0  0  0  0
    6.1600    0.3870   20.1140 C   0  0  0  0  0  0  0  0  0  0  0  0
    9.2850   -3.7090   25.1090 C   0  0  0  0  0  0  0  0  0  0  0  0
   11.4996    1.0386   23.7602 C   0  0  0  0  0  0  0  0  0  0  0  0
    5.9810    0.8330   18.8060 C   0  0  0  0  0  0  0  0  0  0  0  0
    9.3300   -1.3350   23.6390 C   0  0  0  0  0  0  0  0  0  0  0  0
    7.2210   -0.4620   20.0350 C   0  0  0  0  0  0  0  0  0  0  0  0
    8.9510    0.1280   21.6880 C   0  0  0  0  0  0  0  0  0  0  0  0
    9.2610   -4.9721   25.8916 C   0  0  0  0  0  0  0  0  0  0  0  0
    9.9983    1.0521   23.7484 C   0  0  0  0  0  0  0  0  0  0  0  0
    6.9440    0.2550   18.0100 N   0  0  0  0  0  0  0  0  0  0  0  0
    8.0810   -0.9750   21.0820 N   0  0  0  0  0  0  0  0  0  0  0  0
    9.4200   -0.0840   22.9530 N   0  0  0  0  0  0  0  0  0  0  0  0
    9.1870    1.1500   21.0630 O   0  0  0  0  0  0  0  0  0  0  0  0
   13.9390    0.9568   24.5622 S   0  0  0  0  0  0  0  0  0  0  0  0
    3.6256    2.0106   21.6303 H   0  0  0  0  0  0  0  0  0  0  0  0
    3.2724    2.7868   19.3204 H   0  0  0  0  0  0  0  0  0  0  0  0
    5.4858    0.4664   22.1692 H   0  0  0  0  0  0  0  0  0  0  0  0
    7.5665   -2.8638   26.1066 H   0  0  0  0  0  0  0  0  0  0  0  0
   11.0137   -4.2652   23.9447 H   0  0  0  0  0  0  0  0  0  0  0  0
    4.7836    2.0664   17.4848 H   0  0  0  0  0  0  0  0  0  0  0  0
    7.5948   -0.7788   24.7997 H   0  0  0  0  0  0  0  0  0  0  0  0
   11.0411   -2.1856   22.6358 H   0  0  0  0  0  0  0  0  0  0  0  0
   11.9195    1.1975   21.5780 H   0  0  0  0  0  0  0  0  0  0  0  0
    8.5274   -1.0858   18.3384 H   0  0  0  0  0  0  0  0  0  0  0  0
   14.4772    1.1292   22.1850 H   0  0  0  0  0  0  0  0  0  0  0  0
   11.9167    0.8713   25.9267 H   0  0  0  0  0  0  0  0  0  0  0  0
    8.6398   -5.7223   25.3871 H   0  0  0  0  0  0  0  0  0  0  0  0
   10.2715   -5.3829   26.0145 H   0  0  0  0  0  0  0  0  0  0  0  0
    8.8596   -4.8092   26.9004 H   0  0  0  0  0  0  0  0  0  0  0  0
    9.6035    0.9796   24.7677 H   0  0  0  0  0  0  0  0  0  0  0  0
    9.6171    1.9839   23.3175 H   0  0  0  0  0  0  0  0  0  0  0  0
    7.0325    0.4238   17.0175 H   0  0  0  0  0  0  0  0  0  0  0  0
    8.1151   -1.8109   21.3513 H   0  0  0  0  0  0  0  0  0  0  0  0
  1  2  1  0  0  0  0
  1  3  2  0  0  0  0
  2  6  2  0  0  0  0
  3 13  1  0  0  0  0
  4  7  2  0  0  0  0
  4 14  1  0  0  0  0
  5  8  1  0  0  0  0
  5 14  2  0  0  0  0
  6 16  1  0  0  0  0
  7 17  1  0  0  0  0
  8 17  2  0  0  0  0
  9 11  2  0  0  0  0
  9 15  1  0  0  0  0
 10 18  2  0  0  0  0
 10 22  1  0  0  0  0
 11 26  1  0  0  0  0
 12 15  2  0  0  0  0
 12 26  1  0  0  0  0
 13 16  2  0  0  0  0
 13 18  1  0  0  0  0
 14 20  1  0  0  0  0
 15 21  1  0  0  0  0
 16 22  1  0  0  0  0
 17 24  1  0  0  0  0
 18 23  1  0  0  0  0
 19 23  1  0  0  0  0
 19 24  1  0  0  0  0
 19 25  2  0  0  0  0
 21 24  1  0  0  0  0
  1 27  1  0  0  0  0
  2 28  1  0  0  0  0
  3 29  1  0  0  0  0
  4 30  1  0  0  0  0
  5 31  1  0  0  0  0
  6 32  1  0  0  0  0
  7 33  1  0  0  0  0
  8 34  1  0  0  0  0
  9 35  1  0  0  0  0
 10 36  1  0  0  0  0
 11 37  1  0  0  0  0
 12 38  1  0  0  0  0
 20 39  1  0  0  0  0
 20 40  1  0  0  0  0
 20 41  1  0  0  0  0
 21 42  1  0  0  0  0
 21 43  1  0  0  0  0
 22 44  1  0  0  0  0
 23 45  1  0  0  0  0
M  END
> <clash_score>
0

> <docking_score>
-8.749316215515137

> <overlap_score>
0.9421839118003845

$$$$
BENZO_125_1
  -OEChem-08232013483D

 48 51  0     0  0  0  0  0  0999 V2000
   14.2892    1.0137   23.7809 C   0  0  0  0  0  0  0  0  0  0  0  0
    4.2970    1.6690   20.8430 C   0  0  0  0  0  0  0  0  0  0  0  0
   13.5784    0.3319   24.7685 C   0  0  0  0  0  0  0  0  0  0  0  0
   13.6052    1.7080   22.7829 C   0  0  0  0  0  0  0  0  0  0  0  0
    4.0980    2.1130   19.5350 C   0  0  0  0  0  0  0  0  0  0  0  0
    5.3360    0.8000   21.1530 C   0  0  0  0  0  0  0  0  0  0  0  0
   12.1836    0.3443   24.7582 C   0  0  0  0  0  0  0  0  0  0  0  0
   12.2105    1.7204   22.7726 C   0  0  0  0  0  0  0  0  0  0  0  0
    8.3310   -2.7170   25.3430 C   0  0  0  0  0  0  0  0  0  0  0  0
   10.2570   -3.5000   24.1350 C   0  0  0  0  0  0  0  0  0  0  0  0
    4.9400    1.7060   18.5060 C   0  0  0  0  0  0  0  0  0  0  0  0
    8.3510   -1.5420   24.6110 C   0  0  0  0  0  0  0  0  0  0  0  0
   10.2760   -2.3270   23.4020 C   0  0  0  0  0  0  0  0  0  0  0  0
    7.6830   -0.5170   18.7600 C   0  0  0  0  0  0  0  0  0  0  0  0
    6.1600    0.3870   20.1140 C   0  0  0  0  0  0  0  0  0  0  0  0
    9.2850   -3.7090   25.1090 C   0  0  0  0  0  0  0  0  0  0  0  0
   11.4996    1.0386   23.7602 C   0  0  0  0  0  0  0  0  0  0  0  0
    5.9810    0.8330   18.8060 C   0  0  0  0  0  0  0  0  0  0  0  0
    9.3300   -1.3350   23.6390 C   0  0  0  0  0  0  0  0  0  0  0  0
    7.2210   -0.4620   20.0350 C   0  0  0  0  0  0  0  0  0  0  0  0
    8.9510    0.1280   21.6880 C   0  0  0  0  0  0  0  0  0  0  0  0
    9.2610   -4.9721   25.8916 C   0  0  0  0  0  0  0  0  0  0  0  0
    9.9983    1.0521   23.7484 C   0  0  0  0  0  0  0  0  0  0  0  0
    6.9440    0.2550   18.0100 N   0  0  0  0  0  0  0  0  0  0  0  0
    8.0810   -0.9750   21.0820 N   0  0  0  0  0  0  0  0  0  0  0  0
    9.4200   -0.0840   22.9530 N   0  0  0  0  0  0  0  0  0  0  0  0
    9.1870    1.1500   21.0630 O   0  0  0  0  0  0  0  0  0  0  0  0
   15.3752    1.0051   23.7898 H   0  0  0  0  0  0  0  0  0  0  0  0
    3.6256    2.0106   21.6303 H   0  0  0  0  0  0  0  0  0  0  0  0
   14.1107   -0.2078   25.5463 H   0  0  0  0  0  0  0  0  0  0  0  0
   14.1583    2.2399   22.0145 H   0  0  0  0  0  0  0  0  0  0  0  0
    3.2724    2.7868   19.3204 H   0  0  0  0  0  0  0  0  0  0  0  0
    5.4858    0.4664   22.1692 H   0  0  0  0  0  0  0  0  0  0  0  0
   11.6381   -0.1899   25.5316 H   0  0  0  0  0  0  0  0  0  0  0  0
   11.6861    2.2639   21.9911 H   0  0  0  0  0  0  0  0  0  0  0  0
    7.5665   -2.8638   26.1066 H   0  0  0  0  0  0  0  0  0  0  0  0
   11.0137   -4.2652   23.9447 H   0  0  0  0  0  0  0  0  0  0  0  0
    4.7836    2.0664   17.4848 H   0  0  0  0  0  0  0  0  0  0  0  0
    7.5948   -0.7788   24.7997 H   0  0  0  0  0  0  0  0  0  0  0  0
   11.0411   -2.1856   22.6358 H   0  0  0  0  0  0  0  0  0  0  0  0
    8.5274   -1.0858   18.3384 H   0  0  0  0  0  0  0  0  0  0  0  0
    8.6398   -5.7223   25.3871 H   0  0  0  0  0  0  0  0  0  0  0  0
   10.2715   -5.3829   26.0145 H   0  0  0  0  0  0  0  0  0  0  0  0
    8.8596   -4.8092   26.9004 H   0  0  0  0  0  0  0  0  0  0  0  0
    9.6035    0.9796   24.7677 H   0  0  0  0  0  0  0  0  0  0  0  0
    9.6171    1.9839   23.3175 H   0  0  0  0  0  0  0  0  0  0  0  0
    7.0325    0.4238   17.0175 H   0  0  0  0  0  0  0  0  0  0  0  0
    8.1151   -1.8109   21.3513 H   0  0  0  0  0  0  0  0  0  0  0  0
  1  3  1  0  0  0  0
  1  4  2  0  0  0  0
  2  5  1  0  0  0  0
  2  6  2  0  0  0  0
  3  7  2  0  0  0  0
  4  8  1  0  0  0  0
  5 11  2  0  0  0  0
  6 15  1  0  0  0  0
  7 17  1  0  0  0  0
  8 17  2  0  0  0  0
  9 12  2  0  0  0  0
  9 16  1  0  0  0  0
 10 13  1  0  0  0  0
 10 16  2  0  0  0  0
 11 18  1  0  0  0  0
 12 19  1  0  0  0  0
 13 19  2  0  0  0  0
 14 20  2  0  0  0  0
 14 24  1  0  0  0  0
 15 18  2  0  0  0  0
 15 20  1  0  0  0  0
 16 22  1  0  0  0  0
 17 23  1  0  0  0  0
 18 24  1  0  0  0  0
 19 26  1  0  0  0  0
 20 25  1  0  0  0  0
 21 25  1  0  0  0  0
 21 26  1  0  0  0  0
 21 27  2  0  0  0  0
 23 26  1  0  0  0  0
  1 28  1  0  0  0  0
  2 29  1  0  0  0  0
  3 30  1  0  0  0  0
  4 31  1  0  0  0  0
  5 32  1  0  0  0  0
  6 33  1  0  0  0  0
  7 34  1  0  0  0  0
  8 35  1  0  0  0  0
  9 36  1  0  0  0  0
 10 37  1  0  0  0  0
 11 38  1  0  0  0  0
 12 39  1  0  0  0  0
 13 40  1  0  0  0  0
 14 41  1  0  0  0  0
 22 42  1  0  0  0  0
 22 43  1  0  0  0  0
 22 44  1  0  0  0  0
 23 45  1  0  0  0  0
 23 46  1  0  0  0  0
 24 47  1  0  0  0  0
 25 48  1  0  0  0  0
M  END
> <clash_score>
0

> <docking_score>
-8.35825252532959

> <overlap_score>
0.9648008346557617

$$$$
BENZO_122_1
  -OEChem-08232013483D

 60 64  0     0  0  0  0  0  0999 V2000
    4.2970    1.6690   20.8430 C   0  0  0  0  0  0  0  0  0  0  0  0
    4.0980    2.1130   19.5350 C   0  0  0  0  0  0  0  0  0  0  0  0
   13.5765    2.0245   22.9155 C   0  0  0  0  0  0  0  0  0  0  0  0
    5.3360    0.8000   21.1530 C   0  0  0  0  0  0  0  0  0  0  0  0
   12.1819    2.0010   22.9146 C   0  0  0  0  0  0  0  0  0  0  0  0
    4.9400    1.7060   18.5060 C   0  0  0  0  0  0  0  0  0  0  0  0
    8.3310   -2.7170   25.3430 C   0  0  0  0  0  0  0  0  0  0  0  0
   10.2570   -3.5000   24.1350 C   0  0  0  0  0  0  0  0  0  0  0  0
    8.3510   -1.5420   24.6110 C   0  0  0  0  0  0  0  0  0  0  0  0
   10.2760   -2.3270   23.4020 C   0  0  0  0  0  0  0  0  0  0  0  0
   14.2884    1.1463   23.7327 C   0  0  0  0  0  0  0  0  0  0  0  0
   12.2109    0.2212   24.5483 C   0  0  0  0  0  0  0  0  0  0  0  0
    7.6830   -0.5170   18.7600 C   0  0  0  0  0  0  0  0  0  0  0  0
    6.1600    0.3870   20.1140 C   0  0  0  0  0  0  0  0  0  0  0  0
   11.4991    1.0994   23.7311 C   0  0  0  0  0  0  0  0  0  0  0  0
    5.9810    0.8330   18.8060 C   0  0  0  0  0  0  0  0  0  0  0  0
    9.2850   -3.7090   25.1090 C   0  0  0  0  0  0  0  0  0  0  0  0
    9.3300   -1.3350   23.6390 C   0  0  0  0  0  0  0  0  0  0  0  0
    7.2210   -0.4620   20.0350 C   0  0  0  0  0  0  0  0  0  0  0  0
   13.6056    0.2447   24.5491 C   0  0  0  0  0  0  0  0  0  0  0  0
    8.9510    0.1280   21.6880 C   0  0  0  0  0  0  0  0  0  0  0  0
    7.3162   -6.8835   26.5210 C   0  0  0  0  0  0  0  0  0  0  0  0
    7.3507   -5.5245   27.2240 C   0  0  0  0  0  0  0  0  0  0  0  0
    7.9375   -6.8069   25.1245 C   0  0  0  0  0  0  0  0  0  0  0  0
    8.7638   -4.9418   27.2163 C   0  0  0  0  0  0  0  0  0  0  0  0
    9.3378   -6.1874   25.1659 C   0  0  0  0  0  0  0  0  0  0  0  0
    9.9979    1.0755   23.7305 C   0  0  0  0  0  0  0  0  0  0  0  0
    6.9440    0.2550   18.0100 N   0  0  0  0  0  0  0  0  0  0  0  0
    9.2639   -4.8860   25.8399 N   0  0  0  0  0  0  0  0  0  0  0  0
    8.0810   -0.9750   21.0820 N   0  0  0  0  0  0  0  0  0  0  0  0
    9.4200   -0.0840   22.9530 N   0  0  0  0  0  0  0  0  0  0  0  0
    9.1870    1.1500   21.0630 O   0  0  0  0  0  0  0  0  0  0  0  0
   14.4844   -0.8377   25.5580 Cl  0  0  0  0  0  0  0  0  0  0  0  0
    3.6256    2.0106   21.6303 H   0  0  0  0  0  0  0  0  0  0  0  0
    3.2724    2.7868   19.3204 H   0  0  0  0  0  0  0  0  0  0  0  0
   14.1079    2.7268   22.2797 H   0  0  0  0  0  0  0  0  0  0  0  0
    5.4858    0.4664   22.1692 H   0  0  0  0  0  0  0  0  0  0  0  0
   11.6354    2.6889   22.2748 H   0  0  0  0  0  0  0  0  0  0  0  0
    4.7836    2.0664   17.4848 H   0  0  0  0  0  0  0  0  0  0  0  0
    7.5647   -2.8621   26.1053 H   0  0  0  0  0  0  0  0  0  0  0  0
   11.0144   -4.2642   23.9425 H   0  0  0  0  0  0  0  0  0  0  0  0
    7.5958   -0.7779   24.8006 H   0  0  0  0  0  0  0  0  0  0  0  0
   11.0406   -2.1848   22.6356 H   0  0  0  0  0  0  0  0  0  0  0  0
   15.3752    1.1761   23.7233 H   0  0  0  0  0  0  0  0  0  0  0  0
   11.6739   -0.4802   25.1826 H   0  0  0  0  0  0  0  0  0  0  0  0
    8.5274   -1.0858   18.3384 H   0  0  0  0  0  0  0  0  0  0  0  0
    7.8578   -7.6261   27.1266 H   0  0  0  0  0  0  0  0  0  0  0  0
    6.2773   -7.2358   26.4459 H   0  0  0  0  0  0  0  0  0  0  0  0
    6.6663   -4.8351   26.7223 H   0  0  0  0  0  0  0  0  0  0  0  0
    7.0044   -5.6368   28.2534 H   0  0  0  0  0  0  0  0  0  0  0  0
    7.9946   -7.8119   24.6937 H   0  0  0  0  0  0  0  0  0  0  0  0
    7.2929   -6.2123   24.4668 H   0  0  0  0  0  0  0  0  0  0  0  0
    8.7343   -3.9408   27.6542 H   0  0  0  0  0  0  0  0  0  0  0  0
    9.4243   -5.5632   27.8278 H   0  0  0  0  0  0  0  0  0  0  0  0
   10.0200   -6.8490   25.7011 H   0  0  0  0  0  0  0  0  0  0  0  0
    9.6984   -6.0694   24.1436 H   0  0  0  0  0  0  0  0  0  0  0  0
    9.6122    1.0250   24.7546 H   0  0  0  0  0  0  0  0  0  0  0  0
    9.5906    1.9837   23.2740 H   0  0  0  0  0  0  0  0  0  0  0  0
    7.0325    0.4238   17.0175 H   0  0  0  0  0  0  0  0  0  0  0  0
    8.1334   -1.7992   21.3673 H   0  0  0  0  0  0  0  0  0  0  0  0
  1  2  1  0  0  0  0
  1  4  2  0  0  0  0
  2  6  2  0  0  0  0
  3  5  2  0  0  0  0
  3 11  1  0  0  0  0
  4 14  1  0  0  0  0
  5 15  1  0  0  0  0
  6 16  1  0  0  0  0
  7  9  2  0  0  0  0
  7 17  1  0  0  0  0
  8 10  1  0  0  0  0
  8 17  2  0  0  0  0
  9 18  1  0  0  0  0
 10 18  2  0  0  0  0
 11 20  2  0  0  0  0
 12 15  2  0  0  0  0
 12 20  1  0  0  0  0
 13 19  2  0  0  0  0
 13 28  1  0  0  0  0
 14 16  2  0  0  0  0
 14 19  1  0  0  0  0
 15 27  1  0  0  0  0
 16 28  1  0  0  0  0
 17 29  1  0  0  0  0
 18 31  1  0  0  0  0
 19 30  1  0  0  0  0
 20 33  1  0  0  0  0
 21 30  1  0  0  0  0
 21 31  1  0  0  0  0
 21 32  2  0  0  0  0
 22 23  1  0  0  0  0
 22 24  1  0  0  0  0
 23 25  1  0  0  0  0
 24 26  1  0  0  0  0
 25 29  1  0  0  0  0
 26 29  1  0  0  0  0
 27 31  1  0  0  0  0
  1 34  1  0  0  0  0
  2 35  1  0  0  0  0
  3 36  1  0  0  0  0
  4 37  1  0  0  0  0
  5 38  1  0  0  0  0
  6 39  1  0  0  0  0
  7 40  1  0  0  0  0
  8 41  1  0  0  0  0
  9 42  1  0  0  0  0
 10 43  1  0  0  0  0
 11 44  1  0  0  0  0
 12 45  1  0  0  0  0
 13 46  1  0  0  0  0
 22 47  1  0  0  0  0
 22 48  1  0  0  0  0
 23 49  1  0  0  0  0
 23 50  1  0  0  0  0
 24 51  1  0  0  0  0
 24 52  1  0  0  0  0
 25 53  1  0  0  0  0
 25 54  1  0  0  0  0
 26 55  1  0  0  0  0
 26 56  1  0  0  0  0
 27 57  1  0  0  0  0
 27 58  1  0  0  0  0
 28 59  1  0  0  0  0
 30 60  1  0  0  0  0
M  END
> <clash_score>
0.6893404029544469

> <docking_score>
-6.334627151489258

> <overlap_score>
1.0125755071640015

$$$$
BENZO_123_1
  -OEChem-08232013483D

 60 64  0     0  0  0  0  0  0999 V2000
    4.2970    1.6690   20.8430 C   0  0  0  0  0  0  0  0  0  0  0  0
    4.0980    2.1130   19.5350 C   0  0  0  0  0  0  0  0  0  0  0  0
    5.3360    0.8000   21.1530 C   0  0  0  0  0  0  0  0  0  0  0  0
    4.9400    1.7060   18.5060 C   0  0  0  0  0  0  0  0  0  0  0  0
    8.3310   -2.7170   25.3430 C   0  0  0  0  0  0  0  0  0  0  0  0
   10.2570   -3.5000   24.1350 C   0  0  0  0  0  0  0  0  0  0  0  0
    8.3510   -1.5420   24.6110 C   0  0  0  0  0  0  0  0  0  0  0  0
   10.2760   -2.3270   23.4020 C   0  0  0  0  0  0  0  0  0  0  0  0
   12.3632    1.0650   24.8419 C   0  0  0  0  0  0  0  0  0  0  0  0
   12.3381    1.1571   22.6451 C   0  0  0  0  0  0  0  0  0  0  0  0
    7.6830   -0.5170   18.7600 C   0  0  0  0  0  0  0  0  0  0  0  0
    6.1600    0.3870   20.1140 C   0  0  0  0  0  0  0  0  0  0  0  0
   11.4991    1.0994   23.7311 C   0  0  0  0  0  0  0  0  0  0  0  0
    5.9810    0.8330   18.8060 C   0  0  0  0  0  0  0  0  0  0  0  0
    9.2850   -3.7090   25.1090 C   0  0  0  0  0  0  0  0  0  0  0  0
    9.3300   -1.3350   23.6390 C   0  0  0  0  0  0  0  0  0  0  0  0
    7.2210   -0.4620   20.0350 C   0  0  0  0  0  0  0  0  0  0  0  0
    8.9510    0.1280   21.6880 C   0  0  0  0  0  0  0  0  0  0  0  0
    7.3162   -6.8835   26.5210 C   0  0  0  0  0  0  0  0  0  0  0  0
    7.3507   -5.5245   27.2240 C   0  0  0  0  0  0  0  0  0  0  0  0
    7.9375   -6.8069   25.1245 C   0  0  0  0  0  0  0  0  0  0  0  0
    8.7638   -4.9418   27.2163 C   0  0  0  0  0  0  0  0  0  0  0  0
    9.3378   -6.1874   25.1659 C   0  0  0  0  0  0  0  0  0  0  0  0
   14.8306    1.2029   22.3922 C   0  0  0  0  0  0  0  0  0  0  0  0
    9.9979    1.0755   23.7305 C   0  0  0  0  0  0  0  0  0  0  0  0
   13.6522    1.0980   24.4937 N   0  0  0  0  0  0  0  0  0  0  0  0
    6.9440    0.2550   18.0100 N   0  0  0  0  0  0  0  0  0  0  0  0
   13.6043    1.1536   23.1518 N   0  0  0  0  0  0  0  0  0  0  0  0
    9.2639   -4.8860   25.8399 N   0  0  0  0  0  0  0  0  0  0  0  0
    8.0810   -0.9750   21.0820 N   0  0  0  0  0  0  0  0  0  0  0  0
    9.4200   -0.0840   22.9530 N   0  0  0  0  0  0  0  0  0  0  0  0
    9.1870    1.1500   21.0630 O   0  0  0  0  0  0  0  0  0  0  0  0
    3.6256    2.0106   21.6303 H   0  0  0  0  0  0  0  0  0  0  0  0
    3.2724    2.7868   19.3204 H   0  0  0  0  0  0  0  0  0  0  0  0
    5.4858    0.4664   22.1692 H   0  0  0  0  0  0  0  0  0  0  0  0
    4.7836    2.0664   17.4848 H   0  0  0  0  0  0  0  0  0  0  0  0
    7.5647   -2.8621   26.1053 H   0  0  0  0  0  0  0  0  0  0  0  0
   11.0144   -4.2642   23.9425 H   0  0  0  0  0  0  0  0  0  0  0  0
    7.5958   -0.7779   24.8006 H   0  0  0  0  0  0  0  0  0  0  0  0
   11.0406   -2.1848   22.6356 H   0  0  0  0  0  0  0  0  0  0  0  0
   12.1097    1.0164   25.8915 H   0  0  0  0  0  0  0  0  0  0  0  0
   12.1467    1.1980   21.5814 H   0  0  0  0  0  0  0  0  0  0  0  0
    8.5274   -1.0858   18.3384 H   0  0  0  0  0  0  0  0  0  0  0  0
    7.8578   -7.6261   27.1266 H   0  0  0  0  0  0  0  0  0  0  0  0
    6.2773   -7.2358   26.4459 H   0  0  0  0  0  0  0  0  0  0  0  0
    6.6663   -4.8351   26.7223 H   0  0  0  0  0  0  0  0  0  0  0  0
    7.0044   -5.6368   28.2534 H   0  0  0  0  0  0  0  0  0  0  0  0
    7.9946   -7.8119   24.6937 H   0  0  0  0  0  0  0  0  0  0  0  0
    7.2929   -6.2123   24.4668 H   0  0  0  0  0  0  0  0  0  0  0  0
    8.7343   -3.9408   27.6542 H   0  0  0  0  0  0  0  0  0  0  0  0
    9.4243   -5.5632   27.8278 H   0  0  0  0  0  0  0  0  0  0  0  0
   10.0200   -6.8490   25.7011 H   0  0  0  0  0  0  0  0  0  0  0  0
    9.6984   -6.0694   24.1436 H   0  0  0  0  0  0  0  0  0  0  0  0
   15.1025    2.2532   22.2585 H   0  0  0  0  0  0  0  0  0  0  0  0
   15.6167    0.6705   22.9349 H   0  0  0  0  0  0  0  0  0  0  0  0
   14.6750    0.7207   21.4231 H   0  0  0  0  0  0  0  0  0  0  0  0
    9.6122    1.0250   24.7546 H   0  0  0  0  0  0  0  0  0  0  0  0
    9.5906    1.9837   23.2740 H   0  0  0  0  0  0  0  0  0  0  0  0
    7.0325    0.4238   17.0175 H   0  0  0  0  0  0  0  0  0  0  0  0
    8.1334   -1.7992   21.3673 H   0  0  0  0  0  0  0  0  0  0  0  0
  1  2  1  0  0  0  0
  1  3  2  0  0  0  0
  2  4  2  0  0  0  0
  3 12  1  0  0  0  0
  4 14  1  0  0  0  0
  5  7  2  0  0  0  0
  5 15  1  0  0  0  0
  6  8  1  0  0  0  0
  6 15  2  0  0  0  0
  7 16  1  0  0  0  0
  8 16  2  0  0  0  0
  9 13  1  0  0  0  0
  9 26  2  0  0  0  0
 10 13  2  0  0  0  0
 10 28  1  0  0  0  0
 11 17  2  0  0  0  0
 11 27  1  0  0  0  0
 12 14  2  0  0  0  0
 12 17  1  0  0  0  0
 13 25  1  0  0  0  0
 14 27  1  0  0  0  0
 15 29  1  0  0  0  0
 16 31  1  0  0  0  0
 17 30  1  0  0  0  0
 18 30  1  0  0  0  0
 18 31  1  0  0  0  0
 18 32  2  0  0  0  0
 19 20  1  0  0  0  0
 19 21  1  0  0  0  0
 20 22  1  0  0  0  0
 21 23  1  0  0  0  0
 22 29  1  0  0  0  0
 23 29  1  0  0  0  0
 24 28  1  0  0  0  0
 25 31  1  0  0  0  0
 26 28  1  0  0  0  0
  1 33  1  0  0  0  0
  2 34  1  0  0  0  0
  3 35  1  0  0  0  0
  4 36  1  0  0  0  0
  5 37  1  0  0  0  0
  6 38  1  0  0  0  0
  7 39  1  0  0  0  0
  8 40  1  0  0  0  0
  9 41  1  0  0  0  0
 10 42  1  0  0  0  0
 11 43  1  0  0  0  0
 19 44  1  0  0  0  0
 19 45  1  0  0  0  0
 20 46  1  0  0  0  0
 20 47  1  0  0  0  0
 21 48  1  0  0  0  0
 21 49  1  0  0  0  0
 22 50  1  0  0  0  0
 22 51  1  0  0  0  0
 23 52  1  0  0  0  0
 23 53  1  0  0  0  0
 24 54  1  0  0  0  0
 24 55  1  0  0  0  0
 24 56  1  0  0  0  0
 25 57  1  0  0  0  0
 25 58  1  0  0  0  0
 27 59  1  0  0  0  0
 30 60  1  0  0  0  0
M  END
> <clash_score>
0

> <docking_score>
-7.223768711090088

> <overlap_score>
1.003841519355774

$$$$
BENZO_127_1
  -OEChem-08232013483D

 48 51  0     0  0  0  0  0  0999 V2000
    4.2970    1.6690   20.8430 C   0  0  0  0  0  0  0  0  0  0  0  0
    4.0980    2.1130   19.5350 C   0  0  0  0  0  0  0  0  0  0  0  0
    5.3360    0.8000   21.1530 C   0  0  0  0  0  0  0  0  0  0  0  0
    8.3310   -2.7170   25.3430 C   0  0  0  0  0  0  0  0  0  0  0  0
   10.2570   -3.5000   24.1350 C   0  0  0  0  0  0  0  0  0  0  0  0
    4.9400    1.7060   18.5060 C   0  0  0  0  0  0  0  0  0  0  0  0
    8.3510   -1.5420   24.6110 C   0  0  0  0  0  0  0  0  0  0  0  0
   10.2760   -2.3270   23.4020 C   0  0  0  0  0  0  0  0  0  0  0  0
   12.3539    0.9483   24.8755 C   0  0  0  0  0  0  0  0  0  0  0  0
   12.3482    1.1089   22.6826 C   0  0  0  0  0  0  0  0  0  0  0  0
    7.6830   -0.5170   18.7600 C   0  0  0  0  0  0  0  0  0  0  0  0
    6.1600    0.3870   20.1140 C   0  0  0  0  0  0  0  0  0  0  0  0
    9.2850   -3.7090   25.1090 C   0  0  0  0  0  0  0  0  0  0  0  0
   11.4996    1.0386   23.7602 C   0  0  0  0  0  0  0  0  0  0  0  0
    5.9810    0.8330   18.8060 C   0  0  0  0  0  0  0  0  0  0  0  0
    9.3300   -1.3350   23.6390 C   0  0  0  0  0  0  0  0  0  0  0  0
    7.2210   -0.4620   20.0350 C   0  0  0  0  0  0  0  0  0  0  0  0
    8.9510    0.1280   21.6880 C   0  0  0  0  0  0  0  0  0  0  0  0
    9.2610   -4.9721   25.8916 C   0  0  0  0  0  0  0  0  0  0  0  0
   14.8430    1.1003   22.4488 C   0  0  0  0  0  0  0  0  0  0  0  0
    9.9983    1.0521   23.7484 C   0  0  0  0  0  0  0  0  0  0  0  0
   13.6460    0.9599   24.5376 N   0  0  0  0  0  0  0  0  0  0  0  0
    6.9440    0.2550   18.0100 N   0  0  0  0  0  0  0  0  0  0  0  0
   13.6100    1.0581   23.1978 N   0  0  0  0  0  0  0  0  0  0  0  0
    8.0810   -0.9750   21.0820 N   0  0  0  0  0  0  0  0  0  0  0  0
    9.4200   -0.0840   22.9530 N   0  0  0  0  0  0  0  0  0  0  0  0
    9.1870    1.1500   21.0630 O   0  0  0  0  0  0  0  0  0  0  0  0
    3.6256    2.0106   21.6303 H   0  0  0  0  0  0  0  0  0  0  0  0
    3.2724    2.7868   19.3204 H   0  0  0  0  0  0  0  0  0  0  0  0
    5.4858    0.4664   22.1692 H   0  0  0  0  0  0  0  0  0  0  0  0
    7.5665   -2.8638   26.1066 H   0  0  0  0  0  0  0  0  0  0  0  0
   11.0137   -4.2652   23.9447 H   0  0  0  0  0  0  0  0  0  0  0  0
    4.7836    2.0664   17.4848 H   0  0  0  0  0  0  0  0  0  0  0  0
    7.5948   -0.7788   24.7997 H   0  0  0  0  0  0  0  0  0  0  0  0
   11.0411   -2.1856   22.6358 H   0  0  0  0  0  0  0  0  0  0  0  0
   12.0911    0.8736   25.9213 H   0  0  0  0  0  0  0  0  0  0  0  0
   12.1662    1.1875   21.6193 H   0  0  0  0  0  0  0  0  0  0  0  0
    8.5274   -1.0858   18.3384 H   0  0  0  0  0  0  0  0  0  0  0  0
    8.6398   -5.7223   25.3871 H   0  0  0  0  0  0  0  0  0  0  0  0
   10.2715   -5.3829   26.0145 H   0  0  0  0  0  0  0  0  0  0  0  0
    8.8596   -4.8092   26.9004 H   0  0  0  0  0  0  0  0  0  0  0  0
   15.1418    2.1472   22.3498 H   0  0  0  0  0  0  0  0  0  0  0  0
   15.6115    0.5320   22.9802 H   0  0  0  0  0  0  0  0  0  0  0  0
   14.6832    0.6524   21.4640 H   0  0  0  0  0  0  0  0  0  0  0  0
    9.6035    0.9796   24.7677 H   0  0  0  0  0  0  0  0  0  0  0  0
    9.6171    1.9839   23.3175 H   0  0  0  0  0  0  0  0  0  0  0  0
    7.0325    0.4238   17.0175 H   0  0  0  0  0  0  0  0  0  0  0  0
    8.1151   -1.8109   21.3513 H   0  0  0  0  0  0  0  0  0  0  0  0
  1  2  1  0  0  0  0
  1  3  2  0  0  0  0
  2  6  2  0  0  0  0
  3 12  1  0  0  0  0
  4  7  2  0  0  0  0
  4 13  1  0  0  0  0
  5  8  1  0  0  0  0
  5 13  2  0  0  0  0
  6 15  1  0  0  0  0
  7 16  1  0  0  0  0
  8 16  2  0  0  0  0
  9 14  1  0  0  0  0
  9 22  2  0  0  0  0
 10 14  2  0  0  0  0
 10 24  1  0  0  0  0
 11 17  2  0  0  0  0
 11 23  1  0  0  0  0
 12 15  2  0  0  0  0
 12 17  1  0  0  0  0
 13 19  1  0  0  0  0
 14 21  1  0  0  0  0
 15 23  1  0  0  0  0
 16 26  1  0  0  0  0
 17 25  1  0  0  0  0
 18 25  1  0  0  0  0
 18 26  1  0  0  0  0
 18 27  2  0  0  0  0
 20 24  1  0  0  0  0
 21 26  1  0  0  0  0
 22 24  1  0  0  0  0
  1 28  1  0  0  0  0
  2 29  1  0  0  0  0
  3 30  1  0  0  0  0
  4 31  1  0  0  0  0
  5 32  1  0  0  0  0
  6 33  1  0  0  0  0
  7 34  1  0  0  0  0
  8 35  1  0  0  0  0
  9 36  1  0  0  0  0
 10 37  1  0  0  0  0
 11 38  1  0  0  0  0
 19 39  1  0  0  0  0
 19 40  1  0  0  0  0
 19 41  1  0  0  0  0
 20 42  1  0  0  0  0
 20 43  1  0  0  0  0
 20 44  1  0  0  0  0
 21 45  1  0  0  0  0
 21 46  1  0  0  0  0
 23 47  1  0  0  0  0
 25 48  1  0  0  0  0
M  END
> <clash_score>
0

> <docking_score>
-8.041608810424805

> <overlap_score>
0.9584161639213562

$$$$
BENZO_126_1
  -OEChem-08232013483D

 48 51  0     0  0  0  0  0  0999 V2000
    4.2970    1.6690   20.8430 C   0  0  0  0  0  0  0  0  0  0  0  0
    4.0980    2.1130   19.5350 C   0  0  0  0  0  0  0  0  0  0  0  0
   13.6056    1.9364   22.9885 C   0  0  0  0  0  0  0  0  0  0  0  0
    5.3360    0.8000   21.1530 C   0  0  0  0  0  0  0  0  0  0  0  0
   12.2108    1.9477   22.9771 C   0  0  0  0  0  0  0  0  0  0  0  0
    8.3310   -2.7170   25.3430 C   0  0  0  0  0  0  0  0  0  0  0  0
   10.2570   -3.5000   24.1350 C   0  0  0  0  0  0  0  0  0  0  0  0
    4.9400    1.7060   18.5060 C   0  0  0  0  0  0  0  0  0  0  0  0
    8.3510   -1.5420   24.6110 C   0  0  0  0  0  0  0  0  0  0  0  0
   10.2760   -2.3270   23.4020 C   0  0  0  0  0  0  0  0  0  0  0  0
   14.2892    1.0159   23.7830 C   0  0  0  0  0  0  0  0  0  0  0  0
   12.1832    0.1181   24.5548 C   0  0  0  0  0  0  0  0  0  0  0  0
    7.6830   -0.5170   18.7600 C   0  0  0  0  0  0  0  0  0  0  0  0
    6.1600    0.3870   20.1140 C   0  0  0  0  0  0  0  0  0  0  0  0
    9.2850   -3.7090   25.1090 C   0  0  0  0  0  0  0  0  0  0  0  0
   11.4996    1.0386   23.7602 C   0  0  0  0  0  0  0  0  0  0  0  0
    5.9810    0.8330   18.8060 C   0  0  0  0  0  0  0  0  0  0  0  0
    9.3300   -1.3350   23.6390 C   0  0  0  0  0  0  0  0  0  0  0  0
    7.2210   -0.4620   20.0350 C   0  0  0  0  0  0  0  0  0  0  0  0
   13.5779    0.1068   24.5661 C   0  0  0  0  0  0  0  0  0  0  0  0
    8.9510    0.1280   21.6880 C   0  0  0  0  0  0  0  0  0  0  0  0
    9.2610   -4.9721   25.8916 C   0  0  0  0  0  0  0  0  0  0  0  0
    9.9983    1.0521   23.7484 C   0  0  0  0  0  0  0  0  0  0  0  0
    6.9440    0.2550   18.0100 N   0  0  0  0  0  0  0  0  0  0  0  0
    8.0810   -0.9750   21.0820 N   0  0  0  0  0  0  0  0  0  0  0  0
    9.4200   -0.0840   22.9530 N   0  0  0  0  0  0  0  0  0  0  0  0
    9.1870    1.1500   21.0630 O   0  0  0  0  0  0  0  0  0  0  0  0
   14.4218   -1.0279   25.5470 Cl  0  0  0  0  0  0  0  0  0  0  0  0
    3.6256    2.0106   21.6303 H   0  0  0  0  0  0  0  0  0  0  0  0
    3.2724    2.7868   19.3204 H   0  0  0  0  0  0  0  0  0  0  0  0
   14.1590    2.6446   22.3786 H   0  0  0  0  0  0  0  0  0  0  0  0
    5.4858    0.4664   22.1692 H   0  0  0  0  0  0  0  0  0  0  0  0
   11.6865    2.6685   22.3551 H   0  0  0  0  0  0  0  0  0  0  0  0
    7.5665   -2.8638   26.1066 H   0  0  0  0  0  0  0  0  0  0  0  0
   11.0137   -4.2652   23.9447 H   0  0  0  0  0  0  0  0  0  0  0  0
    4.7836    2.0664   17.4848 H   0  0  0  0  0  0  0  0  0  0  0  0
    7.5948   -0.7788   24.7997 H   0  0  0  0  0  0  0  0  0  0  0  0
   11.0411   -2.1856   22.6358 H   0  0  0  0  0  0  0  0  0  0  0  0
   15.3764    1.0188   23.7822 H   0  0  0  0  0  0  0  0  0  0  0  0
   11.6240   -0.5890   25.1632 H   0  0  0  0  0  0  0  0  0  0  0  0
    8.5274   -1.0858   18.3384 H   0  0  0  0  0  0  0  0  0  0  0  0
    8.6398   -5.7223   25.3871 H   0  0  0  0  0  0  0  0  0  0  0  0
   10.2715   -5.3829   26.0145 H   0  0  0  0  0  0  0  0  0  0  0  0
    8.8596   -4.8092   26.9004 H   0  0  0  0  0  0  0  0  0  0  0  0
    9.6035    0.9796   24.7677 H   0  0  0  0  0  0  0  0  0  0  0  0
    9.6171    1.9839   23.3175 H   0  0  0  0  0  0  0  0  0  0  0  0
    7.0325    0.4238   17.0175 H   0  0  0  0  0  0  0  0  0  0  0  0
    8.1151   -1.8109   21.3513 H   0  0  0  0  0  0  0  0  0  0  0  0
  1  2  1  0  0  0  0
  1  4  2  0  0  0  0
  2  8  2  0  0  0  0
  3  5  2  0  0  0  0
  3 11  1  0  0  0  0
  4 14  1  0  0  0  0
  5 16  1  0  0  0  0
  6  9  2  0  0  0  0
  6 15  1  0  0  0  0
  7 10  1  0  0  0  0
  7 15  2  0  0  0  0
  8 17  1  0  0  0  0
  9 18  1  0  0  0  0
 10 18  2  0  0  0  0
 11 20  2  0  0  0  0
 12 16  2  0  0  0  0
 12 20  1  0  0  0  0
 13 19  2  0  0  0  0
 13 24  1  0  0  0  0
 14 17  2  0  0  0  0
 14 19  1  0  0  0  0
 15 22  1  0  0  0  0
 16 23  1  0  0  0  0
 17 24  1  0  0  0  0
 18 26  1  0  0  0  0
 19 25  1  0  0  0  0
 20 28  1  0  0  0  0
 21 25  1  0  0  0  0
 21 26  1  0  0  0  0
 21 27  2  0  0  0  0
 23 26  1  0  0  0  0
  1 29  1  0  0  0  0
  2 30  1  0  0  0  0
  3 31  1  0  0  0  0
  4 32  1  0  0  0  0
  5 33  1  0  0  0  0
  6 34  1  0  0  0  0
  7 35  1  0  0  0  0
  8 36  1  0  0  0  0
  9 37  1  0  0  0  0
 10 38  1  0  0  0  0
 11 39  1  0  0  0  0
 12 40  1  0  0  0  0
 13 41  1  0  0  0  0
 22 42  1  0  0  0  0
 22 43  1  0  0  0  0
 22 44  1  0  0  0  0
 23 45  1  0  0  0  0
 23 46  1  0  0  0  0
 24 47  1  0  0  0  0
 25 48  1  0  0  0  0
M  END
> <clash_score>
0.7397431773063575

> <docking_score>
-7.2346110343933105

> <overlap_score>
0.9667291641235352

$$$$
BENZO_128_1
  -OEChem-08232013483D

 46 49  0     0  0  0  0  0  0999 V2000
    4.2970    1.6690   20.8430 C   0  0  0  0  0  0  0  0  0  0  0  0
    4.0980    2.1130   19.5350 C   0  0  0  0  0  0  0  0  0  0  0  0
    5.3360    0.8000   21.1530 C   0  0  0  0  0  0  0  0  0  0  0  0
    4.9400    1.7060   18.5060 C   0  0  0  0  0  0  0  0  0  0  0  0
    8.3510   -1.5420   24.6110 C   0  0  0  0  0  0  0  0  0  0  0  0
   10.2760   -2.3270   23.4020 C   0  0  0  0  0  0  0  0  0  0  0  0
    8.3310   -2.7170   25.3430 C   0  0  0  0  0  0  0  0  0  0  0  0
   10.2570   -3.5000   24.1350 C   0  0  0  0  0  0  0  0  0  0  0  0
   12.3042    1.1191   22.5871 C   0  0  0  0  0  0  0  0  0  0  0  0
    7.6830   -0.5170   18.7600 C   0  0  0  0  0  0  0  0  0  0  0  0
   13.6500    1.0853   22.8793 C   0  0  0  0  0  0  0  0  0  0  0  0
   12.2612    0.9460   24.9045 C   0  0  0  0  0  0  0  0  0  0  0  0
    6.1600    0.3870   20.1140 C   0  0  0  0  0  0  0  0  0  0  0  0
   11.4996    1.0386   23.7602 C   0  0  0  0  0  0  0  0  0  0  0  0
    5.9810    0.8330   18.8060 C   0  0  0  0  0  0  0  0  0  0  0  0
    9.3300   -1.3350   23.6390 C   0  0  0  0  0  0  0  0  0  0  0  0
    7.2210   -0.4620   20.0350 C   0  0  0  0  0  0  0  0  0  0  0  0
    9.2850   -3.7090   25.1090 C   0  0  0  0  0  0  0  0  0  0  0  0
    8.9510    0.1280   21.6880 C   0  0  0  0  0  0  0  0  0  0  0  0
    8.2346   -4.9976   26.8023 C   0  0  0  0  0  0  0  0  0  0  0  0
    9.9983    1.0521   23.7484 C   0  0  0  0  0  0  0  0  0  0  0  0
    6.9440    0.2550   18.0100 N   0  0  0  0  0  0  0  0  0  0  0  0
    8.0810   -0.9750   21.0820 N   0  0  0  0  0  0  0  0  0  0  0  0
    9.4200   -0.0840   22.9530 N   0  0  0  0  0  0  0  0  0  0  0  0
    9.1870    1.1500   21.0630 O   0  0  0  0  0  0  0  0  0  0  0  0
    9.2631   -4.8614   25.8229 O   0  0  0  0  0  0  0  0  0  0  0  0
   13.9390    0.9568   24.5622 S   0  0  0  0  0  0  0  0  0  0  0  0
    3.6256    2.0106   21.6303 H   0  0  0  0  0  0  0  0  0  0  0  0
    3.2724    2.7868   19.3204 H   0  0  0  0  0  0  0  0  0  0  0  0
    5.4858    0.4664   22.1692 H   0  0  0  0  0  0  0  0  0  0  0  0
    4.7836    2.0664   17.4848 H   0  0  0  0  0  0  0  0  0  0  0  0
    7.5951   -0.7786   24.8000 H   0  0  0  0  0  0  0  0  0  0  0  0
   11.0406   -2.1866   22.6351 H   0  0  0  0  0  0  0  0  0  0  0  0
    7.5664   -2.8674   26.1055 H   0  0  0  0  0  0  0  0  0  0  0  0
   11.0119   -4.2671   23.9461 H   0  0  0  0  0  0  0  0  0  0  0  0
   11.9195    1.1975   21.5780 H   0  0  0  0  0  0  0  0  0  0  0  0
    8.5274   -1.0858   18.3384 H   0  0  0  0  0  0  0  0  0  0  0  0
   14.4772    1.1292   22.1850 H   0  0  0  0  0  0  0  0  0  0  0  0
   11.9167    0.8713   25.9267 H   0  0  0  0  0  0  0  0  0  0  0  0
    8.3309   -5.9652   27.3008 H   0  0  0  0  0  0  0  0  0  0  0  0
    7.2574   -4.9205   26.3189 H   0  0  0  0  0  0  0  0  0  0  0  0
    8.3381   -4.1984   27.5400 H   0  0  0  0  0  0  0  0  0  0  0  0
    9.6035    0.9796   24.7677 H   0  0  0  0  0  0  0  0  0  0  0  0
    9.6171    1.9839   23.3175 H   0  0  0  0  0  0  0  0  0  0  0  0
    7.0325    0.4238   17.0175 H   0  0  0  0  0  0  0  0  0  0  0  0
    8.1151   -1.8109   21.3513 H   0  0  0  0  0  0  0  0  0  0  0  0
  1  2  1  0  0  0  0
  1  3  2  0  0  0  0
  2  4  2  0  0  0  0
  3 13  1  0  0  0  0
  4 15  1  0  0  0  0
  5  7  2  0  0  0  0
  5 16  1  0  0  0  0
  6  8  1  0  0  0  0
  6 16  2  0  0  0  0
  7 18  1  0  0  0  0
  8 18  2  0  0  0  0
  9 11  2  0  0  0  0
  9 14  1  0  0  0  0
 10 17  2  0  0  0  0
 10 22  1  0  0  0  0
 11 27  1  0  0  0  0
 12 14  2  0  0  0  0
 12 27  1  0  0  0  0
 13 15  2  0  0  0  0
 13 17  1  0  0  0  0
 14 21  1  0  0  0  0
 15 22  1  0  0  0  0
 16 24  1  0  0  0  0
 17 23  1  0  0  0  0
 18 26  1  0  0  0  0
 19 23  1  0  0  0  0
 19 24  1  0  0  0  0
 19 25  2  0  0  0  0
 20 26  1  0  0  0  0
 21 24  1  0  0  0  0
  1 28  1  0  0  0  0
  2 29  1  0  0  0  0
  3 30  1  0  0  0  0
  4 31  1  0  0  0  0
  5 32  1  0  0  0  0
  6 33  1  0  0  0  0
  7 34  1  0  0  0  0
  8 35  1  0  0  0  0
  9 36  1  0  0  0  0
 10 37  1  0  0  0  0
 11 38  1  0  0  0  0
 12 39  1  0  0  0  0
 20 40  1  0  0  0  0
 20 41  1  0  0  0  0
 20 42  1  0  0  0  0
 21 43  1  0  0  0  0
 21 44  1  0  0  0  0
 22 45  1  0  0  0  0
 23 46  1  0  0  0  0
M  END
> <clash_score>
0

> <docking_score>
-8.45835018157959

> <overlap_score>
0.9661829471588135

$$$$
BENZO_129_1
  -OEChem-08232013483D

 49 52  0     0  0  0  0  0  0999 V2000
   14.2892    1.0137   23.7809 C   0  0  0  0  0  0  0  0  0  0  0  0
    4.2970    1.6690   20.8430 C   0  0  0  0  0  0  0  0  0  0  0  0
   13.5784    0.3319   24.7685 C   0  0  0  0  0  0  0  0  0  0  0  0
   13.6052    1.7080   22.7829 C   0  0  0  0  0  0  0  0  0  0  0  0
    4.0980    2.1130   19.5350 C   0  0  0  0  0  0  0  0  0  0  0  0
    5.3360    0.8000   21.1530 C   0  0  0  0  0  0  0  0  0  0  0  0
   12.1836    0.3443   24.7582 C   0  0  0  0  0  0  0  0  0  0  0  0
   12.2105    1.7204   22.7726 C   0  0  0  0  0  0  0  0  0  0  0  0
    4.9400    1.7060   18.5060 C   0  0  0  0  0  0  0  0  0  0  0  0
    8.3510   -1.5420   24.6110 C   0  0  0  0  0  0  0  0  0  0  0  0
   10.2760   -2.3270   23.4020 C   0  0  0  0  0  0  0  0  0  0  0  0
    8.3310   -2.7170   25.3430 C   0  0  0  0  0  0  0  0  0  0  0  0
   10.2570   -3.5000   24.1350 C   0  0  0  0  0  0  0  0  0  0  0  0
    7.6830   -0.5170   18.7600 C   0  0  0  0  0  0  0  0  0  0  0  0
    6.1600    0.3870   20.1140 C   0  0  0  0  0  0  0  0  0  0  0  0
   11.4996    1.0386   23.7602 C   0  0  0  0  0  0  0  0  0  0  0  0
    5.9810    0.8330   18.8060 C   0  0  0  0  0  0  0  0  0  0  0  0
    9.3300   -1.3350   23.6390 C   0  0  0  0  0  0  0  0  0  0  0  0
    7.2210   -0.4620   20.0350 C   0  0  0  0  0  0  0  0  0  0  0  0
    9.2850   -3.7090   25.1090 C   0  0  0  0  0  0  0  0  0  0  0  0
    8.9510    0.1280   21.6880 C   0  0  0  0  0  0  0  0  0  0  0  0
    8.2346   -4.9976   26.8023 C   0  0  0  0  0  0  0  0  0  0  0  0
    9.9983    1.0521   23.7484 C   0  0  0  0  0  0  0  0  0  0  0  0
    6.9440    0.2550   18.0100 N   0  0  0  0  0  0  0  0  0  0  0  0
    8.0810   -0.9750   21.0820 N   0  0  0  0  0  0  0  0  0  0  0  0
    9.4200   -0.0840   22.9530 N   0  0  0  0  0  0  0  0  0  0  0  0
    9.1870    1.1500   21.0630 O   0  0  0  0  0  0  0  0  0  0  0  0
    9.2631   -4.8614   25.8229 O   0  0  0  0  0  0  0  0  0  0  0  0
   15.3752    1.0051   23.7898 H   0  0  0  0  0  0  0  0  0  0  0  0
    3.6256    2.0106   21.6303 H   0  0  0  0  0  0  0  0  0  0  0  0
   14.1107   -0.2078   25.5463 H   0  0  0  0  0  0  0  0  0  0  0  0
   14.1583    2.2399   22.0145 H   0  0  0  0  0  0  0  0  0  0  0  0
    3.2724    2.7868   19.3204 H   0  0  0  0  0  0  0  0  0  0  0  0
    5.4858    0.4664   22.1692 H   0  0  0  0  0  0  0  0  0  0  0  0
   11.6381   -0.1899   25.5316 H   0  0  0  0  0  0  0  0  0  0  0  0
   11.6861    2.2639   21.9911 H   0  0  0  0  0  0  0  0  0  0  0  0
    4.7836    2.0664   17.4848 H   0  0  0  0  0  0  0  0  0  0  0  0
    7.5951   -0.7786   24.8000 H   0  0  0  0  0  0  0  0  0  0  0  0
   11.0406   -2.1866   22.6351 H   0  0  0  0  0  0  0  0  0  0  0  0
    7.5664   -2.8674   26.1055 H   0  0  0  0  0  0  0  0  0  0  0  0
   11.0119   -4.2671   23.9461 H   0  0  0  0  0  0  0  0  0  0  0  0
    8.5274   -1.0858   18.3384 H   0  0  0  0  0  0  0  0  0  0  0  0
    8.3309   -5.9652   27.3008 H   0  0  0  0  0  0  0  0  0  0  0  0
    7.2574   -4.9205   26.3189 H   0  0  0  0  0  0  0  0  0  0  0  0
    8.3381   -4.1984   27.5400 H   0  0  0  0  0  0  0  0  0  0  0  0
    9.6035    0.9796   24.7677 H   0  0  0  0  0  0  0  0  0  0  0  0
    9.6171    1.9839   23.3175 H   0  0  0  0  0  0  0  0  0  0  0  0
    7.0325    0.4238   17.0175 H   0  0  0  0  0  0  0  0  0  0  0  0
    8.1151   -1.8109   21.3513 H   0  0  0  0  0  0  0  0  0  0  0  0
  1  3  1  0  0  0  0
  1  4  2  0  0  0  0
  2  5  1  0  0  0  0
  2  6  2  0  0  0  0
  3  7  2  0  0  0  0
  4  8  1  0  0  0  0
  5  9  2  0  0  0  0
  6 15  1  0  0  0  0
  7 16  1  0  0  0  0
  8 16  2  0  0  0  0
  9 17  1  0  0  0  0
 10 12  2  0  0  0  0
 10 18  1  0  0  0  0
 11 13  1  0  0  0  0
 11 18  2  0  0  0  0
 12 20  1  0  0  0  0
 13 20  2  0  0  0  0
 14 19  2  0  0  0  0
 14 24  1  0  0  0  0
 15 17  2  0  0  0  0
 15 19  1  0  0  0  0
 16 23  1  0  0  0  0
 17 24  1  0  0  0  0
 18 26  1  0  0  0  0
 19 25  1  0  0  0  0
 20 28  1  0  0  0  0
 21 25  1  0  0  0  0
 21 26  1  0  0  0  0
 21 27  2  0  0  0  0
 22 28  1  0  0  0  0
 23 26  1  0  0  0  0
  1 29  1  0  0  0  0
  2 30  1  0  0  0  0
  3 31  1  0  0  0  0
  4 32  1  0  0  0  0
  5 33  1  0  0  0  0
  6 34  1  0  0  0  0
  7 35  1  0  0  0  0
  8 36  1  0  0  0  0
  9 37  1  0  0  0  0
 10 38  1  0  0  0  0
 11 39  1  0  0  0  0
 12 40  1  0  0  0  0
 13 41  1  0  0  0  0
 14 42  1  0  0  0  0
 22 43  1  0  0  0  0
 22 44  1  0  0  0  0
 22 45  1  0  0  0  0
 23 46  1  0  0  0  0
 23 47  1  0  0  0  0
 24 48  1  0  0  0  0
 25 49  1  0  0  0  0
M  END
> <clash_score>
0

> <docking_score>
-8.067289352416992

> <overlap_score>
0.9886991381645203

$$$$
BENZO_131_1
  -OEChem-08232013483D

 49 52  0     0  0  0  0  0  0999 V2000
    4.2970    1.6690   20.8430 C   0  0  0  0  0  0  0  0  0  0  0  0
    4.0980    2.1130   19.5350 C   0  0  0  0  0  0  0  0  0  0  0  0
    5.3360    0.8000   21.1530 C   0  0  0  0  0  0  0  0  0  0  0  0
    4.9400    1.7060   18.5060 C   0  0  0  0  0  0  0  0  0  0  0  0
    8.3510   -1.5420   24.6110 C   0  0  0  0  0  0  0  0  0  0  0  0
   10.2760   -2.3270   23.4020 C   0  0  0  0  0  0  0  0  0  0  0  0
    8.3310   -2.7170   25.3430 C   0  0  0  0  0  0  0  0  0  0  0  0
   10.2570   -3.5000   24.1350 C   0  0  0  0  0  0  0  0  0  0  0  0
   12.3633    1.7563   24.6092 C   0  0  0  0  0  0  0  0  0  0  0  0
   12.3390    0.3194   22.9450 C   0  0  0  0  0  0  0  0  0  0  0  0
    7.6830   -0.5170   18.7600 C   0  0  0  0  0  0  0  0  0  0  0  0
    6.1600    0.3870   20.1140 C   0  0  0  0  0  0  0  0  0  0  0  0
   11.4996    1.0386   23.7602 C   0  0  0  0  0  0  0  0  0  0  0  0
    5.9810    0.8330   18.8060 C   0  0  0  0  0  0  0  0  0  0  0  0
    9.3300   -1.3350   23.6390 C   0  0  0  0  0  0  0  0  0  0  0  0
    7.2210   -0.4620   20.0350 C   0  0  0  0  0  0  0  0  0  0  0  0
    9.2850   -3.7090   25.1090 C   0  0  0  0  0  0  0  0  0  0  0  0
    8.9510    0.1280   21.6880 C   0  0  0  0  0  0  0  0  0  0  0  0
   14.8317    0.1275   22.7756 C   0  0  0  0  0  0  0  0  0  0  0  0
    8.2346   -4.9976   26.8023 C   0  0  0  0  0  0  0  0  0  0  0  0
    9.9983    1.0521   23.7484 C   0  0  0  0  0  0  0  0  0  0  0  0
   13.6525    1.5149   24.3568 N   0  0  0  0  0  0  0  0  0  0  0  0
    6.9440    0.2550   18.0100 N   0  0  0  0  0  0  0  0  0  0  0  0
   13.6051    0.6374   23.3401 N   0  0  0  0  0  0  0  0  0  0  0  0
    8.0810   -0.9750   21.0820 N   0  0  0  0  0  0  0  0  0  0  0  0
    9.4200   -0.0840   22.9530 N   0  0  0  0  0  0  0  0  0  0  0  0
    9.1870    1.1500   21.0630 O   0  0  0  0  0  0  0  0  0  0  0  0
    9.2631   -4.8614   25.8229 O   0  0  0  0  0  0  0  0  0  0  0  0
    3.6256    2.0106   21.6303 H   0  0  0  0  0  0  0  0  0  0  0  0
    3.2724    2.7868   19.3204 H   0  0  0  0  0  0  0  0  0  0  0  0
    5.4858    0.4664   22.1692 H   0  0  0  0  0  0  0  0  0  0  0  0
    4.7836    2.0664   17.4848 H   0  0  0  0  0  0  0  0  0  0  0  0
    7.5951   -0.7786   24.8000 H   0  0  0  0  0  0  0  0  0  0  0  0
   11.0406   -2.1866   22.6351 H   0  0  0  0  0  0  0  0  0  0  0  0
    7.5664   -2.8674   26.1055 H   0  0  0  0  0  0  0  0  0  0  0  0
   11.0119   -4.2671   23.9461 H   0  0  0  0  0  0  0  0  0  0  0  0
   12.1093    2.4450   25.4026 H   0  0  0  0  0  0  0  0  0  0  0  0
   12.1480   -0.3754   22.1383 H   0  0  0  0  0  0  0  0  0  0  0  0
    8.5274   -1.0858   18.3384 H   0  0  0  0  0  0  0  0  0  0  0  0
   15.1327    0.7953   21.9641 H   0  0  0  0  0  0  0  0  0  0  0  0
   15.6030    0.0951   23.5501 H   0  0  0  0  0  0  0  0  0  0  0  0
   14.6619   -0.8841   22.3966 H   0  0  0  0  0  0  0  0  0  0  0  0
    8.3309   -5.9652   27.3008 H   0  0  0  0  0  0  0  0  0  0  0  0
    7.2574   -4.9205   26.3189 H   0  0  0  0  0  0  0  0  0  0  0  0
    8.3381   -4.1984   27.5400 H   0  0  0  0  0  0  0  0  0  0  0  0
    9.6035    0.9796   24.7677 H   0  0  0  0  0  0  0  0  0  0  0  0
    9.6171    1.9839   23.3175 H   0  0  0  0  0  0  0  0  0  0  0  0
    7.0325    0.4238   17.0175 H   0  0  0  0  0  0  0  0  0  0  0  0
    8.1151   -1.8109   21.3513 H   0  0  0  0  0  0  0  0  0  0  0  0
  1  2  1  0  0  0  0
  1  3  2  0  0  0  0
  2  4  2  0  0  0  0
  3 12  1  0  0  0  0
  4 14  1  0  0  0  0
  5  7  2  0  0  0  0
  5 15  1  0  0  0  0
  6  8  1  0  0  0  0
  6 15  2  0  0  0  0
  7 17  1  0  0  0  0
  8 17  2  0  0  0  0
  9 13  1  0  0  0  0
  9 22  2  0  0  0  0
 10 13  2  0  0  0  0
 10 24  1  0  0  0  0
 11 16  2  0  0  0  0
 11 23  1  0  0  0  0
 12 14  2  0  0  0  0
 12 16  1  0  0  0  0
 13 21  1  0  0  0  0
 14 23  1  0  0  0  0
 15 26  1  0  0  0  0
 16 25  1  0  0  0  0
 17 28  1  0  0  0  0
 18 25  1  0  0  0  0
 18 26  1  0  0  0  0
 18 27  2  0  0  0  0
 19 24  1  0  0  0  0
 20 28  1  0  0  0  0
 21 26  1  0  0  0  0
 22 24  1  0  0  0  0
  1 29  1  0  0  0  0
  2 30  1  0  0  0  0
  3 31  1  0  0  0  0
  4 32  1  0  0  0  0
  5 33  1  0  0  0  0
  6 34  1  0  0  0  0
  7 35  1  0  0  0  0
  8 36  1  0  0  0  0
  9 37  1  0  0  0  0
 10 38  1  0  0  0  0
 11 39  1  0  0  0  0
 19 40  1  0  0  0  0
 19 41  1  0  0  0  0
 19 42  1  0  0  0  0
 20 43  1  0  0  0  0
 20 44  1  0  0  0  0
 20 45  1  0  0  0  0
 21 46  1  0  0  0  0
 21 47  1  0  0  0  0
 23 48  1  0  0  0  0
 25 49  1  0  0  0  0
M  END
> <clash_score>
0

> <docking_score>
-7.926969051361084

> <overlap_score>
0.9746180772781372

$$$$
BENZO_130_1
  -OEChem-08232013483D

 49 52  0     0  0  0  0  0  0999 V2000
    4.2970    1.6690   20.8430 C   0  0  0  0  0  0  0  0  0  0  0  0
    4.0980    2.1130   19.5350 C   0  0  0  0  0  0  0  0  0  0  0  0
   13.6056    1.9364   22.9885 C   0  0  0  0  0  0  0  0  0  0  0  0
    5.3360    0.8000   21.1530 C   0  0  0  0  0  0  0  0  0  0  0  0
   12.2108    1.9477   22.9771 C   0  0  0  0  0  0  0  0  0  0  0  0
    4.9400    1.7060   18.5060 C   0  0  0  0  0  0  0  0  0  0  0  0
    8.3510   -1.5420   24.6110 C   0  0  0  0  0  0  0  0  0  0  0  0
   10.2760   -2.3270   23.4020 C   0  0  0  0  0  0  0  0  0  0  0  0
    8.3310   -2.7170   25.3430 C   0  0  0  0  0  0  0  0  0  0  0  0
   10.2570   -3.5000   24.1350 C   0  0  0  0  0  0  0  0  0  0  0  0
   14.2892    1.0159   23.7830 C   0  0  0  0  0  0  0  0  0  0  0  0
   12.1832    0.1181   24.5548 C   0  0  0  0  0  0  0  0  0  0  0  0
    7.6830   -0.5170   18.7600 C   0  0  0  0  0  0  0  0  0  0  0  0
    6.1600    0.3870   20.1140 C   0  0  0  0  0  0  0  0  0  0  0  0
   11.4996    1.0386   23.7602 C   0  0  0  0  0  0  0  0  0  0  0  0
    5.9810    0.8330   18.8060 C   0  0  0  0  0  0  0  0  0  0  0  0
    9.3300   -1.3350   23.6390 C   0  0  0  0  0  0  0  0  0  0  0  0
    7.2210   -0.4620   20.0350 C   0  0  0  0  0  0  0  0  0  0  0  0
    9.2850   -3.7090   25.1090 C   0  0  0  0  0  0  0  0  0  0  0  0
   13.5779    0.1068   24.5661 C   0  0  0  0  0  0  0  0  0  0  0  0
    8.9510    0.1280   21.6880 C   0  0  0  0  0  0  0  0  0  0  0  0
    8.2346   -4.9976   26.8023 C   0  0  0  0  0  0  0  0  0  0  0  0
    9.9983    1.0521   23.7484 C   0  0  0  0  0  0  0  0  0  0  0  0
    6.9440    0.2550   18.0100 N   0  0  0  0  0  0  0  0  0  0  0  0
    8.0810   -0.9750   21.0820 N   0  0  0  0  0  0  0  0  0  0  0  0
    9.4200   -0.0840   22.9530 N   0  0  0  0  0  0  0  0  0  0  0  0
    9.1870    1.1500   21.0630 O   0  0  0  0  0  0  0  0  0  0  0  0
    9.2631   -4.8614   25.8229 O   0  0  0  0  0  0  0  0  0  0  0  0
   14.4218   -1.0279   25.5470 Cl  0  0  0  0  0  0  0  0  0  0  0  0
    3.6256    2.0106   21.6303 H   0  0  0  0  0  0  0  0  0  0  0  0
    3.2724    2.7868   19.3204 H   0  0  0  0  0  0  0  0  0  0  0  0
   14.1590    2.6446   22.3786 H   0  0  0  0  0  0  0  0  0  0  0  0
    5.4858    0.4664   22.1692 H   0  0  0  0  0  0  0  0  0  0  0  0
   11.6865    2.6685   22.3551 H   0  0  0  0  0  0  0  0  0  0  0  0
    4.7836    2.0664   17.4848 H   0  0  0  0  0  0  0  0  0  0  0  0
    7.5951   -0.7786   24.8000 H   0  0  0  0  0  0  0  0  0  0  0  0
   11.0406   -2.1866   22.6351 H   0  0  0  0  0  0  0  0  0  0  0  0
    7.5664   -2.8674   26.1055 H   0  0  0  0  0  0  0  0  0  0  0  0
   11.0119   -4.2671   23.9461 H   0  0  0  0  0  0  0  0  0  0  0  0
   15.3764    1.0188   23.7822 H   0  0  0  0  0  0  0  0  0  0  0  0
   11.6240   -0.5890   25.1632 H   0  0  0  0  0  0  0  0  0  0  0  0
    8.5274   -1.0858   18.3384 H   0  0  0  0  0  0  0  0  0  0  0  0
    8.3309   -5.9652   27.3008 H   0  0  0  0  0  0  0  0  0  0  0  0
    7.2574   -4.9205   26.3189 H   0  0  0  0  0  0  0  0  0  0  0  0
    8.3381   -4.1984   27.5400 H   0  0  0  0  0  0  0  0  0  0  0  0
    9.6035    0.9796   24.7677 H   0  0  0  0  0  0  0  0  0  0  0  0
    9.6171    1.9839   23.3175 H   0  0  0  0  0  0  0  0  0  0  0  0
    7.0325    0.4238   17.0175 H   0  0  0  0  0  0  0  0  0  0  0  0
    8.1151   -1.8109   21.3513 H   0  0  0  0  0  0  0  0  0  0  0  0
  1  2  1  0  0  0  0
  1  4  2  0  0  0  0
  2  6  2  0  0  0  0
  3  5  2  0  0  0  0
  3 11  1  0  0  0  0
  4 14  1  0  0  0  0
  5 15  1  0  0  0  0
  6 16  1  0  0  0  0
  7  9  2  0  0  0  0
  7 17  1  0  0  0  0
  8 10  1  0  0  0  0
  8 17  2  0  0  0  0
  9 19  1  0  0  0  0
 10 19  2  0  0  0  0
 11 20  2  0  0  0  0
 12 15  2  0  0  0  0
 12 20  1  0  0  0  0
 13 18  2  0  0  0  0
 13 24  1  0  0  0  0
 14 16  2  0  0  0  0
 14 18  1  0  0  0  0
 15 23  1  0  0  0  0
 16 24  1  0  0  0  0
 17 26  1  0  0  0  0
 18 25  1  0  0  0  0
 19 28  1  0  0  0  0
 20 29  1  0  0  0  0
 21 25  1  0  0  0  0
 21 26  1  0  0  0  0
 21 27  2  0  0  0  0
 22 28  1  0  0  0  0
 23 26  1  0  0  0  0
  1 30  1  0  0  0  0
  2 31  1  0  0  0  0
  3 32  1  0  0  0  0
  4 33  1  0  0  0  0
  5 34  1  0  0  0  0
  6 35  1  0  0  0  0
  7 36  1  0  0  0  0
  8 37  1  0  0  0  0
  9 38  1  0  0  0  0
 10 39  1  0  0  0  0
 11 40  1  0  0  0  0
 12 41  1  0  0  0  0
 13 42  1  0  0  0  0
 22 43  1  0  0  0  0
 22 44  1  0  0  0  0
 22 45  1  0  0  0  0
 23 46  1  0  0  0  0
 23 47  1  0  0  0  0
 24 48  1  0  0  0  0
 25 49  1  0  0  0  0
M  END
> <clash_score>
0.7397431773063575

> <docking_score>
-6.94364595413208

> <overlap_score>
0.9905891418457031

$$$$
BENZO_133_1
  -OEChem-08232013483D

 59 63  0     0  0  0  0  0  0999 V2000
   14.2876    0.9747   23.7797 C   0  0  0  0  0  0  0  0  0  0  0  0
    4.2970    1.6690   20.8430 C   0  0  0  0  0  0  0  0  0  0  0  0
   13.5635    0.3279   24.7811 C   0  0  0  0  0  0  0  0  0  0  0  0
   13.6173    1.6544   22.7626 C   0  0  0  0  0  0  0  0  0  0  0  0
    4.0980    2.1130   19.5350 C   0  0  0  0  0  0  0  0  0  0  0  0
    5.3360    0.8000   21.1530 C   0  0  0  0  0  0  0  0  0  0  0  0
   12.1691    0.3605   24.7654 C   0  0  0  0  0  0  0  0  0  0  0  0
   12.2229    1.6870   22.7468 C   0  0  0  0  0  0  0  0  0  0  0  0
    4.9400    1.7060   18.5060 C   0  0  0  0  0  0  0  0  0  0  0  0
    8.3310   -2.7170   25.3430 C   0  0  0  0  0  0  0  0  0  0  0  0
   10.2570   -3.5000   24.1350 C   0  0  0  0  0  0  0  0  0  0  0  0
    8.3510   -1.5420   24.6110 C   0  0  0  0  0  0  0  0  0  0  0  0
   10.2760   -2.3270   23.4020 C   0  0  0  0  0  0  0  0  0  0  0  0
    7.6830   -0.5170   18.7600 C   0  0  0  0  0  0  0  0  0  0  0  0
    6.1600    0.3870   20.1140 C   0  0  0  0  0  0  0  0  0  0  0  0
   11.4988    1.0401   23.7482 C   0  0  0  0  0  0  0  0  0  0  0  0
    5.9810    0.8330   18.8060 C   0  0  0  0  0  0  0  0  0  0  0  0
    9.2850   -3.7090   25.1090 C   0  0  0  0  0  0  0  0  0  0  0  0
    9.3300   -1.3350   23.6390 C   0  0  0  0  0  0  0  0  0  0  0  0
    7.2210   -0.4620   20.0350 C   0  0  0  0  0  0  0  0  0  0  0  0
    8.0635   -5.4710   26.3667 C   0  0  0  0  0  0  0  0  0  0  0  0
    8.9510    0.1280   21.6880 C   0  0  0  0  0  0  0  0  0  0  0  0
    8.2626   -6.7580   27.1475 C   0  0  0  0  0  0  0  0  0  0  0  0
    9.4048   -6.6156   28.1380 C   0  0  0  0  0  0  0  0  0  0  0  0
   10.6949   -6.1500   27.4702 C   0  0  0  0  0  0  0  0  0  0  0  0
   10.4942   -5.7069   26.0219 C   0  0  0  0  0  0  0  0  0  0  0  0
    9.9979    1.0755   23.7305 C   0  0  0  0  0  0  0  0  0  0  0  0
    6.9440    0.2550   18.0100 N   0  0  0  0  0  0  0  0  0  0  0  0
    9.2623   -4.9266   25.8635 N   0  0  0  0  0  0  0  0  0  0  0  0
    8.0810   -0.9750   21.0820 N   0  0  0  0  0  0  0  0  0  0  0  0
    9.4200   -0.0840   22.9530 N   0  0  0  0  0  0  0  0  0  0  0  0
    6.9244   -5.0476   26.1739 O   0  0  0  0  0  0  0  0  0  0  0  0
    9.1870    1.1500   21.0630 O   0  0  0  0  0  0  0  0  0  0  0  0
   15.3733    0.9503   23.7929 H   0  0  0  0  0  0  0  0  0  0  0  0
    3.6256    2.0106   21.6303 H   0  0  0  0  0  0  0  0  0  0  0  0
   14.0852   -0.2004   25.5738 H   0  0  0  0  0  0  0  0  0  0  0  0
   14.1808    2.1590   21.9834 H   0  0  0  0  0  0  0  0  0  0  0  0
    3.2724    2.7868   19.3204 H   0  0  0  0  0  0  0  0  0  0  0  0
    5.4858    0.4664   22.1692 H   0  0  0  0  0  0  0  0  0  0  0  0
   11.6131   -0.1465   25.5497 H   0  0  0  0  0  0  0  0  0  0  0  0
   11.7092    2.2189   21.9503 H   0  0  0  0  0  0  0  0  0  0  0  0
    4.7836    2.0664   17.4848 H   0  0  0  0  0  0  0  0  0  0  0  0
    7.5639   -2.8621   26.1045 H   0  0  0  0  0  0  0  0  0  0  0  0
   11.0141   -4.2644   23.9422 H   0  0  0  0  0  0  0  0  0  0  0  0
    7.5950   -0.7788   24.8007 H   0  0  0  0  0  0  0  0  0  0  0  0
   11.0408   -2.1861   22.6359 H   0  0  0  0  0  0  0  0  0  0  0  0
    8.5274   -1.0858   18.3384 H   0  0  0  0  0  0  0  0  0  0  0  0
    7.3516   -6.9810   27.6812 H   0  0  0  0  0  0  0  0  0  0  0  0
    8.4757   -7.5428   26.4371 H   0  0  0  0  0  0  0  0  0  0  0  0
    9.1234   -5.9016   28.9400 H   0  0  0  0  0  0  0  0  0  0  0  0
    9.5778   -7.5840   28.6491 H   0  0  0  0  0  0  0  0  0  0  0  0
   11.1305   -5.3108   28.0523 H   0  0  0  0  0  0  0  0  0  0  0  0
   11.4565   -6.9587   27.5131 H   0  0  0  0  0  0  0  0  0  0  0  0
   11.3212   -5.0729   25.7168 H   0  0  0  0  0  0  0  0  0  0  0  0
   10.4483   -6.5796   25.3796 H   0  0  0  0  0  0  0  0  0  0  0  0
    9.5979    1.0021   24.7477 H   0  0  0  0  0  0  0  0  0  0  0  0
    9.6320    2.0154   23.3042 H   0  0  0  0  0  0  0  0  0  0  0  0
    7.0325    0.4238   17.0175 H   0  0  0  0  0  0  0  0  0  0  0  0
    8.1334   -1.7992   21.3673 H   0  0  0  0  0  0  0  0  0  0  0  0
  1  3  1  0  0  0  0
  1  4  2  0  0  0  0
  2  5  1  0  0  0  0
  2  6  2  0  0  0  0
  3  7  2  0  0  0  0
  4  8  1  0  0  0  0
  5  9  2  0  0  0  0
  6 15  1  0  0  0  0
  7 16  1  0  0  0  0
  8 16  2  0  0  0  0
  9 17  1  0  0  0  0
 10 12  2  0  0  0  0
 10 18  1  0  0  0  0
 11 13  1  0  0  0  0
 11 18  2  0  0  0  0
 12 19  1  0  0  0  0
 13 19  2  0  0  0  0
 14 20  2  0  0  0  0
 14 28  1  0  0  0  0
 15 17  2  0  0  0  0
 15 20  1  0  0  0  0
 16 27  1  0  0  0  0
 17 28  1  0  0  0  0
 18 29  1  0  0  0  0
 19 31  1  0  0  0  0
 20 30  1  0  0  0  0
 21 23  1  0  0  0  0
 21 29  1  0  0  0  0
 21 32  2  0  0  0  0
 22 30  1  0  0  0  0
 22 31  1  0  0  0  0
 22 33  2  0  0  0  0
 23 24  1  0  0  0  0
 24 25  1  0  0  0  0
 25 26  1  0  0  0  0
 26 29  1  0  0  0  0
 27 31  1  0  0  0  0
  1 34  1  0  0  0  0
  2 35  1  0  0  0  0
  3 36  1  0  0  0  0
  4 37  1  0  0  0  0
  5 38  1  0  0  0  0
  6 39  1  0  0  0  0
  7 40  1  0  0  0  0
  8 41  1  0  0  0  0
  9 42  1  0  0  0  0
 10 43  1  0  0  0  0
 11 44  1  0  0  0  0
 12 45  1  0  0  0  0
 13 46  1  0  0  0  0
 14 47  1  0  0  0  0
 23 48  1  0  0  0  0
 23 49  1  0  0  0  0
 24 50  1  0  0  0  0
 24 51  1  0  0  0  0
 25 52  1  0  0  0  0
 25 53  1  0  0  0  0
 26 54  1  0  0  0  0
 26 55  1  0  0  0  0
 27 56  1  0  0  0  0
 27 57  1  0  0  0  0
 28 58  1  0  0  0  0
 30 59  1  0  0  0  0
M  END
> <clash_score>
1.272782601224562

> <docking_score>
-6.556268692016602

> <overlap_score>
1.0088165998458862

$$$$
BENZO_132_1
  -OEChem-08232013483D

 56 60  0     0  0  0  0  0  0999 V2000
    4.2970    1.6690   20.8430 C   0  0  0  0  0  0  0  0  0  0  0  0
    4.0980    2.1130   19.5350 C   0  0  0  0  0  0  0  0  0  0  0  0
    5.3360    0.8000   21.1530 C   0  0  0  0  0  0  0  0  0  0  0  0
    4.9400    1.7060   18.5060 C   0  0  0  0  0  0  0  0  0  0  0  0
    8.3310   -2.7170   25.3430 C   0  0  0  0  0  0  0  0  0  0  0  0
   10.2570   -3.5000   24.1350 C   0  0  0  0  0  0  0  0  0  0  0  0
    8.3510   -1.5420   24.6110 C   0  0  0  0  0  0  0  0  0  0  0  0
   10.2760   -2.3270   23.4020 C   0  0  0  0  0  0  0  0  0  0  0  0
   12.3092    1.1165   22.5788 C   0  0  0  0  0  0  0  0  0  0  0  0
    7.6830   -0.5170   18.7600 C   0  0  0  0  0  0  0  0  0  0  0  0
   13.6531    1.0614   22.8761 C   0  0  0  0  0  0  0  0  0  0  0  0
   12.2543    0.9292   24.8949 C   0  0  0  0  0  0  0  0  0  0  0  0
    6.1600    0.3870   20.1140 C   0  0  0  0  0  0  0  0  0  0  0  0
   11.4988    1.0401   23.7482 C   0  0  0  0  0  0  0  0  0  0  0  0
    5.9810    0.8330   18.8060 C   0  0  0  0  0  0  0  0  0  0  0  0
    9.2850   -3.7090   25.1090 C   0  0  0  0  0  0  0  0  0  0  0  0
    9.3300   -1.3350   23.6390 C   0  0  0  0  0  0  0  0  0  0  0  0
    7.2210   -0.4620   20.0350 C   0  0  0  0  0  0  0  0  0  0  0  0
    8.0635   -5.4710   26.3667 C   0  0  0  0  0  0  0  0  0  0  0  0
    8.9510    0.1280   21.6880 C   0  0  0  0  0  0  0  0  0  0  0  0
    8.2626   -6.7580   27.1475 C   0  0  0  0  0  0  0  0  0  0  0  0
    9.4048   -6.6156   28.1380 C   0  0  0  0  0  0  0  0  0  0  0  0
   10.6949   -6.1500   27.4702 C   0  0  0  0  0  0  0  0  0  0  0  0
   10.4942   -5.7069   26.0219 C   0  0  0  0  0  0  0  0  0  0  0  0
    9.9979    1.0755   23.7305 C   0  0  0  0  0  0  0  0  0  0  0  0
    6.9440    0.2550   18.0100 N   0  0  0  0  0  0  0  0  0  0  0  0
    9.2623   -4.9266   25.8635 N   0  0  0  0  0  0  0  0  0  0  0  0
    8.0810   -0.9750   21.0820 N   0  0  0  0  0  0  0  0  0  0  0  0
    9.4200   -0.0840   22.9530 N   0  0  0  0  0  0  0  0  0  0  0  0
    6.9244   -5.0476   26.1739 O   0  0  0  0  0  0  0  0  0  0  0  0
    9.1870    1.1500   21.0630 O   0  0  0  0  0  0  0  0  0  0  0  0
   13.9334    0.9179   24.5593 S   0  0  0  0  0  0  0  0  0  0  0  0
    3.6256    2.0106   21.6303 H   0  0  0  0  0  0  0  0  0  0  0  0
    3.2724    2.7868   19.3204 H   0  0  0  0  0  0  0  0  0  0  0  0
    5.4858    0.4664   22.1692 H   0  0  0  0  0  0  0  0  0  0  0  0
    4.7836    2.0664   17.4848 H   0  0  0  0  0  0  0  0  0  0  0  0
    7.5639   -2.8621   26.1045 H   0  0  0  0  0  0  0  0  0  0  0  0
   11.0141   -4.2644   23.9422 H   0  0  0  0  0  0  0  0  0  0  0  0
    7.5950   -0.7788   24.8007 H   0  0  0  0  0  0  0  0  0  0  0  0
   11.0408   -2.1861   22.6359 H   0  0  0  0  0  0  0  0  0  0  0  0
   11.9298    1.2070   21.5688 H   0  0  0  0  0  0  0  0  0  0  0  0
    8.5274   -1.0858   18.3384 H   0  0  0  0  0  0  0  0  0  0  0  0
   14.4837    1.0977   22.1855 H   0  0  0  0  0  0  0  0  0  0  0  0
   11.9046    0.8529   25.9152 H   0  0  0  0  0  0  0  0  0  0  0  0
    7.3516   -6.9810   27.6812 H   0  0  0  0  0  0  0  0  0  0  0  0
    8.4757   -7.5428   26.4371 H   0  0  0  0  0  0  0  0  0  0  0  0
    9.1234   -5.9016   28.9400 H   0  0  0  0  0  0  0  0  0  0  0  0
    9.5778   -7.5840   28.6491 H   0  0  0  0  0  0  0  0  0  0  0  0
   11.1305   -5.3108   28.0523 H   0  0  0  0  0  0  0  0  0  0  0  0
   11.4565   -6.9587   27.5131 H   0  0  0  0  0  0  0  0  0  0  0  0
   11.3212   -5.0729   25.7168 H   0  0  0  0  0  0  0  0  0  0  0  0
   10.4483   -6.5796   25.3796 H   0  0  0  0  0  0  0  0  0  0  0  0
    9.5979    1.0021   24.7477 H   0  0  0  0  0  0  0  0  0  0  0  0
    9.6320    2.0154   23.3042 H   0  0  0  0  0  0  0  0  0  0  0  0
    7.0325    0.4238   17.0175 H   0  0  0  0  0  0  0  0  0  0  0  0
    8.1334   -1.7992   21.3673 H   0  0  0  0  0  0  0  0  0  0  0  0
  1  2  1  0  0  0  0
  1  3  2  0  0  0  0
  2  4  2  0  0  0  0
  3 13  1  0  0  0  0
  4 15  1  0  0  0  0
  5  7  2  0  0  0  0
  5 16  1  0  0  0  0
  6  8  1  0  0  0  0
  6 16  2  0  0  0  0
  7 17  1  0  0  0  0
  8 17  2  0  0  0  0
  9 11  2  0  0  0  0
  9 14  1  0  0  0  0
 10 18  2  0  0  0  0
 10 26  1  0  0  0  0
 11 32  1  0  0  0  0
 12 14  2  0  0  0  0
 12 32  1  0  0  0  0
 13 15  2  0  0  0  0
 13 18  1  0  0  0  0
 14 25  1  0  0  0  0
 15 26  1  0  0  0  0
 16 27  1  0  0  0  0
 17 29  1  0  0  0  0
 18 28  1  0  0  0  0
 19 21  1  0  0  0  0
 19 27  1  0  0  0  0
 19 30  2  0  0  0  0
 20 28  1  0  0  0  0
 20 29  1  0  0  0  0
 20 31  2  0  0  0  0
 21 22  1  0  0  0  0
 22 23  1  0  0  0  0
 23 24  1  0  0  0  0
 24 27  1  0  0  0  0
 25 29  1  0  0  0  0
  1 33  1  0  0  0  0
  2 34  1  0  0  0  0
  3 35  1  0  0  0  0
  4 36  1  0  0  0  0
  5 37  1  0  0  0  0
  6 38  1  0  0  0  0
  7 39  1  0  0  0  0
  8 40  1  0  0  0  0
  9 41  1  0  0  0  0
 10 42  1  0  0  0  0
 11 43  1  0  0  0  0
 12 44  1  0  0  0  0
 21 45  1  0  0  0  0
 21 46  1  0  0  0  0
 22 47  1  0  0  0  0
 22 48  1  0  0  0  0
 23 49  1  0  0  0  0
 23 50  1  0  0  0  0
 24 51  1  0  0  0  0
 24 52  1  0  0  0  0
 25 53  1  0  0  0  0
 25 54  1  0  0  0  0
 26 55  1  0  0  0  0
 28 56  1  0  0  0  0
M  END
> <clash_score>
1.272782601224562

> <docking_score>
-6.956849575042725

> <overlap_score>
0.9869235754013062

$$$$
BENZO_137_1
  -OEChem-08232013483D

 58 62  0     0  0  0  0  0  0999 V2000
   14.2892    1.0137   23.7809 C   0  0  0  0  0  0  0  0  0  0  0  0
    4.2970    1.6690   20.8430 C   0  0  0  0  0  0  0  0  0  0  0  0
   13.5784    0.3319   24.7685 C   0  0  0  0  0  0  0  0  0  0  0  0
   13.6052    1.7080   22.7829 C   0  0  0  0  0  0  0  0  0  0  0  0
    4.0980    2.1130   19.5350 C   0  0  0  0  0  0  0  0  0  0  0  0
    5.3360    0.8000   21.1530 C   0  0  0  0  0  0  0  0  0  0  0  0
   12.1836    0.3443   24.7582 C   0  0  0  0  0  0  0  0  0  0  0  0
   12.2105    1.7204   22.7726 C   0  0  0  0  0  0  0  0  0  0  0  0
    4.9400    1.7060   18.5060 C   0  0  0  0  0  0  0  0  0  0  0  0
    8.3310   -2.7170   25.3430 C   0  0  0  0  0  0  0  0  0  0  0  0
   10.2570   -3.5000   24.1350 C   0  0  0  0  0  0  0  0  0  0  0  0
    8.3510   -1.5420   24.6110 C   0  0  0  0  0  0  0  0  0  0  0  0
   10.2760   -2.3270   23.4020 C   0  0  0  0  0  0  0  0  0  0  0  0
    7.6830   -0.5170   18.7600 C   0  0  0  0  0  0  0  0  0  0  0  0
    6.1600    0.3870   20.1140 C   0  0  0  0  0  0  0  0  0  0  0  0
   11.4996    1.0386   23.7602 C   0  0  0  0  0  0  0  0  0  0  0  0
    5.9810    0.8330   18.8060 C   0  0  0  0  0  0  0  0  0  0  0  0
    9.2850   -3.7090   25.1090 C   0  0  0  0  0  0  0  0  0  0  0  0
    9.3300   -1.3350   23.6390 C   0  0  0  0  0  0  0  0  0  0  0  0
    7.2210   -0.4620   20.0350 C   0  0  0  0  0  0  0  0  0  0  0  0
    8.9510    0.1280   21.6880 C   0  0  0  0  0  0  0  0  0  0  0  0
    8.7664   -4.9511   27.2147 C   0  0  0  0  0  0  0  0  0  0  0  0
    9.3037   -6.1872   25.1662 C   0  0  0  0  0  0  0  0  0  0  0  0
    7.3825   -5.5915   27.2001 C   0  0  0  0  0  0  0  0  0  0  0  0
    7.9027   -6.7973   25.2278 C   0  0  0  0  0  0  0  0  0  0  0  0
    9.9983    1.0521   23.7484 C   0  0  0  0  0  0  0  0  0  0  0  0
    6.9440    0.2550   18.0100 N   0  0  0  0  0  0  0  0  0  0  0  0
    9.2640   -4.8844   25.8389 N   0  0  0  0  0  0  0  0  0  0  0  0
    8.0810   -0.9750   21.0820 N   0  0  0  0  0  0  0  0  0  0  0  0
    9.4200   -0.0840   22.9530 N   0  0  0  0  0  0  0  0  0  0  0  0
    9.1870    1.1500   21.0630 O   0  0  0  0  0  0  0  0  0  0  0  0
    7.4484   -6.8829   26.5831 O   0  0  0  0  0  0  0  0  0  0  0  0
   15.3752    1.0051   23.7898 H   0  0  0  0  0  0  0  0  0  0  0  0
    3.6256    2.0106   21.6303 H   0  0  0  0  0  0  0  0  0  0  0  0
   14.1107   -0.2079   25.5463 H   0  0  0  0  0  0  0  0  0  0  0  0
   14.1583    2.2399   22.0145 H   0  0  0  0  0  0  0  0  0  0  0  0
    3.2724    2.7868   19.3204 H   0  0  0  0  0  0  0  0  0  0  0  0
    5.4858    0.4664   22.1692 H   0  0  0  0  0  0  0  0  0  0  0  0
   11.6381   -0.1899   25.5316 H   0  0  0  0  0  0  0  0  0  0  0  0
   11.6861    2.2639   21.9911 H   0  0  0  0  0  0  0  0  0  0  0  0
    4.7836    2.0664   17.4848 H   0  0  0  0  0  0  0  0  0  0  0  0
    7.5647   -2.8621   26.1053 H   0  0  0  0  0  0  0  0  0  0  0  0
   11.0144   -4.2642   23.9425 H   0  0  0  0  0  0  0  0  0  0  0  0
    7.5958   -0.7779   24.8006 H   0  0  0  0  0  0  0  0  0  0  0  0
   11.0406   -2.1848   22.6356 H   0  0  0  0  0  0  0  0  0  0  0  0
    8.5274   -1.0858   18.3384 H   0  0  0  0  0  0  0  0  0  0  0  0
    8.7052   -3.9541   27.6627 H   0  0  0  0  0  0  0  0  0  0  0  0
    9.4487   -5.5619   27.8169 H   0  0  0  0  0  0  0  0  0  0  0  0
   10.0120   -6.8401   25.6836 H   0  0  0  0  0  0  0  0  0  0  0  0
    9.6139   -6.0860   24.1243 H   0  0  0  0  0  0  0  0  0  0  0  0
    7.0278   -5.7316   28.2234 H   0  0  0  0  0  0  0  0  0  0  0  0
    6.6540   -4.9673   26.6750 H   0  0  0  0  0  0  0  0  0  0  0  0
    7.1864   -6.2190   24.6326 H   0  0  0  0  0  0  0  0  0  0  0  0
    7.9250   -7.8129   24.8210 H   0  0  0  0  0  0  0  0  0  0  0  0
    9.6035    0.9796   24.7677 H   0  0  0  0  0  0  0  0  0  0  0  0
    9.6171    1.9839   23.3175 H   0  0  0  0  0  0  0  0  0  0  0  0
    7.0325    0.4238   17.0175 H   0  0  0  0  0  0  0  0  0  0  0  0
    8.1151   -1.8109   21.3513 H   0  0  0  0  0  0  0  0  0  0  0  0
  1  3  1  0  0  0  0
  1  4  2  0  0  0  0
  2  5  1  0  0  0  0
  2  6  2  0  0  0  0
  3  7  2  0  0  0  0
  4  8  1  0  0  0  0
  5  9  2  0  0  0  0
  6 15  1  0  0  0  0
  7 16  1  0  0  0  0
  8 16  2  0  0  0  0
  9 17  1  0  0  0  0
 10 12  2  0  0  0  0
 10 18  1  0  0  0  0
 11 13  1  0  0  0  0
 11 18  2  0  0  0  0
 12 19  1  0  0  0  0
 13 19  2  0  0  0  0
 14 20  2  0  0  0  0
 14 27  1  0  0  0  0
 15 17  2  0  0  0  0
 15 20  1  0  0  0  0
 16 26  1  0  0  0  0
 17 27  1  0  0  0  0
 18 28  1  0  0  0  0
 19 30  1  0  0  0  0
 20 29  1  0  0  0  0
 21 29  1  0  0  0  0
 21 30  1  0  0  0  0
 21 31  2  0  0  0  0
 22 24  1  0  0  0  0
 22 28  1  0  0  0  0
 23 25  1  0  0  0  0
 23 28  1  0  0  0  0
 24 32  1  0  0  0  0
 25 32  1  0  0  0  0
 26 30  1  0  0  0  0
  1 33  1  0  0  0  0
  2 34  1  0  0  0  0
  3 35  1  0  0  0  0
  4 36  1  0  0  0  0
  5 37  1  0  0  0  0
  6 38  1  0  0  0  0
  7 39  1  0  0  0  0
  8 40  1  0  0  0  0
  9 41  1  0  0  0  0
 10 42  1  0  0  0  0
 11 43  1  0  0  0  0
 12 44  1  0  0  0  0
 13 45  1  0  0  0  0
 14 46  1  0  0  0  0
 22 47  1  0  0  0  0
 22 48  1  0  0  0  0
 23 49  1  0  0  0  0
 23 50  1  0  0  0  0
 24 51  1  0  0  0  0
 24 52  1  0  0  0  0
 25 53  1  0  0  0  0
 25 54  1  0  0  0  0
 26 55  1  0  0  0  0
 26 56  1  0  0  0  0
 27 57  1  0  0  0  0
 29 58  1  0  0  0  0
M  END
> <clash_score>
0

> <docking_score>
-7.799122333526611

> <overlap_score>
1.009619951248169

$$$$
BENZO_134_1
  -OEChem-08232013483D

 59 63  0     0  0  0  0  0  0999 V2000
    4.2970    1.6690   20.8430 C   0  0  0  0  0  0  0  0  0  0  0  0
    4.0980    2.1130   19.5350 C   0  0  0  0  0  0  0  0  0  0  0  0
   13.6206    1.9123   22.9907 C   0  0  0  0  0  0  0  0  0  0  0  0
    5.3360    0.8000   21.1530 C   0  0  0  0  0  0  0  0  0  0  0  0
   12.2262    1.9439   22.9738 C   0  0  0  0  0  0  0  0  0  0  0  0
    4.9400    1.7060   18.5060 C   0  0  0  0  0  0  0  0  0  0  0  0
    8.3310   -2.7170   25.3430 C   0  0  0  0  0  0  0  0  0  0  0  0
   10.2570   -3.5000   24.1350 C   0  0  0  0  0  0  0  0  0  0  0  0
    8.3510   -1.5420   24.6110 C   0  0  0  0  0  0  0  0  0  0  0  0
   10.2760   -2.3270   23.4020 C   0  0  0  0  0  0  0  0  0  0  0  0
   14.2876    0.9769   23.7819 C   0  0  0  0  0  0  0  0  0  0  0  0
   12.1657    0.1048   24.5395 C   0  0  0  0  0  0  0  0  0  0  0  0
    7.6830   -0.5170   18.7600 C   0  0  0  0  0  0  0  0  0  0  0  0
    6.1600    0.3870   20.1140 C   0  0  0  0  0  0  0  0  0  0  0  0
   11.4988    1.0401   23.7482 C   0  0  0  0  0  0  0  0  0  0  0  0
    5.9810    0.8330   18.8060 C   0  0  0  0  0  0  0  0  0  0  0  0
    9.2850   -3.7090   25.1090 C   0  0  0  0  0  0  0  0  0  0  0  0
    9.3300   -1.3350   23.6390 C   0  0  0  0  0  0  0  0  0  0  0  0
    7.2210   -0.4620   20.0350 C   0  0  0  0  0  0  0  0  0  0  0  0
   13.5601    0.0732   24.5563 C   0  0  0  0  0  0  0  0  0  0  0  0
    8.2930   -5.1714   26.8572 C   0  0  0  0  0  0  0  0  0  0  0  0
    8.9510    0.1280   21.6880 C   0  0  0  0  0  0  0  0  0  0  0  0
    8.4551   -6.5156   27.5444 C   0  0  0  0  0  0  0  0  0  0  0  0
    9.9019   -6.7444   27.9450 C   0  0  0  0  0  0  0  0  0  0  0  0
   10.8596   -6.5882   26.7680 C   0  0  0  0  0  0  0  0  0  0  0  0
   10.1895   -6.0108   25.5223 C   0  0  0  0  0  0  0  0  0  0  0  0
    9.9979    1.0755   23.7305 C   0  0  0  0  0  0  0  0  0  0  0  0
    6.9440    0.2550   18.0100 N   0  0  0  0  0  0  0  0  0  0  0  0
    9.2623   -4.9266   25.8635 N   0  0  0  0  0  0  0  0  0  0  0  0
    8.0810   -0.9750   21.0820 N   0  0  0  0  0  0  0  0  0  0  0  0
    9.4200   -0.0840   22.9530 N   0  0  0  0  0  0  0  0  0  0  0  0
    7.3370   -4.4527   27.1463 O   0  0  0  0  0  0  0  0  0  0  0  0
    9.1870    1.1500   21.0630 O   0  0  0  0  0  0  0  0  0  0  0  0
   14.3836   -1.0798   25.5331 Cl  0  0  0  0  0  0  0  0  0  0  0  0
    3.6256    2.0106   21.6303 H   0  0  0  0  0  0  0  0  0  0  0  0
    3.2724    2.7868   19.3204 H   0  0  0  0  0  0  0  0  0  0  0  0
   14.1867    2.6163   22.3876 H   0  0  0  0  0  0  0  0  0  0  0  0
    5.4858    0.4664   22.1692 H   0  0  0  0  0  0  0  0  0  0  0  0
   11.7149    2.6762   22.3545 H   0  0  0  0  0  0  0  0  0  0  0  0
    4.7836    2.0664   17.4848 H   0  0  0  0  0  0  0  0  0  0  0  0
    7.5639   -2.8621   26.1045 H   0  0  0  0  0  0  0  0  0  0  0  0
   11.0141   -4.2644   23.9422 H   0  0  0  0  0  0  0  0  0  0  0  0
    7.5950   -0.7788   24.8007 H   0  0  0  0  0  0  0  0  0  0  0  0
   11.0408   -2.1861   22.6359 H   0  0  0  0  0  0  0  0  0  0  0  0
   15.3747    0.9641   23.7853 H   0  0  0  0  0  0  0  0  0  0  0  0
   11.5940   -0.5981   25.1411 H   0  0  0  0  0  0  0  0  0  0  0  0
    8.5274   -1.0858   18.3384 H   0  0  0  0  0  0  0  0  0  0  0  0
    7.8332   -6.5283   28.4263 H   0  0  0  0  0  0  0  0  0  0  0  0
    8.1305   -7.2787   26.8530 H   0  0  0  0  0  0  0  0  0  0  0  0
   10.1875   -6.0379   28.7521 H   0  0  0  0  0  0  0  0  0  0  0  0
   10.0116   -7.7568   28.3834 H   0  0  0  0  0  0  0  0  0  0  0  0
   11.7061   -5.9337   27.0644 H   0  0  0  0  0  0  0  0  0  0  0  0
   11.3230   -7.5689   26.5243 H   0  0  0  0  0  0  0  0  0  0  0  0
   10.9445   -5.5959   24.8614 H   0  0  0  0  0  0  0  0  0  0  0  0
    9.6461   -6.7954   25.0072 H   0  0  0  0  0  0  0  0  0  0  0  0
    9.5979    1.0021   24.7477 H   0  0  0  0  0  0  0  0  0  0  0  0
    9.6320    2.0154   23.3042 H   0  0  0  0  0  0  0  0  0  0  0  0
    7.0325    0.4238   17.0175 H   0  0  0  0  0  0  0  0  0  0  0  0
    8.1334   -1.7992   21.3673 H   0  0  0  0  0  0  0  0  0  0  0  0
  1  2  1  0  0  0  0
  1  4  2  0  0  0  0
  2  6  2  0  0  0  0
  3  5  2  0  0  0  0
  3 11  1  0  0  0  0
  4 14  1  0  0  0  0
  5 15  1  0  0  0  0
  6 16  1  0  0  0  0
  7  9  2  0  0  0  0
  7 17  1  0  0  0  0
  8 10  1  0  0  0  0
  8 17  2  0  0  0  0
  9 18  1  0  0  0  0
 10 18  2  0  0  0  0
 11 20  2  0  0  0  0
 12 15  2  0  0  0  0
 12 20  1  0  0  0  0
 13 19  2  0  0  0  0
 13 28  1  0  0  0  0
 14 16  2  0  0  0  0
 14 19  1  0  0  0  0
 15 27  1  0  0  0  0
 16 28  1  0  0  0  0
 17 29  1  0  0  0  0
 18 31  1  0  0  0  0
 19 30  1  0  0  0  0
 20 34  1  0  0  0  0
 21 23  1  0  0  0  0
 21 29  1  0  0  0  0
 21 32  2  0  0  0  0
 22 30  1  0  0  0  0
 22 31  1  0  0  0  0
 22 33  2  0  0  0  0
 23 24  1  0  0  0  0
 24 25  1  0  0  0  0
 25 26  1  0  0  0  0
 26 29  1  0  0  0  0
 27 31  1  0  0  0  0
  1 35  1  0  0  0  0
  2 36  1  0  0  0  0
  3 37  1  0  0  0  0
  4 38  1  0  0  0  0
  5 39  1  0  0  0  0
  6 40  1  0  0  0  0
  7 41  1  0  0  0  0
  8 42  1  0  0  0  0
  9 43  1  0  0  0  0
 10 44  1  0  0  0  0
 11 45  1  0  0  0  0
 12 46  1  0  0  0  0
 13 47  1  0  0  0  0
 23 48  1  0  0  0  0
 23 49  1  0  0  0  0
 24 50  1  0  0  0  0
 24 51  1  0  0  0  0
 25 52  1  0  0  0  0
 25 53  1  0  0  0  0
 26 54  1  0  0  0  0
 26 55  1  0  0  0  0
 27 56  1  0  0  0  0
 27 57  1  0  0  0  0
 28 58  1  0  0  0  0
 30 59  1  0  0  0  0
M  END
> <clash_score>
2.816420981810531

> <docking_score>
-5.458364486694336

> <overlap_score>
1.0119659900665283

$$$$
BENZO_135_1
  -OEChem-08232013483D

 59 63  0     0  0  0  0  0  0999 V2000
    4.2970    1.6690   20.8430 C   0  0  0  0  0  0  0  0  0  0  0  0
    4.0980    2.1130   19.5350 C   0  0  0  0  0  0  0  0  0  0  0  0
    5.3360    0.8000   21.1530 C   0  0  0  0  0  0  0  0  0  0  0  0
    4.9400    1.7060   18.5060 C   0  0  0  0  0  0  0  0  0  0  0  0
    8.3310   -2.7170   25.3430 C   0  0  0  0  0  0  0  0  0  0  0  0
   10.2570   -3.5000   24.1350 C   0  0  0  0  0  0  0  0  0  0  0  0
    8.3510   -1.5420   24.6110 C   0  0  0  0  0  0  0  0  0  0  0  0
   10.2760   -2.3270   23.4020 C   0  0  0  0  0  0  0  0  0  0  0  0
   12.3692    1.7398   24.6052 C   0  0  0  0  0  0  0  0  0  0  0  0
   12.3310    0.3141   22.9317 C   0  0  0  0  0  0  0  0  0  0  0  0
    7.6830   -0.5170   18.7600 C   0  0  0  0  0  0  0  0  0  0  0  0
    6.1600    0.3870   20.1140 C   0  0  0  0  0  0  0  0  0  0  0  0
   11.4988    1.0401   23.7482 C   0  0  0  0  0  0  0  0  0  0  0  0
    5.9810    0.8330   18.8060 C   0  0  0  0  0  0  0  0  0  0  0  0
    9.2850   -3.7090   25.1090 C   0  0  0  0  0  0  0  0  0  0  0  0
    9.3300   -1.3350   23.6390 C   0  0  0  0  0  0  0  0  0  0  0  0
    7.2210   -0.4620   20.0350 C   0  0  0  0  0  0  0  0  0  0  0  0
    8.2930   -5.1714   26.8572 C   0  0  0  0  0  0  0  0  0  0  0  0
    8.9510    0.1280   21.6880 C   0  0  0  0  0  0  0  0  0  0  0  0
    8.4551   -6.5156   27.5444 C   0  0  0  0  0  0  0  0  0  0  0  0
    9.9019   -6.7444   27.9450 C   0  0  0  0  0  0  0  0  0  0  0  0
   10.8596   -6.5882   26.7680 C   0  0  0  0  0  0  0  0  0  0  0  0
   10.1895   -6.0108   25.5223 C   0  0  0  0  0  0  0  0  0  0  0  0
   14.8213    0.0873   22.7709 C   0  0  0  0  0  0  0  0  0  0  0  0
    9.9979    1.0755   23.7305 C   0  0  0  0  0  0  0  0  0  0  0  0
   13.6558    1.4814   24.3564 N   0  0  0  0  0  0  0  0  0  0  0  0
    6.9440    0.2550   18.0100 N   0  0  0  0  0  0  0  0  0  0  0  0
   13.5999    0.6112   23.3338 N   0  0  0  0  0  0  0  0  0  0  0  0
    9.2623   -4.9266   25.8635 N   0  0  0  0  0  0  0  0  0  0  0  0
    8.0810   -0.9750   21.0820 N   0  0  0  0  0  0  0  0  0  0  0  0
    9.4200   -0.0840   22.9530 N   0  0  0  0  0  0  0  0  0  0  0  0
    7.3370   -4.4527   27.1463 O   0  0  0  0  0  0  0  0  0  0  0  0
    9.1870    1.1500   21.0630 O   0  0  0  0  0  0  0  0  0  0  0  0
    3.6256    2.0106   21.6303 H   0  0  0  0  0  0  0  0  0  0  0  0
    3.2724    2.7868   19.3204 H   0  0  0  0  0  0  0  0  0  0  0  0
    5.4858    0.4664   22.1692 H   0  0  0  0  0  0  0  0  0  0  0  0
    4.7836    2.0664   17.4848 H   0  0  0  0  0  0  0  0  0  0  0  0
    7.5639   -2.8621   26.1045 H   0  0  0  0  0  0  0  0  0  0  0  0
   11.0141   -4.2644   23.9422 H   0  0  0  0  0  0  0  0  0  0  0  0
    7.5950   -0.7788   24.8007 H   0  0  0  0  0  0  0  0  0  0  0  0
   11.0408   -2.1861   22.6359 H   0  0  0  0  0  0  0  0  0  0  0  0
   12.1221    2.4270   25.4020 H   0  0  0  0  0  0  0  0  0  0  0  0
   12.1332   -0.3726   22.1198 H   0  0  0  0  0  0  0  0  0  0  0  0
    8.5274   -1.0858   18.3384 H   0  0  0  0  0  0  0  0  0  0  0  0
    7.8332   -6.5283   28.4263 H   0  0  0  0  0  0  0  0  0  0  0  0
    8.1305   -7.2787   26.8530 H   0  0  0  0  0  0  0  0  0  0  0  0
   10.1875   -6.0379   28.7521 H   0  0  0  0  0  0  0  0  0  0  0  0
   10.0116   -7.7568   28.3834 H   0  0  0  0  0  0  0  0  0  0  0  0
   11.7061   -5.9337   27.0644 H   0  0  0  0  0  0  0  0  0  0  0  0
   11.3230   -7.5689   26.5243 H   0  0  0  0  0  0  0  0  0  0  0  0
   10.9445   -5.5959   24.8614 H   0  0  0  0  0  0  0  0  0  0  0  0
    9.6461   -6.7954   25.0072 H   0  0  0  0  0  0  0  0  0  0  0  0
   15.1352    0.7559   21.9650 H   0  0  0  0  0  0  0  0  0  0  0  0
   15.5889    0.0387   23.5482 H   0  0  0  0  0  0  0  0  0  0  0  0
   14.6385   -0.9194   22.3847 H   0  0  0  0  0  0  0  0  0  0  0  0
    9.5979    1.0021   24.7477 H   0  0  0  0  0  0  0  0  0  0  0  0
    9.6320    2.0154   23.3042 H   0  0  0  0  0  0  0  0  0  0  0  0
    7.0325    0.4238   17.0175 H   0  0  0  0  0  0  0  0  0  0  0  0
    8.1334   -1.7992   21.3673 H   0  0  0  0  0  0  0  0  0  0  0  0
  1  2  1  0  0  0  0
  1  3  2  0  0  0  0
  2  4  2  0  0  0  0
  3 12  1  0  0  0  0
  4 14  1  0  0  0  0
  5  7  2  0  0  0  0
  5 15  1  0  0  0  0
  6  8  1  0  0  0  0
  6 15  2  0  0  0  0
  7 16  1  0  0  0  0
  8 16  2  0  0  0  0
  9 13  1  0  0  0  0
  9 26  2  0  0  0  0
 10 13  2  0  0  0  0
 10 28  1  0  0  0  0
 11 17  2  0  0  0  0
 11 27  1  0  0  0  0
 12 14  2  0  0  0  0
 12 17  1  0  0  0  0
 13 25  1  0  0  0  0
 14 27  1  0  0  0  0
 15 29  1  0  0  0  0
 16 31  1  0  0  0  0
 17 30  1  0  0  0  0
 18 20  1  0  0  0  0
 18 29  1  0  0  0  0
 18 32  2  0  0  0  0
 19 30  1  0  0  0  0
 19 31  1  0  0  0  0
 19 33  2  0  0  0  0
 20 21  1  0  0  0  0
 21 22  1  0  0  0  0
 22 23  1  0  0  0  0
 23 29  1  0  0  0  0
 24 28  1  0  0  0  0
 25 31  1  0  0  0  0
 26 28  1  0  0  0  0
  1 34  1  0  0  0  0
  2 35  1  0  0  0  0
  3 36  1  0  0  0  0
  4 37  1  0  0  0  0
  5 38  1  0  0  0  0
  6 39  1  0  0  0  0
  7 40  1  0  0  0  0
  8 41  1  0  0  0  0
  9 42  1  0  0  0  0
 10 43  1  0  0  0  0
 11 44  1  0  0  0  0
 20 45  1  0  0  0  0
 20 46  1  0  0  0  0
 21 47  1  0  0  0  0
 21 48  1  0  0  0  0
 22 49  1  0  0  0  0
 22 50  1  0  0  0  0
 23 51  1  0  0  0  0
 23 52  1  0  0  0  0
 24 53  1  0  0  0  0
 24 54  1  0  0  0  0
 24 55  1  0  0  0  0
 25 56  1  0  0  0  0
 25 57  1  0  0  0  0
 27 58  1  0  0  0  0
 30 59  1  0  0  0  0
M  END
> <clash_score>
2.0596949410317893

> <docking_score>
-6.446432590484619

> <overlap_score>
0.995715856552124

$$$$
BENZO_136_1
  -OEChem-08232013483D

 55 59  0     0  0  0  0  0  0999 V2000
    4.2970    1.6690   20.8430 C   0  0  0  0  0  0  0  0  0  0  0  0
    4.0980    2.1130   19.5350 C   0  0  0  0  0  0  0  0  0  0  0  0
    5.3360    0.8000   21.1530 C   0  0  0  0  0  0  0  0  0  0  0  0
    4.9400    1.7060   18.5060 C   0  0  0  0  0  0  0  0  0  0  0  0
    8.3310   -2.7170   25.3430 C   0  0  0  0  0  0  0  0  0  0  0  0
   10.2570   -3.5000   24.1350 C   0  0  0  0  0  0  0  0  0  0  0  0
    8.3510   -1.5420   24.6110 C   0  0  0  0  0  0  0  0  0  0  0  0
   10.2760   -2.3270   23.4020 C   0  0  0  0  0  0  0  0  0  0  0  0
   12.3042    1.1191   22.5871 C   0  0  0  0  0  0  0  0  0  0  0  0
    7.6830   -0.5170   18.7600 C   0  0  0  0  0  0  0  0  0  0  0  0
   13.6500    1.0853   22.8793 C   0  0  0  0  0  0  0  0  0  0  0  0
   12.2612    0.9460   24.9045 C   0  0  0  0  0  0  0  0  0  0  0  0
    6.1600    0.3870   20.1140 C   0  0  0  0  0  0  0  0  0  0  0  0
   11.4996    1.0386   23.7602 C   0  0  0  0  0  0  0  0  0  0  0  0
    5.9810    0.8330   18.8060 C   0  0  0  0  0  0  0  0  0  0  0  0
    9.2850   -3.7090   25.1090 C   0  0  0  0  0  0  0  0  0  0  0  0
    9.3300   -1.3350   23.6390 C   0  0  0  0  0  0  0  0  0  0  0  0
    7.2210   -0.4620   20.0350 C   0  0  0  0  0  0  0  0  0  0  0  0
    8.9510    0.1280   21.6880 C   0  0  0  0  0  0  0  0  0  0  0  0
    8.7664   -4.9511   27.2147 C   0  0  0  0  0  0  0  0  0  0  0  0
    9.3037   -6.1872   25.1662 C   0  0  0  0  0  0  0  0  0  0  0  0
    7.3825   -5.5915   27.2001 C   0  0  0  0  0  0  0  0  0  0  0  0
    7.9027   -6.7973   25.2278 C   0  0  0  0  0  0  0  0  0  0  0  0
    9.9983    1.0521   23.7484 C   0  0  0  0  0  0  0  0  0  0  0  0
    6.9440    0.2550   18.0100 N   0  0  0  0  0  0  0  0  0  0  0  0
    9.2640   -4.8844   25.8389 N   0  0  0  0  0  0  0  0  0  0  0  0
    8.0810   -0.9750   21.0820 N   0  0  0  0  0  0  0  0  0  0  0  0
    9.4200   -0.0840   22.9530 N   0  0  0  0  0  0  0  0  0  0  0  0
    9.1870    1.1500   21.0630 O   0  0  0  0  0  0  0  0  0  0  0  0
    7.4484   -6.8829   26.5831 O   0  0  0  0  0  0  0  0  0  0  0  0
   13.9390    0.9568   24.5622 S   0  0  0  0  0  0  0  0  0  0  0  0
    3.6256    2.0106   21.6303 H   0  0  0  0  0  0  0  0  0  0  0  0
    3.2724    2.7868   19.3204 H   0  0  0  0  0  0  0  0  0  0  0  0
    5.4858    0.4664   22.1692 H   0  0  0  0  0  0  0  0  0  0  0  0
    4.7836    2.0664   17.4848 H   0  0  0  0  0  0  0  0  0  0  0  0
    7.5647   -2.8621   26.1053 H   0  0  0  0  0  0  0  0  0  0  0  0
   11.0144   -4.2642   23.9425 H   0  0  0  0  0  0  0  0  0  0  0  0
    7.5958   -0.7779   24.8006 H   0  0  0  0  0  0  0  0  0  0  0  0
   11.0406   -2.1848   22.6356 H   0  0  0  0  0  0  0  0  0  0  0  0
   11.9195    1.1975   21.5780 H   0  0  0  0  0  0  0  0  0  0  0  0
    8.5274   -1.0858   18.3384 H   0  0  0  0  0  0  0  0  0  0  0  0
   14.4772    1.1292   22.1851 H   0  0  0  0  0  0  0  0  0  0  0  0
   11.9167    0.8713   25.9267 H   0  0  0  0  0  0  0  0  0  0  0  0
    8.7052   -3.9541   27.6627 H   0  0  0  0  0  0  0  0  0  0  0  0
    9.4487   -5.5619   27.8169 H   0  0  0  0  0  0  0  0  0  0  0  0
   10.0120   -6.8401   25.6836 H   0  0  0  0  0  0  0  0  0  0  0  0
    9.6139   -6.0860   24.1243 H   0  0  0  0  0  0  0  0  0  0  0  0
    7.0278   -5.7316   28.2234 H   0  0  0  0  0  0  0  0  0  0  0  0
    6.6540   -4.9673   26.6750 H   0  0  0  0  0  0  0  0  0  0  0  0
    7.1864   -6.2190   24.6326 H   0  0  0  0  0  0  0  0  0  0  0  0
    7.9250   -7.8129   24.8210 H   0  0  0  0  0  0  0  0  0  0  0  0
    9.6035    0.9796   24.7677 H   0  0  0  0  0  0  0  0  0  0  0  0
    9.6171    1.9839   23.3175 H   0  0  0  0  0  0  0  0  0  0  0  0
    7.0325    0.4238   17.0175 H   0  0  0  0  0  0  0  0  0  0  0  0
    8.1151   -1.8109   21.3513 H   0  0  0  0  0  0  0  0  0  0  0  0
  1  2  1  0  0  0  0
  1  3  2  0  0  0  0
  2  4  2  0  0  0  0
  3 13  1  0  0  0  0
  4 15  1  0  0  0  0
  5  7  2  0  0  0  0
  5 16  1  0  0  0  0
  6  8  1  0  0  0  0
  6 16  2  0  0  0  0
  7 17  1  0  0  0  0
  8 17  2  0  0  0  0
  9 11  2  0  0  0  0
  9 14  1  0  0  0  0
 10 18  2  0  0  0  0
 10 25  1  0  0  0  0
 11 31  1  0  0  0  0
 12 14  2  0  0  0  0
 12 31  1  0  0  0  0
 13 15  2  0  0  0  0
 13 18  1  0  0  0  0
 14 24  1  0  0  0  0
 15 25  1  0  0  0  0
 16 26  1  0  0  0  0
 17 28  1  0  0  0  0
 18 27  1  0  0  0  0
 19 27  1  0  0  0  0
 19 28  1  0  0  0  0
 19 29  2  0  0  0  0
 20 22  1  0  0  0  0
 20 26  1  0  0  0  0
 21 23  1  0  0  0  0
 21 26  1  0  0  0  0
 22 30  1  0  0  0  0
 23 30  1  0  0  0  0
 24 28  1  0  0  0  0
  1 32  1  0  0  0  0
  2 33  1  0  0  0  0
  3 34  1  0  0  0  0
  4 35  1  0  0  0  0
  5 36  1  0  0  0  0
  6 37  1  0  0  0  0
  7 38  1  0  0  0  0
  8 39  1  0  0  0  0
  9 40  1  0  0  0  0
 10 41  1  0  0  0  0
 11 42  1  0  0  0  0
 12 43  1  0  0  0  0
 20 44  1  0  0  0  0
 20 45  1  0  0  0  0
 21 46  1  0  0  0  0
 21 47  1  0  0  0  0
 22 48  1  0  0  0  0
 22 49  1  0  0  0  0
 23 50  1  0  0  0  0
 23 51  1  0  0  0  0
 24 52  1  0  0  0  0
 24 53  1  0  0  0  0
 25 54  1  0  0  0  0
 27 55  1  0  0  0  0
M  END
> <clash_score>
0

> <docking_score>
-8.190183639526367

> <overlap_score>
0.9873233437538147

$$$$
BENZO_138_1
  -OEChem-08232013483D

 58 62  0     0  0  0  0  0  0999 V2000
    4.2970    1.6690   20.8430 C   0  0  0  0  0  0  0  0  0  0  0  0
    4.0980    2.1130   19.5350 C   0  0  0  0  0  0  0  0  0  0  0  0
   13.6056    1.9364   22.9885 C   0  0  0  0  0  0  0  0  0  0  0  0
    5.3360    0.8000   21.1530 C   0  0  0  0  0  0  0  0  0  0  0  0
   12.2108    1.9477   22.9771 C   0  0  0  0  0  0  0  0  0  0  0  0
    4.9400    1.7060   18.5060 C   0  0  0  0  0  0  0  0  0  0  0  0
    8.3310   -2.7170   25.3430 C   0  0  0  0  0  0  0  0  0  0  0  0
   10.2570   -3.5000   24.1350 C   0  0  0  0  0  0  0  0  0  0  0  0
    8.3510   -1.5420   24.6110 C   0  0  0  0  0  0  0  0  0  0  0  0
   10.2760   -2.3270   23.4020 C   0  0  0  0  0  0  0  0  0  0  0  0
   14.2892    1.0159   23.7830 C   0  0  0  0  0  0  0  0  0  0  0  0
   12.1832    0.1181   24.5548 C   0  0  0  0  0  0  0  0  0  0  0  0
    7.6830   -0.5170   18.7600 C   0  0  0  0  0  0  0  0  0  0  0  0
    6.1600    0.3870   20.1140 C   0  0  0  0  0  0  0  0  0  0  0  0
   11.4996    1.0386   23.7602 C   0  0  0  0  0  0  0  0  0  0  0  0
    5.9810    0.8330   18.8060 C   0  0  0  0  0  0  0  0  0  0  0  0
    9.2850   -3.7090   25.1090 C   0  0  0  0  0  0  0  0  0  0  0  0
    9.3300   -1.3350   23.6390 C   0  0  0  0  0  0  0  0  0  0  0  0
    7.2210   -0.4620   20.0350 C   0  0  0  0  0  0  0  0  0  0  0  0
   13.5779    0.1068   24.5661 C   0  0  0  0  0  0  0  0  0  0  0  0
    8.9510    0.1280   21.6880 C   0  0  0  0  0  0  0  0  0  0  0  0
    8.7664   -4.9511   27.2147 C   0  0  0  0  0  0  0  0  0  0  0  0
    9.3037   -6.1872   25.1662 C   0  0  0  0  0  0  0  0  0  0  0  0
    7.3825   -5.5915   27.2001 C   0  0  0  0  0  0  0  0  0  0  0  0
    7.9027   -6.7973   25.2278 C   0  0  0  0  0  0  0  0  0  0  0  0
    9.9983    1.0521   23.7484 C   0  0  0  0  0  0  0  0  0  0  0  0
    6.9440    0.2550   18.0100 N   0  0  0  0  0  0  0  0  0  0  0  0
    9.2640   -4.8844   25.8389 N   0  0  0  0  0  0  0  0  0  0  0  0
    8.0810   -0.9750   21.0820 N   0  0  0  0  0  0  0  0  0  0  0  0
    9.4200   -0.0840   22.9530 N   0  0  0  0  0  0  0  0  0  0  0  0
    9.1870    1.1500   21.0630 O   0  0  0  0  0  0  0  0  0  0  0  0
    7.4484   -6.8829   26.5831 O   0  0  0  0  0  0  0  0  0  0  0  0
   14.4218   -1.0279   25.5470 Cl  0  0  0  0  0  0  0  0  0  0  0  0
    3.6256    2.0106   21.6303 H   0  0  0  0  0  0  0  0  0  0  0  0
    3.2724    2.7868   19.3204 H   0  0  0  0  0  0  0  0  0  0  0  0
   14.1590    2.6446   22.3787 H   0  0  0  0  0  0  0  0  0  0  0  0
    5.4858    0.4664   22.1692 H   0  0  0  0  0  0  0  0  0  0  0  0
   11.6865    2.6685   22.3551 H   0  0  0  0  0  0  0  0  0  0  0  0
    4.7836    2.0664   17.4848 H   0  0  0  0  0  0  0  0  0  0  0  0
    7.5647   -2.8621   26.1053 H   0  0  0  0  0  0  0  0  0  0  0  0
   11.0144   -4.2642   23.9425 H   0  0  0  0  0  0  0  0  0  0  0  0
    7.5958   -0.7779   24.8006 H   0  0  0  0  0  0  0  0  0  0  0  0
   11.0406   -2.1848   22.6356 H   0  0  0  0  0  0  0  0  0  0  0  0
   15.3764    1.0188   23.7822 H   0  0  0  0  0  0  0  0  0  0  0  0
   11.6240   -0.5890   25.1632 H   0  0  0  0  0  0  0  0  0  0  0  0
    8.5274   -1.0858   18.3384 H   0  0  0  0  0  0  0  0  0  0  0  0
    8.7052   -3.9541   27.6627 H   0  0  0  0  0  0  0  0  0  0  0  0
    9.4487   -5.5619   27.8169 H   0  0  0  0  0  0  0  0  0  0  0  0
   10.0120   -6.8401   25.6836 H   0  0  0  0  0  0  0  0  0  0  0  0
    9.6139   -6.0860   24.1243 H   0  0  0  0  0  0  0  0  0  0  0  0
    7.0278   -5.7316   28.2234 H   0  0  0  0  0  0  0  0  0  0  0  0
    6.6540   -4.9673   26.6750 H   0  0  0  0  0  0  0  0  0  0  0  0
    7.1864   -6.2190   24.6326 H   0  0  0  0  0  0  0  0  0  0  0  0
    7.9250   -7.8129   24.8210 H   0  0  0  0  0  0  0  0  0  0  0  0
    9.6035    0.9796   24.7677 H   0  0  0  0  0  0  0  0  0  0  0  0
    9.6171    1.9839   23.3175 H   0  0  0  0  0  0  0  0  0  0  0  0
    7.0325    0.4238   17.0175 H   0  0  0  0  0  0  0  0  0  0  0  0
    8.1151   -1.8109   21.3513 H   0  0  0  0  0  0  0  0  0  0  0  0
  1  2  1  0  0  0  0
  1  4  2  0  0  0  0
  2  6  2  0  0  0  0
  3  5  2  0  0  0  0
  3 11  1  0  0  0  0
  4 14  1  0  0  0  0
  5 15  1  0  0  0  0
  6 16  1  0  0  0  0
  7  9  2  0  0  0  0
  7 17  1  0  0  0  0
  8 10  1  0  0  0  0
  8 17  2  0  0  0  0
  9 18  1  0  0  0  0
 10 18  2  0  0  0  0
 11 20  2  0  0  0  0
 12 15  2  0  0  0  0
 12 20  1  0  0  0  0
 13 19  2  0  0  0  0
 13 27  1  0  0  0  0
 14 16  2  0  0  0  0
 14 19  1  0  0  0  0
 15 26  1  0  0  0  0
 16 27  1  0  0  0  0
 17 28  1  0  0  0  0
 18 30  1  0  0  0  0
 19 29  1  0  0  0  0
 20 33  1  0  0  0  0
 21 29  1  0  0  0  0
 21 30  1  0  0  0  0
 21 31  2  0  0  0  0
 22 24  1  0  0  0  0
 22 28  1  0  0  0  0
 23 25  1  0  0  0  0
 23 28  1  0  0  0  0
 24 32  1  0  0  0  0
 25 32  1  0  0  0  0
 26 30  1  0  0  0  0
  1 34  1  0  0  0  0
  2 35  1  0  0  0  0
  3 36  1  0  0  0  0
  4 37  1  0  0  0  0
  5 38  1  0  0  0  0
  6 39  1  0  0  0  0
  7 40  1  0  0  0  0
  8 41  1  0  0  0  0
  9 42  1  0  0  0  0
 10 43  1  0  0  0  0
 11 44  1  0  0  0  0
 12 45  1  0  0  0  0
 13 46  1  0  0  0  0
 22 47  1  0  0  0  0
 22 48  1  0  0  0  0
 23 49  1  0  0  0  0
 23 50  1  0  0  0  0
 24 51  1  0  0  0  0
 24 52  1  0  0  0  0
 25 53  1  0  0  0  0
 25 54  1  0  0  0  0
 26 55  1  0  0  0  0
 26 56  1  0  0  0  0
 27 57  1  0  0  0  0
 29 58  1  0  0  0  0
M  END
> <clash_score>
0.7397419178655401

> <docking_score>
-6.675480365753174

> <overlap_score>
1.0114656686782837

$$$$
BENZO_139_1
  -OEChem-08232013483D

 58 62  0     0  0  0  0  0  0999 V2000
    4.2970    1.6690   20.8430 C   0  0  0  0  0  0  0  0  0  0  0  0
    4.0980    2.1130   19.5350 C   0  0  0  0  0  0  0  0  0  0  0  0
    5.3360    0.8000   21.1530 C   0  0  0  0  0  0  0  0  0  0  0  0
    4.9400    1.7060   18.5060 C   0  0  0  0  0  0  0  0  0  0  0  0
    8.3310   -2.7170   25.3430 C   0  0  0  0  0  0  0  0  0  0  0  0
   10.2570   -3.5000   24.1350 C   0  0  0  0  0  0  0  0  0  0  0  0
    8.3510   -1.5420   24.6110 C   0  0  0  0  0  0  0  0  0  0  0  0
   10.2760   -2.3270   23.4020 C   0  0  0  0  0  0  0  0  0  0  0  0
   12.3633    1.7563   24.6092 C   0  0  0  0  0  0  0  0  0  0  0  0
   12.3390    0.3194   22.9450 C   0  0  0  0  0  0  0  0  0  0  0  0
    7.6830   -0.5170   18.7600 C   0  0  0  0  0  0  0  0  0  0  0  0
    6.1600    0.3870   20.1140 C   0  0  0  0  0  0  0  0  0  0  0  0
   11.4996    1.0386   23.7602 C   0  0  0  0  0  0  0  0  0  0  0  0
    5.9810    0.8330   18.8060 C   0  0  0  0  0  0  0  0  0  0  0  0
    9.2850   -3.7090   25.1090 C   0  0  0  0  0  0  0  0  0  0  0  0
    9.3300   -1.3350   23.6390 C   0  0  0  0  0  0  0  0  0  0  0  0
    7.2210   -0.4620   20.0350 C   0  0  0  0  0  0  0  0  0  0  0  0
    8.9510    0.1280   21.6880 C   0  0  0  0  0  0  0  0  0  0  0  0
    8.7664   -4.9511   27.2147 C   0  0  0  0  0  0  0  0  0  0  0  0
    9.3037   -6.1872   25.1662 C   0  0  0  0  0  0  0  0  0  0  0  0
    7.3825   -5.5915   27.2001 C   0  0  0  0  0  0  0  0  0  0  0  0
    7.9027   -6.7973   25.2278 C   0  0  0  0  0  0  0  0  0  0  0  0
   14.8317    0.1275   22.7756 C   0  0  0  0  0  0  0  0  0  0  0  0
    9.9983    1.0521   23.7484 C   0  0  0  0  0  0  0  0  0  0  0  0
   13.6525    1.5149   24.3568 N   0  0  0  0  0  0  0  0  0  0  0  0
    6.9440    0.2550   18.0100 N   0  0  0  0  0  0  0  0  0  0  0  0
   13.6051    0.6374   23.3401 N   0  0  0  0  0  0  0  0  0  0  0  0
    9.2640   -4.8844   25.8389 N   0  0  0  0  0  0  0  0  0  0  0  0
    8.0810   -0.9750   21.0820 N   0  0  0  0  0  0  0  0  0  0  0  0
    9.4200   -0.0840   22.9530 N   0  0  0  0  0  0  0  0  0  0  0  0
    9.1870    1.1500   21.0630 O   0  0  0  0  0  0  0  0  0  0  0  0
    7.4484   -6.8829   26.5831 O   0  0  0  0  0  0  0  0  0  0  0  0
    3.6256    2.0106   21.6303 H   0  0  0  0  0  0  0  0  0  0  0  0
    3.2724    2.7868   19.3204 H   0  0  0  0  0  0  0  0  0  0  0  0
    5.4858    0.4664   22.1692 H   0  0  0  0  0  0  0  0  0  0  0  0
    4.7836    2.0664   17.4848 H   0  0  0  0  0  0  0  0  0  0  0  0
    7.5647   -2.8621   26.1053 H   0  0  0  0  0  0  0  0  0  0  0  0
   11.0144   -4.2642   23.9425 H   0  0  0  0  0  0  0  0  0  0  0  0
    7.5958   -0.7779   24.8006 H   0  0  0  0  0  0  0  0  0  0  0  0
   11.0406   -2.1848   22.6356 H   0  0  0  0  0  0  0  0  0  0  0  0
   12.1093    2.4450   25.4026 H   0  0  0  0  0  0  0  0  0  0  0  0
   12.1480   -0.3754   22.1383 H   0  0  0  0  0  0  0  0  0  0  0  0
    8.5274   -1.0858   18.3384 H   0  0  0  0  0  0  0  0  0  0  0  0
    8.7052   -3.9541   27.6627 H   0  0  0  0  0  0  0  0  0  0  0  0
    9.4487   -5.5619   27.8169 H   0  0  0  0  0  0  0  0  0  0  0  0
   10.0120   -6.8401   25.6836 H   0  0  0  0  0  0  0  0  0  0  0  0
    9.6139   -6.0860   24.1243 H   0  0  0  0  0  0  0  0  0  0  0  0
    7.0278   -5.7316   28.2234 H   0  0  0  0  0  0  0  0  0  0  0  0
    6.6540   -4.9673   26.6750 H   0  0  0  0  0  0  0  0  0  0  0  0
    7.1864   -6.2190   24.6326 H   0  0  0  0  0  0  0  0  0  0  0  0
    7.9250   -7.8129   24.8210 H   0  0  0  0  0  0  0  0  0  0  0  0
   15.1327    0.7953   21.9641 H   0  0  0  0  0  0  0  0  0  0  0  0
   15.6030    0.0951   23.5501 H   0  0  0  0  0  0  0  0  0  0  0  0
   14.6619   -0.8841   22.3966 H   0  0  0  0  0  0  0  0  0  0  0  0
    9.6035    0.9796   24.7677 H   0  0  0  0  0  0  0  0  0  0  0  0
    9.6171    1.9839   23.3175 H   0  0  0  0  0  0  0  0  0  0  0  0
    7.0325    0.4238   17.0175 H   0  0  0  0  0  0  0  0  0  0  0  0
    8.1151   -1.8109   21.3513 H   0  0  0  0  0  0  0  0  0  0  0  0
  1  2  1  0  0  0  0
  1  3  2  0  0  0  0
  2  4  2  0  0  0  0
  3 12  1  0  0  0  0
  4 14  1  0  0  0  0
  5  7  2  0  0  0  0
  5 15  1  0  0  0  0
  6  8  1  0  0  0  0
  6 15  2  0  0  0  0
  7 16  1  0  0  0  0
  8 16  2  0  0  0  0
  9 13  1  0  0  0  0
  9 25  2  0  0  0  0
 10 13  2  0  0  0  0
 10 27  1  0  0  0  0
 11 17  2  0  0  0  0
 11 26  1  0  0  0  0
 12 14  2  0  0  0  0
 12 17  1  0  0  0  0
 13 24  1  0  0  0  0
 14 26  1  0  0  0  0
 15 28  1  0  0  0  0
 16 30  1  0  0  0  0
 17 29  1  0  0  0  0
 18 29  1  0  0  0  0
 18 30  1  0  0  0  0
 18 31  2  0  0  0  0
 19 21  1  0  0  0  0
 19 28  1  0  0  0  0
 20 22  1  0  0  0  0
 20 28  1  0  0  0  0
 21 32  1  0  0  0  0
 22 32  1  0  0  0  0
 23 27  1  0  0  0  0
 24 30  1  0  0  0  0
 25 27  1  0  0  0  0
  1 33  1  0  0  0  0
  2 34  1  0  0  0  0
  3 35  1  0  0  0  0
  4 36  1  0  0  0  0
  5 37  1  0  0  0  0
  6 38  1  0  0  0  0
  7 39  1  0  0  0  0
  8 40  1  0  0  0  0
  9 41  1  0  0  0  0
 10 42  1  0  0  0  0
 11 43  1  0  0  0  0
 19 44  1  0  0  0  0
 19 45  1  0  0  0  0
 20 46  1  0  0  0  0
 20 47  1  0  0  0  0
 21 48  1  0  0  0  0
 21 49  1  0  0  0  0
 22 50  1  0  0  0  0
 22 51  1  0  0  0  0
 23 52  1  0  0  0  0
 23 53  1  0  0  0  0
 23 54  1  0  0  0  0
 24 55  1  0  0  0  0
 24 56  1  0  0  0  0
 26 57  1  0  0  0  0
 29 58  1  0  0  0  0
M  END
> <clash_score>
0

> <docking_score>
-7.6588134765625

> <overlap_score>
0.9956372976303101

$$$$
BENZO_141_1
  -OEChem-08232013483D

 51 54  0     0  0  0  0  0  0999 V2000
   14.2889    0.9956   23.7889 C   0  0  0  0  0  0  0  0  0  0  0  0
   13.5734    0.3184   24.7764 C   0  0  0  0  0  0  0  0  0  0  0  0
   13.6098    1.6912   22.7886 C   0  0  0  0  0  0  0  0  0  0  0  0
   12.1787    0.3367   24.7634 C   0  0  0  0  0  0  0  0  0  0  0  0
   12.2151    1.7095   22.7757 C   0  0  0  0  0  0  0  0  0  0  0  0
    8.3510   -1.5420   24.6110 C   0  0  0  0  0  0  0  0  0  0  0  0
   10.2760   -2.3270   23.4020 C   0  0  0  0  0  0  0  0  0  0  0  0
    8.3310   -2.7170   25.3430 C   0  0  0  0  0  0  0  0  0  0  0  0
   10.2570   -3.5000   24.1350 C   0  0  0  0  0  0  0  0  0  0  0  0
   11.4995    1.0322   23.7631 C   0  0  0  0  0  0  0  0  0  0  0  0
    9.3300   -1.3350   23.6390 C   0  0  0  0  0  0  0  0  0  0  0  0
    9.2850   -3.7090   25.1090 C   0  0  0  0  0  0  0  0  0  0  0  0
    5.9810    0.8330   18.8060 C   0  0  0  0  0  0  0  0  0  0  0  0
    7.2210   -0.4620   20.0350 C   0  0  0  0  0  0  0  0  0  0  0  0
    4.9400    1.7060   18.5060 C   0  0  0  0  0  0  0  0  0  0  0  0
    4.0980    2.1130   19.5350 C   0  0  0  0  0  0  0  0  0  0  0  0
    4.2970    1.6690   20.8430 C   0  0  0  0  0  0  0  0  0  0  0  0
    5.3360    0.8000   21.1530 C   0  0  0  0  0  0  0  0  0  0  0  0
    8.9510    0.1280   21.6880 C   0  0  0  0  0  0  0  0  0  0  0  0
    8.2499   -5.1180   26.8642 C   0  0  0  0  0  0  0  0  0  0  0  0
   10.2440   -5.9397   25.6006 C   0  0  0  0  0  0  0  0  0  0  0  0
    9.9983    1.0521   23.7484 C   0  0  0  0  0  0  0  0  0  0  0  0
    6.9440    0.2550   18.0100 N   0  0  0  0  0  0  0  0  0  0  0  0
    7.6830   -0.5170   18.7600 N   0  0  0  0  0  0  0  0  0  0  0  0
    6.1600    0.3870   20.1140 N   0  0  0  0  0  0  0  0  0  0  0  0
    8.0810   -0.9750   21.0820 N   0  0  0  0  0  0  0  0  0  0  0  0
    9.4200   -0.0840   22.9530 N   0  0  0  0  0  0  0  0  0  0  0  0
    9.2624   -4.9028   25.8498 N   0  0  0  0  0  0  0  0  0  0  0  0
    9.1870    1.1500   21.0630 O   0  0  0  0  0  0  0  0  0  0  0  0
   15.3749    0.9825   23.7999 H   0  0  0  0  0  0  0  0  0  0  0  0
   14.1020   -0.2223   25.5560 H   0  0  0  0  0  0  0  0  0  0  0  0
   14.1665    2.2195   22.0203 H   0  0  0  0  0  0  0  0  0  0  0  0
   11.6295   -0.1940   25.5367 H   0  0  0  0  0  0  0  0  0  0  0  0
   11.6944    2.2539   21.9923 H   0  0  0  0  0  0  0  0  0  0  0  0
    7.5947   -0.7787   24.7997 H   0  0  0  0  0  0  0  0  0  0  0  0
   11.0404   -2.1861   22.6352 H   0  0  0  0  0  0  0  0  0  0  0  0
    7.5641   -2.8632   26.1047 H   0  0  0  0  0  0  0  0  0  0  0  0
   11.0135   -4.2647   23.9425 H   0  0  0  0  0  0  0  0  0  0  0  0
    4.7733    2.0700   17.5071 H   0  0  0  0  0  0  0  0  0  0  0  0
    3.2813    2.7836   19.2995 H   0  0  0  0  0  0  0  0  0  0  0  0
    3.6335    1.9977   21.6542 H   0  0  0  0  0  0  0  0  0  0  0  0
    5.5067    0.4537   22.1474 H   0  0  0  0  0  0  0  0  0  0  0  0
    8.4002   -6.1032   27.3299 H   0  0  0  0  0  0  0  0  0  0  0  0
    8.3277   -4.3340   27.6319 H   0  0  0  0  0  0  0  0  0  0  0  0
    7.2530   -5.0799   26.4009 H   0  0  0  0  0  0  0  0  0  0  0  0
   10.0619   -6.7879   26.2769 H   0  0  0  0  0  0  0  0  0  0  0  0
   10.1623   -6.2787   24.5573 H   0  0  0  0  0  0  0  0  0  0  0  0
   11.2531   -5.5395   25.7781 H   0  0  0  0  0  0  0  0  0  0  0  0
    9.6012    0.9760   24.7665 H   0  0  0  0  0  0  0  0  0  0  0  0
    9.6219    1.9877   23.3216 H   0  0  0  0  0  0  0  0  0  0  0  0
    8.1127   -1.8124   21.3493 H   0  0  0  0  0  0  0  0  0  0  0  0
  1  2  1  0  0  0  0
  1  3  2  0  0  0  0
  2  4  2  0  0  0  0
  3  5  1  0  0  0  0
  4 10  1  0  0  0  0
  5 10  2  0  0  0  0
  6  8  2  0  0  0  0
  6 11  1  0  0  0  0
  7  9  1  0  0  0  0
  7 11  2  0  0  0  0
  8 12  1  0  0  0  0
  9 12  2  0  0  0  0
 10 22  1  0  0  0  0
 11 27  1  0  0  0  0
 12 28  1  0  0  0  0
 13 15  1  0  0  0  0
 13 23  2  0  0  0  0
 13 25  1  0  0  0  0
 14 24  2  0  0  0  0
 14 25  1  0  0  0  0
 14 26  1  0  0  0  0
 15 16  2  0  0  0  0
 16 17  1  0  0  0  0
 17 18  2  0  0  0  0
 18 25  1  0  0  0  0
 19 26  1  0  0  0  0
 19 27  1  0  0  0  0
 19 29  2  0  0  0  0
 20 28  1  0  0  0  0
 21 28  1  0  0  0  0
 22 27  1  0  0  0  0
 23 24  1  0  0  0  0
  1 30  1  0  0  0  0
  2 31  1  0  0  0  0
  3 32  1  0  0  0  0
  4 33  1  0  0  0  0
  5 34  1  0  0  0  0
  6 35  1  0  0  0  0
  7 36  1  0  0  0  0
  8 37  1  0  0  0  0
  9 38  1  0  0  0  0
 15 39  1  0  0  0  0
 16 40  1  0  0  0  0
 17 41  1  0  0  0  0
 18 42  1  0  0  0  0
 20 43  1  0  0  0  0
 20 44  1  0  0  0  0
 20 45  1  0  0  0  0
 21 46  1  0  0  0  0
 21 47  1  0  0  0  0
 21 48  1  0  0  0  0
 22 49  1  0  0  0  0
 22 50  1  0  0  0  0
 26 51  1  0  0  0  0
M  END
> <clash_score>
0

> <docking_score>
-9.625636100769043

> <overlap_score>
0.9958241581916809

$$$$
BENZO_140_1
  -OEChem-08232013483D

 48 51  0     0  0  0  0  0  0999 V2000
    8.3510   -1.5420   24.6110 C   0  0  0  0  0  0  0  0  0  0  0  0
   10.2760   -2.3270   23.4020 C   0  0  0  0  0  0  0  0  0  0  0  0
    8.3310   -2.7170   25.3430 C   0  0  0  0  0  0  0  0  0  0  0  0
   10.2570   -3.5000   24.1350 C   0  0  0  0  0  0  0  0  0  0  0  0
   12.3067    1.1154   22.5919 C   0  0  0  0  0  0  0  0  0  0  0  0
   13.6518    1.0745   22.8865 C   0  0  0  0  0  0  0  0  0  0  0  0
   12.2585    0.9306   24.9083 C   0  0  0  0  0  0  0  0  0  0  0  0
   11.4995    1.0322   23.7631 C   0  0  0  0  0  0  0  0  0  0  0  0
    9.3300   -1.3350   23.6390 C   0  0  0  0  0  0  0  0  0  0  0  0
    9.2850   -3.7090   25.1090 C   0  0  0  0  0  0  0  0  0  0  0  0
    5.9810    0.8330   18.8060 C   0  0  0  0  0  0  0  0  0  0  0  0
    7.2210   -0.4620   20.0350 C   0  0  0  0  0  0  0  0  0  0  0  0
    4.9400    1.7060   18.5060 C   0  0  0  0  0  0  0  0  0  0  0  0
    4.0980    2.1130   19.5350 C   0  0  0  0  0  0  0  0  0  0  0  0
    4.2970    1.6690   20.8430 C   0  0  0  0  0  0  0  0  0  0  0  0
    5.3360    0.8000   21.1530 C   0  0  0  0  0  0  0  0  0  0  0  0
    8.9510    0.1280   21.6880 C   0  0  0  0  0  0  0  0  0  0  0  0
    8.2499   -5.1180   26.8642 C   0  0  0  0  0  0  0  0  0  0  0  0
   10.2440   -5.9397   25.6006 C   0  0  0  0  0  0  0  0  0  0  0  0
    9.9983    1.0521   23.7484 C   0  0  0  0  0  0  0  0  0  0  0  0
    6.9440    0.2550   18.0100 N   0  0  0  0  0  0  0  0  0  0  0  0
    7.6830   -0.5170   18.7600 N   0  0  0  0  0  0  0  0  0  0  0  0
    6.1600    0.3870   20.1140 N   0  0  0  0  0  0  0  0  0  0  0  0
    8.0810   -0.9750   21.0820 N   0  0  0  0  0  0  0  0  0  0  0  0
    9.4200   -0.0840   22.9530 N   0  0  0  0  0  0  0  0  0  0  0  0
    9.2624   -4.9028   25.8498 N   0  0  0  0  0  0  0  0  0  0  0  0
    9.1870    1.1500   21.0630 O   0  0  0  0  0  0  0  0  0  0  0  0
   13.9370    0.9362   24.5693 S   0  0  0  0  0  0  0  0  0  0  0  0
    7.5947   -0.7787   24.7997 H   0  0  0  0  0  0  0  0  0  0  0  0
   11.0404   -2.1861   22.6352 H   0  0  0  0  0  0  0  0  0  0  0  0
    7.5641   -2.8632   26.1047 H   0  0  0  0  0  0  0  0  0  0  0  0
   11.0135   -4.2647   23.9425 H   0  0  0  0  0  0  0  0  0  0  0  0
   11.9244    1.2007   21.5825 H   0  0  0  0  0  0  0  0  0  0  0  0
   14.4805    1.1185   22.1941 H   0  0  0  0  0  0  0  0  0  0  0  0
   11.9117    0.8521   25.9294 H   0  0  0  0  0  0  0  0  0  0  0  0
    4.7733    2.0700   17.5071 H   0  0  0  0  0  0  0  0  0  0  0  0
    3.2813    2.7836   19.2995 H   0  0  0  0  0  0  0  0  0  0  0  0
    3.6335    1.9977   21.6542 H   0  0  0  0  0  0  0  0  0  0  0  0
    5.5067    0.4537   22.1474 H   0  0  0  0  0  0  0  0  0  0  0  0
    8.4002   -6.1032   27.3299 H   0  0  0  0  0  0  0  0  0  0  0  0
    8.3277   -4.3340   27.6319 H   0  0  0  0  0  0  0  0  0  0  0  0
    7.2530   -5.0799   26.4009 H   0  0  0  0  0  0  0  0  0  0  0  0
   10.0619   -6.7879   26.2769 H   0  0  0  0  0  0  0  0  0  0  0  0
   10.1623   -6.2787   24.5573 H   0  0  0  0  0  0  0  0  0  0  0  0
   11.2531   -5.5395   25.7781 H   0  0  0  0  0  0  0  0  0  0  0  0
    9.6012    0.9760   24.7665 H   0  0  0  0  0  0  0  0  0  0  0  0
    9.6219    1.9877   23.3216 H   0  0  0  0  0  0  0  0  0  0  0  0
    8.1127   -1.8124   21.3493 H   0  0  0  0  0  0  0  0  0  0  0  0
  1  3  2  0  0  0  0
  1  9  1  0  0  0  0
  2  4  1  0  0  0  0
  2  9  2  0  0  0  0
  3 10  1  0  0  0  0
  4 10  2  0  0  0  0
  5  6  2  0  0  0  0
  5  8  1  0  0  0  0
  6 28  1  0  0  0  0
  7  8  2  0  0  0  0
  7 28  1  0  0  0  0
  8 20  1  0  0  0  0
  9 25  1  0  0  0  0
 10 26  1  0  0  0  0
 11 13  1  0  0  0  0
 11 21  2  0  0  0  0
 11 23  1  0  0  0  0
 12 22  2  0  0  0  0
 12 23  1  0  0  0  0
 12 24  1  0  0  0  0
 13 14  2  0  0  0  0
 14 15  1  0  0  0  0
 15 16  2  0  0  0  0
 16 23  1  0  0  0  0
 17 24  1  0  0  0  0
 17 25  1  0  0  0  0
 17 27  2  0  0  0  0
 18 26  1  0  0  0  0
 19 26  1  0  0  0  0
 20 25  1  0  0  0  0
 21 22  1  0  0  0  0
  1 29  1  0  0  0  0
  2 30  1  0  0  0  0
  3 31  1  0  0  0  0
  4 32  1  0  0  0  0
  5 33  1  0  0  0  0
  6 34  1  0  0  0  0
  7 35  1  0  0  0  0
 13 36  1  0  0  0  0
 14 37  1  0  0  0  0
 15 38  1  0  0  0  0
 16 39  1  0  0  0  0
 18 40  1  0  0  0  0
 18 41  1  0  0  0  0
 18 42  1  0  0  0  0
 19 43  1  0  0  0  0
 19 44  1  0  0  0  0
 19 45  1  0  0  0  0
 20 46  1  0  0  0  0
 20 47  1  0  0  0  0
 24 48  1  0  0  0  0
M  END
> <clash_score>
0

> <docking_score>
-10.014062881469727

> <overlap_score>
0.973521888256073

$$$$
BENZO_143_1
  -OEChem-08232013483D

 51 54  0     0  0  0  0  0  0999 V2000
    8.3510   -1.5420   24.6110 C   0  0  0  0  0  0  0  0  0  0  0  0
   10.2760   -2.3270   23.4020 C   0  0  0  0  0  0  0  0  0  0  0  0
    8.3310   -2.7170   25.3430 C   0  0  0  0  0  0  0  0  0  0  0  0
   10.2570   -3.5000   24.1350 C   0  0  0  0  0  0  0  0  0  0  0  0
   12.3512    0.9327   24.8795 C   0  0  0  0  0  0  0  0  0  0  0  0
   12.3505    1.1046   22.6874 C   0  0  0  0  0  0  0  0  0  0  0  0
   11.4995    1.0322   23.7631 C   0  0  0  0  0  0  0  0  0  0  0  0
    9.3300   -1.3350   23.6390 C   0  0  0  0  0  0  0  0  0  0  0  0
    9.2850   -3.7090   25.1090 C   0  0  0  0  0  0  0  0  0  0  0  0
    5.9810    0.8330   18.8060 C   0  0  0  0  0  0  0  0  0  0  0  0
    7.2210   -0.4620   20.0350 C   0  0  0  0  0  0  0  0  0  0  0  0
    4.9400    1.7060   18.5060 C   0  0  0  0  0  0  0  0  0  0  0  0
    4.0980    2.1130   19.5350 C   0  0  0  0  0  0  0  0  0  0  0  0
    4.2970    1.6690   20.8430 C   0  0  0  0  0  0  0  0  0  0  0  0
    5.3360    0.8000   21.1530 C   0  0  0  0  0  0  0  0  0  0  0  0
    8.9510    0.1280   21.6880 C   0  0  0  0  0  0  0  0  0  0  0  0
   14.8457    1.0868   22.4584 C   0  0  0  0  0  0  0  0  0  0  0  0
    8.2499   -5.1180   26.8642 C   0  0  0  0  0  0  0  0  0  0  0  0
   10.2440   -5.9397   25.6006 C   0  0  0  0  0  0  0  0  0  0  0  0
    9.9983    1.0521   23.7484 C   0  0  0  0  0  0  0  0  0  0  0  0
   13.6441    0.9406   24.5441 N   0  0  0  0  0  0  0  0  0  0  0  0
    6.9440    0.2550   18.0100 N   0  0  0  0  0  0  0  0  0  0  0  0
    7.6830   -0.5170   18.7600 N   0  0  0  0  0  0  0  0  0  0  0  0
   13.6111    1.0459   23.2048 N   0  0  0  0  0  0  0  0  0  0  0  0
    6.1600    0.3870   20.1140 N   0  0  0  0  0  0  0  0  0  0  0  0
    8.0810   -0.9750   21.0820 N   0  0  0  0  0  0  0  0  0  0  0  0
    9.4200   -0.0840   22.9530 N   0  0  0  0  0  0  0  0  0  0  0  0
    9.2624   -4.9028   25.8498 N   0  0  0  0  0  0  0  0  0  0  0  0
    9.1870    1.1500   21.0630 O   0  0  0  0  0  0  0  0  0  0  0  0
    7.5947   -0.7787   24.7997 H   0  0  0  0  0  0  0  0  0  0  0  0
   11.0404   -2.1861   22.6352 H   0  0  0  0  0  0  0  0  0  0  0  0
    7.5641   -2.8632   26.1047 H   0  0  0  0  0  0  0  0  0  0  0  0
   11.0135   -4.2647   23.9425 H   0  0  0  0  0  0  0  0  0  0  0  0
   12.0861    0.8538   25.9244 H   0  0  0  0  0  0  0  0  0  0  0  0
   12.1709    1.1893   21.6242 H   0  0  0  0  0  0  0  0  0  0  0  0
    4.7733    2.0700   17.5071 H   0  0  0  0  0  0  0  0  0  0  0  0
    3.2813    2.7836   19.2995 H   0  0  0  0  0  0  0  0  0  0  0  0
    3.6335    1.9977   21.6542 H   0  0  0  0  0  0  0  0  0  0  0  0
    5.5067    0.4537   22.1474 H   0  0  0  0  0  0  0  0  0  0  0  0
   15.1491    2.1329   22.3653 H   0  0  0  0  0  0  0  0  0  0  0  0
   15.6108    0.5126   22.9883 H   0  0  0  0  0  0  0  0  0  0  0  0
   14.6859    0.6447   21.4710 H   0  0  0  0  0  0  0  0  0  0  0  0
    8.4002   -6.1032   27.3299 H   0  0  0  0  0  0  0  0  0  0  0  0
    8.3277   -4.3340   27.6319 H   0  0  0  0  0  0  0  0  0  0  0  0
    7.2530   -5.0799   26.4009 H   0  0  0  0  0  0  0  0  0  0  0  0
   10.0619   -6.7879   26.2769 H   0  0  0  0  0  0  0  0  0  0  0  0
   10.1623   -6.2787   24.5573 H   0  0  0  0  0  0  0  0  0  0  0  0
   11.2531   -5.5395   25.7781 H   0  0  0  0  0  0  0  0  0  0  0  0
    9.6012    0.9760   24.7665 H   0  0  0  0  0  0  0  0  0  0  0  0
    9.6219    1.9877   23.3216 H   0  0  0  0  0  0  0  0  0  0  0  0
    8.1127   -1.8124   21.3493 H   0  0  0  0  0  0  0  0  0  0  0  0
  1  3  2  0  0  0  0
  1  8  1  0  0  0  0
  2  4  1  0  0  0  0
  2  8  2  0  0  0  0
  3  9  1  0  0  0  0
  4  9  2  0  0  0  0
  5  7  1  0  0  0  0
  5 21  2  0  0  0  0
  6  7  2  0  0  0  0
  6 24  1  0  0  0  0
  7 20  1  0  0  0  0
  8 27  1  0  0  0  0
  9 28  1  0  0  0  0
 10 12  1  0  0  0  0
 10 22  2  0  0  0  0
 10 25  1  0  0  0  0
 11 23  2  0  0  0  0
 11 25  1  0  0  0  0
 11 26  1  0  0  0  0
 12 13  2  0  0  0  0
 13 14  1  0  0  0  0
 14 15  2  0  0  0  0
 15 25  1  0  0  0  0
 16 26  1  0  0  0  0
 16 27  1  0  0  0  0
 16 29  2  0  0  0  0
 17 24  1  0  0  0  0
 18 28  1  0  0  0  0
 19 28  1  0  0  0  0
 20 27  1  0  0  0  0
 21 24  1  0  0  0  0
 22 23  1  0  0  0  0
  1 30  1  0  0  0  0
  2 31  1  0  0  0  0
  3 32  1  0  0  0  0
  4 33  1  0  0  0  0
  5 34  1  0  0  0  0
  6 35  1  0  0  0  0
 12 36  1  0  0  0  0
 13 37  1  0  0  0  0
 14 38  1  0  0  0  0
 15 39  1  0  0  0  0
 17 40  1  0  0  0  0
 17 41  1  0  0  0  0
 17 42  1  0  0  0  0
 18 43  1  0  0  0  0
 18 44  1  0  0  0  0
 18 45  1  0  0  0  0
 19 46  1  0  0  0  0
 19 47  1  0  0  0  0
 19 48  1  0  0  0  0
 20 49  1  0  0  0  0
 20 50  1  0  0  0  0
 26 51  1  0  0  0  0
M  END
> <clash_score>
0

> <docking_score>
-9.26405143737793

> <overlap_score>
0.9895599484443665

$$$$
BENZO_145_1
  -OEChem-08232013483D

 53 56  0     0  0  0  0  0  0999 V2000
   14.2889    0.9956   23.7889 C   0  0  0  0  0  0  0  0  0  0  0  0
   13.5734    0.3184   24.7764 C   0  0  0  0  0  0  0  0  0  0  0  0
   13.6098    1.6912   22.7886 C   0  0  0  0  0  0  0  0  0  0  0  0
   12.1787    0.3367   24.7634 C   0  0  0  0  0  0  0  0  0  0  0  0
   12.2151    1.7095   22.7757 C   0  0  0  0  0  0  0  0  0  0  0  0
    8.3310   -2.7170   25.3430 C   0  0  0  0  0  0  0  0  0  0  0  0
   10.2570   -3.5000   24.1350 C   0  0  0  0  0  0  0  0  0  0  0  0
    8.3510   -1.5420   24.6110 C   0  0  0  0  0  0  0  0  0  0  0  0
   10.2760   -2.3270   23.4020 C   0  0  0  0  0  0  0  0  0  0  0  0
   11.4995    1.0322   23.7631 C   0  0  0  0  0  0  0  0  0  0  0  0
    9.2850   -3.7090   25.1090 C   0  0  0  0  0  0  0  0  0  0  0  0
    9.3300   -1.3350   23.6390 C   0  0  0  0  0  0  0  0  0  0  0  0
    5.9810    0.8330   18.8060 C   0  0  0  0  0  0  0  0  0  0  0  0
    7.2210   -0.4620   20.0350 C   0  0  0  0  0  0  0  0  0  0  0  0
    4.9400    1.7060   18.5060 C   0  0  0  0  0  0  0  0  0  0  0  0
    4.0980    2.1130   19.5350 C   0  0  0  0  0  0  0  0  0  0  0  0
    4.2970    1.6690   20.8430 C   0  0  0  0  0  0  0  0  0  0  0  0
    5.3360    0.8000   21.1530 C   0  0  0  0  0  0  0  0  0  0  0  0
    9.6836   -6.1684   25.4392 C   0  0  0  0  0  0  0  0  0  0  0  0
    8.9510    0.1280   21.6880 C   0  0  0  0  0  0  0  0  0  0  0  0
    8.0396   -7.2904   27.0025 C   0  0  0  0  0  0  0  0  0  0  0  0
    9.9983    1.0521   23.7484 C   0  0  0  0  0  0  0  0  0  0  0  0
    9.4856   -7.1873   26.5516 C   0  0  0  0  0  0  0  0  0  0  0  0
    6.9440    0.2550   18.0100 N   0  0  0  0  0  0  0  0  0  0  0  0
    7.6830   -0.5170   18.7600 N   0  0  0  0  0  0  0  0  0  0  0  0
    6.1600    0.3870   20.1140 N   0  0  0  0  0  0  0  0  0  0  0  0
    9.2630   -4.8902   25.8410 N   0  0  0  0  0  0  0  0  0  0  0  0
    8.0810   -0.9750   21.0820 N   0  0  0  0  0  0  0  0  0  0  0  0
    9.4200   -0.0840   22.9530 N   0  0  0  0  0  0  0  0  0  0  0  0
   10.1552   -6.4778   24.3500 O   0  0  0  0  0  0  0  0  0  0  0  0
    9.1870    1.1500   21.0630 O   0  0  0  0  0  0  0  0  0  0  0  0
   15.3749    0.9825   23.7999 H   0  0  0  0  0  0  0  0  0  0  0  0
   14.1020   -0.2223   25.5560 H   0  0  0  0  0  0  0  0  0  0  0  0
   14.1665    2.2195   22.0203 H   0  0  0  0  0  0  0  0  0  0  0  0
   11.6295   -0.1940   25.5367 H   0  0  0  0  0  0  0  0  0  0  0  0
   11.6944    2.2539   21.9923 H   0  0  0  0  0  0  0  0  0  0  0  0
    7.5639   -2.8621   26.1045 H   0  0  0  0  0  0  0  0  0  0  0  0
   11.0141   -4.2644   23.9422 H   0  0  0  0  0  0  0  0  0  0  0  0
    7.5950   -0.7788   24.8007 H   0  0  0  0  0  0  0  0  0  0  0  0
   11.0408   -2.1861   22.6359 H   0  0  0  0  0  0  0  0  0  0  0  0
    4.7733    2.0700   17.5071 H   0  0  0  0  0  0  0  0  0  0  0  0
    3.2813    2.7836   19.2995 H   0  0  0  0  0  0  0  0  0  0  0  0
    3.6335    1.9977   21.6542 H   0  0  0  0  0  0  0  0  0  0  0  0
    5.5067    0.4537   22.1474 H   0  0  0  0  0  0  0  0  0  0  0  0
    7.6717   -6.3257   27.3675 H   0  0  0  0  0  0  0  0  0  0  0  0
    7.9438   -8.0211   27.8115 H   0  0  0  0  0  0  0  0  0  0  0  0
    7.3921   -7.6062   26.1778 H   0  0  0  0  0  0  0  0  0  0  0  0
    9.6012    0.9760   24.7665 H   0  0  0  0  0  0  0  0  0  0  0  0
    9.6219    1.9877   23.3216 H   0  0  0  0  0  0  0  0  0  0  0  0
    9.8267   -8.1650   26.1921 H   0  0  0  0  0  0  0  0  0  0  0  0
   10.1142   -6.9000   27.4022 H   0  0  0  0  0  0  0  0  0  0  0  0
    8.8929   -4.8270   26.7966 H   0  0  0  0  0  0  0  0  0  0  0  0
    8.1127   -1.8124   21.3493 H   0  0  0  0  0  0  0  0  0  0  0  0
  1  2  1  0  0  0  0
  1  3  2  0  0  0  0
  2  4  2  0  0  0  0
  3  5  1  0  0  0  0
  4 10  1  0  0  0  0
  5 10  2  0  0  0  0
  6  8  2  0  0  0  0
  6 11  1  0  0  0  0
  7  9  1  0  0  0  0
  7 11  2  0  0  0  0
  8 12  1  0  0  0  0
  9 12  2  0  0  0  0
 10 22  1  0  0  0  0
 11 27  1  0  0  0  0
 12 29  1  0  0  0  0
 13 15  1  0  0  0  0
 13 24  2  0  0  0  0
 13 26  1  0  0  0  0
 14 25  2  0  0  0  0
 14 26  1  0  0  0  0
 14 28  1  0  0  0  0
 15 16  2  0  0  0  0
 16 17  1  0  0  0  0
 17 18  2  0  0  0  0
 18 26  1  0  0  0  0
 19 23  1  0  0  0  0
 19 27  1  0  0  0  0
 19 30  2  0  0  0  0
 20 28  1  0  0  0  0
 20 29  1  0  0  0  0
 20 31  2  0  0  0  0
 21 23  1  0  0  0  0
 22 29  1  0  0  0  0
 24 25  1  0  0  0  0
  1 32  1  0  0  0  0
  2 33  1  0  0  0  0
  3 34  1  0  0  0  0
  4 35  1  0  0  0  0
  5 36  1  0  0  0  0
  6 37  1  0  0  0  0
  7 38  1  0  0  0  0
  8 39  1  0  0  0  0
  9 40  1  0  0  0  0
 15 41  1  0  0  0  0
 16 42  1  0  0  0  0
 17 43  1  0  0  0  0
 18 44  1  0  0  0  0
 21 45  1  0  0  0  0
 21 46  1  0  0  0  0
 21 47  1  0  0  0  0
 22 48  1  0  0  0  0
 22 49  1  0  0  0  0
 23 50  1  0  0  0  0
 23 51  1  0  0  0  0
 27 52  1  0  0  0  0
 28 53  1  0  0  0  0
M  END
> <clash_score>
1.3334639249641471

> <docking_score>
-6.1046857833862305

> <overlap_score>
0.979910135269165

$$$$
BENZO_142_1
  -OEChem-08232013483D

 51 54  0     0  0  0  0  0  0999 V2000
   13.6107    1.9252   23.0000 C   0  0  0  0  0  0  0  0  0  0  0  0
   12.2161    1.9424   22.9860 C   0  0  0  0  0  0  0  0  0  0  0  0
    8.3510   -1.5420   24.6110 C   0  0  0  0  0  0  0  0  0  0  0  0
   10.2760   -2.3270   23.4020 C   0  0  0  0  0  0  0  0  0  0  0  0
    8.3310   -2.7170   25.3430 C   0  0  0  0  0  0  0  0  0  0  0  0
   10.2570   -3.5000   24.1350 C   0  0  0  0  0  0  0  0  0  0  0  0
   14.2889    0.9978   23.7911 C   0  0  0  0  0  0  0  0  0  0  0  0
   12.1777    0.1048   24.5542 C   0  0  0  0  0  0  0  0  0  0  0  0
   11.4995    1.0322   23.7631 C   0  0  0  0  0  0  0  0  0  0  0  0
    9.3300   -1.3350   23.6390 C   0  0  0  0  0  0  0  0  0  0  0  0
    9.2850   -3.7090   25.1090 C   0  0  0  0  0  0  0  0  0  0  0  0
   13.5724    0.0877   24.5681 C   0  0  0  0  0  0  0  0  0  0  0  0
    5.9810    0.8330   18.8060 C   0  0  0  0  0  0  0  0  0  0  0  0
    7.2210   -0.4620   20.0350 C   0  0  0  0  0  0  0  0  0  0  0  0
    4.9400    1.7060   18.5060 C   0  0  0  0  0  0  0  0  0  0  0  0
    4.0980    2.1130   19.5350 C   0  0  0  0  0  0  0  0  0  0  0  0
    4.2970    1.6690   20.8430 C   0  0  0  0  0  0  0  0  0  0  0  0
    5.3360    0.8000   21.1530 C   0  0  0  0  0  0  0  0  0  0  0  0
    8.9510    0.1280   21.6880 C   0  0  0  0  0  0  0  0  0  0  0  0
    8.2499   -5.1180   26.8642 C   0  0  0  0  0  0  0  0  0  0  0  0
   10.2440   -5.9397   25.6006 C   0  0  0  0  0  0  0  0  0  0  0  0
    9.9983    1.0521   23.7484 C   0  0  0  0  0  0  0  0  0  0  0  0
    6.9440    0.2550   18.0100 N   0  0  0  0  0  0  0  0  0  0  0  0
    7.6830   -0.5170   18.7600 N   0  0  0  0  0  0  0  0  0  0  0  0
    6.1600    0.3870   20.1140 N   0  0  0  0  0  0  0  0  0  0  0  0
    8.0810   -0.9750   21.0820 N   0  0  0  0  0  0  0  0  0  0  0  0
    9.4200   -0.0840   22.9530 N   0  0  0  0  0  0  0  0  0  0  0  0
    9.2624   -4.9028   25.8498 N   0  0  0  0  0  0  0  0  0  0  0  0
    9.1870    1.1500   21.0630 O   0  0  0  0  0  0  0  0  0  0  0  0
   14.4096   -1.0555   25.5448 Cl  0  0  0  0  0  0  0  0  0  0  0  0
   14.1683    2.6342   22.3949 H   0  0  0  0  0  0  0  0  0  0  0  0
   11.6959    2.6686   22.3667 H   0  0  0  0  0  0  0  0  0  0  0  0
    7.5947   -0.7787   24.7997 H   0  0  0  0  0  0  0  0  0  0  0  0
   11.0404   -2.1861   22.6352 H   0  0  0  0  0  0  0  0  0  0  0  0
    7.5641   -2.8632   26.1047 H   0  0  0  0  0  0  0  0  0  0  0  0
   11.0135   -4.2647   23.9425 H   0  0  0  0  0  0  0  0  0  0  0  0
   15.3761    0.9962   23.7923 H   0  0  0  0  0  0  0  0  0  0  0  0
   11.6144   -0.6030   25.1578 H   0  0  0  0  0  0  0  0  0  0  0  0
    4.7733    2.0700   17.5071 H   0  0  0  0  0  0  0  0  0  0  0  0
    3.2813    2.7836   19.2995 H   0  0  0  0  0  0  0  0  0  0  0  0
    3.6335    1.9977   21.6542 H   0  0  0  0  0  0  0  0  0  0  0  0
    5.5067    0.4537   22.1474 H   0  0  0  0  0  0  0  0  0  0  0  0
    8.4002   -6.1032   27.3299 H   0  0  0  0  0  0  0  0  0  0  0  0
    8.3277   -4.3340   27.6319 H   0  0  0  0  0  0  0  0  0  0  0  0
    7.2530   -5.0799   26.4009 H   0  0  0  0  0  0  0  0  0  0  0  0
   10.0619   -6.7879   26.2769 H   0  0  0  0  0  0  0  0  0  0  0  0
   10.1623   -6.2787   24.5573 H   0  0  0  0  0  0  0  0  0  0  0  0
   11.2531   -5.5395   25.7781 H   0  0  0  0  0  0  0  0  0  0  0  0
    9.6012    0.9760   24.7665 H   0  0  0  0  0  0  0  0  0  0  0  0
    9.6219    1.9877   23.3216 H   0  0  0  0  0  0  0  0  0  0  0  0
    8.1127   -1.8124   21.3493 H   0  0  0  0  0  0  0  0  0  0  0  0
  1  2  2  0  0  0  0
  1  7  1  0  0  0  0
  2  9  1  0  0  0  0
  3  5  2  0  0  0  0
  3 10  1  0  0  0  0
  4  6  1  0  0  0  0
  4 10  2  0  0  0  0
  5 11  1  0  0  0  0
  6 11  2  0  0  0  0
  7 12  2  0  0  0  0
  8  9  2  0  0  0  0
  8 12  1  0  0  0  0
  9 22  1  0  0  0  0
 10 27  1  0  0  0  0
 11 28  1  0  0  0  0
 12 30  1  0  0  0  0
 13 15  1  0  0  0  0
 13 23  2  0  0  0  0
 13 25  1  0  0  0  0
 14 24  2  0  0  0  0
 14 25  1  0  0  0  0
 14 26  1  0  0  0  0
 15 16  2  0  0  0  0
 16 17  1  0  0  0  0
 17 18  2  0  0  0  0
 18 25  1  0  0  0  0
 19 26  1  0  0  0  0
 19 27  1  0  0  0  0
 19 29  2  0  0  0  0
 20 28  1  0  0  0  0
 21 28  1  0  0  0  0
 22 27  1  0  0  0  0
 23 24  1  0  0  0  0
  1 31  1  0  0  0  0
  2 32  1  0  0  0  0
  3 33  1  0  0  0  0
  4 34  1  0  0  0  0
  5 35  1  0  0  0  0
  6 36  1  0  0  0  0
  7 37  1  0  0  0  0
  8 38  1  0  0  0  0
 15 39  1  0  0  0  0
 16 40  1  0  0  0  0
 17 41  1  0  0  0  0
 18 42  1  0  0  0  0
 20 43  1  0  0  0  0
 20 44  1  0  0  0  0
 20 45  1  0  0  0  0
 21 46  1  0  0  0  0
 21 47  1  0  0  0  0
 21 48  1  0  0  0  0
 22 49  1  0  0  0  0
 22 50  1  0  0  0  0
 26 51  1  0  0  0  0
M  END
> <clash_score>
0.7471598483328945

> <docking_score>
-8.482453346252441

> <overlap_score>
0.997701108455658

$$$$
BENZO_144_1
  -OEChem-08232013483D

 50 53  0     0  0  0  0  0  0999 V2000
    8.3310   -2.7170   25.3430 C   0  0  0  0  0  0  0  0  0  0  0  0
   10.2570   -3.5000   24.1350 C   0  0  0  0  0  0  0  0  0  0  0  0
    8.3510   -1.5420   24.6110 C   0  0  0  0  0  0  0  0  0  0  0  0
   10.2760   -2.3270   23.4020 C   0  0  0  0  0  0  0  0  0  0  0  0
   12.3067    1.1154   22.5919 C   0  0  0  0  0  0  0  0  0  0  0  0
   13.6518    1.0745   22.8865 C   0  0  0  0  0  0  0  0  0  0  0  0
   12.2585    0.9306   24.9083 C   0  0  0  0  0  0  0  0  0  0  0  0
   11.4995    1.0322   23.7631 C   0  0  0  0  0  0  0  0  0  0  0  0
    9.2850   -3.7090   25.1090 C   0  0  0  0  0  0  0  0  0  0  0  0
    9.3300   -1.3350   23.6390 C   0  0  0  0  0  0  0  0  0  0  0  0
    5.9810    0.8330   18.8060 C   0  0  0  0  0  0  0  0  0  0  0  0
    7.2210   -0.4620   20.0350 C   0  0  0  0  0  0  0  0  0  0  0  0
    4.9400    1.7060   18.5060 C   0  0  0  0  0  0  0  0  0  0  0  0
    4.0980    2.1130   19.5350 C   0  0  0  0  0  0  0  0  0  0  0  0
    4.2970    1.6690   20.8430 C   0  0  0  0  0  0  0  0  0  0  0  0
    5.3360    0.8000   21.1530 C   0  0  0  0  0  0  0  0  0  0  0  0
    9.6836   -6.1684   25.4392 C   0  0  0  0  0  0  0  0  0  0  0  0
    8.9510    0.1280   21.6880 C   0  0  0  0  0  0  0  0  0  0  0  0
    8.0396   -7.2904   27.0025 C   0  0  0  0  0  0  0  0  0  0  0  0
    9.9983    1.0521   23.7484 C   0  0  0  0  0  0  0  0  0  0  0  0
    9.4856   -7.1873   26.5516 C   0  0  0  0  0  0  0  0  0  0  0  0
    6.9440    0.2550   18.0100 N   0  0  0  0  0  0  0  0  0  0  0  0
    7.6830   -0.5170   18.7600 N   0  0  0  0  0  0  0  0  0  0  0  0
    6.1600    0.3870   20.1140 N   0  0  0  0  0  0  0  0  0  0  0  0
    9.2630   -4.8902   25.8410 N   0  0  0  0  0  0  0  0  0  0  0  0
    8.0810   -0.9750   21.0820 N   0  0  0  0  0  0  0  0  0  0  0  0
    9.4200   -0.0840   22.9530 N   0  0  0  0  0  0  0  0  0  0  0  0
   10.1552   -6.4778   24.3500 O   0  0  0  0  0  0  0  0  0  0  0  0
    9.1870    1.1500   21.0630 O   0  0  0  0  0  0  0  0  0  0  0  0
   13.9370    0.9362   24.5693 S   0  0  0  0  0  0  0  0  0  0  0  0
    7.5639   -2.8621   26.1045 H   0  0  0  0  0  0  0  0  0  0  0  0
   11.0141   -4.2644   23.9422 H   0  0  0  0  0  0  0  0  0  0  0  0
    7.5950   -0.7788   24.8007 H   0  0  0  0  0  0  0  0  0  0  0  0
   11.0408   -2.1861   22.6359 H   0  0  0  0  0  0  0  0  0  0  0  0
   11.9244    1.2007   21.5825 H   0  0  0  0  0  0  0  0  0  0  0  0
   14.4805    1.1185   22.1941 H   0  0  0  0  0  0  0  0  0  0  0  0
   11.9117    0.8521   25.9294 H   0  0  0  0  0  0  0  0  0  0  0  0
    4.7733    2.0700   17.5071 H   0  0  0  0  0  0  0  0  0  0  0  0
    3.2813    2.7836   19.2995 H   0  0  0  0  0  0  0  0  0  0  0  0
    3.6335    1.9977   21.6542 H   0  0  0  0  0  0  0  0  0  0  0  0
    5.5067    0.4537   22.1474 H   0  0  0  0  0  0  0  0  0  0  0  0
    7.6717   -6.3257   27.3675 H   0  0  0  0  0  0  0  0  0  0  0  0
    7.9438   -8.0211   27.8115 H   0  0  0  0  0  0  0  0  0  0  0  0
    7.3921   -7.6062   26.1778 H   0  0  0  0  0  0  0  0  0  0  0  0
    9.6012    0.9760   24.7665 H   0  0  0  0  0  0  0  0  0  0  0  0
    9.6219    1.9877   23.3216 H   0  0  0  0  0  0  0  0  0  0  0  0
    9.8267   -8.1650   26.1921 H   0  0  0  0  0  0  0  0  0  0  0  0
   10.1142   -6.9000   27.4022 H   0  0  0  0  0  0  0  0  0  0  0  0
    8.8929   -4.8270   26.7966 H   0  0  0  0  0  0  0  0  0  0  0  0
    8.1127   -1.8124   21.3493 H   0  0  0  0  0  0  0  0  0  0  0  0
  1  3  2  0  0  0  0
  1  9  1  0  0  0  0
  2  4  1  0  0  0  0
  2  9  2  0  0  0  0
  3 10  1  0  0  0  0
  4 10  2  0  0  0  0
  5  6  2  0  0  0  0
  5  8  1  0  0  0  0
  6 30  1  0  0  0  0
  7  8  2  0  0  0  0
  7 30  1  0  0  0  0
  8 20  1  0  0  0  0
  9 25  1  0  0  0  0
 10 27  1  0  0  0  0
 11 13  1  0  0  0  0
 11 22  2  0  0  0  0
 11 24  1  0  0  0  0
 12 23  2  0  0  0  0
 12 24  1  0  0  0  0
 12 26  1  0  0  0  0
 13 14  2  0  0  0  0
 14 15  1  0  0  0  0
 15 16  2  0  0  0  0
 16 24  1  0  0  0  0
 17 21  1  0  0  0  0
 17 25  1  0  0  0  0
 17 28  2  0  0  0  0
 18 26  1  0  0  0  0
 18 27  1  0  0  0  0
 18 29  2  0  0  0  0
 19 21  1  0  0  0  0
 20 27  1  0  0  0  0
 22 23  1  0  0  0  0
  1 31  1  0  0  0  0
  2 32  1  0  0  0  0
  3 33  1  0  0  0  0
  4 34  1  0  0  0  0
  5 35  1  0  0  0  0
  6 36  1  0  0  0  0
  7 37  1  0  0  0  0
 13 38  1  0  0  0  0
 14 39  1  0  0  0  0
 15 40  1  0  0  0  0
 16 41  1  0  0  0  0
 19 42  1  0  0  0  0
 19 43  1  0  0  0  0
 19 44  1  0  0  0  0
 20 45  1  0  0  0  0
 20 46  1  0  0  0  0
 21 47  1  0  0  0  0
 21 48  1  0  0  0  0
 25 49  1  0  0  0  0
 26 50  1  0  0  0  0
M  END
> <clash_score>
1.3334639249641471

> <docking_score>
-6.4931111335754395

> <overlap_score>
0.9576463103294373

$$$$
BENZO_149_1
  -OEChem-08232013483D

 58 62  0     0  0  0  0  0  0999 V2000
   14.2885    1.1441   23.7306 C   0  0  0  0  0  0  0  0  0  0  0  0
   13.6022    0.4565   24.7315 C   0  0  0  0  0  0  0  0  0  0  0  0
   13.5801    1.8094   22.7300 C   0  0  0  0  0  0  0  0  0  0  0  0
   12.2075    0.4341   24.7317 C   0  0  0  0  0  0  0  0  0  0  0  0
   12.1854    1.7870   22.7302 C   0  0  0  0  0  0  0  0  0  0  0  0
    8.3310   -2.7170   25.3430 C   0  0  0  0  0  0  0  0  0  0  0  0
   10.2570   -3.5000   24.1350 C   0  0  0  0  0  0  0  0  0  0  0  0
    8.3510   -1.5420   24.6110 C   0  0  0  0  0  0  0  0  0  0  0  0
   10.2760   -2.3270   23.4020 C   0  0  0  0  0  0  0  0  0  0  0  0
   11.4991    1.0994   23.7311 C   0  0  0  0  0  0  0  0  0  0  0  0
    9.2850   -3.7090   25.1090 C   0  0  0  0  0  0  0  0  0  0  0  0
    9.3300   -1.3350   23.6390 C   0  0  0  0  0  0  0  0  0  0  0  0
    5.9810    0.8330   18.8060 C   0  0  0  0  0  0  0  0  0  0  0  0
    7.2210   -0.4620   20.0350 C   0  0  0  0  0  0  0  0  0  0  0  0
    4.9400    1.7060   18.5060 C   0  0  0  0  0  0  0  0  0  0  0  0
    4.0980    2.1130   19.5350 C   0  0  0  0  0  0  0  0  0  0  0  0
    4.2970    1.6690   20.8430 C   0  0  0  0  0  0  0  0  0  0  0  0
    5.3360    0.8000   21.1530 C   0  0  0  0  0  0  0  0  0  0  0  0
    8.9510    0.1280   21.6880 C   0  0  0  0  0  0  0  0  0  0  0  0
    7.3162   -6.8835   26.5210 C   0  0  0  0  0  0  0  0  0  0  0  0
    7.3507   -5.5245   27.2240 C   0  0  0  0  0  0  0  0  0  0  0  0
    7.9375   -6.8069   25.1245 C   0  0  0  0  0  0  0  0  0  0  0  0
    8.7638   -4.9418   27.2163 C   0  0  0  0  0  0  0  0  0  0  0  0
    9.3378   -6.1874   25.1659 C   0  0  0  0  0  0  0  0  0  0  0  0
    9.9979    1.0755   23.7305 C   0  0  0  0  0  0  0  0  0  0  0  0
    6.9440    0.2550   18.0100 N   0  0  0  0  0  0  0  0  0  0  0  0
    7.6830   -0.5170   18.7600 N   0  0  0  0  0  0  0  0  0  0  0  0
    6.1600    0.3870   20.1140 N   0  0  0  0  0  0  0  0  0  0  0  0
    9.2639   -4.8860   25.8399 N   0  0  0  0  0  0  0  0  0  0  0  0
    8.0810   -0.9750   21.0820 N   0  0  0  0  0  0  0  0  0  0  0  0
    9.4200   -0.0840   22.9530 N   0  0  0  0  0  0  0  0  0  0  0  0
    9.1870    1.1500   21.0630 O   0  0  0  0  0  0  0  0  0  0  0  0
   15.3744    1.1626   23.7314 H   0  0  0  0  0  0  0  0  0  0  0  0
   14.1535   -0.0606   25.5114 H   0  0  0  0  0  0  0  0  0  0  0  0
   14.1141    2.3458   21.9512 H   0  0  0  0  0  0  0  0  0  0  0  0
   11.6811   -0.1043   25.5155 H   0  0  0  0  0  0  0  0  0  0  0  0
   11.6419    2.3081   21.9465 H   0  0  0  0  0  0  0  0  0  0  0  0
    7.5647   -2.8621   26.1053 H   0  0  0  0  0  0  0  0  0  0  0  0
   11.0144   -4.2642   23.9425 H   0  0  0  0  0  0  0  0  0  0  0  0
    7.5958   -0.7779   24.8006 H   0  0  0  0  0  0  0  0  0  0  0  0
   11.0406   -2.1848   22.6356 H   0  0  0  0  0  0  0  0  0  0  0  0
    4.7733    2.0700   17.5071 H   0  0  0  0  0  0  0  0  0  0  0  0
    3.2813    2.7836   19.2995 H   0  0  0  0  0  0  0  0  0  0  0  0
    3.6335    1.9977   21.6542 H   0  0  0  0  0  0  0  0  0  0  0  0
    5.5067    0.4537   22.1474 H   0  0  0  0  0  0  0  0  0  0  0  0
    7.8578   -7.6261   27.1266 H   0  0  0  0  0  0  0  0  0  0  0  0
    6.2773   -7.2358   26.4459 H   0  0  0  0  0  0  0  0  0  0  0  0
    6.6663   -4.8351   26.7223 H   0  0  0  0  0  0  0  0  0  0  0  0
    7.0044   -5.6368   28.2534 H   0  0  0  0  0  0  0  0  0  0  0  0
    7.9946   -7.8119   24.6937 H   0  0  0  0  0  0  0  0  0  0  0  0
    7.2929   -6.2123   24.4668 H   0  0  0  0  0  0  0  0  0  0  0  0
    8.7343   -3.9408   27.6542 H   0  0  0  0  0  0  0  0  0  0  0  0
    9.4243   -5.5632   27.8278 H   0  0  0  0  0  0  0  0  0  0  0  0
   10.0200   -6.8490   25.7011 H   0  0  0  0  0  0  0  0  0  0  0  0
    9.6984   -6.0694   24.1436 H   0  0  0  0  0  0  0  0  0  0  0  0
    9.6122    1.0250   24.7546 H   0  0  0  0  0  0  0  0  0  0  0  0
    9.5906    1.9837   23.2740 H   0  0  0  0  0  0  0  0  0  0  0  0
    8.1334   -1.7992   21.3673 H   0  0  0  0  0  0  0  0  0  0  0  0
  1  2  1  0  0  0  0
  1  3  2  0  0  0  0
  2  4  2  0  0  0  0
  3  5  1  0  0  0  0
  4 10  1  0  0  0  0
  5 10  2  0  0  0  0
  6  8  2  0  0  0  0
  6 11  1  0  0  0  0
  7  9  1  0  0  0  0
  7 11  2  0  0  0  0
  8 12  1  0  0  0  0
  9 12  2  0  0  0  0
 10 25  1  0  0  0  0
 11 29  1  0  0  0  0
 12 31  1  0  0  0  0
 13 15  1  0  0  0  0
 13 26  2  0  0  0  0
 13 28  1  0  0  0  0
 14 27  2  0  0  0  0
 14 28  1  0  0  0  0
 14 30  1  0  0  0  0
 15 16  2  0  0  0  0
 16 17  1  0  0  0  0
 17 18  2  0  0  0  0
 18 28  1  0  0  0  0
 19 30  1  0  0  0  0
 19 31  1  0  0  0  0
 19 32  2  0  0  0  0
 20 21  1  0  0  0  0
 20 22  1  0  0  0  0
 21 23  1  0  0  0  0
 22 24  1  0  0  0  0
 23 29  1  0  0  0  0
 24 29  1  0  0  0  0
 25 31  1  0  0  0  0
 26 27  1  0  0  0  0
  1 33  1  0  0  0  0
  2 34  1  0  0  0  0
  3 35  1  0  0  0  0
  4 36  1  0  0  0  0
  5 37  1  0  0  0  0
  6 38  1  0  0  0  0
  7 39  1  0  0  0  0
  8 40  1  0  0  0  0
  9 41  1  0  0  0  0
 15 42  1  0  0  0  0
 16 43  1  0  0  0  0
 17 44  1  0  0  0  0
 18 45  1  0  0  0  0
 20 46  1  0  0  0  0
 20 47  1  0  0  0  0
 21 48  1  0  0  0  0
 21 49  1  0  0  0  0
 22 50  1  0  0  0  0
 22 51  1  0  0  0  0
 23 52  1  0  0  0  0
 23 53  1  0  0  0  0
 24 54  1  0  0  0  0
 24 55  1  0  0  0  0
 25 56  1  0  0  0  0
 25 57  1  0  0  0  0
 30 58  1  0  0  0  0
M  END
> <clash_score>
0

> <docking_score>
-8.233168601989746

> <overlap_score>
1.0103838443756104

$$$$
BENZO_146_1
  -OEChem-08232013483D

 53 56  0     0  0  0  0  0  0999 V2000
   13.6107    1.9252   23.0000 C   0  0  0  0  0  0  0  0  0  0  0  0
   12.2161    1.9424   22.9860 C   0  0  0  0  0  0  0  0  0  0  0  0
    8.3310   -2.7170   25.3430 C   0  0  0  0  0  0  0  0  0  0  0  0
   10.2570   -3.5000   24.1350 C   0  0  0  0  0  0  0  0  0  0  0  0
    8.3510   -1.5420   24.6110 C   0  0  0  0  0  0  0  0  0  0  0  0
   10.2760   -2.3270   23.4020 C   0  0  0  0  0  0  0  0  0  0  0  0
   14.2889    0.9978   23.7911 C   0  0  0  0  0  0  0  0  0  0  0  0
   12.1777    0.1048   24.5542 C   0  0  0  0  0  0  0  0  0  0  0  0
   11.4995    1.0322   23.7631 C   0  0  0  0  0  0  0  0  0  0  0  0
    9.2850   -3.7090   25.1090 C   0  0  0  0  0  0  0  0  0  0  0  0
    9.3300   -1.3350   23.6390 C   0  0  0  0  0  0  0  0  0  0  0  0
   13.5724    0.0877   24.5681 C   0  0  0  0  0  0  0  0  0  0  0  0
    5.9810    0.8330   18.8060 C   0  0  0  0  0  0  0  0  0  0  0  0
    7.2210   -0.4620   20.0350 C   0  0  0  0  0  0  0  0  0  0  0  0
    4.9400    1.7060   18.5060 C   0  0  0  0  0  0  0  0  0  0  0  0
    4.0980    2.1130   19.5350 C   0  0  0  0  0  0  0  0  0  0  0  0
    4.2970    1.6690   20.8430 C   0  0  0  0  0  0  0  0  0  0  0  0
    5.3360    0.8000   21.1530 C   0  0  0  0  0  0  0  0  0  0  0  0
    9.6836   -6.1684   25.4392 C   0  0  0  0  0  0  0  0  0  0  0  0
    8.9510    0.1280   21.6880 C   0  0  0  0  0  0  0  0  0  0  0  0
    8.0396   -7.2904   27.0025 C   0  0  0  0  0  0  0  0  0  0  0  0
    9.9983    1.0521   23.7484 C   0  0  0  0  0  0  0  0  0  0  0  0
    9.4856   -7.1873   26.5516 C   0  0  0  0  0  0  0  0  0  0  0  0
    6.9440    0.2550   18.0100 N   0  0  0  0  0  0  0  0  0  0  0  0
    7.6830   -0.5170   18.7600 N   0  0  0  0  0  0  0  0  0  0  0  0
    6.1600    0.3870   20.1140 N   0  0  0  0  0  0  0  0  0  0  0  0
    9.2630   -4.8902   25.8410 N   0  0  0  0  0  0  0  0  0  0  0  0
    8.0810   -0.9750   21.0820 N   0  0  0  0  0  0  0  0  0  0  0  0
    9.4200   -0.0840   22.9530 N   0  0  0  0  0  0  0  0  0  0  0  0
   10.1552   -6.4778   24.3500 O   0  0  0  0  0  0  0  0  0  0  0  0
    9.1870    1.1500   21.0630 O   0  0  0  0  0  0  0  0  0  0  0  0
   14.4096   -1.0555   25.5448 Cl  0  0  0  0  0  0  0  0  0  0  0  0
   14.1683    2.6342   22.3949 H   0  0  0  0  0  0  0  0  0  0  0  0
   11.6959    2.6686   22.3667 H   0  0  0  0  0  0  0  0  0  0  0  0
    7.5639   -2.8621   26.1045 H   0  0  0  0  0  0  0  0  0  0  0  0
   11.0141   -4.2644   23.9422 H   0  0  0  0  0  0  0  0  0  0  0  0
    7.5950   -0.7788   24.8007 H   0  0  0  0  0  0  0  0  0  0  0  0
   11.0408   -2.1861   22.6359 H   0  0  0  0  0  0  0  0  0  0  0  0
   15.3761    0.9962   23.7923 H   0  0  0  0  0  0  0  0  0  0  0  0
   11.6144   -0.6030   25.1578 H   0  0  0  0  0  0  0  0  0  0  0  0
    4.7733    2.0700   17.5071 H   0  0  0  0  0  0  0  0  0  0  0  0
    3.2813    2.7836   19.2995 H   0  0  0  0  0  0  0  0  0  0  0  0
    3.6335    1.9977   21.6542 H   0  0  0  0  0  0  0  0  0  0  0  0
    5.5067    0.4537   22.1474 H   0  0  0  0  0  0  0  0  0  0  0  0
    7.6717   -6.3257   27.3675 H   0  0  0  0  0  0  0  0  0  0  0  0
    7.9438   -8.0211   27.8115 H   0  0  0  0  0  0  0  0  0  0  0  0
    7.3921   -7.6062   26.1778 H   0  0  0  0  0  0  0  0  0  0  0  0
    9.6012    0.9760   24.7665 H   0  0  0  0  0  0  0  0  0  0  0  0
    9.6219    1.9877   23.3216 H   0  0  0  0  0  0  0  0  0  0  0  0
    9.8267   -8.1650   26.1921 H   0  0  0  0  0  0  0  0  0  0  0  0
   10.1142   -6.9000   27.4022 H   0  0  0  0  0  0  0  0  0  0  0  0
    8.8929   -4.8270   26.7966 H   0  0  0  0  0  0  0  0  0  0  0  0
    8.1127   -1.8124   21.3493 H   0  0  0  0  0  0  0  0  0  0  0  0
  1  2  2  0  0  0  0
  1  7  1  0  0  0  0
  2  9  1  0  0  0  0
  3  5  2  0  0  0  0
  3 10  1  0  0  0  0
  4  6  1  0  0  0  0
  4 10  2  0  0  0  0
  5 11  1  0  0  0  0
  6 11  2  0  0  0  0
  7 12  2  0  0  0  0
  8  9  2  0  0  0  0
  8 12  1  0  0  0  0
  9 22  1  0  0  0  0
 10 27  1  0  0  0  0
 11 29  1  0  0  0  0
 12 32  1  0  0  0  0
 13 15  1  0  0  0  0
 13 24  2  0  0  0  0
 13 26  1  0  0  0  0
 14 25  2  0  0  0  0
 14 26  1  0  0  0  0
 14 28  1  0  0  0  0
 15 16  2  0  0  0  0
 16 17  1  0  0  0  0
 17 18  2  0  0  0  0
 18 26  1  0  0  0  0
 19 23  1  0  0  0  0
 19 27  1  0  0  0  0
 19 30  2  0  0  0  0
 20 28  1  0  0  0  0
 20 29  1  0  0  0  0
 20 31  2  0  0  0  0
 21 23  1  0  0  0  0
 22 29  1  0  0  0  0
 24 25  1  0  0  0  0
  1 33  1  0  0  0  0
  2 34  1  0  0  0  0
  3 35  1  0  0  0  0
  4 36  1  0  0  0  0
  5 37  1  0  0  0  0
  6 38  1  0  0  0  0
  7 39  1  0  0  0  0
  8 40  1  0  0  0  0
 15 41  1  0  0  0  0
 16 42  1  0  0  0  0
 17 43  1  0  0  0  0
 18 44  1  0  0  0  0
 21 45  1  0  0  0  0
 21 46  1  0  0  0  0
 21 47  1  0  0  0  0
 22 48  1  0  0  0  0
 22 49  1  0  0  0  0
 23 50  1  0  0  0  0
 23 51  1  0  0  0  0
 27 52  1  0  0  0  0
 28 53  1  0  0  0  0
M  END
> <clash_score>
2.0806237732970416

> <docking_score>
-4.961503028869629

> <overlap_score>
0.9818034172058105

$$$$
BENZO_147_1
  -OEChem-08232013483D

 53 56  0     0  0  0  0  0  0999 V2000
    8.3310   -2.7170   25.3430 C   0  0  0  0  0  0  0  0  0  0  0  0
   10.2570   -3.5000   24.1350 C   0  0  0  0  0  0  0  0  0  0  0  0
    8.3510   -1.5420   24.6110 C   0  0  0  0  0  0  0  0  0  0  0  0
   10.2760   -2.3270   23.4020 C   0  0  0  0  0  0  0  0  0  0  0  0
   12.3512    0.9327   24.8795 C   0  0  0  0  0  0  0  0  0  0  0  0
   12.3505    1.1046   22.6874 C   0  0  0  0  0  0  0  0  0  0  0  0
   11.4995    1.0322   23.7631 C   0  0  0  0  0  0  0  0  0  0  0  0
    9.2850   -3.7090   25.1090 C   0  0  0  0  0  0  0  0  0  0  0  0
    9.3300   -1.3350   23.6390 C   0  0  0  0  0  0  0  0  0  0  0  0
    5.9810    0.8330   18.8060 C   0  0  0  0  0  0  0  0  0  0  0  0
    7.2210   -0.4620   20.0350 C   0  0  0  0  0  0  0  0  0  0  0  0
    4.9400    1.7060   18.5060 C   0  0  0  0  0  0  0  0  0  0  0  0
    4.0980    2.1130   19.5350 C   0  0  0  0  0  0  0  0  0  0  0  0
    4.2970    1.6690   20.8430 C   0  0  0  0  0  0  0  0  0  0  0  0
    5.3360    0.8000   21.1530 C   0  0  0  0  0  0  0  0  0  0  0  0
    9.6836   -6.1684   25.4392 C   0  0  0  0  0  0  0  0  0  0  0  0
    8.9510    0.1280   21.6880 C   0  0  0  0  0  0  0  0  0  0  0  0
    8.0396   -7.2904   27.0025 C   0  0  0  0  0  0  0  0  0  0  0  0
   14.8457    1.0868   22.4584 C   0  0  0  0  0  0  0  0  0  0  0  0
    9.9983    1.0521   23.7484 C   0  0  0  0  0  0  0  0  0  0  0  0
    9.4856   -7.1873   26.5516 C   0  0  0  0  0  0  0  0  0  0  0  0
   13.6441    0.9406   24.5441 N   0  0  0  0  0  0  0  0  0  0  0  0
    6.9440    0.2550   18.0100 N   0  0  0  0  0  0  0  0  0  0  0  0
    7.6830   -0.5170   18.7600 N   0  0  0  0  0  0  0  0  0  0  0  0
   13.6111    1.0459   23.2048 N   0  0  0  0  0  0  0  0  0  0  0  0
    6.1600    0.3870   20.1140 N   0  0  0  0  0  0  0  0  0  0  0  0
    9.2630   -4.8902   25.8410 N   0  0  0  0  0  0  0  0  0  0  0  0
    8.0810   -0.9750   21.0820 N   0  0  0  0  0  0  0  0  0  0  0  0
    9.4200   -0.0840   22.9530 N   0  0  0  0  0  0  0  0  0  0  0  0
   10.1552   -6.4778   24.3500 O   0  0  0  0  0  0  0  0  0  0  0  0
    9.1870    1.1500   21.0630 O   0  0  0  0  0  0  0  0  0  0  0  0
    7.5639   -2.8621   26.1045 H   0  0  0  0  0  0  0  0  0  0  0  0
   11.0141   -4.2644   23.9422 H   0  0  0  0  0  0  0  0  0  0  0  0
    7.5950   -0.7788   24.8007 H   0  0  0  0  0  0  0  0  0  0  0  0
   11.0408   -2.1861   22.6359 H   0  0  0  0  0  0  0  0  0  0  0  0
   12.0861    0.8538   25.9244 H   0  0  0  0  0  0  0  0  0  0  0  0
   12.1709    1.1893   21.6242 H   0  0  0  0  0  0  0  0  0  0  0  0
    4.7733    2.0700   17.5071 H   0  0  0  0  0  0  0  0  0  0  0  0
    3.2813    2.7836   19.2995 H   0  0  0  0  0  0  0  0  0  0  0  0
    3.6335    1.9977   21.6542 H   0  0  0  0  0  0  0  0  0  0  0  0
    5.5067    0.4537   22.1474 H   0  0  0  0  0  0  0  0  0  0  0  0
    7.6717   -6.3257   27.3675 H   0  0  0  0  0  0  0  0  0  0  0  0
    7.9438   -8.0211   27.8115 H   0  0  0  0  0  0  0  0  0  0  0  0
    7.3921   -7.6062   26.1778 H   0  0  0  0  0  0  0  0  0  0  0  0
   15.1491    2.1329   22.3653 H   0  0  0  0  0  0  0  0  0  0  0  0
   15.6108    0.5126   22.9883 H   0  0  0  0  0  0  0  0  0  0  0  0
   14.6859    0.6447   21.4710 H   0  0  0  0  0  0  0  0  0  0  0  0
    9.6012    0.9760   24.7665 H   0  0  0  0  0  0  0  0  0  0  0  0
    9.6219    1.9877   23.3216 H   0  0  0  0  0  0  0  0  0  0  0  0
    9.8267   -8.1650   26.1921 H   0  0  0  0  0  0  0  0  0  0  0  0
   10.1142   -6.9000   27.4022 H   0  0  0  0  0  0  0  0  0  0  0  0
    8.8929   -4.8270   26.7966 H   0  0  0  0  0  0  0  0  0  0  0  0
    8.1127   -1.8124   21.3493 H   0  0  0  0  0  0  0  0  0  0  0  0
  1  3  2  0  0  0  0
  1  8  1  0  0  0  0
  2  4  1  0  0  0  0
  2  8  2  0  0  0  0
  3  9  1  0  0  0  0
  4  9  2  0  0  0  0
  5  7  1  0  0  0  0
  5 22  2  0  0  0  0
  6  7  2  0  0  0  0
  6 25  1  0  0  0  0
  7 20  1  0  0  0  0
  8 27  1  0  0  0  0
  9 29  1  0  0  0  0
 10 12  1  0  0  0  0
 10 23  2  0  0  0  0
 10 26  1  0  0  0  0
 11 24  2  0  0  0  0
 11 26  1  0  0  0  0
 11 28  1  0  0  0  0
 12 13  2  0  0  0  0
 13 14  1  0  0  0  0
 14 15  2  0  0  0  0
 15 26  1  0  0  0  0
 16 21  1  0  0  0  0
 16 27  1  0  0  0  0
 16 30  2  0  0  0  0
 17 28  1  0  0  0  0
 17 29  1  0  0  0  0
 17 31  2  0  0  0  0
 18 21  1  0  0  0  0
 19 25  1  0  0  0  0
 20 29  1  0  0  0  0
 22 25  1  0  0  0  0
 23 24  1  0  0  0  0
  1 32  1  0  0  0  0
  2 33  1  0  0  0  0
  3 34  1  0  0  0  0
  4 35  1  0  0  0  0
  5 36  1  0  0  0  0
  6 37  1  0  0  0  0
 12 38  1  0  0  0  0
 13 39  1  0  0  0  0
 14 40  1  0  0  0  0
 15 41  1  0  0  0  0
 18 42  1  0  0  0  0
 18 43  1  0  0  0  0
 18 44  1  0  0  0  0
 19 45  1  0  0  0  0
 19 46  1  0  0  0  0
 19 47  1  0  0  0  0
 20 48  1  0  0  0  0
 20 49  1  0  0  0  0
 21 50  1  0  0  0  0
 21 51  1  0  0  0  0
 27 52  1  0  0  0  0
 28 53  1  0  0  0  0
M  END
> <clash_score>
1.3334639249641471

> <docking_score>
-5.743099689483643

> <overlap_score>
0.9736725091934204

$$$$
BENZO_148_1
  -OEChem-08232013483D

 55 59  0     0  0  0  0  0  0999 V2000
    8.3310   -2.7170   25.3430 C   0  0  0  0  0  0  0  0  0  0  0  0
   10.2570   -3.5000   24.1350 C   0  0  0  0  0  0  0  0  0  0  0  0
    8.3510   -1.5420   24.6110 C   0  0  0  0  0  0  0  0  0  0  0  0
   10.2760   -2.3270   23.4020 C   0  0  0  0  0  0  0  0  0  0  0  0
   12.2931    1.1632   22.5497 C   0  0  0  0  0  0  0  0  0  0  0  0
   13.6413    1.1718   22.8323 C   0  0  0  0  0  0  0  0  0  0  0  0
   12.2708    1.0613   24.8717 C   0  0  0  0  0  0  0  0  0  0  0  0
   11.4991    1.0994   23.7311 C   0  0  0  0  0  0  0  0  0  0  0  0
    9.2850   -3.7090   25.1090 C   0  0  0  0  0  0  0  0  0  0  0  0
    9.3300   -1.3350   23.6390 C   0  0  0  0  0  0  0  0  0  0  0  0
    5.9810    0.8330   18.8060 C   0  0  0  0  0  0  0  0  0  0  0  0
    7.2210   -0.4620   20.0350 C   0  0  0  0  0  0  0  0  0  0  0  0
    4.9400    1.7060   18.5060 C   0  0  0  0  0  0  0  0  0  0  0  0
    4.0980    2.1130   19.5350 C   0  0  0  0  0  0  0  0  0  0  0  0
    4.2970    1.6690   20.8430 C   0  0  0  0  0  0  0  0  0  0  0  0
    5.3360    0.8000   21.1530 C   0  0  0  0  0  0  0  0  0  0  0  0
    8.9510    0.1280   21.6880 C   0  0  0  0  0  0  0  0  0  0  0  0
    7.3162   -6.8835   26.5210 C   0  0  0  0  0  0  0  0  0  0  0  0
    7.3507   -5.5245   27.2240 C   0  0  0  0  0  0  0  0  0  0  0  0
    7.9375   -6.8069   25.1245 C   0  0  0  0  0  0  0  0  0  0  0  0
    8.7638   -4.9418   27.2163 C   0  0  0  0  0  0  0  0  0  0  0  0
    9.3378   -6.1874   25.1659 C   0  0  0  0  0  0  0  0  0  0  0  0
    9.9979    1.0755   23.7305 C   0  0  0  0  0  0  0  0  0  0  0  0
    6.9440    0.2550   18.0100 N   0  0  0  0  0  0  0  0  0  0  0  0
    7.6830   -0.5170   18.7600 N   0  0  0  0  0  0  0  0  0  0  0  0
    6.1600    0.3870   20.1140 N   0  0  0  0  0  0  0  0  0  0  0  0
    9.2639   -4.8860   25.8399 N   0  0  0  0  0  0  0  0  0  0  0  0
    8.0810   -0.9750   21.0820 N   0  0  0  0  0  0  0  0  0  0  0  0
    9.4200   -0.0840   22.9530 N   0  0  0  0  0  0  0  0  0  0  0  0
    9.1870    1.1500   21.0630 O   0  0  0  0  0  0  0  0  0  0  0  0
   13.9453    1.1028   24.5161 S   0  0  0  0  0  0  0  0  0  0  0  0
    7.5647   -2.8621   26.1053 H   0  0  0  0  0  0  0  0  0  0  0  0
   11.0144   -4.2642   23.9425 H   0  0  0  0  0  0  0  0  0  0  0  0
    7.5958   -0.7779   24.8006 H   0  0  0  0  0  0  0  0  0  0  0  0
   11.0406   -2.1848   22.6356 H   0  0  0  0  0  0  0  0  0  0  0  0
   11.8995    1.2007   21.5418 H   0  0  0  0  0  0  0  0  0  0  0  0
   14.4623    1.2144   22.1306 H   0  0  0  0  0  0  0  0  0  0  0  0
   11.9355    1.0099   25.8983 H   0  0  0  0  0  0  0  0  0  0  0  0
    4.7733    2.0700   17.5071 H   0  0  0  0  0  0  0  0  0  0  0  0
    3.2813    2.7836   19.2995 H   0  0  0  0  0  0  0  0  0  0  0  0
    3.6335    1.9977   21.6542 H   0  0  0  0  0  0  0  0  0  0  0  0
    5.5067    0.4537   22.1474 H   0  0  0  0  0  0  0  0  0  0  0  0
    7.8578   -7.6261   27.1266 H   0  0  0  0  0  0  0  0  0  0  0  0
    6.2773   -7.2358   26.4459 H   0  0  0  0  0  0  0  0  0  0  0  0
    6.6663   -4.8351   26.7223 H   0  0  0  0  0  0  0  0  0  0  0  0
    7.0044   -5.6368   28.2534 H   0  0  0  0  0  0  0  0  0  0  0  0
    7.9946   -7.8119   24.6937 H   0  0  0  0  0  0  0  0  0  0  0  0
    7.2929   -6.2123   24.4668 H   0  0  0  0  0  0  0  0  0  0  0  0
    8.7343   -3.9408   27.6542 H   0  0  0  0  0  0  0  0  0  0  0  0
    9.4243   -5.5632   27.8278 H   0  0  0  0  0  0  0  0  0  0  0  0
   10.0200   -6.8490   25.7011 H   0  0  0  0  0  0  0  0  0  0  0  0
    9.6984   -6.0694   24.1436 H   0  0  0  0  0  0  0  0  0  0  0  0
    9.6122    1.0250   24.7546 H   0  0  0  0  0  0  0  0  0  0  0  0
    9.5906    1.9837   23.2740 H   0  0  0  0  0  0  0  0  0  0  0  0
    8.1334   -1.7992   21.3673 H   0  0  0  0  0  0  0  0  0  0  0  0
  1  3  2  0  0  0  0
  1  9  1  0  0  0  0
  2  4  1  0  0  0  0
  2  9  2  0  0  0  0
  3 10  1  0  0  0  0
  4 10  2  0  0  0  0
  5  6  2  0  0  0  0
  5  8  1  0  0  0  0
  6 31  1  0  0  0  0
  7  8  2  0  0  0  0
  7 31  1  0  0  0  0
  8 23  1  0  0  0  0
  9 27  1  0  0  0  0
 10 29  1  0  0  0  0
 11 13  1  0  0  0  0
 11 24  2  0  0  0  0
 11 26  1  0  0  0  0
 12 25  2  0  0  0  0
 12 26  1  0  0  0  0
 12 28  1  0  0  0  0
 13 14  2  0  0  0  0
 14 15  1  0  0  0  0
 15 16  2  0  0  0  0
 16 26  1  0  0  0  0
 17 28  1  0  0  0  0
 17 29  1  0  0  0  0
 17 30  2  0  0  0  0
 18 19  1  0  0  0  0
 18 20  1  0  0  0  0
 19 21  1  0  0  0  0
 20 22  1  0  0  0  0
 21 27  1  0  0  0  0
 22 27  1  0  0  0  0
 23 29  1  0  0  0  0
 24 25  1  0  0  0  0
  1 32  1  0  0  0  0
  2 33  1  0  0  0  0
  3 34  1  0  0  0  0
  4 35  1  0  0  0  0
  5 36  1  0  0  0  0
  6 37  1  0  0  0  0
  7 38  1  0  0  0  0
 13 39  1  0  0  0  0
 14 40  1  0  0  0  0
 15 41  1  0  0  0  0
 16 42  1  0  0  0  0
 18 43  1  0  0  0  0
 18 44  1  0  0  0  0
 19 45  1  0  0  0  0
 19 46  1  0  0  0  0
 20 47  1  0  0  0  0
 20 48  1  0  0  0  0
 21 49  1  0  0  0  0
 21 50  1  0  0  0  0
 22 51  1  0  0  0  0
 22 52  1  0  0  0  0
 23 53  1  0  0  0  0
 23 54  1  0  0  0  0
 28 55  1  0  0  0  0
M  END
> <clash_score>
0

> <docking_score>
-8.61341381072998

> <overlap_score>
0.9876057505607605

$$$$
BENZO_153_1
  -OEChem-08232013483D

 46 49  0     0  0  0  0  0  0999 V2000
   14.2889    0.9956   23.7889 C   0  0  0  0  0  0  0  0  0  0  0  0
   13.5734    0.3184   24.7764 C   0  0  0  0  0  0  0  0  0  0  0  0
   13.6098    1.6912   22.7886 C   0  0  0  0  0  0  0  0  0  0  0  0
   12.1787    0.3367   24.7634 C   0  0  0  0  0  0  0  0  0  0  0  0
   12.2151    1.7095   22.7757 C   0  0  0  0  0  0  0  0  0  0  0  0
    8.3310   -2.7170   25.3430 C   0  0  0  0  0  0  0  0  0  0  0  0
   10.2570   -3.5000   24.1350 C   0  0  0  0  0  0  0  0  0  0  0  0
    8.3510   -1.5420   24.6110 C   0  0  0  0  0  0  0  0  0  0  0  0
   10.2760   -2.3270   23.4020 C   0  0  0  0  0  0  0  0  0  0  0  0
    9.2850   -3.7090   25.1090 C   0  0  0  0  0  0  0  0  0  0  0  0
   11.4995    1.0322   23.7631 C   0  0  0  0  0  0  0  0  0  0  0  0
    9.3300   -1.3350   23.6390 C   0  0  0  0  0  0  0  0  0  0  0  0
    5.9810    0.8330   18.8060 C   0  0  0  0  0  0  0  0  0  0  0  0
    7.2210   -0.4620   20.0350 C   0  0  0  0  0  0  0  0  0  0  0  0
    4.9400    1.7060   18.5060 C   0  0  0  0  0  0  0  0  0  0  0  0
    4.0980    2.1130   19.5350 C   0  0  0  0  0  0  0  0  0  0  0  0
    4.2970    1.6690   20.8430 C   0  0  0  0  0  0  0  0  0  0  0  0
    5.3360    0.8000   21.1530 C   0  0  0  0  0  0  0  0  0  0  0  0
    8.9510    0.1280   21.6880 C   0  0  0  0  0  0  0  0  0  0  0  0
    9.2610   -4.9721   25.8916 C   0  0  0  0  0  0  0  0  0  0  0  0
    9.9983    1.0521   23.7484 C   0  0  0  0  0  0  0  0  0  0  0  0
    6.9440    0.2550   18.0100 N   0  0  0  0  0  0  0  0  0  0  0  0
    7.6830   -0.5170   18.7600 N   0  0  0  0  0  0  0  0  0  0  0  0
    6.1600    0.3870   20.1140 N   0  0  0  0  0  0  0  0  0  0  0  0
    8.0810   -0.9750   21.0820 N   0  0  0  0  0  0  0  0  0  0  0  0
    9.4200   -0.0840   22.9530 N   0  0  0  0  0  0  0  0  0  0  0  0
    9.1870    1.1500   21.0630 O   0  0  0  0  0  0  0  0  0  0  0  0
   15.3749    0.9825   23.7999 H   0  0  0  0  0  0  0  0  0  0  0  0
   14.1020   -0.2223   25.5560 H   0  0  0  0  0  0  0  0  0  0  0  0
   14.1665    2.2195   22.0203 H   0  0  0  0  0  0  0  0  0  0  0  0
   11.6295   -0.1940   25.5367 H   0  0  0  0  0  0  0  0  0  0  0  0
   11.6944    2.2539   21.9923 H   0  0  0  0  0  0  0  0  0  0  0  0
    7.5665   -2.8638   26.1066 H   0  0  0  0  0  0  0  0  0  0  0  0
   11.0137   -4.2652   23.9447 H   0  0  0  0  0  0  0  0  0  0  0  0
    7.5948   -0.7788   24.7997 H   0  0  0  0  0  0  0  0  0  0  0  0
   11.0411   -2.1856   22.6358 H   0  0  0  0  0  0  0  0  0  0  0  0
    4.7733    2.0700   17.5071 H   0  0  0  0  0  0  0  0  0  0  0  0
    3.2813    2.7836   19.2995 H   0  0  0  0  0  0  0  0  0  0  0  0
    3.6335    1.9977   21.6542 H   0  0  0  0  0  0  0  0  0  0  0  0
    5.5067    0.4537   22.1474 H   0  0  0  0  0  0  0  0  0  0  0  0
    8.6398   -5.7223   25.3871 H   0  0  0  0  0  0  0  0  0  0  0  0
   10.2715   -5.3829   26.0145 H   0  0  0  0  0  0  0  0  0  0  0  0
    8.8596   -4.8092   26.9004 H   0  0  0  0  0  0  0  0  0  0  0  0
    9.6012    0.9760   24.7665 H   0  0  0  0  0  0  0  0  0  0  0  0
    9.6219    1.9877   23.3216 H   0  0  0  0  0  0  0  0  0  0  0  0
    8.1127   -1.8124   21.3493 H   0  0  0  0  0  0  0  0  0  0  0  0
  1  2  1  0  0  0  0
  1  3  2  0  0  0  0
  2  4  2  0  0  0  0
  3  5  1  0  0  0  0
  4 11  1  0  0  0  0
  5 11  2  0  0  0  0
  6  8  2  0  0  0  0
  6 10  1  0  0  0  0
  7  9  1  0  0  0  0
  7 10  2  0  0  0  0
  8 12  1  0  0  0  0
  9 12  2  0  0  0  0
 10 20  1  0  0  0  0
 11 21  1  0  0  0  0
 12 26  1  0  0  0  0
 13 15  1  0  0  0  0
 13 22  2  0  0  0  0
 13 24  1  0  0  0  0
 14 23  2  0  0  0  0
 14 24  1  0  0  0  0
 14 25  1  0  0  0  0
 15 16  2  0  0  0  0
 16 17  1  0  0  0  0
 17 18  2  0  0  0  0
 18 24  1  0  0  0  0
 19 25  1  0  0  0  0
 19 26  1  0  0  0  0
 19 27  2  0  0  0  0
 21 26  1  0  0  0  0
 22 23  1  0  0  0  0
  1 28  1  0  0  0  0
  2 29  1  0  0  0  0
  3 30  1  0  0  0  0
  4 31  1  0  0  0  0
  5 32  1  0  0  0  0
  6 33  1  0  0  0  0
  7 34  1  0  0  0  0
  8 35  1  0  0  0  0
  9 36  1  0  0  0  0
 15 37  1  0  0  0  0
 16 38  1  0  0  0  0
 17 39  1  0  0  0  0
 18 40  1  0  0  0  0
 20 41  1  0  0  0  0
 20 42  1  0  0  0  0
 20 43  1  0  0  0  0
 21 44  1  0  0  0  0
 21 45  1  0  0  0  0
 25 46  1  0  0  0  0
M  END
> <clash_score>
0

> <docking_score>
-9.294821739196777

> <overlap_score>
0.9644825458526611

$$$$
BENZO_152_1
  -OEChem-08232013483D

 43 46  0     0  0  0  0  0  0999 V2000
    8.3310   -2.7170   25.3430 C   0  0  0  0  0  0  0  0  0  0  0  0
   10.2570   -3.5000   24.1350 C   0  0  0  0  0  0  0  0  0  0  0  0
    8.3510   -1.5420   24.6110 C   0  0  0  0  0  0  0  0  0  0  0  0
   10.2760   -2.3270   23.4020 C   0  0  0  0  0  0  0  0  0  0  0  0
   12.3067    1.1154   22.5919 C   0  0  0  0  0  0  0  0  0  0  0  0
   13.6518    1.0745   22.8865 C   0  0  0  0  0  0  0  0  0  0  0  0
   12.2585    0.9306   24.9083 C   0  0  0  0  0  0  0  0  0  0  0  0
    9.2850   -3.7090   25.1090 C   0  0  0  0  0  0  0  0  0  0  0  0
   11.4995    1.0322   23.7631 C   0  0  0  0  0  0  0  0  0  0  0  0
    9.3300   -1.3350   23.6390 C   0  0  0  0  0  0  0  0  0  0  0  0
    5.9810    0.8330   18.8060 C   0  0  0  0  0  0  0  0  0  0  0  0
    7.2210   -0.4620   20.0350 C   0  0  0  0  0  0  0  0  0  0  0  0
    4.9400    1.7060   18.5060 C   0  0  0  0  0  0  0  0  0  0  0  0
    4.0980    2.1130   19.5350 C   0  0  0  0  0  0  0  0  0  0  0  0
    4.2970    1.6690   20.8430 C   0  0  0  0  0  0  0  0  0  0  0  0
    5.3360    0.8000   21.1530 C   0  0  0  0  0  0  0  0  0  0  0  0
    8.9510    0.1280   21.6880 C   0  0  0  0  0  0  0  0  0  0  0  0
    9.2610   -4.9721   25.8916 C   0  0  0  0  0  0  0  0  0  0  0  0
    9.9983    1.0521   23.7484 C   0  0  0  0  0  0  0  0  0  0  0  0
    6.9440    0.2550   18.0100 N   0  0  0  0  0  0  0  0  0  0  0  0
    7.6830   -0.5170   18.7600 N   0  0  0  0  0  0  0  0  0  0  0  0
    6.1600    0.3870   20.1140 N   0  0  0  0  0  0  0  0  0  0  0  0
    8.0810   -0.9750   21.0820 N   0  0  0  0  0  0  0  0  0  0  0  0
    9.4200   -0.0840   22.9530 N   0  0  0  0  0  0  0  0  0  0  0  0
    9.1870    1.1500   21.0630 O   0  0  0  0  0  0  0  0  0  0  0  0
   13.9370    0.9362   24.5693 S   0  0  0  0  0  0  0  0  0  0  0  0
    7.5665   -2.8638   26.1066 H   0  0  0  0  0  0  0  0  0  0  0  0
   11.0137   -4.2652   23.9447 H   0  0  0  0  0  0  0  0  0  0  0  0
    7.5948   -0.7788   24.7997 H   0  0  0  0  0  0  0  0  0  0  0  0
   11.0411   -2.1856   22.6358 H   0  0  0  0  0  0  0  0  0  0  0  0
   11.9244    1.2007   21.5825 H   0  0  0  0  0  0  0  0  0  0  0  0
   14.4805    1.1185   22.1941 H   0  0  0  0  0  0  0  0  0  0  0  0
   11.9117    0.8521   25.9294 H   0  0  0  0  0  0  0  0  0  0  0  0
    4.7733    2.0700   17.5071 H   0  0  0  0  0  0  0  0  0  0  0  0
    3.2813    2.7836   19.2995 H   0  0  0  0  0  0  0  0  0  0  0  0
    3.6335    1.9977   21.6542 H   0  0  0  0  0  0  0  0  0  0  0  0
    5.5067    0.4537   22.1474 H   0  0  0  0  0  0  0  0  0  0  0  0
    8.6398   -5.7223   25.3871 H   0  0  0  0  0  0  0  0  0  0  0  0
   10.2715   -5.3829   26.0145 H   0  0  0  0  0  0  0  0  0  0  0  0
    8.8596   -4.8092   26.9004 H   0  0  0  0  0  0  0  0  0  0  0  0
    9.6012    0.9760   24.7665 H   0  0  0  0  0  0  0  0  0  0  0  0
    9.6219    1.9877   23.3216 H   0  0  0  0  0  0  0  0  0  0  0  0
    8.1127   -1.8124   21.3493 H   0  0  0  0  0  0  0  0  0  0  0  0
  1  3  2  0  0  0  0
  1  8  1  0  0  0  0
  2  4  1  0  0  0  0
  2  8  2  0  0  0  0
  3 10  1  0  0  0  0
  4 10  2  0  0  0  0
  5  6  2  0  0  0  0
  5  9  1  0  0  0  0
  6 26  1  0  0  0  0
  7  9  2  0  0  0  0
  7 26  1  0  0  0  0
  8 18  1  0  0  0  0
  9 19  1  0  0  0  0
 10 24  1  0  0  0  0
 11 13  1  0  0  0  0
 11 20  2  0  0  0  0
 11 22  1  0  0  0  0
 12 21  2  0  0  0  0
 12 22  1  0  0  0  0
 12 23  1  0  0  0  0
 13 14  2  0  0  0  0
 14 15  1  0  0  0  0
 15 16  2  0  0  0  0
 16 22  1  0  0  0  0
 17 23  1  0  0  0  0
 17 24  1  0  0  0  0
 17 25  2  0  0  0  0
 19 24  1  0  0  0  0
 20 21  1  0  0  0  0
  1 27  1  0  0  0  0
  2 28  1  0  0  0  0
  3 29  1  0  0  0  0
  4 30  1  0  0  0  0
  5 31  1  0  0  0  0
  6 32  1  0  0  0  0
  7 33  1  0  0  0  0
 13 34  1  0  0  0  0
 14 35  1  0  0  0  0
 15 36  1  0  0  0  0
 16 37  1  0  0  0  0
 18 38  1  0  0  0  0
 18 39  1  0  0  0  0
 18 40  1  0  0  0  0
 19 41  1  0  0  0  0
 19 42  1  0  0  0  0
 23 43  1  0  0  0  0
M  END
> <clash_score>
0

> <docking_score>
-9.683244705200195

> <overlap_score>
0.9420248866081238

$$$$
BENZO_155_1
  -OEChem-08232013483D

 46 49  0     0  0  0  0  0  0999 V2000
    8.3310   -2.7170   25.3430 C   0  0  0  0  0  0  0  0  0  0  0  0
   10.2570   -3.5000   24.1350 C   0  0  0  0  0  0  0  0  0  0  0  0
    8.3510   -1.5420   24.6110 C   0  0  0  0  0  0  0  0  0  0  0  0
   10.2760   -2.3270   23.4020 C   0  0  0  0  0  0  0  0  0  0  0  0
   12.3512    0.9327   24.8795 C   0  0  0  0  0  0  0  0  0  0  0  0
   12.3505    1.1046   22.6874 C   0  0  0  0  0  0  0  0  0  0  0  0
    9.2850   -3.7090   25.1090 C   0  0  0  0  0  0  0  0  0  0  0  0
   11.4995    1.0322   23.7631 C   0  0  0  0  0  0  0  0  0  0  0  0
    9.3300   -1.3350   23.6390 C   0  0  0  0  0  0  0  0  0  0  0  0
    5.9810    0.8330   18.8060 C   0  0  0  0  0  0  0  0  0  0  0  0
    7.2210   -0.4620   20.0350 C   0  0  0  0  0  0  0  0  0  0  0  0
    4.9400    1.7060   18.5060 C   0  0  0  0  0  0  0  0  0  0  0  0
    4.0980    2.1130   19.5350 C   0  0  0  0  0  0  0  0  0  0  0  0
    4.2970    1.6690   20.8430 C   0  0  0  0  0  0  0  0  0  0  0  0
    5.3360    0.8000   21.1530 C   0  0  0  0  0  0  0  0  0  0  0  0
    8.9510    0.1280   21.6880 C   0  0  0  0  0  0  0  0  0  0  0  0
    9.2610   -4.9721   25.8916 C   0  0  0  0  0  0  0  0  0  0  0  0
   14.8457    1.0868   22.4584 C   0  0  0  0  0  0  0  0  0  0  0  0
    9.9983    1.0521   23.7484 C   0  0  0  0  0  0  0  0  0  0  0  0
   13.6441    0.9406   24.5441 N   0  0  0  0  0  0  0  0  0  0  0  0
    6.9440    0.2550   18.0100 N   0  0  0  0  0  0  0  0  0  0  0  0
    7.6830   -0.5170   18.7600 N   0  0  0  0  0  0  0  0  0  0  0  0
   13.6111    1.0459   23.2048 N   0  0  0  0  0  0  0  0  0  0  0  0
    6.1600    0.3870   20.1140 N   0  0  0  0  0  0  0  0  0  0  0  0
    8.0810   -0.9750   21.0820 N   0  0  0  0  0  0  0  0  0  0  0  0
    9.4200   -0.0840   22.9530 N   0  0  0  0  0  0  0  0  0  0  0  0
    9.1870    1.1500   21.0630 O   0  0  0  0  0  0  0  0  0  0  0  0
    7.5665   -2.8638   26.1066 H   0  0  0  0  0  0  0  0  0  0  0  0
   11.0137   -4.2652   23.9447 H   0  0  0  0  0  0  0  0  0  0  0  0
    7.5948   -0.7788   24.7997 H   0  0  0  0  0  0  0  0  0  0  0  0
   11.0411   -2.1856   22.6358 H   0  0  0  0  0  0  0  0  0  0  0  0
   12.0861    0.8538   25.9244 H   0  0  0  0  0  0  0  0  0  0  0  0
   12.1709    1.1893   21.6242 H   0  0  0  0  0  0  0  0  0  0  0  0
    4.7733    2.0700   17.5071 H   0  0  0  0  0  0  0  0  0  0  0  0
    3.2813    2.7836   19.2995 H   0  0  0  0  0  0  0  0  0  0  0  0
    3.6335    1.9977   21.6542 H   0  0  0  0  0  0  0  0  0  0  0  0
    5.5067    0.4537   22.1474 H   0  0  0  0  0  0  0  0  0  0  0  0
    8.6398   -5.7223   25.3871 H   0  0  0  0  0  0  0  0  0  0  0  0
   10.2715   -5.3829   26.0145 H   0  0  0  0  0  0  0  0  0  0  0  0
    8.8596   -4.8092   26.9004 H   0  0  0  0  0  0  0  0  0  0  0  0
   15.1491    2.1329   22.3653 H   0  0  0  0  0  0  0  0  0  0  0  0
   15.6108    0.5126   22.9883 H   0  0  0  0  0  0  0  0  0  0  0  0
   14.6859    0.6447   21.4710 H   0  0  0  0  0  0  0  0  0  0  0  0
    9.6012    0.9760   24.7665 H   0  0  0  0  0  0  0  0  0  0  0  0
    9.6219    1.9877   23.3216 H   0  0  0  0  0  0  0  0  0  0  0  0
    8.1127   -1.8124   21.3493 H   0  0  0  0  0  0  0  0  0  0  0  0
  1  3  2  0  0  0  0
  1  7  1  0  0  0  0
  2  4  1  0  0  0  0
  2  7  2  0  0  0  0
  3  9  1  0  0  0  0
  4  9  2  0  0  0  0
  5  8  1  0  0  0  0
  5 20  2  0  0  0  0
  6  8  2  0  0  0  0
  6 23  1  0  0  0  0
  7 17  1  0  0  0  0
  8 19  1  0  0  0  0
  9 26  1  0  0  0  0
 10 12  1  0  0  0  0
 10 21  2  0  0  0  0
 10 24  1  0  0  0  0
 11 22  2  0  0  0  0
 11 24  1  0  0  0  0
 11 25  1  0  0  0  0
 12 13  2  0  0  0  0
 13 14  1  0  0  0  0
 14 15  2  0  0  0  0
 15 24  1  0  0  0  0
 16 25  1  0  0  0  0
 16 26  1  0  0  0  0
 16 27  2  0  0  0  0
 18 23  1  0  0  0  0
 19 26  1  0  0  0  0
 20 23  1  0  0  0  0
 21 22  1  0  0  0  0
  1 28  1  0  0  0  0
  2 29  1  0  0  0  0
  3 30  1  0  0  0  0
  4 31  1  0  0  0  0
  5 32  1  0  0  0  0
  6 33  1  0  0  0  0
 12 34  1  0  0  0  0
 13 35  1  0  0  0  0
 14 36  1  0  0  0  0
 15 37  1  0  0  0  0
 17 38  1  0  0  0  0
 17 39  1  0  0  0  0
 17 40  1  0  0  0  0
 18 41  1  0  0  0  0
 18 42  1  0  0  0  0
 18 43  1  0  0  0  0
 19 44  1  0  0  0  0
 19 45  1  0  0  0  0
 25 46  1  0  0  0  0
M  END
> <clash_score>
0

> <docking_score>
-8.933232307434082

> <overlap_score>
0.9582065343856812

$$$$
BENZO_151_1
  -OEChem-08232013483D

 58 62  0     0  0  0  0  0  0999 V2000
    8.3310   -2.7170   25.3430 C   0  0  0  0  0  0  0  0  0  0  0  0
   10.2570   -3.5000   24.1350 C   0  0  0  0  0  0  0  0  0  0  0  0
    8.3510   -1.5420   24.6110 C   0  0  0  0  0  0  0  0  0  0  0  0
   10.2760   -2.3270   23.4020 C   0  0  0  0  0  0  0  0  0  0  0  0
   12.3632    1.0650   24.8419 C   0  0  0  0  0  0  0  0  0  0  0  0
   12.3381    1.1571   22.6451 C   0  0  0  0  0  0  0  0  0  0  0  0
   11.4991    1.0994   23.7311 C   0  0  0  0  0  0  0  0  0  0  0  0
    9.2850   -3.7090   25.1090 C   0  0  0  0  0  0  0  0  0  0  0  0
    9.3300   -1.3350   23.6390 C   0  0  0  0  0  0  0  0  0  0  0  0
    5.9810    0.8330   18.8060 C   0  0  0  0  0  0  0  0  0  0  0  0
    7.2210   -0.4620   20.0350 C   0  0  0  0  0  0  0  0  0  0  0  0
    4.9400    1.7060   18.5060 C   0  0  0  0  0  0  0  0  0  0  0  0
    4.0980    2.1130   19.5350 C   0  0  0  0  0  0  0  0  0  0  0  0
    4.2970    1.6690   20.8430 C   0  0  0  0  0  0  0  0  0  0  0  0
    5.3360    0.8000   21.1530 C   0  0  0  0  0  0  0  0  0  0  0  0
    8.9510    0.1280   21.6880 C   0  0  0  0  0  0  0  0  0  0  0  0
    7.3162   -6.8835   26.5210 C   0  0  0  0  0  0  0  0  0  0  0  0
    7.3507   -5.5245   27.2240 C   0  0  0  0  0  0  0  0  0  0  0  0
    7.9375   -6.8069   25.1245 C   0  0  0  0  0  0  0  0  0  0  0  0
    8.7638   -4.9418   27.2163 C   0  0  0  0  0  0  0  0  0  0  0  0
    9.3378   -6.1874   25.1659 C   0  0  0  0  0  0  0  0  0  0  0  0
   14.8306    1.2029   22.3922 C   0  0  0  0  0  0  0  0  0  0  0  0
    9.9979    1.0755   23.7305 C   0  0  0  0  0  0  0  0  0  0  0  0
   13.6522    1.0980   24.4937 N   0  0  0  0  0  0  0  0  0  0  0  0
    6.9440    0.2550   18.0100 N   0  0  0  0  0  0  0  0  0  0  0  0
    7.6830   -0.5170   18.7600 N   0  0  0  0  0  0  0  0  0  0  0  0
   13.6043    1.1536   23.1518 N   0  0  0  0  0  0  0  0  0  0  0  0
    6.1600    0.3870   20.1140 N   0  0  0  0  0  0  0  0  0  0  0  0
    9.2639   -4.8860   25.8399 N   0  0  0  0  0  0  0  0  0  0  0  0
    8.0810   -0.9750   21.0820 N   0  0  0  0  0  0  0  0  0  0  0  0
    9.4200   -0.0840   22.9530 N   0  0  0  0  0  0  0  0  0  0  0  0
    9.1870    1.1500   21.0630 O   0  0  0  0  0  0  0  0  0  0  0  0
    7.5647   -2.8621   26.1053 H   0  0  0  0  0  0  0  0  0  0  0  0
   11.0144   -4.2642   23.9425 H   0  0  0  0  0  0  0  0  0  0  0  0
    7.5958   -0.7779   24.8006 H   0  0  0  0  0  0  0  0  0  0  0  0
   11.0406   -2.1848   22.6356 H   0  0  0  0  0  0  0  0  0  0  0  0
   12.1097    1.0164   25.8915 H   0  0  0  0  0  0  0  0  0  0  0  0
   12.1467    1.1980   21.5814 H   0  0  0  0  0  0  0  0  0  0  0  0
    4.7733    2.0700   17.5071 H   0  0  0  0  0  0  0  0  0  0  0  0
    3.2813    2.7836   19.2995 H   0  0  0  0  0  0  0  0  0  0  0  0
    3.6335    1.9977   21.6542 H   0  0  0  0  0  0  0  0  0  0  0  0
    5.5067    0.4537   22.1474 H   0  0  0  0  0  0  0  0  0  0  0  0
    7.8578   -7.6261   27.1266 H   0  0  0  0  0  0  0  0  0  0  0  0
    6.2773   -7.2358   26.4459 H   0  0  0  0  0  0  0  0  0  0  0  0
    6.6663   -4.8351   26.7223 H   0  0  0  0  0  0  0  0  0  0  0  0
    7.0044   -5.6368   28.2534 H   0  0  0  0  0  0  0  0  0  0  0  0
    7.9946   -7.8119   24.6937 H   0  0  0  0  0  0  0  0  0  0  0  0
    7.2929   -6.2123   24.4668 H   0  0  0  0  0  0  0  0  0  0  0  0
    8.7343   -3.9408   27.6542 H   0  0  0  0  0  0  0  0  0  0  0  0
    9.4243   -5.5632   27.8278 H   0  0  0  0  0  0  0  0  0  0  0  0
   10.0200   -6.8490   25.7011 H   0  0  0  0  0  0  0  0  0  0  0  0
    9.6984   -6.0694   24.1436 H   0  0  0  0  0  0  0  0  0  0  0  0
   15.1025    2.2532   22.2585 H   0  0  0  0  0  0  0  0  0  0  0  0
   15.6167    0.6705   22.9349 H   0  0  0  0  0  0  0  0  0  0  0  0
   14.6750    0.7207   21.4231 H   0  0  0  0  0  0  0  0  0  0  0  0
    9.6122    1.0250   24.7546 H   0  0  0  0  0  0  0  0  0  0  0  0
    9.5906    1.9837   23.2740 H   0  0  0  0  0  0  0  0  0  0  0  0
    8.1334   -1.7992   21.3673 H   0  0  0  0  0  0  0  0  0  0  0  0
  1  3  2  0  0  0  0
  1  8  1  0  0  0  0
  2  4  1  0  0  0  0
  2  8  2  0  0  0  0
  3  9  1  0  0  0  0
  4  9  2  0  0  0  0
  5  7  1  0  0  0  0
  5 24  2  0  0  0  0
  6  7  2  0  0  0  0
  6 27  1  0  0  0  0
  7 23  1  0  0  0  0
  8 29  1  0  0  0  0
  9 31  1  0  0  0  0
 10 12  1  0  0  0  0
 10 25  2  0  0  0  0
 10 28  1  0  0  0  0
 11 26  2  0  0  0  0
 11 28  1  0  0  0  0
 11 30  1  0  0  0  0
 12 13  2  0  0  0  0
 13 14  1  0  0  0  0
 14 15  2  0  0  0  0
 15 28  1  0  0  0  0
 16 30  1  0  0  0  0
 16 31  1  0  0  0  0
 16 32  2  0  0  0  0
 17 18  1  0  0  0  0
 17 19  1  0  0  0  0
 18 20  1  0  0  0  0
 19 21  1  0  0  0  0
 20 29  1  0  0  0  0
 21 29  1  0  0  0  0
 22 27  1  0  0  0  0
 23 31  1  0  0  0  0
 24 27  1  0  0  0  0
 25 26  1  0  0  0  0
  1 33  1  0  0  0  0
  2 34  1  0  0  0  0
  3 35  1  0  0  0  0
  4 36  1  0  0  0  0
  5 37  1  0  0  0  0
  6 38  1  0  0  0  0
 12 39  1  0  0  0  0
 13 40  1  0  0  0  0
 14 41  1  0  0  0  0
 15 42  1  0  0  0  0
 17 43  1  0  0  0  0
 17 44  1  0  0  0  0
 18 45  1  0  0  0  0
 18 46  1  0  0  0  0
 19 47  1  0  0  0  0
 19 48  1  0  0  0  0
 20 49  1  0  0  0  0
 20 50  1  0  0  0  0
 21 51  1  0  0  0  0
 21 52  1  0  0  0  0
 22 53  1  0  0  0  0
 22 54  1  0  0  0  0
 22 55  1  0  0  0  0
 23 56  1  0  0  0  0
 23 57  1  0  0  0  0
 30 58  1  0  0  0  0
M  END
> <clash_score>
0

> <docking_score>
-8.147624969482422

> <overlap_score>
1.003841519355774

$$$$
BENZO_150_1
  -OEChem-08232013483D

 58 62  0     0  0  0  0  0  0999 V2000
   13.5765    2.0245   22.9155 C   0  0  0  0  0  0  0  0  0  0  0  0
   12.1819    2.0010   22.9146 C   0  0  0  0  0  0  0  0  0  0  0  0
    8.3310   -2.7170   25.3430 C   0  0  0  0  0  0  0  0  0  0  0  0
   10.2570   -3.5000   24.1350 C   0  0  0  0  0  0  0  0  0  0  0  0
    8.3510   -1.5420   24.6110 C   0  0  0  0  0  0  0  0  0  0  0  0
   10.2760   -2.3270   23.4020 C   0  0  0  0  0  0  0  0  0  0  0  0
   14.2884    1.1463   23.7327 C   0  0  0  0  0  0  0  0  0  0  0  0
   12.2109    0.2212   24.5483 C   0  0  0  0  0  0  0  0  0  0  0  0
   11.4991    1.0994   23.7311 C   0  0  0  0  0  0  0  0  0  0  0  0
    9.2850   -3.7090   25.1090 C   0  0  0  0  0  0  0  0  0  0  0  0
    9.3300   -1.3350   23.6390 C   0  0  0  0  0  0  0  0  0  0  0  0
   13.6056    0.2447   24.5491 C   0  0  0  0  0  0  0  0  0  0  0  0
    5.9810    0.8330   18.8060 C   0  0  0  0  0  0  0  0  0  0  0  0
    7.2210   -0.4620   20.0350 C   0  0  0  0  0  0  0  0  0  0  0  0
    4.9400    1.7060   18.5060 C   0  0  0  0  0  0  0  0  0  0  0  0
    4.0980    2.1130   19.5350 C   0  0  0  0  0  0  0  0  0  0  0  0
    4.2970    1.6690   20.8430 C   0  0  0  0  0  0  0  0  0  0  0  0
    5.3360    0.8000   21.1530 C   0  0  0  0  0  0  0  0  0  0  0  0
    8.9510    0.1280   21.6880 C   0  0  0  0  0  0  0  0  0  0  0  0
    7.3162   -6.8835   26.5210 C   0  0  0  0  0  0  0  0  0  0  0  0
    7.3507   -5.5245   27.2240 C   0  0  0  0  0  0  0  0  0  0  0  0
    7.9375   -6.8069   25.1245 C   0  0  0  0  0  0  0  0  0  0  0  0
    8.7638   -4.9418   27.2163 C   0  0  0  0  0  0  0  0  0  0  0  0
    9.3378   -6.1874   25.1659 C   0  0  0  0  0  0  0  0  0  0  0  0
    9.9979    1.0755   23.7305 C   0  0  0  0  0  0  0  0  0  0  0  0
    6.9440    0.2550   18.0100 N   0  0  0  0  0  0  0  0  0  0  0  0
    7.6830   -0.5170   18.7600 N   0  0  0  0  0  0  0  0  0  0  0  0
    6.1600    0.3870   20.1140 N   0  0  0  0  0  0  0  0  0  0  0  0
    9.2639   -4.8860   25.8399 N   0  0  0  0  0  0  0  0  0  0  0  0
    8.0810   -0.9750   21.0820 N   0  0  0  0  0  0  0  0  0  0  0  0
    9.4200   -0.0840   22.9530 N   0  0  0  0  0  0  0  0  0  0  0  0
    9.1870    1.1500   21.0630 O   0  0  0  0  0  0  0  0  0  0  0  0
   14.4844   -0.8377   25.5580 Cl  0  0  0  0  0  0  0  0  0  0  0  0
   14.1079    2.7268   22.2797 H   0  0  0  0  0  0  0  0  0  0  0  0
   11.6354    2.6889   22.2748 H   0  0  0  0  0  0  0  0  0  0  0  0
    7.5647   -2.8621   26.1053 H   0  0  0  0  0  0  0  0  0  0  0  0
   11.0144   -4.2642   23.9425 H   0  0  0  0  0  0  0  0  0  0  0  0
    7.5958   -0.7779   24.8006 H   0  0  0  0  0  0  0  0  0  0  0  0
   11.0406   -2.1848   22.6356 H   0  0  0  0  0  0  0  0  0  0  0  0
   15.3752    1.1761   23.7233 H   0  0  0  0  0  0  0  0  0  0  0  0
   11.6739   -0.4802   25.1826 H   0  0  0  0  0  0  0  0  0  0  0  0
    4.7733    2.0700   17.5071 H   0  0  0  0  0  0  0  0  0  0  0  0
    3.2813    2.7836   19.2995 H   0  0  0  0  0  0  0  0  0  0  0  0
    3.6335    1.9977   21.6542 H   0  0  0  0  0  0  0  0  0  0  0  0
    5.5067    0.4537   22.1474 H   0  0  0  0  0  0  0  0  0  0  0  0
    7.8578   -7.6261   27.1266 H   0  0  0  0  0  0  0  0  0  0  0  0
    6.2773   -7.2358   26.4459 H   0  0  0  0  0  0  0  0  0  0  0  0
    6.6663   -4.8351   26.7223 H   0  0  0  0  0  0  0  0  0  0  0  0
    7.0044   -5.6368   28.2534 H   0  0  0  0  0  0  0  0  0  0  0  0
    7.9946   -7.8119   24.6937 H   0  0  0  0  0  0  0  0  0  0  0  0
    7.2929   -6.2123   24.4668 H   0  0  0  0  0  0  0  0  0  0  0  0
    8.7343   -3.9408   27.6542 H   0  0  0  0  0  0  0  0  0  0  0  0
    9.4243   -5.5632   27.8278 H   0  0  0  0  0  0  0  0  0  0  0  0
   10.0200   -6.8490   25.7011 H   0  0  0  0  0  0  0  0  0  0  0  0
    9.6984   -6.0694   24.1436 H   0  0  0  0  0  0  0  0  0  0  0  0
    9.6122    1.0250   24.7546 H   0  0  0  0  0  0  0  0  0  0  0  0
    9.5906    1.9837   23.2740 H   0  0  0  0  0  0  0  0  0  0  0  0
    8.1334   -1.7992   21.3673 H   0  0  0  0  0  0  0  0  0  0  0  0
  1  2  2  0  0  0  0
  1  7  1  0  0  0  0
  2  9  1  0  0  0  0
  3  5  2  0  0  0  0
  3 10  1  0  0  0  0
  4  6  1  0  0  0  0
  4 10  2  0  0  0  0
  5 11  1  0  0  0  0
  6 11  2  0  0  0  0
  7 12  2  0  0  0  0
  8  9  2  0  0  0  0
  8 12  1  0  0  0  0
  9 25  1  0  0  0  0
 10 29  1  0  0  0  0
 11 31  1  0  0  0  0
 12 33  1  0  0  0  0
 13 15  1  0  0  0  0
 13 26  2  0  0  0  0
 13 28  1  0  0  0  0
 14 27  2  0  0  0  0
 14 28  1  0  0  0  0
 14 30  1  0  0  0  0
 15 16  2  0  0  0  0
 16 17  1  0  0  0  0
 17 18  2  0  0  0  0
 18 28  1  0  0  0  0
 19 30  1  0  0  0  0
 19 31  1  0  0  0  0
 19 32  2  0  0  0  0
 20 21  1  0  0  0  0
 20 22  1  0  0  0  0
 21 23  1  0  0  0  0
 22 24  1  0  0  0  0
 23 29  1  0  0  0  0
 24 29  1  0  0  0  0
 25 31  1  0  0  0  0
 26 27  1  0  0  0  0
  1 34  1  0  0  0  0
  2 35  1  0  0  0  0
  3 36  1  0  0  0  0
  4 37  1  0  0  0  0
  5 38  1  0  0  0  0
  6 39  1  0  0  0  0
  7 40  1  0  0  0  0
  8 41  1  0  0  0  0
 15 42  1  0  0  0  0
 16 43  1  0  0  0  0
 17 44  1  0  0  0  0
 18 45  1  0  0  0  0
 20 46  1  0  0  0  0
 20 47  1  0  0  0  0
 21 48  1  0  0  0  0
 21 49  1  0  0  0  0
 22 50  1  0  0  0  0
 22 51  1  0  0  0  0
 23 52  1  0  0  0  0
 23 53  1  0  0  0  0
 24 54  1  0  0  0  0
 24 55  1  0  0  0  0
 25 56  1  0  0  0  0
 25 57  1  0  0  0  0
 30 58  1  0  0  0  0
M  END
> <clash_score>
0.6893404029544469

> <docking_score>
-7.258480072021484

> <overlap_score>
1.0125755071640015

$$$$
BENZO_154_1
  -OEChem-08232013483D

 46 49  0     0  0  0  0  0  0999 V2000
   13.6107    1.9252   23.0000 C   0  0  0  0  0  0  0  0  0  0  0  0
   12.2161    1.9424   22.9860 C   0  0  0  0  0  0  0  0  0  0  0  0
    8.3310   -2.7170   25.3430 C   0  0  0  0  0  0  0  0  0  0  0  0
   10.2570   -3.5000   24.1350 C   0  0  0  0  0  0  0  0  0  0  0  0
    8.3510   -1.5420   24.6110 C   0  0  0  0  0  0  0  0  0  0  0  0
   10.2760   -2.3270   23.4020 C   0  0  0  0  0  0  0  0  0  0  0  0
   14.2889    0.9978   23.7911 C   0  0  0  0  0  0  0  0  0  0  0  0
   12.1777    0.1048   24.5542 C   0  0  0  0  0  0  0  0  0  0  0  0
    9.2850   -3.7090   25.1090 C   0  0  0  0  0  0  0  0  0  0  0  0
   11.4995    1.0322   23.7631 C   0  0  0  0  0  0  0  0  0  0  0  0
    9.3300   -1.3350   23.6390 C   0  0  0  0  0  0  0  0  0  0  0  0
   13.5724    0.0877   24.5681 C   0  0  0  0  0  0  0  0  0  0  0  0
    5.9810    0.8330   18.8060 C   0  0  0  0  0  0  0  0  0  0  0  0
    7.2210   -0.4620   20.0350 C   0  0  0  0  0  0  0  0  0  0  0  0
    4.9400    1.7060   18.5060 C   0  0  0  0  0  0  0  0  0  0  0  0
    4.0980    2.1130   19.5350 C   0  0  0  0  0  0  0  0  0  0  0  0
    4.2970    1.6690   20.8430 C   0  0  0  0  0  0  0  0  0  0  0  0
    5.3360    0.8000   21.1530 C   0  0  0  0  0  0  0  0  0  0  0  0
    8.9510    0.1280   21.6880 C   0  0  0  0  0  0  0  0  0  0  0  0
    9.2610   -4.9721   25.8916 C   0  0  0  0  0  0  0  0  0  0  0  0
    9.9983    1.0521   23.7484 C   0  0  0  0  0  0  0  0  0  0  0  0
    6.9440    0.2550   18.0100 N   0  0  0  0  0  0  0  0  0  0  0  0
    7.6830   -0.5170   18.7600 N   0  0  0  0  0  0  0  0  0  0  0  0
    6.1600    0.3870   20.1140 N   0  0  0  0  0  0  0  0  0  0  0  0
    8.0810   -0.9750   21.0820 N   0  0  0  0  0  0  0  0  0  0  0  0
    9.4200   -0.0840   22.9530 N   0  0  0  0  0  0  0  0  0  0  0  0
    9.1870    1.1500   21.0630 O   0  0  0  0  0  0  0  0  0  0  0  0
   14.4096   -1.0555   25.5448 Cl  0  0  0  0  0  0  0  0  0  0  0  0
   14.1683    2.6342   22.3949 H   0  0  0  0  0  0  0  0  0  0  0  0
   11.6959    2.6686   22.3667 H   0  0  0  0  0  0  0  0  0  0  0  0
    7.5665   -2.8638   26.1066 H   0  0  0  0  0  0  0  0  0  0  0  0
   11.0137   -4.2652   23.9447 H   0  0  0  0  0  0  0  0  0  0  0  0
    7.5948   -0.7788   24.7997 H   0  0  0  0  0  0  0  0  0  0  0  0
   11.0411   -2.1856   22.6358 H   0  0  0  0  0  0  0  0  0  0  0  0
   15.3761    0.9962   23.7923 H   0  0  0  0  0  0  0  0  0  0  0  0
   11.6144   -0.6030   25.1578 H   0  0  0  0  0  0  0  0  0  0  0  0
    4.7733    2.0700   17.5071 H   0  0  0  0  0  0  0  0  0  0  0  0
    3.2813    2.7836   19.2995 H   0  0  0  0  0  0  0  0  0  0  0  0
    3.6335    1.9977   21.6542 H   0  0  0  0  0  0  0  0  0  0  0  0
    5.5067    0.4537   22.1474 H   0  0  0  0  0  0  0  0  0  0  0  0
    8.6398   -5.7223   25.3871 H   0  0  0  0  0  0  0  0  0  0  0  0
   10.2715   -5.3829   26.0145 H   0  0  0  0  0  0  0  0  0  0  0  0
    8.8596   -4.8092   26.9004 H   0  0  0  0  0  0  0  0  0  0  0  0
    9.6012    0.9760   24.7665 H   0  0  0  0  0  0  0  0  0  0  0  0
    9.6219    1.9877   23.3216 H   0  0  0  0  0  0  0  0  0  0  0  0
    8.1127   -1.8124   21.3493 H   0  0  0  0  0  0  0  0  0  0  0  0
  1  2  2  0  0  0  0
  1  7  1  0  0  0  0
  2 10  1  0  0  0  0
  3  5  2  0  0  0  0
  3  9  1  0  0  0  0
  4  6  1  0  0  0  0
  4  9  2  0  0  0  0
  5 11  1  0  0  0  0
  6 11  2  0  0  0  0
  7 12  2  0  0  0  0
  8 10  2  0  0  0  0
  8 12  1  0  0  0  0
  9 20  1  0  0  0  0
 10 21  1  0  0  0  0
 11 26  1  0  0  0  0
 12 28  1  0  0  0  0
 13 15  1  0  0  0  0
 13 22  2  0  0  0  0
 13 24  1  0  0  0  0
 14 23  2  0  0  0  0
 14 24  1  0  0  0  0
 14 25  1  0  0  0  0
 15 16  2  0  0  0  0
 16 17  1  0  0  0  0
 17 18  2  0  0  0  0
 18 24  1  0  0  0  0
 19 25  1  0  0  0  0
 19 26  1  0  0  0  0
 19 27  2  0  0  0  0
 21 26  1  0  0  0  0
 22 23  1  0  0  0  0
  1 29  1  0  0  0  0
  2 30  1  0  0  0  0
  3 31  1  0  0  0  0
  4 32  1  0  0  0  0
  5 33  1  0  0  0  0
  6 34  1  0  0  0  0
  7 35  1  0  0  0  0
  8 36  1  0  0  0  0
 15 37  1  0  0  0  0
 16 38  1  0  0  0  0
 17 39  1  0  0  0  0
 18 40  1  0  0  0  0
 20 41  1  0  0  0  0
 20 42  1  0  0  0  0
 20 43  1  0  0  0  0
 21 44  1  0  0  0  0
 21 45  1  0  0  0  0
 25 46  1  0  0  0  0
M  END
> <clash_score>
0.7471598483328945

> <docking_score>
-8.15163803100586

> <overlap_score>
0.9664115309715271

$$$$
BENZO_157_1
  -OEChem-08232013483D

 47 50  0     0  0  0  0  0  0999 V2000
   14.2889    0.9956   23.7889 C   0  0  0  0  0  0  0  0  0  0  0  0
   13.5734    0.3184   24.7764 C   0  0  0  0  0  0  0  0  0  0  0  0
   13.6098    1.6912   22.7886 C   0  0  0  0  0  0  0  0  0  0  0  0
   12.1787    0.3367   24.7634 C   0  0  0  0  0  0  0  0  0  0  0  0
   12.2151    1.7095   22.7757 C   0  0  0  0  0  0  0  0  0  0  0  0
    8.3510   -1.5420   24.6110 C   0  0  0  0  0  0  0  0  0  0  0  0
   10.2760   -2.3270   23.4020 C   0  0  0  0  0  0  0  0  0  0  0  0
    8.3310   -2.7170   25.3430 C   0  0  0  0  0  0  0  0  0  0  0  0
   10.2570   -3.5000   24.1350 C   0  0  0  0  0  0  0  0  0  0  0  0
   11.4995    1.0322   23.7631 C   0  0  0  0  0  0  0  0  0  0  0  0
    9.3300   -1.3350   23.6390 C   0  0  0  0  0  0  0  0  0  0  0  0
    9.2850   -3.7090   25.1090 C   0  0  0  0  0  0  0  0  0  0  0  0
    5.9810    0.8330   18.8060 C   0  0  0  0  0  0  0  0  0  0  0  0
    7.2210   -0.4620   20.0350 C   0  0  0  0  0  0  0  0  0  0  0  0
    4.9400    1.7060   18.5060 C   0  0  0  0  0  0  0  0  0  0  0  0
    4.0980    2.1130   19.5350 C   0  0  0  0  0  0  0  0  0  0  0  0
    4.2970    1.6690   20.8430 C   0  0  0  0  0  0  0  0  0  0  0  0
    5.3360    0.8000   21.1530 C   0  0  0  0  0  0  0  0  0  0  0  0
    8.9510    0.1280   21.6880 C   0  0  0  0  0  0  0  0  0  0  0  0
    8.2345   -4.9975   26.8023 C   0  0  0  0  0  0  0  0  0  0  0  0
    9.9983    1.0521   23.7484 C   0  0  0  0  0  0  0  0  0  0  0  0
    6.9440    0.2550   18.0100 N   0  0  0  0  0  0  0  0  0  0  0  0
    7.6830   -0.5170   18.7600 N   0  0  0  0  0  0  0  0  0  0  0  0
    6.1600    0.3870   20.1140 N   0  0  0  0  0  0  0  0  0  0  0  0
    8.0810   -0.9750   21.0820 N   0  0  0  0  0  0  0  0  0  0  0  0
    9.4200   -0.0840   22.9530 N   0  0  0  0  0  0  0  0  0  0  0  0
    9.1870    1.1500   21.0630 O   0  0  0  0  0  0  0  0  0  0  0  0
    9.2631   -4.8614   25.8229 O   0  0  0  0  0  0  0  0  0  0  0  0
   15.3749    0.9825   23.7999 H   0  0  0  0  0  0  0  0  0  0  0  0
   14.1020   -0.2223   25.5560 H   0  0  0  0  0  0  0  0  0  0  0  0
   14.1665    2.2195   22.0203 H   0  0  0  0  0  0  0  0  0  0  0  0
   11.6295   -0.1940   25.5367 H   0  0  0  0  0  0  0  0  0  0  0  0
   11.6944    2.2539   21.9923 H   0  0  0  0  0  0  0  0  0  0  0  0
    7.5951   -0.7786   24.8000 H   0  0  0  0  0  0  0  0  0  0  0  0
   11.0406   -2.1866   22.6351 H   0  0  0  0  0  0  0  0  0  0  0  0
    7.5664   -2.8674   26.1055 H   0  0  0  0  0  0  0  0  0  0  0  0
   11.0119   -4.2671   23.9461 H   0  0  0  0  0  0  0  0  0  0  0  0
    4.7733    2.0700   17.5071 H   0  0  0  0  0  0  0  0  0  0  0  0
    3.2813    2.7836   19.2995 H   0  0  0  0  0  0  0  0  0  0  0  0
    3.6335    1.9977   21.6542 H   0  0  0  0  0  0  0  0  0  0  0  0
    5.5067    0.4537   22.1474 H   0  0  0  0  0  0  0  0  0  0  0  0
    8.3310   -5.9649   27.3011 H   0  0  0  0  0  0  0  0  0  0  0  0
    7.2574   -4.9206   26.3188 H   0  0  0  0  0  0  0  0  0  0  0  0
    8.3378   -4.1980   27.5398 H   0  0  0  0  0  0  0  0  0  0  0  0
    9.6012    0.9760   24.7665 H   0  0  0  0  0  0  0  0  0  0  0  0
    9.6219    1.9877   23.3216 H   0  0  0  0  0  0  0  0  0  0  0  0
    8.1127   -1.8124   21.3493 H   0  0  0  0  0  0  0  0  0  0  0  0
  1  2  1  0  0  0  0
  1  3  2  0  0  0  0
  2  4  2  0  0  0  0
  3  5  1  0  0  0  0
  4 10  1  0  0  0  0
  5 10  2  0  0  0  0
  6  8  2  0  0  0  0
  6 11  1  0  0  0  0
  7  9  1  0  0  0  0
  7 11  2  0  0  0  0
  8 12  1  0  0  0  0
  9 12  2  0  0  0  0
 10 21  1  0  0  0  0
 11 26  1  0  0  0  0
 12 28  1  0  0  0  0
 13 15  1  0  0  0  0
 13 22  2  0  0  0  0
 13 24  1  0  0  0  0
 14 23  2  0  0  0  0
 14 24  1  0  0  0  0
 14 25  1  0  0  0  0
 15 16  2  0  0  0  0
 16 17  1  0  0  0  0
 17 18  2  0  0  0  0
 18 24  1  0  0  0  0
 19 25  1  0  0  0  0
 19 26  1  0  0  0  0
 19 27  2  0  0  0  0
 20 28  1  0  0  0  0
 21 26  1  0  0  0  0
 22 23  1  0  0  0  0
  1 29  1  0  0  0  0
  2 30  1  0  0  0  0
  3 31  1  0  0  0  0
  4 32  1  0  0  0  0
  5 33  1  0  0  0  0
  6 34  1  0  0  0  0
  7 35  1  0  0  0  0
  8 36  1  0  0  0  0
  9 37  1  0  0  0  0
 15 38  1  0  0  0  0
 16 39  1  0  0  0  0
 17 40  1  0  0  0  0
 18 41  1  0  0  0  0
 20 42  1  0  0  0  0
 20 43  1  0  0  0  0
 20 44  1  0  0  0  0
 21 45  1  0  0  0  0
 21 46  1  0  0  0  0
 25 47  1  0  0  0  0
M  END
> <clash_score>
0

> <docking_score>
-9.003815650939941

> <overlap_score>
0.9883813858032227

$$$$
BENZO_156_1
  -OEChem-08232013483D

 44 47  0     0  0  0  0  0  0999 V2000
    8.3510   -1.5420   24.6110 C   0  0  0  0  0  0  0  0  0  0  0  0
   10.2760   -2.3270   23.4020 C   0  0  0  0  0  0  0  0  0  0  0  0
    8.3310   -2.7170   25.3430 C   0  0  0  0  0  0  0  0  0  0  0  0
   10.2570   -3.5000   24.1350 C   0  0  0  0  0  0  0  0  0  0  0  0
   12.3067    1.1154   22.5919 C   0  0  0  0  0  0  0  0  0  0  0  0
   13.6518    1.0745   22.8865 C   0  0  0  0  0  0  0  0  0  0  0  0
   12.2585    0.9306   24.9083 C   0  0  0  0  0  0  0  0  0  0  0  0
   11.4995    1.0322   23.7631 C   0  0  0  0  0  0  0  0  0  0  0  0
    9.3300   -1.3350   23.6390 C   0  0  0  0  0  0  0  0  0  0  0  0
    9.2850   -3.7090   25.1090 C   0  0  0  0  0  0  0  0  0  0  0  0
    5.9810    0.8330   18.8060 C   0  0  0  0  0  0  0  0  0  0  0  0
    7.2210   -0.4620   20.0350 C   0  0  0  0  0  0  0  0  0  0  0  0
    4.9400    1.7060   18.5060 C   0  0  0  0  0  0  0  0  0  0  0  0
    4.0980    2.1130   19.5350 C   0  0  0  0  0  0  0  0  0  0  0  0
    4.2970    1.6690   20.8430 C   0  0  0  0  0  0  0  0  0  0  0  0
    5.3360    0.8000   21.1530 C   0  0  0  0  0  0  0  0  0  0  0  0
    8.9510    0.1280   21.6880 C   0  0  0  0  0  0  0  0  0  0  0  0
    8.2345   -4.9975   26.8023 C   0  0  0  0  0  0  0  0  0  0  0  0
    9.9983    1.0521   23.7484 C   0  0  0  0  0  0  0  0  0  0  0  0
    6.9440    0.2550   18.0100 N   0  0  0  0  0  0  0  0  0  0  0  0
    7.6830   -0.5170   18.7600 N   0  0  0  0  0  0  0  0  0  0  0  0
    6.1600    0.3870   20.1140 N   0  0  0  0  0  0  0  0  0  0  0  0
    8.0810   -0.9750   21.0820 N   0  0  0  0  0  0  0  0  0  0  0  0
    9.4200   -0.0840   22.9530 N   0  0  0  0  0  0  0  0  0  0  0  0
    9.1870    1.1500   21.0630 O   0  0  0  0  0  0  0  0  0  0  0  0
    9.2631   -4.8614   25.8229 O   0  0  0  0  0  0  0  0  0  0  0  0
   13.9370    0.9362   24.5693 S   0  0  0  0  0  0  0  0  0  0  0  0
    7.5951   -0.7786   24.8000 H   0  0  0  0  0  0  0  0  0  0  0  0
   11.0406   -2.1866   22.6351 H   0  0  0  0  0  0  0  0  0  0  0  0
    7.5664   -2.8674   26.1055 H   0  0  0  0  0  0  0  0  0  0  0  0
   11.0119   -4.2671   23.9461 H   0  0  0  0  0  0  0  0  0  0  0  0
   11.9244    1.2007   21.5825 H   0  0  0  0  0  0  0  0  0  0  0  0
   14.4805    1.1185   22.1941 H   0  0  0  0  0  0  0  0  0  0  0  0
   11.9117    0.8521   25.9294 H   0  0  0  0  0  0  0  0  0  0  0  0
    4.7733    2.0700   17.5071 H   0  0  0  0  0  0  0  0  0  0  0  0
    3.2813    2.7836   19.2995 H   0  0  0  0  0  0  0  0  0  0  0  0
    3.6335    1.9977   21.6542 H   0  0  0  0  0  0  0  0  0  0  0  0
    5.5067    0.4537   22.1474 H   0  0  0  0  0  0  0  0  0  0  0  0
    8.3310   -5.9649   27.3011 H   0  0  0  0  0  0  0  0  0  0  0  0
    7.2574   -4.9206   26.3188 H   0  0  0  0  0  0  0  0  0  0  0  0
    8.3378   -4.1980   27.5398 H   0  0  0  0  0  0  0  0  0  0  0  0
    9.6012    0.9760   24.7665 H   0  0  0  0  0  0  0  0  0  0  0  0
    9.6219    1.9877   23.3216 H   0  0  0  0  0  0  0  0  0  0  0  0
    8.1127   -1.8124   21.3493 H   0  0  0  0  0  0  0  0  0  0  0  0
  1  3  2  0  0  0  0
  1  9  1  0  0  0  0
  2  4  1  0  0  0  0
  2  9  2  0  0  0  0
  3 10  1  0  0  0  0
  4 10  2  0  0  0  0
  5  6  2  0  0  0  0
  5  8  1  0  0  0  0
  6 27  1  0  0  0  0
  7  8  2  0  0  0  0
  7 27  1  0  0  0  0
  8 19  1  0  0  0  0
  9 24  1  0  0  0  0
 10 26  1  0  0  0  0
 11 13  1  0  0  0  0
 11 20  2  0  0  0  0
 11 22  1  0  0  0  0
 12 21  2  0  0  0  0
 12 22  1  0  0  0  0
 12 23  1  0  0  0  0
 13 14  2  0  0  0  0
 14 15  1  0  0  0  0
 15 16  2  0  0  0  0
 16 22  1  0  0  0  0
 17 23  1  0  0  0  0
 17 24  1  0  0  0  0
 17 25  2  0  0  0  0
 18 26  1  0  0  0  0
 19 24  1  0  0  0  0
 20 21  1  0  0  0  0
  1 28  1  0  0  0  0
  2 29  1  0  0  0  0
  3 30  1  0  0  0  0
  4 31  1  0  0  0  0
  5 32  1  0  0  0  0
  6 33  1  0  0  0  0
  7 34  1  0  0  0  0
 13 35  1  0  0  0  0
 14 36  1  0  0  0  0
 15 37  1  0  0  0  0
 16 38  1  0  0  0  0
 18 39  1  0  0  0  0
 18 40  1  0  0  0  0
 18 41  1  0  0  0  0
 19 42  1  0  0  0  0
 19 43  1  0  0  0  0
 23 44  1  0  0  0  0
M  END
> <clash_score>
0

> <docking_score>
-9.392240524291992

> <overlap_score>
0.9660243988037109

$$$$
BENZO_159_1
  -OEChem-08232013483D

 47 50  0     0  0  0  0  0  0999 V2000
    8.3510   -1.5420   24.6110 C   0  0  0  0  0  0  0  0  0  0  0  0
   10.2760   -2.3270   23.4020 C   0  0  0  0  0  0  0  0  0  0  0  0
    8.3310   -2.7170   25.3430 C   0  0  0  0  0  0  0  0  0  0  0  0
   10.2570   -3.5000   24.1350 C   0  0  0  0  0  0  0  0  0  0  0  0
   12.3645    1.7420   24.6174 C   0  0  0  0  0  0  0  0  0  0  0  0
   12.3375    0.3137   22.9457 C   0  0  0  0  0  0  0  0  0  0  0  0
   11.4995    1.0322   23.7631 C   0  0  0  0  0  0  0  0  0  0  0  0
    9.3300   -1.3350   23.6390 C   0  0  0  0  0  0  0  0  0  0  0  0
    9.2850   -3.7090   25.1090 C   0  0  0  0  0  0  0  0  0  0  0  0
    5.9810    0.8330   18.8060 C   0  0  0  0  0  0  0  0  0  0  0  0
    7.2210   -0.4620   20.0350 C   0  0  0  0  0  0  0  0  0  0  0  0
    4.9400    1.7060   18.5060 C   0  0  0  0  0  0  0  0  0  0  0  0
    4.0980    2.1130   19.5350 C   0  0  0  0  0  0  0  0  0  0  0  0
    4.2970    1.6690   20.8430 C   0  0  0  0  0  0  0  0  0  0  0  0
    5.3360    0.8000   21.1530 C   0  0  0  0  0  0  0  0  0  0  0  0
    8.9510    0.1280   21.6880 C   0  0  0  0  0  0  0  0  0  0  0  0
   14.8297    0.1124   22.7802 C   0  0  0  0  0  0  0  0  0  0  0  0
    8.2345   -4.9975   26.8023 C   0  0  0  0  0  0  0  0  0  0  0  0
    9.9983    1.0521   23.7484 C   0  0  0  0  0  0  0  0  0  0  0  0
   13.6532    1.4965   24.3662 N   0  0  0  0  0  0  0  0  0  0  0  0
    6.9440    0.2550   18.0100 N   0  0  0  0  0  0  0  0  0  0  0  0
    7.6830   -0.5170   18.7600 N   0  0  0  0  0  0  0  0  0  0  0  0
   13.6041    0.6244   23.3449 N   0  0  0  0  0  0  0  0  0  0  0  0
    6.1600    0.3870   20.1140 N   0  0  0  0  0  0  0  0  0  0  0  0
    8.0810   -0.9750   21.0820 N   0  0  0  0  0  0  0  0  0  0  0  0
    9.4200   -0.0840   22.9530 N   0  0  0  0  0  0  0  0  0  0  0  0
    9.1870    1.1500   21.0630 O   0  0  0  0  0  0  0  0  0  0  0  0
    9.2631   -4.8614   25.8229 O   0  0  0  0  0  0  0  0  0  0  0  0
    7.5951   -0.7786   24.8000 H   0  0  0  0  0  0  0  0  0  0  0  0
   11.0406   -2.1866   22.6351 H   0  0  0  0  0  0  0  0  0  0  0  0
    7.5664   -2.8674   26.1055 H   0  0  0  0  0  0  0  0  0  0  0  0
   11.0119   -4.2671   23.9461 H   0  0  0  0  0  0  0  0  0  0  0  0
   12.1119    2.4277   25.4138 H   0  0  0  0  0  0  0  0  0  0  0  0
   12.1452   -0.3760   22.1351 H   0  0  0  0  0  0  0  0  0  0  0  0
    4.7733    2.0700   17.5071 H   0  0  0  0  0  0  0  0  0  0  0  0
    3.2813    2.7836   19.2995 H   0  0  0  0  0  0  0  0  0  0  0  0
    3.6335    1.9977   21.6542 H   0  0  0  0  0  0  0  0  0  0  0  0
    5.5067    0.4537   22.1474 H   0  0  0  0  0  0  0  0  0  0  0  0
   15.1350    0.7831   21.9727 H   0  0  0  0  0  0  0  0  0  0  0  0
   15.5994    0.0727   23.5560 H   0  0  0  0  0  0  0  0  0  0  0  0
   14.6565   -0.8966   22.3956 H   0  0  0  0  0  0  0  0  0  0  0  0
    8.3310   -5.9649   27.3011 H   0  0  0  0  0  0  0  0  0  0  0  0
    7.2574   -4.9206   26.3188 H   0  0  0  0  0  0  0  0  0  0  0  0
    8.3378   -4.1980   27.5398 H   0  0  0  0  0  0  0  0  0  0  0  0
    9.6012    0.9760   24.7665 H   0  0  0  0  0  0  0  0  0  0  0  0
    9.6219    1.9877   23.3216 H   0  0  0  0  0  0  0  0  0  0  0  0
    8.1127   -1.8124   21.3493 H   0  0  0  0  0  0  0  0  0  0  0  0
  1  3  2  0  0  0  0
  1  8  1  0  0  0  0
  2  4  1  0  0  0  0
  2  8  2  0  0  0  0
  3  9  1  0  0  0  0
  4  9  2  0  0  0  0
  5  7  1  0  0  0  0
  5 20  2  0  0  0  0
  6  7  2  0  0  0  0
  6 23  1  0  0  0  0
  7 19  1  0  0  0  0
  8 26  1  0  0  0  0
  9 28  1  0  0  0  0
 10 12  1  0  0  0  0
 10 21  2  0  0  0  0
 10 24  1  0  0  0  0
 11 22  2  0  0  0  0
 11 24  1  0  0  0  0
 11 25  1  0  0  0  0
 12 13  2  0  0  0  0
 13 14  1  0  0  0  0
 14 15  2  0  0  0  0
 15 24  1  0  0  0  0
 16 25  1  0  0  0  0
 16 26  1  0  0  0  0
 16 27  2  0  0  0  0
 17 23  1  0  0  0  0
 18 28  1  0  0  0  0
 19 26  1  0  0  0  0
 20 23  1  0  0  0  0
 21 22  1  0  0  0  0
  1 29  1  0  0  0  0
  2 30  1  0  0  0  0
  3 31  1  0  0  0  0
  4 32  1  0  0  0  0
  5 33  1  0  0  0  0
  6 34  1  0  0  0  0
 12 35  1  0  0  0  0
 13 36  1  0  0  0  0
 14 37  1  0  0  0  0
 15 38  1  0  0  0  0
 17 39  1  0  0  0  0
 17 40  1  0  0  0  0
 17 41  1  0  0  0  0
 18 42  1  0  0  0  0
 18 43  1  0  0  0  0
 18 44  1  0  0  0  0
 19 45  1  0  0  0  0
 19 46  1  0  0  0  0
 25 47  1  0  0  0  0
M  END
> <clash_score>
0

> <docking_score>
-8.847846984863281

> <overlap_score>
0.9741629958152771

$$$$
BENZO_158_1
  -OEChem-08232013483D

 47 50  0     0  0  0  0  0  0999 V2000
   13.6107    1.9252   23.0000 C   0  0  0  0  0  0  0  0  0  0  0  0
   12.2161    1.9424   22.9860 C   0  0  0  0  0  0  0  0  0  0  0  0
    8.3510   -1.5420   24.6110 C   0  0  0  0  0  0  0  0  0  0  0  0
   10.2760   -2.3270   23.4020 C   0  0  0  0  0  0  0  0  0  0  0  0
    8.3310   -2.7170   25.3430 C   0  0  0  0  0  0  0  0  0  0  0  0
   10.2570   -3.5000   24.1350 C   0  0  0  0  0  0  0  0  0  0  0  0
   14.2889    0.9978   23.7911 C   0  0  0  0  0  0  0  0  0  0  0  0
   12.1777    0.1048   24.5542 C   0  0  0  0  0  0  0  0  0  0  0  0
   11.4995    1.0322   23.7631 C   0  0  0  0  0  0  0  0  0  0  0  0
    9.3300   -1.3350   23.6390 C   0  0  0  0  0  0  0  0  0  0  0  0
    9.2850   -3.7090   25.1090 C   0  0  0  0  0  0  0  0  0  0  0  0
   13.5724    0.0877   24.5681 C   0  0  0  0  0  0  0  0  0  0  0  0
    5.9810    0.8330   18.8060 C   0  0  0  0  0  0  0  0  0  0  0  0
    7.2210   -0.4620   20.0350 C   0  0  0  0  0  0  0  0  0  0  0  0
    4.9400    1.7060   18.5060 C   0  0  0  0  0  0  0  0  0  0  0  0
    4.0980    2.1130   19.5350 C   0  0  0  0  0  0  0  0  0  0  0  0
    4.2970    1.6690   20.8430 C   0  0  0  0  0  0  0  0  0  0  0  0
    5.3360    0.8000   21.1530 C   0  0  0  0  0  0  0  0  0  0  0  0
    8.9510    0.1280   21.6880 C   0  0  0  0  0  0  0  0  0  0  0  0
    8.2345   -4.9975   26.8023 C   0  0  0  0  0  0  0  0  0  0  0  0
    9.9983    1.0521   23.7484 C   0  0  0  0  0  0  0  0  0  0  0  0
    6.9440    0.2550   18.0100 N   0  0  0  0  0  0  0  0  0  0  0  0
    7.6830   -0.5170   18.7600 N   0  0  0  0  0  0  0  0  0  0  0  0
    6.1600    0.3870   20.1140 N   0  0  0  0  0  0  0  0  0  0  0  0
    8.0810   -0.9750   21.0820 N   0  0  0  0  0  0  0  0  0  0  0  0
    9.4200   -0.0840   22.9530 N   0  0  0  0  0  0  0  0  0  0  0  0
    9.1870    1.1500   21.0630 O   0  0  0  0  0  0  0  0  0  0  0  0
    9.2631   -4.8614   25.8229 O   0  0  0  0  0  0  0  0  0  0  0  0
   14.4096   -1.0555   25.5448 Cl  0  0  0  0  0  0  0  0  0  0  0  0
   14.1683    2.6342   22.3949 H   0  0  0  0  0  0  0  0  0  0  0  0
   11.6959    2.6686   22.3667 H   0  0  0  0  0  0  0  0  0  0  0  0
    7.5951   -0.7786   24.8000 H   0  0  0  0  0  0  0  0  0  0  0  0
   11.0406   -2.1866   22.6351 H   0  0  0  0  0  0  0  0  0  0  0  0
    7.5664   -2.8674   26.1055 H   0  0  0  0  0  0  0  0  0  0  0  0
   11.0119   -4.2671   23.9461 H   0  0  0  0  0  0  0  0  0  0  0  0
   15.3761    0.9962   23.7923 H   0  0  0  0  0  0  0  0  0  0  0  0
   11.6144   -0.6030   25.1578 H   0  0  0  0  0  0  0  0  0  0  0  0
    4.7733    2.0700   17.5071 H   0  0  0  0  0  0  0  0  0  0  0  0
    3.2813    2.7836   19.2995 H   0  0  0  0  0  0  0  0  0  0  0  0
    3.6335    1.9977   21.6542 H   0  0  0  0  0  0  0  0  0  0  0  0
    5.5067    0.4537   22.1474 H   0  0  0  0  0  0  0  0  0  0  0  0
    8.3310   -5.9649   27.3011 H   0  0  0  0  0  0  0  0  0  0  0  0
    7.2574   -4.9206   26.3188 H   0  0  0  0  0  0  0  0  0  0  0  0
    8.3378   -4.1980   27.5398 H   0  0  0  0  0  0  0  0  0  0  0  0
    9.6012    0.9760   24.7665 H   0  0  0  0  0  0  0  0  0  0  0  0
    9.6219    1.9877   23.3216 H   0  0  0  0  0  0  0  0  0  0  0  0
    8.1127   -1.8124   21.3493 H   0  0  0  0  0  0  0  0  0  0  0  0
  1  2  2  0  0  0  0
  1  7  1  0  0  0  0
  2  9  1  0  0  0  0
  3  5  2  0  0  0  0
  3 10  1  0  0  0  0
  4  6  1  0  0  0  0
  4 10  2  0  0  0  0
  5 11  1  0  0  0  0
  6 11  2  0  0  0  0
  7 12  2  0  0  0  0
  8  9  2  0  0  0  0
  8 12  1  0  0  0  0
  9 21  1  0  0  0  0
 10 26  1  0  0  0  0
 11 28  1  0  0  0  0
 12 29  1  0  0  0  0
 13 15  1  0  0  0  0
 13 22  2  0  0  0  0
 13 24  1  0  0  0  0
 14 23  2  0  0  0  0
 14 24  1  0  0  0  0
 14 25  1  0  0  0  0
 15 16  2  0  0  0  0
 16 17  1  0  0  0  0
 17 18  2  0  0  0  0
 18 24  1  0  0  0  0
 19 25  1  0  0  0  0
 19 26  1  0  0  0  0
 19 27  2  0  0  0  0
 20 28  1  0  0  0  0
 21 26  1  0  0  0  0
 22 23  1  0  0  0  0
  1 30  1  0  0  0  0
  2 31  1  0  0  0  0
  3 32  1  0  0  0  0
  4 33  1  0  0  0  0
  5 34  1  0  0  0  0
  6 35  1  0  0  0  0
  7 36  1  0  0  0  0
  8 37  1  0  0  0  0
 15 38  1  0  0  0  0
 16 39  1  0  0  0  0
 17 40  1  0  0  0  0
 18 41  1  0  0  0  0
 20 42  1  0  0  0  0
 20 43  1  0  0  0  0
 20 44  1  0  0  0  0
 21 45  1  0  0  0  0
 21 46  1  0  0  0  0
 25 47  1  0  0  0  0
M  END
> <clash_score>
0.7471598483328945

> <docking_score>
-7.860633850097656

> <overlap_score>
0.990272045135498

$$$$
BENZO_161_1
  -OEChem-08232013483D

 57 61  0     0  0  0  0  0  0999 V2000
   14.2876    0.9747   23.7797 C   0  0  0  0  0  0  0  0  0  0  0  0
   13.5635    0.3279   24.7811 C   0  0  0  0  0  0  0  0  0  0  0  0
   13.6173    1.6544   22.7626 C   0  0  0  0  0  0  0  0  0  0  0  0
   12.1691    0.3605   24.7654 C   0  0  0  0  0  0  0  0  0  0  0  0
   12.2229    1.6870   22.7468 C   0  0  0  0  0  0  0  0  0  0  0  0
    8.3310   -2.7170   25.3430 C   0  0  0  0  0  0  0  0  0  0  0  0
   10.2570   -3.5000   24.1350 C   0  0  0  0  0  0  0  0  0  0  0  0
    8.3510   -1.5420   24.6110 C   0  0  0  0  0  0  0  0  0  0  0  0
   10.2760   -2.3270   23.4020 C   0  0  0  0  0  0  0  0  0  0  0  0
   11.4988    1.0401   23.7482 C   0  0  0  0  0  0  0  0  0  0  0  0
    9.2850   -3.7090   25.1090 C   0  0  0  0  0  0  0  0  0  0  0  0
    9.3300   -1.3350   23.6390 C   0  0  0  0  0  0  0  0  0  0  0  0
    5.9810    0.8330   18.8060 C   0  0  0  0  0  0  0  0  0  0  0  0
    7.2210   -0.4620   20.0350 C   0  0  0  0  0  0  0  0  0  0  0  0
    4.9400    1.7060   18.5060 C   0  0  0  0  0  0  0  0  0  0  0  0
    4.0980    2.1130   19.5350 C   0  0  0  0  0  0  0  0  0  0  0  0
    4.2970    1.6690   20.8430 C   0  0  0  0  0  0  0  0  0  0  0  0
    5.3360    0.8000   21.1530 C   0  0  0  0  0  0  0  0  0  0  0  0
    8.0635   -5.4710   26.3667 C   0  0  0  0  0  0  0  0  0  0  0  0
    8.9510    0.1280   21.6880 C   0  0  0  0  0  0  0  0  0  0  0  0
    8.2626   -6.7580   27.1475 C   0  0  0  0  0  0  0  0  0  0  0  0
    9.4048   -6.6156   28.1380 C   0  0  0  0  0  0  0  0  0  0  0  0
   10.6949   -6.1500   27.4702 C   0  0  0  0  0  0  0  0  0  0  0  0
   10.4942   -5.7069   26.0219 C   0  0  0  0  0  0  0  0  0  0  0  0
    9.9979    1.0755   23.7305 C   0  0  0  0  0  0  0  0  0  0  0  0
    6.9440    0.2550   18.0100 N   0  0  0  0  0  0  0  0  0  0  0  0
    7.6830   -0.5170   18.7600 N   0  0  0  0  0  0  0  0  0  0  0  0
    6.1600    0.3870   20.1140 N   0  0  0  0  0  0  0  0  0  0  0  0
    9.2623   -4.9266   25.8635 N   0  0  0  0  0  0  0  0  0  0  0  0
    8.0810   -0.9750   21.0820 N   0  0  0  0  0  0  0  0  0  0  0  0
    9.4200   -0.0840   22.9530 N   0  0  0  0  0  0  0  0  0  0  0  0
    6.9244   -5.0476   26.1739 O   0  0  0  0  0  0  0  0  0  0  0  0
    9.1870    1.1500   21.0630 O   0  0  0  0  0  0  0  0  0  0  0  0
   15.3733    0.9503   23.7929 H   0  0  0  0  0  0  0  0  0  0  0  0
   14.0852   -0.2004   25.5738 H   0  0  0  0  0  0  0  0  0  0  0  0
   14.1808    2.1590   21.9834 H   0  0  0  0  0  0  0  0  0  0  0  0
   11.6131   -0.1465   25.5497 H   0  0  0  0  0  0  0  0  0  0  0  0
   11.7092    2.2189   21.9503 H   0  0  0  0  0  0  0  0  0  0  0  0
    7.5639   -2.8621   26.1045 H   0  0  0  0  0  0  0  0  0  0  0  0
   11.0141   -4.2644   23.9422 H   0  0  0  0  0  0  0  0  0  0  0  0
    7.5950   -0.7788   24.8007 H   0  0  0  0  0  0  0  0  0  0  0  0
   11.0408   -2.1861   22.6359 H   0  0  0  0  0  0  0  0  0  0  0  0
    4.7733    2.0700   17.5071 H   0  0  0  0  0  0  0  0  0  0  0  0
    3.2813    2.7836   19.2995 H   0  0  0  0  0  0  0  0  0  0  0  0
    3.6335    1.9977   21.6542 H   0  0  0  0  0  0  0  0  0  0  0  0
    5.5067    0.4537   22.1474 H   0  0  0  0  0  0  0  0  0  0  0  0
    7.3516   -6.9810   27.6812 H   0  0  0  0  0  0  0  0  0  0  0  0
    8.4757   -7.5428   26.4371 H   0  0  0  0  0  0  0  0  0  0  0  0
    9.1234   -5.9016   28.9400 H   0  0  0  0  0  0  0  0  0  0  0  0
    9.5778   -7.5840   28.6491 H   0  0  0  0  0  0  0  0  0  0  0  0
   11.1305   -5.3108   28.0523 H   0  0  0  0  0  0  0  0  0  0  0  0
   11.4565   -6.9587   27.5131 H   0  0  0  0  0  0  0  0  0  0  0  0
   11.3212   -5.0729   25.7168 H   0  0  0  0  0  0  0  0  0  0  0  0
   10.4483   -6.5796   25.3796 H   0  0  0  0  0  0  0  0  0  0  0  0
    9.5979    1.0021   24.7477 H   0  0  0  0  0  0  0  0  0  0  0  0
    9.6320    2.0154   23.3042 H   0  0  0  0  0  0  0  0  0  0  0  0
    8.1334   -1.7992   21.3673 H   0  0  0  0  0  0  0  0  0  0  0  0
  1  2  1  0  0  0  0
  1  3  2  0  0  0  0
  2  4  2  0  0  0  0
  3  5  1  0  0  0  0
  4 10  1  0  0  0  0
  5 10  2  0  0  0  0
  6  8  2  0  0  0  0
  6 11  1  0  0  0  0
  7  9  1  0  0  0  0
  7 11  2  0  0  0  0
  8 12  1  0  0  0  0
  9 12  2  0  0  0  0
 10 25  1  0  0  0  0
 11 29  1  0  0  0  0
 12 31  1  0  0  0  0
 13 15  1  0  0  0  0
 13 26  2  0  0  0  0
 13 28  1  0  0  0  0
 14 27  2  0  0  0  0
 14 28  1  0  0  0  0
 14 30  1  0  0  0  0
 15 16  2  0  0  0  0
 16 17  1  0  0  0  0
 17 18  2  0  0  0  0
 18 28  1  0  0  0  0
 19 21  1  0  0  0  0
 19 29  1  0  0  0  0
 19 32  2  0  0  0  0
 20 30  1  0  0  0  0
 20 31  1  0  0  0  0
 20 33  2  0  0  0  0
 21 22  1  0  0  0  0
 22 23  1  0  0  0  0
 23 24  1  0  0  0  0
 24 29  1  0  0  0  0
 25 31  1  0  0  0  0
 26 27  1  0  0  0  0
  1 34  1  0  0  0  0
  2 35  1  0  0  0  0
  3 36  1  0  0  0  0
  4 37  1  0  0  0  0
  5 38  1  0  0  0  0
  6 39  1  0  0  0  0
  7 40  1  0  0  0  0
  8 41  1  0  0  0  0
  9 42  1  0  0  0  0
 15 43  1  0  0  0  0
 16 44  1  0  0  0  0
 17 45  1  0  0  0  0
 18 46  1  0  0  0  0
 21 47  1  0  0  0  0
 21 48  1  0  0  0  0
 22 49  1  0  0  0  0
 22 50  1  0  0  0  0
 23 51  1  0  0  0  0
 23 52  1  0  0  0  0
 24 53  1  0  0  0  0
 24 54  1  0  0  0  0
 25 55  1  0  0  0  0
 25 56  1  0  0  0  0
 30 57  1  0  0  0  0
M  END
> <clash_score>
1.272782601224562

> <docking_score>
-7.480123519897461

> <overlap_score>
1.0088165998458862

$$$$
BENZO_160_1
  -OEChem-08232013483D

 54 58  0     0  0  0  0  0  0999 V2000
    8.3310   -2.7170   25.3430 C   0  0  0  0  0  0  0  0  0  0  0  0
   10.2570   -3.5000   24.1350 C   0  0  0  0  0  0  0  0  0  0  0  0
    8.3510   -1.5420   24.6110 C   0  0  0  0  0  0  0  0  0  0  0  0
   10.2760   -2.3270   23.4020 C   0  0  0  0  0  0  0  0  0  0  0  0
   12.3092    1.1165   22.5788 C   0  0  0  0  0  0  0  0  0  0  0  0
   13.6531    1.0614   22.8761 C   0  0  0  0  0  0  0  0  0  0  0  0
   12.2543    0.9292   24.8949 C   0  0  0  0  0  0  0  0  0  0  0  0
   11.4988    1.0401   23.7482 C   0  0  0  0  0  0  0  0  0  0  0  0
    9.2850   -3.7090   25.1090 C   0  0  0  0  0  0  0  0  0  0  0  0
    9.3300   -1.3350   23.6390 C   0  0  0  0  0  0  0  0  0  0  0  0
    5.9810    0.8330   18.8060 C   0  0  0  0  0  0  0  0  0  0  0  0
    7.2210   -0.4620   20.0350 C   0  0  0  0  0  0  0  0  0  0  0  0
    4.9400    1.7060   18.5060 C   0  0  0  0  0  0  0  0  0  0  0  0
    4.0980    2.1130   19.5350 C   0  0  0  0  0  0  0  0  0  0  0  0
    4.2970    1.6690   20.8430 C   0  0  0  0  0  0  0  0  0  0  0  0
    5.3360    0.8000   21.1530 C   0  0  0  0  0  0  0  0  0  0  0  0
    8.0635   -5.4710   26.3667 C   0  0  0  0  0  0  0  0  0  0  0  0
    8.9510    0.1280   21.6880 C   0  0  0  0  0  0  0  0  0  0  0  0
    8.2626   -6.7580   27.1475 C   0  0  0  0  0  0  0  0  0  0  0  0
    9.4048   -6.6156   28.1380 C   0  0  0  0  0  0  0  0  0  0  0  0
   10.6949   -6.1500   27.4702 C   0  0  0  0  0  0  0  0  0  0  0  0
   10.4942   -5.7069   26.0219 C   0  0  0  0  0  0  0  0  0  0  0  0
    9.9979    1.0755   23.7305 C   0  0  0  0  0  0  0  0  0  0  0  0
    6.9440    0.2550   18.0100 N   0  0  0  0  0  0  0  0  0  0  0  0
    7.6830   -0.5170   18.7600 N   0  0  0  0  0  0  0  0  0  0  0  0
    6.1600    0.3870   20.1140 N   0  0  0  0  0  0  0  0  0  0  0  0
    9.2623   -4.9266   25.8635 N   0  0  0  0  0  0  0  0  0  0  0  0
    8.0810   -0.9750   21.0820 N   0  0  0  0  0  0  0  0  0  0  0  0
    9.4200   -0.0840   22.9530 N   0  0  0  0  0  0  0  0  0  0  0  0
    6.9244   -5.0476   26.1739 O   0  0  0  0  0  0  0  0  0  0  0  0
    9.1870    1.1500   21.0630 O   0  0  0  0  0  0  0  0  0  0  0  0
   13.9334    0.9179   24.5593 S   0  0  0  0  0  0  0  0  0  0  0  0
    7.5639   -2.8621   26.1045 H   0  0  0  0  0  0  0  0  0  0  0  0
   11.0141   -4.2644   23.9422 H   0  0  0  0  0  0  0  0  0  0  0  0
    7.5950   -0.7788   24.8007 H   0  0  0  0  0  0  0  0  0  0  0  0
   11.0408   -2.1861   22.6359 H   0  0  0  0  0  0  0  0  0  0  0  0
   11.9298    1.2070   21.5688 H   0  0  0  0  0  0  0  0  0  0  0  0
   14.4837    1.0977   22.1855 H   0  0  0  0  0  0  0  0  0  0  0  0
   11.9046    0.8529   25.9152 H   0  0  0  0  0  0  0  0  0  0  0  0
    4.7733    2.0700   17.5071 H   0  0  0  0  0  0  0  0  0  0  0  0
    3.2813    2.7836   19.2995 H   0  0  0  0  0  0  0  0  0  0  0  0
    3.6335    1.9977   21.6542 H   0  0  0  0  0  0  0  0  0  0  0  0
    5.5067    0.4537   22.1474 H   0  0  0  0  0  0  0  0  0  0  0  0
    7.3516   -6.9810   27.6812 H   0  0  0  0  0  0  0  0  0  0  0  0
    8.4757   -7.5428   26.4371 H   0  0  0  0  0  0  0  0  0  0  0  0
    9.1234   -5.9016   28.9400 H   0  0  0  0  0  0  0  0  0  0  0  0
    9.5778   -7.5840   28.6491 H   0  0  0  0  0  0  0  0  0  0  0  0
   11.1305   -5.3108   28.0523 H   0  0  0  0  0  0  0  0  0  0  0  0
   11.4565   -6.9587   27.5131 H   0  0  0  0  0  0  0  0  0  0  0  0
   11.3212   -5.0729   25.7168 H   0  0  0  0  0  0  0  0  0  0  0  0
   10.4483   -6.5796   25.3796 H   0  0  0  0  0  0  0  0  0  0  0  0
    9.5979    1.0021   24.7477 H   0  0  0  0  0  0  0  0  0  0  0  0
    9.6320    2.0154   23.3042 H   0  0  0  0  0  0  0  0  0  0  0  0
    8.1334   -1.7992   21.3673 H   0  0  0  0  0  0  0  0  0  0  0  0
  1  3  2  0  0  0  0
  1  9  1  0  0  0  0
  2  4  1  0  0  0  0
  2  9  2  0  0  0  0
  3 10  1  0  0  0  0
  4 10  2  0  0  0  0
  5  6  2  0  0  0  0
  5  8  1  0  0  0  0
  6 32  1  0  0  0  0
  7  8  2  0  0  0  0
  7 32  1  0  0  0  0
  8 23  1  0  0  0  0
  9 27  1  0  0  0  0
 10 29  1  0  0  0  0
 11 13  1  0  0  0  0
 11 24  2  0  0  0  0
 11 26  1  0  0  0  0
 12 25  2  0  0  0  0
 12 26  1  0  0  0  0
 12 28  1  0  0  0  0
 13 14  2  0  0  0  0
 14 15  1  0  0  0  0
 15 16  2  0  0  0  0
 16 26  1  0  0  0  0
 17 19  1  0  0  0  0
 17 27  1  0  0  0  0
 17 30  2  0  0  0  0
 18 28  1  0  0  0  0
 18 29  1  0  0  0  0
 18 31  2  0  0  0  0
 19 20  1  0  0  0  0
 20 21  1  0  0  0  0
 21 22  1  0  0  0  0
 22 27  1  0  0  0  0
 23 29  1  0  0  0  0
 24 25  1  0  0  0  0
  1 33  1  0  0  0  0
  2 34  1  0  0  0  0
  3 35  1  0  0  0  0
  4 36  1  0  0  0  0
  5 37  1  0  0  0  0
  6 38  1  0  0  0  0
  7 39  1  0  0  0  0
 13 40  1  0  0  0  0
 14 41  1  0  0  0  0
 15 42  1  0  0  0  0
 16 43  1  0  0  0  0
 19 44  1  0  0  0  0
 19 45  1  0  0  0  0
 20 46  1  0  0  0  0
 20 47  1  0  0  0  0
 21 48  1  0  0  0  0
 21 49  1  0  0  0  0
 22 50  1  0  0  0  0
 22 51  1  0  0  0  0
 23 52  1  0  0  0  0
 23 53  1  0  0  0  0
 28 54  1  0  0  0  0
M  END
> <clash_score>
1.272782601224562

> <docking_score>
-7.880704402923584

> <overlap_score>
0.9869235754013062

$$$$
BENZO_165_1
  -OEChem-08232013483D

 56 60  0     0  0  0  0  0  0999 V2000
   14.2885    1.1440   23.7306 C   0  0  0  0  0  0  0  0  0  0  0  0
   13.6022    0.4565   24.7315 C   0  0  0  0  0  0  0  0  0  0  0  0
   13.5801    1.8094   22.7299 C   0  0  0  0  0  0  0  0  0  0  0  0
   12.2075    0.4341   24.7317 C   0  0  0  0  0  0  0  0  0  0  0  0
   12.1854    1.7870   22.7301 C   0  0  0  0  0  0  0  0  0  0  0  0
    8.3310   -2.7170   25.3430 C   0  0  0  0  0  0  0  0  0  0  0  0
   10.2570   -3.5000   24.1350 C   0  0  0  0  0  0  0  0  0  0  0  0
    8.3510   -1.5420   24.6110 C   0  0  0  0  0  0  0  0  0  0  0  0
   10.2760   -2.3270   23.4020 C   0  0  0  0  0  0  0  0  0  0  0  0
   11.4991    1.0994   23.7310 C   0  0  0  0  0  0  0  0  0  0  0  0
    9.2850   -3.7090   25.1090 C   0  0  0  0  0  0  0  0  0  0  0  0
    9.3300   -1.3350   23.6390 C   0  0  0  0  0  0  0  0  0  0  0  0
    5.9810    0.8330   18.8060 C   0  0  0  0  0  0  0  0  0  0  0  0
    7.2210   -0.4620   20.0350 C   0  0  0  0  0  0  0  0  0  0  0  0
    4.9400    1.7060   18.5060 C   0  0  0  0  0  0  0  0  0  0  0  0
    4.0980    2.1130   19.5350 C   0  0  0  0  0  0  0  0  0  0  0  0
    4.2970    1.6690   20.8430 C   0  0  0  0  0  0  0  0  0  0  0  0
    5.3360    0.8000   21.1530 C   0  0  0  0  0  0  0  0  0  0  0  0
    8.9510    0.1280   21.6880 C   0  0  0  0  0  0  0  0  0  0  0  0
    8.7666   -4.9523   27.2147 C   0  0  0  0  0  0  0  0  0  0  0  0
    9.3034   -6.1866   25.1651 C   0  0  0  0  0  0  0  0  0  0  0  0
    7.3827   -5.5925   27.1999 C   0  0  0  0  0  0  0  0  0  0  0  0
    7.9024   -6.7967   25.2263 C   0  0  0  0  0  0  0  0  0  0  0  0
    9.9979    1.0755   23.7305 C   0  0  0  0  0  0  0  0  0  0  0  0
    6.9440    0.2550   18.0100 N   0  0  0  0  0  0  0  0  0  0  0  0
    7.6830   -0.5170   18.7600 N   0  0  0  0  0  0  0  0  0  0  0  0
    6.1600    0.3870   20.1140 N   0  0  0  0  0  0  0  0  0  0  0  0
    9.2640   -4.8844   25.8389 N   0  0  0  0  0  0  0  0  0  0  0  0
    8.0810   -0.9750   21.0820 N   0  0  0  0  0  0  0  0  0  0  0  0
    9.4200   -0.0840   22.9530 N   0  0  0  0  0  0  0  0  0  0  0  0
    9.1870    1.1500   21.0630 O   0  0  0  0  0  0  0  0  0  0  0  0
    7.4483   -6.8833   26.5817 O   0  0  0  0  0  0  0  0  0  0  0  0
   15.3744    1.1625   23.7313 H   0  0  0  0  0  0  0  0  0  0  0  0
   14.1536   -0.0607   25.5113 H   0  0  0  0  0  0  0  0  0  0  0  0
   14.1141    2.3457   21.9511 H   0  0  0  0  0  0  0  0  0  0  0  0
   11.6812   -0.1044   25.5154 H   0  0  0  0  0  0  0  0  0  0  0  0
   11.6419    2.3080   21.9464 H   0  0  0  0  0  0  0  0  0  0  0  0
    7.5647   -2.8621   26.1053 H   0  0  0  0  0  0  0  0  0  0  0  0
   11.0144   -4.2642   23.9425 H   0  0  0  0  0  0  0  0  0  0  0  0
    7.5958   -0.7779   24.8006 H   0  0  0  0  0  0  0  0  0  0  0  0
   11.0406   -2.1848   22.6356 H   0  0  0  0  0  0  0  0  0  0  0  0
    4.7733    2.0700   17.5071 H   0  0  0  0  0  0  0  0  0  0  0  0
    3.2813    2.7836   19.2995 H   0  0  0  0  0  0  0  0  0  0  0  0
    3.6335    1.9977   21.6542 H   0  0  0  0  0  0  0  0  0  0  0  0
    5.5067    0.4537   22.1474 H   0  0  0  0  0  0  0  0  0  0  0  0
    8.7030   -3.9561   27.6574 H   0  0  0  0  0  0  0  0  0  0  0  0
    9.4460   -5.5639   27.8143 H   0  0  0  0  0  0  0  0  0  0  0  0
   10.0083   -6.8392   25.6817 H   0  0  0  0  0  0  0  0  0  0  0  0
    9.6089   -6.0802   24.1251 H   0  0  0  0  0  0  0  0  0  0  0  0
    7.0281   -5.7334   28.2231 H   0  0  0  0  0  0  0  0  0  0  0  0
    6.6541   -4.9678   26.6754 H   0  0  0  0  0  0  0  0  0  0  0  0
    7.1860   -6.2177   24.6318 H   0  0  0  0  0  0  0  0  0  0  0  0
    7.9246   -7.8119   24.8187 H   0  0  0  0  0  0  0  0  0  0  0  0
    9.6122    1.0250   24.7546 H   0  0  0  0  0  0  0  0  0  0  0  0
    9.5906    1.9837   23.2740 H   0  0  0  0  0  0  0  0  0  0  0  0
    8.1334   -1.7992   21.3673 H   0  0  0  0  0  0  0  0  0  0  0  0
  1  2  1  0  0  0  0
  1  3  2  0  0  0  0
  2  4  2  0  0  0  0
  3  5  1  0  0  0  0
  4 10  1  0  0  0  0
  5 10  2  0  0  0  0
  6  8  2  0  0  0  0
  6 11  1  0  0  0  0
  7  9  1  0  0  0  0
  7 11  2  0  0  0  0
  8 12  1  0  0  0  0
  9 12  2  0  0  0  0
 10 24  1  0  0  0  0
 11 28  1  0  0  0  0
 12 30  1  0  0  0  0
 13 15  1  0  0  0  0
 13 25  2  0  0  0  0
 13 27  1  0  0  0  0
 14 26  2  0  0  0  0
 14 27  1  0  0  0  0
 14 29  1  0  0  0  0
 15 16  2  0  0  0  0
 16 17  1  0  0  0  0
 17 18  2  0  0  0  0
 18 27  1  0  0  0  0
 19 29  1  0  0  0  0
 19 30  1  0  0  0  0
 19 31  2  0  0  0  0
 20 22  1  0  0  0  0
 20 28  1  0  0  0  0
 21 23  1  0  0  0  0
 21 28  1  0  0  0  0
 22 32  1  0  0  0  0
 23 32  1  0  0  0  0
 24 30  1  0  0  0  0
 25 26  1  0  0  0  0
  1 33  1  0  0  0  0
  2 34  1  0  0  0  0
  3 35  1  0  0  0  0
  4 36  1  0  0  0  0
  5 37  1  0  0  0  0
  6 38  1  0  0  0  0
  7 39  1  0  0  0  0
  8 40  1  0  0  0  0
  9 41  1  0  0  0  0
 15 42  1  0  0  0  0
 16 43  1  0  0  0  0
 17 44  1  0  0  0  0
 18 45  1  0  0  0  0
 20 46  1  0  0  0  0
 20 47  1  0  0  0  0
 21 48  1  0  0  0  0
 21 49  1  0  0  0  0
 22 50  1  0  0  0  0
 22 51  1  0  0  0  0
 23 52  1  0  0  0  0
 23 53  1  0  0  0  0
 24 54  1  0  0  0  0
 24 55  1  0  0  0  0
 29 56  1  0  0  0  0
M  END
> <clash_score>
0

> <docking_score>
-8.631526947021484

> <overlap_score>
1.0113210678100586

$$$$
BENZO_162_1
  -OEChem-08232013483D

 57 61  0     0  0  0  0  0  0999 V2000
   13.6206    1.9123   22.9907 C   0  0  0  0  0  0  0  0  0  0  0  0
   12.2262    1.9439   22.9738 C   0  0  0  0  0  0  0  0  0  0  0  0
    8.3310   -2.7170   25.3430 C   0  0  0  0  0  0  0  0  0  0  0  0
   10.2570   -3.5000   24.1350 C   0  0  0  0  0  0  0  0  0  0  0  0
    8.3510   -1.5420   24.6110 C   0  0  0  0  0  0  0  0  0  0  0  0
   10.2760   -2.3270   23.4020 C   0  0  0  0  0  0  0  0  0  0  0  0
   14.2876    0.9769   23.7819 C   0  0  0  0  0  0  0  0  0  0  0  0
   12.1657    0.1048   24.5395 C   0  0  0  0  0  0  0  0  0  0  0  0
   11.4988    1.0401   23.7482 C   0  0  0  0  0  0  0  0  0  0  0  0
    9.2850   -3.7090   25.1090 C   0  0  0  0  0  0  0  0  0  0  0  0
    9.3300   -1.3350   23.6390 C   0  0  0  0  0  0  0  0  0  0  0  0
   13.5601    0.0732   24.5563 C   0  0  0  0  0  0  0  0  0  0  0  0
    5.9810    0.8330   18.8060 C   0  0  0  0  0  0  0  0  0  0  0  0
    7.2210   -0.4620   20.0350 C   0  0  0  0  0  0  0  0  0  0  0  0
    4.9400    1.7060   18.5060 C   0  0  0  0  0  0  0  0  0  0  0  0
    4.0980    2.1130   19.5350 C   0  0  0  0  0  0  0  0  0  0  0  0
    4.2970    1.6690   20.8430 C   0  0  0  0  0  0  0  0  0  0  0  0
    5.3360    0.8000   21.1530 C   0  0  0  0  0  0  0  0  0  0  0  0
    8.2930   -5.1714   26.8572 C   0  0  0  0  0  0  0  0  0  0  0  0
    8.9510    0.1280   21.6880 C   0  0  0  0  0  0  0  0  0  0  0  0
    8.4551   -6.5156   27.5444 C   0  0  0  0  0  0  0  0  0  0  0  0
    9.9019   -6.7444   27.9450 C   0  0  0  0  0  0  0  0  0  0  0  0
   10.8596   -6.5882   26.7680 C   0  0  0  0  0  0  0  0  0  0  0  0
   10.1895   -6.0108   25.5223 C   0  0  0  0  0  0  0  0  0  0  0  0
    9.9979    1.0755   23.7305 C   0  0  0  0  0  0  0  0  0  0  0  0
    6.9440    0.2550   18.0100 N   0  0  0  0  0  0  0  0  0  0  0  0
    7.6830   -0.5170   18.7600 N   0  0  0  0  0  0  0  0  0  0  0  0
    6.1600    0.3870   20.1140 N   0  0  0  0  0  0  0  0  0  0  0  0
    9.2623   -4.9266   25.8635 N   0  0  0  0  0  0  0  0  0  0  0  0
    8.0810   -0.9750   21.0820 N   0  0  0  0  0  0  0  0  0  0  0  0
    9.4200   -0.0840   22.9530 N   0  0  0  0  0  0  0  0  0  0  0  0
    7.3370   -4.4527   27.1463 O   0  0  0  0  0  0  0  0  0  0  0  0
    9.1870    1.1500   21.0630 O   0  0  0  0  0  0  0  0  0  0  0  0
   14.3836   -1.0798   25.5331 Cl  0  0  0  0  0  0  0  0  0  0  0  0
   14.1867    2.6163   22.3876 H   0  0  0  0  0  0  0  0  0  0  0  0
   11.7149    2.6762   22.3545 H   0  0  0  0  0  0  0  0  0  0  0  0
    7.5639   -2.8621   26.1045 H   0  0  0  0  0  0  0  0  0  0  0  0
   11.0141   -4.2644   23.9422 H   0  0  0  0  0  0  0  0  0  0  0  0
    7.5950   -0.7788   24.8007 H   0  0  0  0  0  0  0  0  0  0  0  0
   11.0408   -2.1861   22.6359 H   0  0  0  0  0  0  0  0  0  0  0  0
   15.3747    0.9641   23.7853 H   0  0  0  0  0  0  0  0  0  0  0  0
   11.5940   -0.5981   25.1411 H   0  0  0  0  0  0  0  0  0  0  0  0
    4.7733    2.0700   17.5071 H   0  0  0  0  0  0  0  0  0  0  0  0
    3.2813    2.7836   19.2995 H   0  0  0  0  0  0  0  0  0  0  0  0
    3.6335    1.9977   21.6542 H   0  0  0  0  0  0  0  0  0  0  0  0
    5.5067    0.4537   22.1474 H   0  0  0  0  0  0  0  0  0  0  0  0
    7.8332   -6.5283   28.4263 H   0  0  0  0  0  0  0  0  0  0  0  0
    8.1305   -7.2787   26.8530 H   0  0  0  0  0  0  0  0  0  0  0  0
   10.1875   -6.0379   28.7521 H   0  0  0  0  0  0  0  0  0  0  0  0
   10.0116   -7.7568   28.3834 H   0  0  0  0  0  0  0  0  0  0  0  0
   11.7061   -5.9337   27.0644 H   0  0  0  0  0  0  0  0  0  0  0  0
   11.3230   -7.5689   26.5243 H   0  0  0  0  0  0  0  0  0  0  0  0
   10.9445   -5.5959   24.8614 H   0  0  0  0  0  0  0  0  0  0  0  0
    9.6461   -6.7954   25.0072 H   0  0  0  0  0  0  0  0  0  0  0  0
    9.5979    1.0021   24.7477 H   0  0  0  0  0  0  0  0  0  0  0  0
    9.6320    2.0154   23.3042 H   0  0  0  0  0  0  0  0  0  0  0  0
    8.1334   -1.7992   21.3673 H   0  0  0  0  0  0  0  0  0  0  0  0
  1  2  2  0  0  0  0
  1  7  1  0  0  0  0
  2  9  1  0  0  0  0
  3  5  2  0  0  0  0
  3 10  1  0  0  0  0
  4  6  1  0  0  0  0
  4 10  2  0  0  0  0
  5 11  1  0  0  0  0
  6 11  2  0  0  0  0
  7 12  2  0  0  0  0
  8  9  2  0  0  0  0
  8 12  1  0  0  0  0
  9 25  1  0  0  0  0
 10 29  1  0  0  0  0
 11 31  1  0  0  0  0
 12 34  1  0  0  0  0
 13 15  1  0  0  0  0
 13 26  2  0  0  0  0
 13 28  1  0  0  0  0
 14 27  2  0  0  0  0
 14 28  1  0  0  0  0
 14 30  1  0  0  0  0
 15 16  2  0  0  0  0
 16 17  1  0  0  0  0
 17 18  2  0  0  0  0
 18 28  1  0  0  0  0
 19 21  1  0  0  0  0
 19 29  1  0  0  0  0
 19 32  2  0  0  0  0
 20 30  1  0  0  0  0
 20 31  1  0  0  0  0
 20 33  2  0  0  0  0
 21 22  1  0  0  0  0
 22 23  1  0  0  0  0
 23 24  1  0  0  0  0
 24 29  1  0  0  0  0
 25 31  1  0  0  0  0
 26 27  1  0  0  0  0
  1 35  1  0  0  0  0
  2 36  1  0  0  0  0
  3 37  1  0  0  0  0
  4 38  1  0  0  0  0
  5 39  1  0  0  0  0
  6 40  1  0  0  0  0
  7 41  1  0  0  0  0
  8 42  1  0  0  0  0
 15 43  1  0  0  0  0
 16 44  1  0  0  0  0
 17 45  1  0  0  0  0
 18 46  1  0  0  0  0
 21 47  1  0  0  0  0
 21 48  1  0  0  0  0
 22 49  1  0  0  0  0
 22 50  1  0  0  0  0
 23 51  1  0  0  0  0
 23 52  1  0  0  0  0
 24 53  1  0  0  0  0
 24 54  1  0  0  0  0
 25 55  1  0  0  0  0
 25 56  1  0  0  0  0
 30 57  1  0  0  0  0
M  END
> <clash_score>
2.816420981810531

> <docking_score>
-6.3822174072265625

> <overlap_score>
1.0119659900665283

$$$$
BENZO_163_1
  -OEChem-08232013483D

 57 61  0     0  0  0  0  0  0999 V2000
    8.3310   -2.7170   25.3430 C   0  0  0  0  0  0  0  0  0  0  0  0
   10.2570   -3.5000   24.1350 C   0  0  0  0  0  0  0  0  0  0  0  0
    8.3510   -1.5420   24.6110 C   0  0  0  0  0  0  0  0  0  0  0  0
   10.2760   -2.3270   23.4020 C   0  0  0  0  0  0  0  0  0  0  0  0
   12.3692    1.7398   24.6052 C   0  0  0  0  0  0  0  0  0  0  0  0
   12.3310    0.3141   22.9317 C   0  0  0  0  0  0  0  0  0  0  0  0
   11.4988    1.0401   23.7482 C   0  0  0  0  0  0  0  0  0  0  0  0
    9.2850   -3.7090   25.1090 C   0  0  0  0  0  0  0  0  0  0  0  0
    9.3300   -1.3350   23.6390 C   0  0  0  0  0  0  0  0  0  0  0  0
    5.9810    0.8330   18.8060 C   0  0  0  0  0  0  0  0  0  0  0  0
    7.2210   -0.4620   20.0350 C   0  0  0  0  0  0  0  0  0  0  0  0
    4.9400    1.7060   18.5060 C   0  0  0  0  0  0  0  0  0  0  0  0
    4.0980    2.1130   19.5350 C   0  0  0  0  0  0  0  0  0  0  0  0
    4.2970    1.6690   20.8430 C   0  0  0  0  0  0  0  0  0  0  0  0
    5.3360    0.8000   21.1530 C   0  0  0  0  0  0  0  0  0  0  0  0
    8.2930   -5.1714   26.8572 C   0  0  0  0  0  0  0  0  0  0  0  0
    8.9510    0.1280   21.6880 C   0  0  0  0  0  0  0  0  0  0  0  0
    8.4551   -6.5156   27.5444 C   0  0  0  0  0  0  0  0  0  0  0  0
    9.9019   -6.7444   27.9450 C   0  0  0  0  0  0  0  0  0  0  0  0
   10.8596   -6.5882   26.7680 C   0  0  0  0  0  0  0  0  0  0  0  0
   10.1895   -6.0108   25.5223 C   0  0  0  0  0  0  0  0  0  0  0  0
   14.8213    0.0873   22.7709 C   0  0  0  0  0  0  0  0  0  0  0  0
    9.9979    1.0755   23.7305 C   0  0  0  0  0  0  0  0  0  0  0  0
   13.6558    1.4814   24.3564 N   0  0  0  0  0  0  0  0  0  0  0  0
    6.9440    0.2550   18.0100 N   0  0  0  0  0  0  0  0  0  0  0  0
    7.6830   -0.5170   18.7600 N   0  0  0  0  0  0  0  0  0  0  0  0
   13.5999    0.6112   23.3338 N   0  0  0  0  0  0  0  0  0  0  0  0
    6.1600    0.3870   20.1140 N   0  0  0  0  0  0  0  0  0  0  0  0
    9.2623   -4.9266   25.8635 N   0  0  0  0  0  0  0  0  0  0  0  0
    8.0810   -0.9750   21.0820 N   0  0  0  0  0  0  0  0  0  0  0  0
    9.4200   -0.0840   22.9530 N   0  0  0  0  0  0  0  0  0  0  0  0
    7.3370   -4.4527   27.1463 O   0  0  0  0  0  0  0  0  0  0  0  0
    9.1870    1.1500   21.0630 O   0  0  0  0  0  0  0  0  0  0  0  0
    7.5639   -2.8621   26.1045 H   0  0  0  0  0  0  0  0  0  0  0  0
   11.0141   -4.2644   23.9422 H   0  0  0  0  0  0  0  0  0  0  0  0
    7.5950   -0.7788   24.8007 H   0  0  0  0  0  0  0  0  0  0  0  0
   11.0408   -2.1861   22.6359 H   0  0  0  0  0  0  0  0  0  0  0  0
   12.1221    2.4270   25.4020 H   0  0  0  0  0  0  0  0  0  0  0  0
   12.1332   -0.3726   22.1198 H   0  0  0  0  0  0  0  0  0  0  0  0
    4.7733    2.0700   17.5071 H   0  0  0  0  0  0  0  0  0  0  0  0
    3.2813    2.7836   19.2995 H   0  0  0  0  0  0  0  0  0  0  0  0
    3.6335    1.9977   21.6542 H   0  0  0  0  0  0  0  0  0  0  0  0
    5.5067    0.4537   22.1474 H   0  0  0  0  0  0  0  0  0  0  0  0
    7.8332   -6.5283   28.4263 H   0  0  0  0  0  0  0  0  0  0  0  0
    8.1305   -7.2787   26.8530 H   0  0  0  0  0  0  0  0  0  0  0  0
   10.1875   -6.0379   28.7521 H   0  0  0  0  0  0  0  0  0  0  0  0
   10.0116   -7.7568   28.3834 H   0  0  0  0  0  0  0  0  0  0  0  0
   11.7061   -5.9337   27.0644 H   0  0  0  0  0  0  0  0  0  0  0  0
   11.3230   -7.5689   26.5243 H   0  0  0  0  0  0  0  0  0  0  0  0
   10.9445   -5.5959   24.8614 H   0  0  0  0  0  0  0  0  0  0  0  0
    9.6461   -6.7954   25.0072 H   0  0  0  0  0  0  0  0  0  0  0  0
   15.1352    0.7559   21.9650 H   0  0  0  0  0  0  0  0  0  0  0  0
   15.5889    0.0387   23.5482 H   0  0  0  0  0  0  0  0  0  0  0  0
   14.6385   -0.9194   22.3847 H   0  0  0  0  0  0  0  0  0  0  0  0
    9.5979    1.0021   24.7477 H   0  0  0  0  0  0  0  0  0  0  0  0
    9.6320    2.0154   23.3042 H   0  0  0  0  0  0  0  0  0  0  0  0
    8.1334   -1.7992   21.3673 H   0  0  0  0  0  0  0  0  0  0  0  0
  1  3  2  0  0  0  0
  1  8  1  0  0  0  0
  2  4  1  0  0  0  0
  2  8  2  0  0  0  0
  3  9  1  0  0  0  0
  4  9  2  0  0  0  0
  5  7  1  0  0  0  0
  5 24  2  0  0  0  0
  6  7  2  0  0  0  0
  6 27  1  0  0  0  0
  7 23  1  0  0  0  0
  8 29  1  0  0  0  0
  9 31  1  0  0  0  0
 10 12  1  0  0  0  0
 10 25  2  0  0  0  0
 10 28  1  0  0  0  0
 11 26  2  0  0  0  0
 11 28  1  0  0  0  0
 11 30  1  0  0  0  0
 12 13  2  0  0  0  0
 13 14  1  0  0  0  0
 14 15  2  0  0  0  0
 15 28  1  0  0  0  0
 16 18  1  0  0  0  0
 16 29  1  0  0  0  0
 16 32  2  0  0  0  0
 17 30  1  0  0  0  0
 17 31  1  0  0  0  0
 17 33  2  0  0  0  0
 18 19  1  0  0  0  0
 19 20  1  0  0  0  0
 20 21  1  0  0  0  0
 21 29  1  0  0  0  0
 22 27  1  0  0  0  0
 23 31  1  0  0  0  0
 24 27  1  0  0  0  0
 25 26  1  0  0  0  0
  1 34  1  0  0  0  0
  2 35  1  0  0  0  0
  3 36  1  0  0  0  0
  4 37  1  0  0  0  0
  5 38  1  0  0  0  0
  6 39  1  0  0  0  0
 12 40  1  0  0  0  0
 13 41  1  0  0  0  0
 14 42  1  0  0  0  0
 15 43  1  0  0  0  0
 18 44  1  0  0  0  0
 18 45  1  0  0  0  0
 19 46  1  0  0  0  0
 19 47  1  0  0  0  0
 20 48  1  0  0  0  0
 20 49  1  0  0  0  0
 21 50  1  0  0  0  0
 21 51  1  0  0  0  0
 22 52  1  0  0  0  0
 22 53  1  0  0  0  0
 22 54  1  0  0  0  0
 23 55  1  0  0  0  0
 23 56  1  0  0  0  0
 30 57  1  0  0  0  0
M  END
> <clash_score>
2.0596949410317893

> <docking_score>
-7.370285987854004

> <overlap_score>
0.995715856552124

$$$$
BENZO_164_1
  -OEChem-08232013483D

 53 57  0     0  0  0  0  0  0999 V2000
    8.3310   -2.7170   25.3430 C   0  0  0  0  0  0  0  0  0  0  0  0
   10.2570   -3.5000   24.1350 C   0  0  0  0  0  0  0  0  0  0  0  0
    8.3510   -1.5420   24.6110 C   0  0  0  0  0  0  0  0  0  0  0  0
   10.2760   -2.3270   23.4020 C   0  0  0  0  0  0  0  0  0  0  0  0
   12.2931    1.1632   22.5497 C   0  0  0  0  0  0  0  0  0  0  0  0
   13.6413    1.1717   22.8322 C   0  0  0  0  0  0  0  0  0  0  0  0
   12.2708    1.0613   24.8716 C   0  0  0  0  0  0  0  0  0  0  0  0
   11.4991    1.0994   23.7310 C   0  0  0  0  0  0  0  0  0  0  0  0
    9.2850   -3.7090   25.1090 C   0  0  0  0  0  0  0  0  0  0  0  0
    9.3300   -1.3350   23.6390 C   0  0  0  0  0  0  0  0  0  0  0  0
    5.9810    0.8330   18.8060 C   0  0  0  0  0  0  0  0  0  0  0  0
    7.2210   -0.4620   20.0350 C   0  0  0  0  0  0  0  0  0  0  0  0
    4.9400    1.7060   18.5060 C   0  0  0  0  0  0  0  0  0  0  0  0
    4.0980    2.1130   19.5350 C   0  0  0  0  0  0  0  0  0  0  0  0
    4.2970    1.6690   20.8430 C   0  0  0  0  0  0  0  0  0  0  0  0
    5.3360    0.8000   21.1530 C   0  0  0  0  0  0  0  0  0  0  0  0
    8.9510    0.1280   21.6880 C   0  0  0  0  0  0  0  0  0  0  0  0
    8.7666   -4.9523   27.2147 C   0  0  0  0  0  0  0  0  0  0  0  0
    9.3034   -6.1866   25.1651 C   0  0  0  0  0  0  0  0  0  0  0  0
    7.3827   -5.5925   27.1999 C   0  0  0  0  0  0  0  0  0  0  0  0
    7.9024   -6.7967   25.2263 C   0  0  0  0  0  0  0  0  0  0  0  0
    9.9979    1.0755   23.7305 C   0  0  0  0  0  0  0  0  0  0  0  0
    6.9440    0.2550   18.0100 N   0  0  0  0  0  0  0  0  0  0  0  0
    7.6830   -0.5170   18.7600 N   0  0  0  0  0  0  0  0  0  0  0  0
    6.1600    0.3870   20.1140 N   0  0  0  0  0  0  0  0  0  0  0  0
    9.2640   -4.8844   25.8389 N   0  0  0  0  0  0  0  0  0  0  0  0
    8.0810   -0.9750   21.0820 N   0  0  0  0  0  0  0  0  0  0  0  0
    9.4200   -0.0840   22.9530 N   0  0  0  0  0  0  0  0  0  0  0  0
    9.1870    1.1500   21.0630 O   0  0  0  0  0  0  0  0  0  0  0  0
    7.4483   -6.8833   26.5817 O   0  0  0  0  0  0  0  0  0  0  0  0
   13.9454    1.1028   24.5160 S   0  0  0  0  0  0  0  0  0  0  0  0
    7.5647   -2.8621   26.1053 H   0  0  0  0  0  0  0  0  0  0  0  0
   11.0144   -4.2642   23.9425 H   0  0  0  0  0  0  0  0  0  0  0  0
    7.5958   -0.7779   24.8006 H   0  0  0  0  0  0  0  0  0  0  0  0
   11.0406   -2.1848   22.6356 H   0  0  0  0  0  0  0  0  0  0  0  0
   11.8995    1.2006   21.5417 H   0  0  0  0  0  0  0  0  0  0  0  0
   14.4623    1.2143   22.1305 H   0  0  0  0  0  0  0  0  0  0  0  0
   11.9355    1.0099   25.8983 H   0  0  0  0  0  0  0  0  0  0  0  0
    4.7733    2.0700   17.5071 H   0  0  0  0  0  0  0  0  0  0  0  0
    3.2813    2.7836   19.2995 H   0  0  0  0  0  0  0  0  0  0  0  0
    3.6335    1.9977   21.6542 H   0  0  0  0  0  0  0  0  0  0  0  0
    5.5067    0.4537   22.1474 H   0  0  0  0  0  0  0  0  0  0  0  0
    8.7030   -3.9561   27.6574 H   0  0  0  0  0  0  0  0  0  0  0  0
    9.4460   -5.5639   27.8143 H   0  0  0  0  0  0  0  0  0  0  0  0
   10.0083   -6.8392   25.6817 H   0  0  0  0  0  0  0  0  0  0  0  0
    9.6089   -6.0802   24.1251 H   0  0  0  0  0  0  0  0  0  0  0  0
    7.0281   -5.7334   28.2231 H   0  0  0  0  0  0  0  0  0  0  0  0
    6.6541   -4.9678   26.6754 H   0  0  0  0  0  0  0  0  0  0  0  0
    7.1860   -6.2177   24.6318 H   0  0  0  0  0  0  0  0  0  0  0  0
    7.9246   -7.8119   24.8187 H   0  0  0  0  0  0  0  0  0  0  0  0
    9.6122    1.0250   24.7546 H   0  0  0  0  0  0  0  0  0  0  0  0
    9.5906    1.9837   23.2740 H   0  0  0  0  0  0  0  0  0  0  0  0
    8.1334   -1.7992   21.3673 H   0  0  0  0  0  0  0  0  0  0  0  0
  1  3  2  0  0  0  0
  1  9  1  0  0  0  0
  2  4  1  0  0  0  0
  2  9  2  0  0  0  0
  3 10  1  0  0  0  0
  4 10  2  0  0  0  0
  5  6  2  0  0  0  0
  5  8  1  0  0  0  0
  6 31  1  0  0  0  0
  7  8  2  0  0  0  0
  7 31  1  0  0  0  0
  8 22  1  0  0  0  0
  9 26  1  0  0  0  0
 10 28  1  0  0  0  0
 11 13  1  0  0  0  0
 11 23  2  0  0  0  0
 11 25  1  0  0  0  0
 12 24  2  0  0  0  0
 12 25  1  0  0  0  0
 12 27  1  0  0  0  0
 13 14  2  0  0  0  0
 14 15  1  0  0  0  0
 15 16  2  0  0  0  0
 16 25  1  0  0  0  0
 17 27  1  0  0  0  0
 17 28  1  0  0  0  0
 17 29  2  0  0  0  0
 18 20  1  0  0  0  0
 18 26  1  0  0  0  0
 19 21  1  0  0  0  0
 19 26  1  0  0  0  0
 20 30  1  0  0  0  0
 21 30  1  0  0  0  0
 22 28  1  0  0  0  0
 23 24  1  0  0  0  0
  1 32  1  0  0  0  0
  2 33  1  0  0  0  0
  3 34  1  0  0  0  0
  4 35  1  0  0  0  0
  5 36  1  0  0  0  0
  6 37  1  0  0  0  0
  7 38  1  0  0  0  0
 13 39  1  0  0  0  0
 14 40  1  0  0  0  0
 15 41  1  0  0  0  0
 16 42  1  0  0  0  0
 18 43  1  0  0  0  0
 18 44  1  0  0  0  0
 19 45  1  0  0  0  0
 19 46  1  0  0  0  0
 20 47  1  0  0  0  0
 20 48  1  0  0  0  0
 21 49  1  0  0  0  0
 21 50  1  0  0  0  0
 22 51  1  0  0  0  0
 22 52  1  0  0  0  0
 27 53  1  0  0  0  0
M  END
> <clash_score>
0

> <docking_score>
-9.011688232421875

> <overlap_score>
0.9885499477386475

$$$$
BENZO_166_1
  -OEChem-08232013483D

 56 60  0     0  0  0  0  0  0999 V2000
   13.5765    2.0244   22.9154 C   0  0  0  0  0  0  0  0  0  0  0  0
   12.1819    2.0009   22.9146 C   0  0  0  0  0  0  0  0  0  0  0  0
    8.3310   -2.7170   25.3430 C   0  0  0  0  0  0  0  0  0  0  0  0
   10.2570   -3.5000   24.1350 C   0  0  0  0  0  0  0  0  0  0  0  0
    8.3510   -1.5420   24.6110 C   0  0  0  0  0  0  0  0  0  0  0  0
   10.2760   -2.3270   23.4020 C   0  0  0  0  0  0  0  0  0  0  0  0
   14.2884    1.1463   23.7326 C   0  0  0  0  0  0  0  0  0  0  0  0
   12.2109    0.2212   24.5483 C   0  0  0  0  0  0  0  0  0  0  0  0
   11.4991    1.0994   23.7310 C   0  0  0  0  0  0  0  0  0  0  0  0
    9.2850   -3.7090   25.1090 C   0  0  0  0  0  0  0  0  0  0  0  0
    9.3300   -1.3350   23.6390 C   0  0  0  0  0  0  0  0  0  0  0  0
   13.6056    0.2447   24.5490 C   0  0  0  0  0  0  0  0  0  0  0  0
    5.9810    0.8330   18.8060 C   0  0  0  0  0  0  0  0  0  0  0  0
    7.2210   -0.4620   20.0350 C   0  0  0  0  0  0  0  0  0  0  0  0
    4.9400    1.7060   18.5060 C   0  0  0  0  0  0  0  0  0  0  0  0
    4.0980    2.1130   19.5350 C   0  0  0  0  0  0  0  0  0  0  0  0
    4.2970    1.6690   20.8430 C   0  0  0  0  0  0  0  0  0  0  0  0
    5.3360    0.8000   21.1530 C   0  0  0  0  0  0  0  0  0  0  0  0
    8.9510    0.1280   21.6880 C   0  0  0  0  0  0  0  0  0  0  0  0
    8.7666   -4.9523   27.2147 C   0  0  0  0  0  0  0  0  0  0  0  0
    9.3034   -6.1866   25.1651 C   0  0  0  0  0  0  0  0  0  0  0  0
    7.3827   -5.5925   27.1999 C   0  0  0  0  0  0  0  0  0  0  0  0
    7.9024   -6.7967   25.2263 C   0  0  0  0  0  0  0  0  0  0  0  0
    9.9979    1.0755   23.7305 C   0  0  0  0  0  0  0  0  0  0  0  0
    6.9440    0.2550   18.0100 N   0  0  0  0  0  0  0  0  0  0  0  0
    7.6830   -0.5170   18.7600 N   0  0  0  0  0  0  0  0  0  0  0  0
    6.1600    0.3870   20.1140 N   0  0  0  0  0  0  0  0  0  0  0  0
    9.2640   -4.8844   25.8389 N   0  0  0  0  0  0  0  0  0  0  0  0
    8.0810   -0.9750   21.0820 N   0  0  0  0  0  0  0  0  0  0  0  0
    9.4200   -0.0840   22.9530 N   0  0  0  0  0  0  0  0  0  0  0  0
    9.1870    1.1500   21.0630 O   0  0  0  0  0  0  0  0  0  0  0  0
    7.4483   -6.8833   26.5817 O   0  0  0  0  0  0  0  0  0  0  0  0
   14.4844   -0.8377   25.5579 Cl  0  0  0  0  0  0  0  0  0  0  0  0
   14.1079    2.7267   22.2796 H   0  0  0  0  0  0  0  0  0  0  0  0
   11.6354    2.6889   22.2747 H   0  0  0  0  0  0  0  0  0  0  0  0
    7.5647   -2.8621   26.1053 H   0  0  0  0  0  0  0  0  0  0  0  0
   11.0144   -4.2642   23.9425 H   0  0  0  0  0  0  0  0  0  0  0  0
    7.5958   -0.7779   24.8006 H   0  0  0  0  0  0  0  0  0  0  0  0
   11.0406   -2.1848   22.6356 H   0  0  0  0  0  0  0  0  0  0  0  0
   15.3752    1.1760   23.7232 H   0  0  0  0  0  0  0  0  0  0  0  0
   11.6739   -0.4802   25.1826 H   0  0  0  0  0  0  0  0  0  0  0  0
    4.7733    2.0700   17.5071 H   0  0  0  0  0  0  0  0  0  0  0  0
    3.2813    2.7836   19.2995 H   0  0  0  0  0  0  0  0  0  0  0  0
    3.6335    1.9977   21.6542 H   0  0  0  0  0  0  0  0  0  0  0  0
    5.5067    0.4537   22.1474 H   0  0  0  0  0  0  0  0  0  0  0  0
    8.7030   -3.9561   27.6574 H   0  0  0  0  0  0  0  0  0  0  0  0
    9.4460   -5.5639   27.8143 H   0  0  0  0  0  0  0  0  0  0  0  0
   10.0083   -6.8392   25.6817 H   0  0  0  0  0  0  0  0  0  0  0  0
    9.6089   -6.0802   24.1251 H   0  0  0  0  0  0  0  0  0  0  0  0
    7.0281   -5.7334   28.2231 H   0  0  0  0  0  0  0  0  0  0  0  0
    6.6541   -4.9678   26.6754 H   0  0  0  0  0  0  0  0  0  0  0  0
    7.1860   -6.2177   24.6318 H   0  0  0  0  0  0  0  0  0  0  0  0
    7.9246   -7.8119   24.8187 H   0  0  0  0  0  0  0  0  0  0  0  0
    9.6122    1.0250   24.7546 H   0  0  0  0  0  0  0  0  0  0  0  0
    9.5906    1.9837   23.2740 H   0  0  0  0  0  0  0  0  0  0  0  0
    8.1334   -1.7992   21.3673 H   0  0  0  0  0  0  0  0  0  0  0  0
  1  2  2  0  0  0  0
  1  7  1  0  0  0  0
  2  9  1  0  0  0  0
  3  5  2  0  0  0  0
  3 10  1  0  0  0  0
  4  6  1  0  0  0  0
  4 10  2  0  0  0  0
  5 11  1  0  0  0  0
  6 11  2  0  0  0  0
  7 12  2  0  0  0  0
  8  9  2  0  0  0  0
  8 12  1  0  0  0  0
  9 24  1  0  0  0  0
 10 28  1  0  0  0  0
 11 30  1  0  0  0  0
 12 33  1  0  0  0  0
 13 15  1  0  0  0  0
 13 25  2  0  0  0  0
 13 27  1  0  0  0  0
 14 26  2  0  0  0  0
 14 27  1  0  0  0  0
 14 29  1  0  0  0  0
 15 16  2  0  0  0  0
 16 17  1  0  0  0  0
 17 18  2  0  0  0  0
 18 27  1  0  0  0  0
 19 29  1  0  0  0  0
 19 30  1  0  0  0  0
 19 31  2  0  0  0  0
 20 22  1  0  0  0  0
 20 28  1  0  0  0  0
 21 23  1  0  0  0  0
 21 28  1  0  0  0  0
 22 32  1  0  0  0  0
 23 32  1  0  0  0  0
 24 30  1  0  0  0  0
 25 26  1  0  0  0  0
  1 34  1  0  0  0  0
  2 35  1  0  0  0  0
  3 36  1  0  0  0  0
  4 37  1  0  0  0  0
  5 38  1  0  0  0  0
  6 39  1  0  0  0  0
  7 40  1  0  0  0  0
  8 41  1  0  0  0  0
 15 42  1  0  0  0  0
 16 43  1  0  0  0  0
 17 44  1  0  0  0  0
 18 45  1  0  0  0  0
 20 46  1  0  0  0  0
 20 47  1  0  0  0  0
 21 48  1  0  0  0  0
 21 49  1  0  0  0  0
 22 50  1  0  0  0  0
 22 51  1  0  0  0  0
 23 52  1  0  0  0  0
 23 53  1  0  0  0  0
 24 54  1  0  0  0  0
 24 55  1  0  0  0  0
 29 56  1  0  0  0  0
M  END
> <clash_score>
0.6893493578249971

> <docking_score>
-7.656953811645508

> <overlap_score>
1.013511061668396

$$$$
BENZO_167_1
  -OEChem-08232013483D

 56 60  0     0  0  0  0  0  0999 V2000
    8.3310   -2.7170   25.3430 C   0  0  0  0  0  0  0  0  0  0  0  0
   10.2570   -3.5000   24.1350 C   0  0  0  0  0  0  0  0  0  0  0  0
    8.3510   -1.5420   24.6110 C   0  0  0  0  0  0  0  0  0  0  0  0
   10.2760   -2.3270   23.4020 C   0  0  0  0  0  0  0  0  0  0  0  0
   12.3632    1.0650   24.8419 C   0  0  0  0  0  0  0  0  0  0  0  0
   12.3380    1.1570   22.6451 C   0  0  0  0  0  0  0  0  0  0  0  0
   11.4991    1.0994   23.7310 C   0  0  0  0  0  0  0  0  0  0  0  0
    9.2850   -3.7090   25.1090 C   0  0  0  0  0  0  0  0  0  0  0  0
    9.3300   -1.3350   23.6390 C   0  0  0  0  0  0  0  0  0  0  0  0
    5.9810    0.8330   18.8060 C   0  0  0  0  0  0  0  0  0  0  0  0
    7.2210   -0.4620   20.0350 C   0  0  0  0  0  0  0  0  0  0  0  0
    4.9400    1.7060   18.5060 C   0  0  0  0  0  0  0  0  0  0  0  0
    4.0980    2.1130   19.5350 C   0  0  0  0  0  0  0  0  0  0  0  0
    4.2970    1.6690   20.8430 C   0  0  0  0  0  0  0  0  0  0  0  0
    5.3360    0.8000   21.1530 C   0  0  0  0  0  0  0  0  0  0  0  0
    8.9510    0.1280   21.6880 C   0  0  0  0  0  0  0  0  0  0  0  0
    8.7666   -4.9523   27.2147 C   0  0  0  0  0  0  0  0  0  0  0  0
    9.3034   -6.1866   25.1651 C   0  0  0  0  0  0  0  0  0  0  0  0
    7.3827   -5.5925   27.1999 C   0  0  0  0  0  0  0  0  0  0  0  0
    7.9024   -6.7967   25.2263 C   0  0  0  0  0  0  0  0  0  0  0  0
   14.8306    1.2028   22.3921 C   0  0  0  0  0  0  0  0  0  0  0  0
    9.9979    1.0755   23.7305 C   0  0  0  0  0  0  0  0  0  0  0  0
   13.6522    1.0979   24.4936 N   0  0  0  0  0  0  0  0  0  0  0  0
    6.9440    0.2550   18.0100 N   0  0  0  0  0  0  0  0  0  0  0  0
    7.6830   -0.5170   18.7600 N   0  0  0  0  0  0  0  0  0  0  0  0
   13.6043    1.1535   23.1517 N   0  0  0  0  0  0  0  0  0  0  0  0
    6.1600    0.3870   20.1140 N   0  0  0  0  0  0  0  0  0  0  0  0
    9.2640   -4.8844   25.8389 N   0  0  0  0  0  0  0  0  0  0  0  0
    8.0810   -0.9750   21.0820 N   0  0  0  0  0  0  0  0  0  0  0  0
    9.4200   -0.0840   22.9530 N   0  0  0  0  0  0  0  0  0  0  0  0
    9.1870    1.1500   21.0630 O   0  0  0  0  0  0  0  0  0  0  0  0
    7.4483   -6.8833   26.5817 O   0  0  0  0  0  0  0  0  0  0  0  0
    7.5647   -2.8621   26.1053 H   0  0  0  0  0  0  0  0  0  0  0  0
   11.0144   -4.2642   23.9425 H   0  0  0  0  0  0  0  0  0  0  0  0
    7.5958   -0.7779   24.8006 H   0  0  0  0  0  0  0  0  0  0  0  0
   11.0406   -2.1848   22.6356 H   0  0  0  0  0  0  0  0  0  0  0  0
   12.1097    1.0164   25.8914 H   0  0  0  0  0  0  0  0  0  0  0  0
   12.1466    1.1979   21.5813 H   0  0  0  0  0  0  0  0  0  0  0  0
    4.7733    2.0700   17.5071 H   0  0  0  0  0  0  0  0  0  0  0  0
    3.2813    2.7836   19.2995 H   0  0  0  0  0  0  0  0  0  0  0  0
    3.6335    1.9977   21.6542 H   0  0  0  0  0  0  0  0  0  0  0  0
    5.5067    0.4537   22.1474 H   0  0  0  0  0  0  0  0  0  0  0  0
    8.7030   -3.9561   27.6574 H   0  0  0  0  0  0  0  0  0  0  0  0
    9.4460   -5.5639   27.8143 H   0  0  0  0  0  0  0  0  0  0  0  0
   10.0083   -6.8392   25.6817 H   0  0  0  0  0  0  0  0  0  0  0  0
    9.6089   -6.0802   24.1251 H   0  0  0  0  0  0  0  0  0  0  0  0
    7.0281   -5.7334   28.2231 H   0  0  0  0  0  0  0  0  0  0  0  0
    6.6541   -4.9678   26.6754 H   0  0  0  0  0  0  0  0  0  0  0  0
    7.1860   -6.2177   24.6318 H   0  0  0  0  0  0  0  0  0  0  0  0
    7.9246   -7.8119   24.8187 H   0  0  0  0  0  0  0  0  0  0  0  0
   15.1025    2.2531   22.2584 H   0  0  0  0  0  0  0  0  0  0  0  0
   15.6167    0.6704   22.9348 H   0  0  0  0  0  0  0  0  0  0  0  0
   14.6750    0.7206   21.4230 H   0  0  0  0  0  0  0  0  0  0  0  0
    9.6122    1.0250   24.7546 H   0  0  0  0  0  0  0  0  0  0  0  0
    9.5906    1.9837   23.2740 H   0  0  0  0  0  0  0  0  0  0  0  0
    8.1334   -1.7992   21.3673 H   0  0  0  0  0  0  0  0  0  0  0  0
  1  3  2  0  0  0  0
  1  8  1  0  0  0  0
  2  4  1  0  0  0  0
  2  8  2  0  0  0  0
  3  9  1  0  0  0  0
  4  9  2  0  0  0  0
  5  7  1  0  0  0  0
  5 23  2  0  0  0  0
  6  7  2  0  0  0  0
  6 26  1  0  0  0  0
  7 22  1  0  0  0  0
  8 28  1  0  0  0  0
  9 30  1  0  0  0  0
 10 12  1  0  0  0  0
 10 24  2  0  0  0  0
 10 27  1  0  0  0  0
 11 25  2  0  0  0  0
 11 27  1  0  0  0  0
 11 29  1  0  0  0  0
 12 13  2  0  0  0  0
 13 14  1  0  0  0  0
 14 15  2  0  0  0  0
 15 27  1  0  0  0  0
 16 29  1  0  0  0  0
 16 30  1  0  0  0  0
 16 31  2  0  0  0  0
 17 19  1  0  0  0  0
 17 28  1  0  0  0  0
 18 20  1  0  0  0  0
 18 28  1  0  0  0  0
 19 32  1  0  0  0  0
 20 32  1  0  0  0  0
 21 26  1  0  0  0  0
 22 30  1  0  0  0  0
 23 26  1  0  0  0  0
 24 25  1  0  0  0  0
  1 33  1  0  0  0  0
  2 34  1  0  0  0  0
  3 35  1  0  0  0  0
  4 36  1  0  0  0  0
  5 37  1  0  0  0  0
  6 38  1  0  0  0  0
 12 39  1  0  0  0  0
 13 40  1  0  0  0  0
 14 41  1  0  0  0  0
 15 42  1  0  0  0  0
 17 43  1  0  0  0  0
 17 44  1  0  0  0  0
 18 45  1  0  0  0  0
 18 46  1  0  0  0  0
 19 47  1  0  0  0  0
 19 48  1  0  0  0  0
 20 49  1  0  0  0  0
 20 50  1  0  0  0  0
 21 51  1  0  0  0  0
 21 52  1  0  0  0  0
 21 53  1  0  0  0  0
 22 54  1  0  0  0  0
 22 55  1  0  0  0  0
 29 56  1  0  0  0  0
M  END
> <clash_score>
0

> <docking_score>
-8.546013832092285

> <overlap_score>
1.0047787427902222

$$$$
BENZO_168_1
  -OEChem-08232013483D

 49 52  0     1  0  0  0  0  0999 V2000
    4.0980    2.1130   19.5350 C   0  0  0  0  0  0  0  0  0  0  0  0
    4.2970    1.6690   20.8430 C   0  0  0  0  0  0  0  0  0  0  0  0
    8.3510   -1.5420   24.6110 C   0  0  0  0  0  0  0  0  0  0  0  0
   10.2760   -2.3270   23.4020 C   0  0  0  0  0  0  0  0  0  0  0  0
    4.9400    1.7060   18.5060 C   0  0  0  0  0  0  0  0  0  0  0  0
    5.3360    0.8000   21.1530 C   0  0  0  0  0  0  0  0  0  0  0  0
    8.3310   -2.7170   25.3430 C   0  0  0  0  0  0  0  0  0  0  0  0
   10.2570   -3.5000   24.1350 C   0  0  0  0  0  0  0  0  0  0  0  0
   11.9859    2.6451   22.1146 C   0  0  0  0  0  0  0  0  0  0  0  0
   11.9778    4.0073   22.3192 C   0  0  0  0  0  0  0  0  0  0  0  0
   10.5383    2.8236   23.9243 C   0  0  0  0  0  0  0  0  0  0  0  0
    9.3300   -1.3350   23.6390 C   0  0  0  0  0  0  0  0  0  0  0  0
   11.1519    1.9593   23.0443 C   0  0  0  0  0  0  0  0  0  0  0  0
    5.9810    0.8330   18.8060 C   0  0  0  0  0  0  0  0  0  0  0  0
    6.1600    0.3870   20.1140 C   0  0  0  0  0  0  0  0  0  0  0  0
    9.2850   -3.7090   25.1090 C   0  0  0  0  0  0  0  0  0  0  0  0
    8.9510    0.1280   21.6880 C   0  0  0  0  0  0  0  0  0  0  0  0
    8.2520   -5.1176   26.8652 C   0  0  0  0  0  0  0  0  0  0  0  0
   10.2437   -5.9407   25.5988 C   0  0  0  0  0  0  0  0  0  0  0  0
   10.9648    0.4604   23.0619 C   0  0  0  0  0  0  0  0  0  0  0  0
    9.4200   -0.0840   22.9530 C   0  0  1  0  0  0  0  0  0  0  0  0
    6.9440    0.2550   18.0100 N   0  0  0  0  0  0  0  0  0  0  0  0
    7.6830   -0.5170   18.7600 N   0  0  0  0  0  0  0  0  0  0  0  0
    7.2210   -0.4620   20.0350 N   0  0  0  0  0  0  0  0  0  0  0  0
    8.0810   -0.9750   21.0820 N   0  0  0  0  0  0  0  0  0  0  0  0
    9.2638   -4.9025   25.8500 N   0  0  0  0  0  0  0  0  0  0  0  0
    9.1870    1.1500   21.0630 O   0  0  0  0  0  0  0  0  0  0  0  0
   10.9679    4.4545   23.6278 S   0  0  0  0  0  0  0  0  0  0  0  0
    3.2714    2.7876   19.3199 H   0  0  0  0  0  0  0  0  0  0  0  0
    3.6283    2.0091   21.6296 H   0  0  0  0  0  0  0  0  0  0  0  0
    7.5957   -0.7779   24.7973 H   0  0  0  0  0  0  0  0  0  0  0  0
   11.0384   -2.1852   22.6338 H   0  0  0  0  0  0  0  0  0  0  0  0
    4.7824    2.0670   17.4883 H   0  0  0  0  0  0  0  0  0  0  0  0
    5.4937    0.4574   22.1805 H   0  0  0  0  0  0  0  0  0  0  0  0
    7.5634   -2.8637   26.1037 H   0  0  0  0  0  0  0  0  0  0  0  0
   11.0139   -4.2645   23.9419 H   0  0  0  0  0  0  0  0  0  0  0  0
   12.5644    2.1673   21.3341 H   0  0  0  0  0  0  0  0  0  0  0  0
   12.5171    4.7612   21.7633 H   0  0  0  0  0  0  0  0  0  0  0  0
    9.8588    2.5795   24.7291 H   0  0  0  0  0  0  0  0  0  0  0  0
    8.4015   -6.1034   27.3296 H   0  0  0  0  0  0  0  0  0  0  0  0
    8.3316   -4.3345   27.6337 H   0  0  0  0  0  0  0  0  0  0  0  0
    7.2546   -5.0776   26.4030 H   0  0  0  0  0  0  0  0  0  0  0  0
   10.0610   -6.7893   26.2744 H   0  0  0  0  0  0  0  0  0  0  0  0
   10.1605   -6.2785   24.5553 H   0  0  0  0  0  0  0  0  0  0  0  0
   11.2536   -5.5421   25.7757 H   0  0  0  0  0  0  0  0  0  0  0  0
   11.5732    0.0341   22.2521 H   0  0  0  0  0  0  0  0  0  0  0  0
   11.3908    0.0462   23.9854 H   0  0  0  0  0  0  0  0  0  0  0  0
    8.9107    0.7231   23.6509 H   0  0  0  0  0  0  0  0  0  0  0  0
    8.1479   -1.8049   21.3777 H   0  0  0  0  0  0  0  0  0  0  0  0
  1  2  1  0  0  0  0
  1  5  2  0  0  0  0
  2  6  2  0  0  0  0
  3  7  2  0  0  0  0
  3 12  1  0  0  0  0
  4  8  1  0  0  0  0
  4 12  2  0  0  0  0
  5 14  1  0  0  0  0
  6 15  1  0  0  0  0
  7 16  1  0  0  0  0
  8 16  2  0  0  0  0
  9 10  2  0  0  0  0
  9 13  1  0  0  0  0
 10 28  1  0  0  0  0
 11 13  2  0  0  0  0
 11 28  1  0  0  0  0
 12 21  1  0  0  0  0
 13 20  1  0  0  0  0
 14 15  2  0  0  0  0
 14 22  1  0  0  0  0
 15 24  1  0  0  0  0
 16 26  1  0  0  0  0
 17 21  1  0  0  0  0
 17 25  1  0  0  0  0
 17 27  2  0  0  0  0
 18 26  1  0  0  0  0
 19 26  1  0  0  0  0
 20 21  1  1  0  0  0
 22 23  2  0  0  0  0
 23 24  1  0  0  0  0
 24 25  1  0  0  0  0
  1 29  1  0  0  0  0
  2 30  1  0  0  0  0
  3 31  1  0  0  0  0
  4 32  1  0  0  0  0
  5 33  1  0  0  0  0
  6 34  1  0  0  0  0
  7 35  1  0  0  0  0
  8 36  1  0  0  0  0
  9 37  1  0  0  0  0
 10 38  1  0  0  0  0
 11 39  1  0  0  0  0
 18 40  1  0  0  0  0
 18 41  1  0  0  0  0
 18 42  1  0  0  0  0
 19 43  1  0  0  0  0
 19 44  1  0  0  0  0
 19 45  1  0  0  0  0
 20 46  1  0  0  0  0
 20 47  1  0  0  0  0
 21 48  1  0  0  0  0
 25 49  1  0  0  0  0
M  END
> <clash_score>
0

> <docking_score>
-10.62088680267334

> <overlap_score>
0.9226124882698059

$$$$
BENZO_169_1
  -OEChem-08232013483D

 52 55  0     1  0  0  0  0  0999 V2000
   11.4961    4.7275   23.0120 C   0  0  0  0  0  0  0  0  0  0  0  0
   12.4919    3.8950   22.5015 C   0  0  0  0  0  0  0  0  0  0  0  0
   10.3281    4.1760   23.5388 C   0  0  0  0  0  0  0  0  0  0  0  0
    4.0980    2.1130   19.5350 C   0  0  0  0  0  0  0  0  0  0  0  0
    4.2970    1.6690   20.8430 C   0  0  0  0  0  0  0  0  0  0  0  0
   12.3199    2.5108   22.5177 C   0  0  0  0  0  0  0  0  0  0  0  0
   10.1560    2.7919   23.5549 C   0  0  0  0  0  0  0  0  0  0  0  0
    8.3510   -1.5420   24.6110 C   0  0  0  0  0  0  0  0  0  0  0  0
   10.2760   -2.3270   23.4020 C   0  0  0  0  0  0  0  0  0  0  0  0
    4.9400    1.7060   18.5060 C   0  0  0  0  0  0  0  0  0  0  0  0
    5.3360    0.8000   21.1530 C   0  0  0  0  0  0  0  0  0  0  0  0
    8.3310   -2.7170   25.3430 C   0  0  0  0  0  0  0  0  0  0  0  0
   10.2570   -3.5000   24.1350 C   0  0  0  0  0  0  0  0  0  0  0  0
   11.1519    1.9593   23.0443 C   0  0  0  0  0  0  0  0  0  0  0  0
    9.3300   -1.3350   23.6390 C   0  0  0  0  0  0  0  0  0  0  0  0
    5.9810    0.8330   18.8060 C   0  0  0  0  0  0  0  0  0  0  0  0
    6.1600    0.3870   20.1140 C   0  0  0  0  0  0  0  0  0  0  0  0
    9.2850   -3.7090   25.1090 C   0  0  0  0  0  0  0  0  0  0  0  0
    8.9510    0.1280   21.6880 C   0  0  0  0  0  0  0  0  0  0  0  0
    8.2520   -5.1176   26.8652 C   0  0  0  0  0  0  0  0  0  0  0  0
   10.2437   -5.9407   25.5988 C   0  0  0  0  0  0  0  0  0  0  0  0
   10.9648    0.4604   23.0619 C   0  0  0  0  0  0  0  0  0  0  0  0
    9.4200   -0.0840   22.9530 C   0  0  1  0  0  0  0  0  0  0  0  0
    6.9440    0.2550   18.0100 N   0  0  0  0  0  0  0  0  0  0  0  0
    7.6830   -0.5170   18.7600 N   0  0  0  0  0  0  0  0  0  0  0  0
    7.2210   -0.4620   20.0350 N   0  0  0  0  0  0  0  0  0  0  0  0
    8.0810   -0.9750   21.0820 N   0  0  0  0  0  0  0  0  0  0  0  0
    9.2638   -4.9025   25.8500 N   0  0  0  0  0  0  0  0  0  0  0  0
    9.1870    1.1500   21.0630 O   0  0  0  0  0  0  0  0  0  0  0  0
   11.6308    5.8052   23.0007 H   0  0  0  0  0  0  0  0  0  0  0  0
   13.4019    4.3242   22.0924 H   0  0  0  0  0  0  0  0  0  0  0  0
    9.5530    4.8238   23.9374 H   0  0  0  0  0  0  0  0  0  0  0  0
    3.2714    2.7876   19.3199 H   0  0  0  0  0  0  0  0  0  0  0  0
    3.6283    2.0091   21.6296 H   0  0  0  0  0  0  0  0  0  0  0  0
   13.1011    1.8699   22.1175 H   0  0  0  0  0  0  0  0  0  0  0  0
    9.2427    2.3711   23.9671 H   0  0  0  0  0  0  0  0  0  0  0  0
    7.5957   -0.7779   24.7973 H   0  0  0  0  0  0  0  0  0  0  0  0
   11.0384   -2.1852   22.6338 H   0  0  0  0  0  0  0  0  0  0  0  0
    4.7824    2.0670   17.4883 H   0  0  0  0  0  0  0  0  0  0  0  0
    5.4937    0.4574   22.1805 H   0  0  0  0  0  0  0  0  0  0  0  0
    7.5634   -2.8637   26.1037 H   0  0  0  0  0  0  0  0  0  0  0  0
   11.0139   -4.2645   23.9419 H   0  0  0  0  0  0  0  0  0  0  0  0
    8.4015   -6.1034   27.3296 H   0  0  0  0  0  0  0  0  0  0  0  0
    8.3316   -4.3345   27.6337 H   0  0  0  0  0  0  0  0  0  0  0  0
    7.2546   -5.0776   26.4030 H   0  0  0  0  0  0  0  0  0  0  0  0
   10.0610   -6.7893   26.2744 H   0  0  0  0  0  0  0  0  0  0  0  0
   10.1605   -6.2785   24.5553 H   0  0  0  0  0  0  0  0  0  0  0  0
   11.2536   -5.5421   25.7757 H   0  0  0  0  0  0  0  0  0  0  0  0
   11.5732    0.0341   22.2521 H   0  0  0  0  0  0  0  0  0  0  0  0
   11.3908    0.0462   23.9854 H   0  0  0  0  0  0  0  0  0  0  0  0
    8.9107    0.7231   23.6509 H   0  0  0  0  0  0  0  0  0  0  0  0
    8.1479   -1.8049   21.3777 H   0  0  0  0  0  0  0  0  0  0  0  0
  1  2  1  0  0  0  0
  1  3  2  0  0  0  0
  2  6  2  0  0  0  0
  3  7  1  0  0  0  0
  4  5  1  0  0  0  0
  4 10  2  0  0  0  0
  5 11  2  0  0  0  0
  6 14  1  0  0  0  0
  7 14  2  0  0  0  0
  8 12  2  0  0  0  0
  8 15  1  0  0  0  0
  9 13  1  0  0  0  0
  9 15  2  0  0  0  0
 10 16  1  0  0  0  0
 11 17  1  0  0  0  0
 12 18  1  0  0  0  0
 13 18  2  0  0  0  0
 14 22  1  0  0  0  0
 15 23  1  0  0  0  0
 16 17  2  0  0  0  0
 16 24  1  0  0  0  0
 17 26  1  0  0  0  0
 18 28  1  0  0  0  0
 19 23  1  0  0  0  0
 19 27  1  0  0  0  0
 19 29  2  0  0  0  0
 20 28  1  0  0  0  0
 21 28  1  0  0  0  0
 22 23  1  1  0  0  0
 24 25  2  0  0  0  0
 25 26  1  0  0  0  0
 26 27  1  0  0  0  0
  1 30  1  0  0  0  0
  2 31  1  0  0  0  0
  3 32  1  0  0  0  0
  4 33  1  0  0  0  0
  5 34  1  0  0  0  0
  6 35  1  0  0  0  0
  7 36  1  0  0  0  0
  8 37  1  0  0  0  0
  9 38  1  0  0  0  0
 10 39  1  0  0  0  0
 11 40  1  0  0  0  0
 12 41  1  0  0  0  0
 13 42  1  0  0  0  0
 20 43  1  0  0  0  0
 20 44  1  0  0  0  0
 20 45  1  0  0  0  0
 21 46  1  0  0  0  0
 21 47  1  0  0  0  0
 21 48  1  0  0  0  0
 22 49  1  0  0  0  0
 22 50  1  0  0  0  0
 23 51  1  0  0  0  0
 27 52  1  0  0  0  0
M  END
> <clash_score>
0

> <docking_score>
-11.79761028289795

> <overlap_score>
0.9327346682548523

$$$$
BENZO_169_2
  -OEChem-08232013483D

 52 55  0     1  0  0  0  0  0999 V2000
   10.7871    4.8449   23.0864 C   0  0  0  0  0  0  0  0  0  0  0  0
    9.4814    4.8291   23.5768 C   0  0  0  0  0  0  0  0  0  0  0  0
   11.4667    3.6455   22.8734 C   0  0  0  0  0  0  0  0  0  0  0  0
    4.0980    2.1130   19.5350 C   0  0  0  0  0  0  0  0  0  0  0  0
    4.2970    1.6690   20.8430 C   0  0  0  0  0  0  0  0  0  0  0  0
    8.8554    3.6139   23.8543 C   0  0  0  0  0  0  0  0  0  0  0  0
   10.8407    2.4304   23.1510 C   0  0  0  0  0  0  0  0  0  0  0  0
    8.3510   -1.5420   24.6110 C   0  0  0  0  0  0  0  0  0  0  0  0
   10.2760   -2.3270   23.4020 C   0  0  0  0  0  0  0  0  0  0  0  0
    4.9400    1.7060   18.5060 C   0  0  0  0  0  0  0  0  0  0  0  0
    5.3360    0.8000   21.1530 C   0  0  0  0  0  0  0  0  0  0  0  0
    8.3310   -2.7170   25.3430 C   0  0  0  0  0  0  0  0  0  0  0  0
   10.2570   -3.5000   24.1350 C   0  0  0  0  0  0  0  0  0  0  0  0
    9.5350    2.4145   23.6414 C   0  0  0  0  0  0  0  0  0  0  0  0
    9.3300   -1.3350   23.6390 C   0  0  0  0  0  0  0  0  0  0  0  0
    5.9810    0.8330   18.8060 C   0  0  0  0  0  0  0  0  0  0  0  0
    6.1600    0.3870   20.1140 C   0  0  0  0  0  0  0  0  0  0  0  0
    9.2850   -3.7090   25.1090 C   0  0  0  0  0  0  0  0  0  0  0  0
    8.9510    0.1280   21.6880 C   0  0  0  0  0  0  0  0  0  0  0  0
    8.2520   -5.1176   26.8652 C   0  0  0  0  0  0  0  0  0  0  0  0
   10.2437   -5.9407   25.5988 C   0  0  0  0  0  0  0  0  0  0  0  0
    8.8577    1.0982   23.9421 C   0  0  0  0  0  0  0  0  0  0  0  0
    9.4200   -0.0840   22.9530 C   0  0  2  0  0  0  0  0  0  0  0  0
    6.9440    0.2550   18.0100 N   0  0  0  0  0  0  0  0  0  0  0  0
    7.6830   -0.5170   18.7600 N   0  0  0  0  0  0  0  0  0  0  0  0
    7.2210   -0.4620   20.0350 N   0  0  0  0  0  0  0  0  0  0  0  0
    8.0810   -0.9750   21.0820 N   0  0  0  0  0  0  0  0  0  0  0  0
    9.2638   -4.9025   25.8500 N   0  0  0  0  0  0  0  0  0  0  0  0
    9.1870    1.1500   21.0630 O   0  0  0  0  0  0  0  0  0  0  0  0
   11.2739    5.7911   22.8690 H   0  0  0  0  0  0  0  0  0  0  0  0
    8.9517    5.7628   23.7416 H   0  0  0  0  0  0  0  0  0  0  0  0
   12.4829    3.6575   22.4905 H   0  0  0  0  0  0  0  0  0  0  0  0
    3.2714    2.7876   19.3199 H   0  0  0  0  0  0  0  0  0  0  0  0
    3.6283    2.0091   21.6296 H   0  0  0  0  0  0  0  0  0  0  0  0
    7.8379    3.6112   24.2364 H   0  0  0  0  0  0  0  0  0  0  0  0
   11.3780    1.5009   22.9821 H   0  0  0  0  0  0  0  0  0  0  0  0
    7.5957   -0.7779   24.7973 H   0  0  0  0  0  0  0  0  0  0  0  0
   11.0384   -2.1852   22.6338 H   0  0  0  0  0  0  0  0  0  0  0  0
    4.7824    2.0670   17.4883 H   0  0  0  0  0  0  0  0  0  0  0  0
    5.4937    0.4574   22.1805 H   0  0  0  0  0  0  0  0  0  0  0  0
    7.5634   -2.8637   26.1037 H   0  0  0  0  0  0  0  0  0  0  0  0
   11.0139   -4.2645   23.9419 H   0  0  0  0  0  0  0  0  0  0  0  0
    8.4015   -6.1034   27.3296 H   0  0  0  0  0  0  0  0  0  0  0  0
    8.3316   -4.3345   27.6337 H   0  0  0  0  0  0  0  0  0  0  0  0
    7.2546   -5.0776   26.4030 H   0  0  0  0  0  0  0  0  0  0  0  0
   10.0610   -6.7893   26.2744 H   0  0  0  0  0  0  0  0  0  0  0  0
   10.1605   -6.2785   24.5553 H   0  0  0  0  0  0  0  0  0  0  0  0
   11.2536   -5.5421   25.7757 H   0  0  0  0  0  0  0  0  0  0  0  0
    8.9995    0.8809   25.0099 H   0  0  0  0  0  0  0  0  0  0  0  0
    7.7720    1.2044   23.8156 H   0  0  0  0  0  0  0  0  0  0  0  0
   10.5616    0.2233   22.9565 H   0  0  0  0  0  0  0  0  0  0  0  0
    8.1479   -1.8049   21.3777 H   0  0  0  0  0  0  0  0  0  0  0  0
  1  2  1  0  0  0  0
  1  3  2  0  0  0  0
  2  6  2  0  0  0  0
  3  7  1  0  0  0  0
  4  5  1  0  0  0  0
  4 10  2  0  0  0  0
  5 11  2  0  0  0  0
  6 14  1  0  0  0  0
  7 14  2  0  0  0  0
  8 12  2  0  0  0  0
  8 15  1  0  0  0  0
  9 13  1  0  0  0  0
  9 15  2  0  0  0  0
 10 16  1  0  0  0  0
 11 17  1  0  0  0  0
 12 18  1  0  0  0  0
 13 18  2  0  0  0  0
 14 22  1  0  0  0  0
 15 23  1  0  0  0  0
 16 17  2  0  0  0  0
 16 24  1  0  0  0  0
 17 26  1  0  0  0  0
 18 28  1  0  0  0  0
 19 23  1  0  0  0  0
 19 27  1  0  0  0  0
 19 29  2  0  0  0  0
 20 28  1  0  0  0  0
 21 28  1  0  0  0  0
 22 23  1  6  0  0  0
 24 25  2  0  0  0  0
 25 26  1  0  0  0  0
 26 27  1  0  0  0  0
  1 30  1  0  0  0  0
  2 31  1  0  0  0  0
  3 32  1  0  0  0  0
  4 33  1  0  0  0  0
  5 34  1  0  0  0  0
  6 35  1  0  0  0  0
  7 36  1  0  0  0  0
  8 37  1  0  0  0  0
  9 38  1  0  0  0  0
 10 39  1  0  0  0  0
 11 40  1  0  0  0  0
 12 41  1  0  0  0  0
 13 42  1  0  0  0  0
 20 43  1  0  0  0  0
 20 44  1  0  0  0  0
 20 45  1  0  0  0  0
 21 46  1  0  0  0  0
 21 47  1  0  0  0  0
 21 48  1  0  0  0  0
 22 49  1  0  0  0  0
 22 50  1  0  0  0  0
 23 51  1  0  0  0  0
 27 52  1  0  0  0  0
M  END
> <clash_score>
0

> <docking_score>
-10.35998821258545

> <overlap_score>
0.8708934187889099

$$$$
BENZO_168_2
  -OEChem-08232013483D

 49 52  0     1  0  0  0  0  0999 V2000
    4.0980    2.1130   19.5350 C   0  0  0  0  0  0  0  0  0  0  0  0
    4.2970    1.6690   20.8430 C   0  0  0  0  0  0  0  0  0  0  0  0
    8.3510   -1.5420   24.6110 C   0  0  0  0  0  0  0  0  0  0  0  0
   10.2760   -2.3270   23.4020 C   0  0  0  0  0  0  0  0  0  0  0  0
    4.9400    1.7060   18.5060 C   0  0  0  0  0  0  0  0  0  0  0  0
    5.3360    0.8000   21.1530 C   0  0  0  0  0  0  0  0  0  0  0  0
    8.3310   -2.7170   25.3430 C   0  0  0  0  0  0  0  0  0  0  0  0
   10.2570   -3.5000   24.1350 C   0  0  0  0  0  0  0  0  0  0  0  0
   10.8949    2.5334   23.2333 C   0  0  0  0  0  0  0  0  0  0  0  0
   11.2600    3.8453   23.0253 C   0  0  0  0  0  0  0  0  0  0  0  0
    8.9125    3.6403   23.7301 C   0  0  0  0  0  0  0  0  0  0  0  0
    9.3300   -1.3350   23.6390 C   0  0  0  0  0  0  0  0  0  0  0  0
    9.5350    2.4145   23.6414 C   0  0  0  0  0  0  0  0  0  0  0  0
    5.9810    0.8330   18.8060 C   0  0  0  0  0  0  0  0  0  0  0  0
    6.1600    0.3870   20.1140 C   0  0  0  0  0  0  0  0  0  0  0  0
    9.2850   -3.7090   25.1090 C   0  0  0  0  0  0  0  0  0  0  0  0
    8.9510    0.1280   21.6880 C   0  0  0  0  0  0  0  0  0  0  0  0
    8.2520   -5.1176   26.8652 C   0  0  0  0  0  0  0  0  0  0  0  0
   10.2437   -5.9407   25.5988 C   0  0  0  0  0  0  0  0  0  0  0  0
    8.8577    1.0982   23.9421 C   0  0  0  0  0  0  0  0  0  0  0  0
    9.4200   -0.0840   22.9530 C   0  0  2  0  0  0  0  0  0  0  0  0
    6.9440    0.2550   18.0100 N   0  0  0  0  0  0  0  0  0  0  0  0
    7.6830   -0.5170   18.7600 N   0  0  0  0  0  0  0  0  0  0  0  0
    7.2210   -0.4620   20.0350 N   0  0  0  0  0  0  0  0  0  0  0  0
    8.0810   -0.9750   21.0820 N   0  0  0  0  0  0  0  0  0  0  0  0
    9.2638   -4.9025   25.8500 N   0  0  0  0  0  0  0  0  0  0  0  0
    9.1870    1.1500   21.0630 O   0  0  0  0  0  0  0  0  0  0  0  0
    9.9661    4.9270   23.3220 S   0  0  0  0  0  0  0  0  0  0  0  0
    3.2714    2.7876   19.3199 H   0  0  0  0  0  0  0  0  0  0  0  0
    3.6283    2.0091   21.6296 H   0  0  0  0  0  0  0  0  0  0  0  0
    7.5957   -0.7779   24.7973 H   0  0  0  0  0  0  0  0  0  0  0  0
   11.0384   -2.1852   22.6338 H   0  0  0  0  0  0  0  0  0  0  0  0
    4.7824    2.0670   17.4883 H   0  0  0  0  0  0  0  0  0  0  0  0
    5.4937    0.4574   22.1805 H   0  0  0  0  0  0  0  0  0  0  0  0
    7.5634   -2.8637   26.1037 H   0  0  0  0  0  0  0  0  0  0  0  0
   11.0139   -4.2645   23.9419 H   0  0  0  0  0  0  0  0  0  0  0  0
   11.5746    1.7015   23.0982 H   0  0  0  0  0  0  0  0  0  0  0  0
   12.2247    4.2203   22.7141 H   0  0  0  0  0  0  0  0  0  0  0  0
    7.8902    3.8463   24.0157 H   0  0  0  0  0  0  0  0  0  0  0  0
    8.4015   -6.1034   27.3296 H   0  0  0  0  0  0  0  0  0  0  0  0
    8.3316   -4.3345   27.6337 H   0  0  0  0  0  0  0  0  0  0  0  0
    7.2546   -5.0776   26.4030 H   0  0  0  0  0  0  0  0  0  0  0  0
   10.0610   -6.7893   26.2744 H   0  0  0  0  0  0  0  0  0  0  0  0
   10.1605   -6.2785   24.5553 H   0  0  0  0  0  0  0  0  0  0  0  0
   11.2536   -5.5421   25.7757 H   0  0  0  0  0  0  0  0  0  0  0  0
    8.9995    0.8809   25.0099 H   0  0  0  0  0  0  0  0  0  0  0  0
    7.7720    1.2044   23.8156 H   0  0  0  0  0  0  0  0  0  0  0  0
   10.5616    0.2233   22.9565 H   0  0  0  0  0  0  0  0  0  0  0  0
    8.1479   -1.8049   21.3777 H   0  0  0  0  0  0  0  0  0  0  0  0
  1  2  1  0  0  0  0
  1  5  2  0  0  0  0
  2  6  2  0  0  0  0
  3  7  2  0  0  0  0
  3 12  1  0  0  0  0
  4  8  1  0  0  0  0
  4 12  2  0  0  0  0
  5 14  1  0  0  0  0
  6 15  1  0  0  0  0
  7 16  1  0  0  0  0
  8 16  2  0  0  0  0
  9 10  2  0  0  0  0
  9 13  1  0  0  0  0
 10 28  1  0  0  0  0
 11 13  2  0  0  0  0
 11 28  1  0  0  0  0
 12 21  1  0  0  0  0
 13 20  1  0  0  0  0
 14 15  2  0  0  0  0
 14 22  1  0  0  0  0
 15 24  1  0  0  0  0
 16 26  1  0  0  0  0
 17 21  1  0  0  0  0
 17 25  1  0  0  0  0
 17 27  2  0  0  0  0
 18 26  1  0  0  0  0
 19 26  1  0  0  0  0
 20 21  1  6  0  0  0
 22 23  2  0  0  0  0
 23 24  1  0  0  0  0
 24 25  1  0  0  0  0
  1 29  1  0  0  0  0
  2 30  1  0  0  0  0
  3 31  1  0  0  0  0
  4 32  1  0  0  0  0
  5 33  1  0  0  0  0
  6 34  1  0  0  0  0
  7 35  1  0  0  0  0
  8 36  1  0  0  0  0
  9 37  1  0  0  0  0
 10 38  1  0  0  0  0
 11 39  1  0  0  0  0
 18 40  1  0  0  0  0
 18 41  1  0  0  0  0
 18 42  1  0  0  0  0
 19 43  1  0  0  0  0
 19 44  1  0  0  0  0
 19 45  1  0  0  0  0
 20 46  1  0  0  0  0
 20 47  1  0  0  0  0
 21 48  1  0  0  0  0
 25 49  1  0  0  0  0
M  END
> <clash_score>
0

> <docking_score>
-10.100747108459473

> <overlap_score>
0.8674135804176331

$$$$
BENZO_170_1
  -OEChem-08232013483D

 52 55  0     1  0  0  0  0  0999 V2000
    4.0980    2.1130   19.5350 C   0  0  0  0  0  0  0  0  0  0  0  0
    4.2970    1.6690   20.8430 C   0  0  0  0  0  0  0  0  0  0  0  0
   10.3291    4.1758   23.5411 C   0  0  0  0  0  0  0  0  0  0  0  0
   10.1565    2.7918   23.5559 C   0  0  0  0  0  0  0  0  0  0  0  0
    8.3510   -1.5420   24.6110 C   0  0  0  0  0  0  0  0  0  0  0  0
   10.2760   -2.3270   23.4020 C   0  0  0  0  0  0  0  0  0  0  0  0
    4.9400    1.7060   18.5060 C   0  0  0  0  0  0  0  0  0  0  0  0
    5.3360    0.8000   21.1530 C   0  0  0  0  0  0  0  0  0  0  0  0
    8.3310   -2.7170   25.3430 C   0  0  0  0  0  0  0  0  0  0  0  0
   10.2570   -3.5000   24.1350 C   0  0  0  0  0  0  0  0  0  0  0  0
   11.4971    4.7274   23.0146 C   0  0  0  0  0  0  0  0  0  0  0  0
   12.3200    2.5108   22.5179 C   0  0  0  0  0  0  0  0  0  0  0  0
    9.3300   -1.3350   23.6390 C   0  0  0  0  0  0  0  0  0  0  0  0
   11.1519    1.9593   23.0443 C   0  0  0  0  0  0  0  0  0  0  0  0
    5.9810    0.8330   18.8060 C   0  0  0  0  0  0  0  0  0  0  0  0
    6.1600    0.3870   20.1140 C   0  0  0  0  0  0  0  0  0  0  0  0
    9.2850   -3.7090   25.1090 C   0  0  0  0  0  0  0  0  0  0  0  0
   12.4925    3.8949   22.5030 C   0  0  0  0  0  0  0  0  0  0  0  0
    8.9510    0.1280   21.6880 C   0  0  0  0  0  0  0  0  0  0  0  0
    8.2520   -5.1176   26.8652 C   0  0  0  0  0  0  0  0  0  0  0  0
   10.2437   -5.9407   25.5988 C   0  0  0  0  0  0  0  0  0  0  0  0
   10.9648    0.4604   23.0619 C   0  0  0  0  0  0  0  0  0  0  0  0
    9.4200   -0.0840   22.9530 C   0  0  1  0  0  0  0  0  0  0  0  0
    6.9440    0.2550   18.0100 N   0  0  0  0  0  0  0  0  0  0  0  0
    7.6830   -0.5170   18.7600 N   0  0  0  0  0  0  0  0  0  0  0  0
    7.2210   -0.4620   20.0350 N   0  0  0  0  0  0  0  0  0  0  0  0
    8.0810   -0.9750   21.0820 N   0  0  0  0  0  0  0  0  0  0  0  0
    9.2638   -4.9025   25.8500 N   0  0  0  0  0  0  0  0  0  0  0  0
    9.1870    1.1500   21.0630 O   0  0  0  0  0  0  0  0  0  0  0  0
   13.9339    4.5760   21.8546 Cl  0  0  0  0  0  0  0  0  0  0  0  0
    3.2714    2.7876   19.3199 H   0  0  0  0  0  0  0  0  0  0  0  0
    3.6283    2.0091   21.6296 H   0  0  0  0  0  0  0  0  0  0  0  0
    9.5538    4.8237   23.9397 H   0  0  0  0  0  0  0  0  0  0  0  0
    9.2432    2.3707   23.9682 H   0  0  0  0  0  0  0  0  0  0  0  0
    7.5957   -0.7779   24.7973 H   0  0  0  0  0  0  0  0  0  0  0  0
   11.0384   -2.1852   22.6338 H   0  0  0  0  0  0  0  0  0  0  0  0
    4.7824    2.0670   17.4883 H   0  0  0  0  0  0  0  0  0  0  0  0
    5.4937    0.4574   22.1805 H   0  0  0  0  0  0  0  0  0  0  0  0
    7.5634   -2.8637   26.1037 H   0  0  0  0  0  0  0  0  0  0  0  0
   11.0139   -4.2645   23.9419 H   0  0  0  0  0  0  0  0  0  0  0  0
   11.6181    5.8079   23.0098 H   0  0  0  0  0  0  0  0  0  0  0  0
   13.0929    1.8575   22.1197 H   0  0  0  0  0  0  0  0  0  0  0  0
    8.4015   -6.1034   27.3296 H   0  0  0  0  0  0  0  0  0  0  0  0
    8.3316   -4.3345   27.6337 H   0  0  0  0  0  0  0  0  0  0  0  0
    7.2546   -5.0776   26.4030 H   0  0  0  0  0  0  0  0  0  0  0  0
   10.0610   -6.7893   26.2744 H   0  0  0  0  0  0  0  0  0  0  0  0
   10.1605   -6.2785   24.5553 H   0  0  0  0  0  0  0  0  0  0  0  0
   11.2536   -5.5421   25.7757 H   0  0  0  0  0  0  0  0  0  0  0  0
   11.5732    0.0341   22.2521 H   0  0  0  0  0  0  0  0  0  0  0  0
   11.3908    0.0462   23.9854 H   0  0  0  0  0  0  0  0  0  0  0  0
    8.9107    0.7231   23.6509 H   0  0  0  0  0  0  0  0  0  0  0  0
    8.1479   -1.8049   21.3777 H   0  0  0  0  0  0  0  0  0  0  0  0
  1  2  1  0  0  0  0
  1  7  2  0  0  0  0
  2  8  2  0  0  0  0
  3  4  2  0  0  0  0
  3 11  1  0  0  0  0
  4 14  1  0  0  0  0
  5  9  2  0  0  0  0
  5 13  1  0  0  0  0
  6 10  1  0  0  0  0
  6 13  2  0  0  0  0
  7 15  1  0  0  0  0
  8 16  1  0  0  0  0
  9 17  1  0  0  0  0
 10 17  2  0  0  0  0
 11 18  2  0  0  0  0
 12 14  2  0  0  0  0
 12 18  1  0  0  0  0
 13 23  1  0  0  0  0
 14 22  1  0  0  0  0
 15 16  2  0  0  0  0
 15 24  1  0  0  0  0
 16 26  1  0  0  0  0
 17 28  1  0  0  0  0
 18 30  1  0  0  0  0
 19 23  1  0  0  0  0
 19 27  1  0  0  0  0
 19 29  2  0  0  0  0
 20 28  1  0  0  0  0
 21 28  1  0  0  0  0
 22 23  1  1  0  0  0
 24 25  2  0  0  0  0
 25 26  1  0  0  0  0
 26 27  1  0  0  0  0
  1 31  1  0  0  0  0
  2 32  1  0  0  0  0
  3 33  1  0  0  0  0
  4 34  1  0  0  0  0
  5 35  1  0  0  0  0
  6 36  1  0  0  0  0
  7 37  1  0  0  0  0
  8 38  1  0  0  0  0
  9 39  1  0  0  0  0
 10 40  1  0  0  0  0
 11 41  1  0  0  0  0
 12 42  1  0  0  0  0
 20 43  1  0  0  0  0
 20 44  1  0  0  0  0
 20 45  1  0  0  0  0
 21 46  1  0  0  0  0
 21 47  1  0  0  0  0
 21 48  1  0  0  0  0
 22 49  1  0  0  0  0
 22 50  1  0  0  0  0
 23 51  1  0  0  0  0
 27 52  1  0  0  0  0
M  END
> <clash_score>
0

> <docking_score>
-12.125224113464355

> <overlap_score>
0.9333553314208984

$$$$
BENZO_170_2
  -OEChem-08232013483D

 52 55  0     1  0  0  0  0  0999 V2000
    4.0980    2.1130   19.5350 C   0  0  0  0  0  0  0  0  0  0  0  0
    4.2970    1.6690   20.8430 C   0  0  0  0  0  0  0  0  0  0  0  0
    9.4797    4.8290   23.5793 C   0  0  0  0  0  0  0  0  0  0  0  0
    8.8545    3.6132   23.8556 C   0  0  0  0  0  0  0  0  0  0  0  0
    8.3510   -1.5420   24.6110 C   0  0  0  0  0  0  0  0  0  0  0  0
   10.2760   -2.3270   23.4020 C   0  0  0  0  0  0  0  0  0  0  0  0
    4.9400    1.7060   18.5060 C   0  0  0  0  0  0  0  0  0  0  0  0
    5.3360    0.8000   21.1530 C   0  0  0  0  0  0  0  0  0  0  0  0
    8.3310   -2.7170   25.3430 C   0  0  0  0  0  0  0  0  0  0  0  0
   10.2570   -3.5000   24.1350 C   0  0  0  0  0  0  0  0  0  0  0  0
   10.7854    4.8463   23.0887 C   0  0  0  0  0  0  0  0  0  0  0  0
   10.8407    2.4317   23.1509 C   0  0  0  0  0  0  0  0  0  0  0  0
    9.3300   -1.3350   23.6390 C   0  0  0  0  0  0  0  0  0  0  0  0
    9.5350    2.4145   23.6414 C   0  0  0  0  0  0  0  0  0  0  0  0
    5.9810    0.8330   18.8060 C   0  0  0  0  0  0  0  0  0  0  0  0
    6.1600    0.3870   20.1140 C   0  0  0  0  0  0  0  0  0  0  0  0
    9.2850   -3.7090   25.1090 C   0  0  0  0  0  0  0  0  0  0  0  0
   11.4659    3.6477   22.8746 C   0  0  0  0  0  0  0  0  0  0  0  0
    8.9510    0.1280   21.6880 C   0  0  0  0  0  0  0  0  0  0  0  0
    8.2520   -5.1176   26.8652 C   0  0  0  0  0  0  0  0  0  0  0  0
   10.2437   -5.9407   25.5988 C   0  0  0  0  0  0  0  0  0  0  0  0
    8.8577    1.0982   23.9421 C   0  0  0  0  0  0  0  0  0  0  0  0
    9.4200   -0.0840   22.9530 C   0  0  2  0  0  0  0  0  0  0  0  0
    6.9440    0.2550   18.0100 N   0  0  0  0  0  0  0  0  0  0  0  0
    7.6830   -0.5170   18.7600 N   0  0  0  0  0  0  0  0  0  0  0  0
    7.2210   -0.4620   20.0350 N   0  0  0  0  0  0  0  0  0  0  0  0
    8.0810   -0.9750   21.0820 N   0  0  0  0  0  0  0  0  0  0  0  0
    9.2638   -4.9025   25.8500 N   0  0  0  0  0  0  0  0  0  0  0  0
    9.1870    1.1500   21.0630 O   0  0  0  0  0  0  0  0  0  0  0  0
   13.0772    3.6696   22.2705 Cl  0  0  0  0  0  0  0  0  0  0  0  0
    3.2714    2.7876   19.3199 H   0  0  0  0  0  0  0  0  0  0  0  0
    3.6283    2.0091   21.6296 H   0  0  0  0  0  0  0  0  0  0  0  0
    8.9496    5.7622   23.7463 H   0  0  0  0  0  0  0  0  0  0  0  0
    7.8370    3.6092   24.2377 H   0  0  0  0  0  0  0  0  0  0  0  0
    7.5957   -0.7779   24.7973 H   0  0  0  0  0  0  0  0  0  0  0  0
   11.0384   -2.1852   22.6338 H   0  0  0  0  0  0  0  0  0  0  0  0
    4.7824    2.0670   17.4883 H   0  0  0  0  0  0  0  0  0  0  0  0
    5.4937    0.4574   22.1805 H   0  0  0  0  0  0  0  0  0  0  0  0
    7.5634   -2.8637   26.1037 H   0  0  0  0  0  0  0  0  0  0  0  0
   11.0139   -4.2645   23.9419 H   0  0  0  0  0  0  0  0  0  0  0  0
   11.2603    5.8014   22.8781 H   0  0  0  0  0  0  0  0  0  0  0  0
   11.3668    1.4944   22.9852 H   0  0  0  0  0  0  0  0  0  0  0  0
    8.4015   -6.1034   27.3296 H   0  0  0  0  0  0  0  0  0  0  0  0
    8.3316   -4.3345   27.6337 H   0  0  0  0  0  0  0  0  0  0  0  0
    7.2546   -5.0776   26.4030 H   0  0  0  0  0  0  0  0  0  0  0  0
   10.0610   -6.7893   26.2744 H   0  0  0  0  0  0  0  0  0  0  0  0
   10.1605   -6.2785   24.5553 H   0  0  0  0  0  0  0  0  0  0  0  0
   11.2536   -5.5421   25.7757 H   0  0  0  0  0  0  0  0  0  0  0  0
    8.9995    0.8809   25.0099 H   0  0  0  0  0  0  0  0  0  0  0  0
    7.7720    1.2044   23.8156 H   0  0  0  0  0  0  0  0  0  0  0  0
   10.5616    0.2233   22.9565 H   0  0  0  0  0  0  0  0  0  0  0  0
    8.1479   -1.8049   21.3777 H   0  0  0  0  0  0  0  0  0  0  0  0
  1  2  1  0  0  0  0
  1  7  2  0  0  0  0
  2  8  2  0  0  0  0
  3  4  2  0  0  0  0
  3 11  1  0  0  0  0
  4 14  1  0  0  0  0
  5  9  2  0  0  0  0
  5 13  1  0  0  0  0
  6 10  1  0  0  0  0
  6 13  2  0  0  0  0
  7 15  1  0  0  0  0
  8 16  1  0  0  0  0
  9 17  1  0  0  0  0
 10 17  2  0  0  0  0
 11 18  2  0  0  0  0
 12 14  2  0  0  0  0
 12 18  1  0  0  0  0
 13 23  1  0  0  0  0
 14 22  1  0  0  0  0
 15 16  2  0  0  0  0
 15 24  1  0  0  0  0
 16 26  1  0  0  0  0
 17 28  1  0  0  0  0
 18 30  1  0  0  0  0
 19 23  1  0  0  0  0
 19 27  1  0  0  0  0
 19 29  2  0  0  0  0
 20 28  1  0  0  0  0
 21 28  1  0  0  0  0
 22 23  1  6  0  0  0
 24 25  2  0  0  0  0
 25 26  1  0  0  0  0
 26 27  1  0  0  0  0
  1 31  1  0  0  0  0
  2 32  1  0  0  0  0
  3 33  1  0  0  0  0
  4 34  1  0  0  0  0
  5 35  1  0  0  0  0
  6 36  1  0  0  0  0
  7 37  1  0  0  0  0
  8 38  1  0  0  0  0
  9 39  1  0  0  0  0
 10 40  1  0  0  0  0
 11 41  1  0  0  0  0
 12 42  1  0  0  0  0
 20 43  1  0  0  0  0
 20 44  1  0  0  0  0
 20 45  1  0  0  0  0
 21 46  1  0  0  0  0
 21 47  1  0  0  0  0
 21 48  1  0  0  0  0
 22 49  1  0  0  0  0
 22 50  1  0  0  0  0
 23 51  1  0  0  0  0
 27 52  1  0  0  0  0
M  END
> <clash_score>
0

> <docking_score>
-11.04630184173584

> <overlap_score>
0.8823875188827515

$$$$
BENZO_171_1
  -OEChem-08232013483D

 52 55  0     1  0  0  0  0  0999 V2000
    4.0980    2.1130   19.5350 C   0  0  0  0  0  0  0  0  0  0  0  0
    4.2970    1.6690   20.8430 C   0  0  0  0  0  0  0  0  0  0  0  0
    8.3510   -1.5420   24.6110 C   0  0  0  0  0  0  0  0  0  0  0  0
   10.2760   -2.3270   23.4020 C   0  0  0  0  0  0  0  0  0  0  0  0
    4.9400    1.7060   18.5060 C   0  0  0  0  0  0  0  0  0  0  0  0
    5.3360    0.8000   21.1530 C   0  0  0  0  0  0  0  0  0  0  0  0
    8.3310   -2.7170   25.3430 C   0  0  0  0  0  0  0  0  0  0  0  0
   10.2570   -3.5000   24.1350 C   0  0  0  0  0  0  0  0  0  0  0  0
   10.2645    2.9461   23.5139 C   0  0  0  0  0  0  0  0  0  0  0  0
   12.2295    2.6651   22.5680 C   0  0  0  0  0  0  0  0  0  0  0  0
    9.3300   -1.3350   23.6390 C   0  0  0  0  0  0  0  0  0  0  0  0
   11.1519    1.9593   23.0443 C   0  0  0  0  0  0  0  0  0  0  0  0
    5.9810    0.8330   18.8060 C   0  0  0  0  0  0  0  0  0  0  0  0
    6.1600    0.3870   20.1140 C   0  0  0  0  0  0  0  0  0  0  0  0
    9.2850   -3.7090   25.1090 C   0  0  0  0  0  0  0  0  0  0  0  0
    8.9510    0.1280   21.6880 C   0  0  0  0  0  0  0  0  0  0  0  0
   12.7674    5.1088   22.4339 C   0  0  0  0  0  0  0  0  0  0  0  0
    8.2520   -5.1176   26.8652 C   0  0  0  0  0  0  0  0  0  0  0  0
   10.2437   -5.9407   25.5988 C   0  0  0  0  0  0  0  0  0  0  0  0
   10.9648    0.4604   23.0619 C   0  0  0  0  0  0  0  0  0  0  0  0
    9.4200   -0.0840   22.9530 C   0  0  1  0  0  0  0  0  0  0  0  0
   10.7375    4.1845   23.3509 N   0  0  0  0  0  0  0  0  0  0  0  0
    6.9440    0.2550   18.0100 N   0  0  0  0  0  0  0  0  0  0  0  0
    7.6830   -0.5170   18.7600 N   0  0  0  0  0  0  0  0  0  0  0  0
   11.9338    3.9806   22.7735 N   0  0  0  0  0  0  0  0  0  0  0  0
    7.2210   -0.4620   20.0350 N   0  0  0  0  0  0  0  0  0  0  0  0
    8.0810   -0.9750   21.0820 N   0  0  0  0  0  0  0  0  0  0  0  0
    9.2638   -4.9025   25.8500 N   0  0  0  0  0  0  0  0  0  0  0  0
    9.1870    1.1500   21.0630 O   0  0  0  0  0  0  0  0  0  0  0  0
    3.2714    2.7876   19.3199 H   0  0  0  0  0  0  0  0  0  0  0  0
    3.6283    2.0091   21.6296 H   0  0  0  0  0  0  0  0  0  0  0  0
    7.5957   -0.7779   24.7973 H   0  0  0  0  0  0  0  0  0  0  0  0
   11.0384   -2.1852   22.6338 H   0  0  0  0  0  0  0  0  0  0  0  0
    4.7824    2.0670   17.4883 H   0  0  0  0  0  0  0  0  0  0  0  0
    5.4937    0.4574   22.1805 H   0  0  0  0  0  0  0  0  0  0  0  0
    7.5634   -2.8637   26.1037 H   0  0  0  0  0  0  0  0  0  0  0  0
   11.0139   -4.2645   23.9419 H   0  0  0  0  0  0  0  0  0  0  0  0
    9.2929    2.8169   23.9694 H   0  0  0  0  0  0  0  0  0  0  0  0
   13.1591    2.3512   22.1127 H   0  0  0  0  0  0  0  0  0  0  0  0
   12.5169    5.4190   21.4160 H   0  0  0  0  0  0  0  0  0  0  0  0
   12.5816    5.9241   23.1387 H   0  0  0  0  0  0  0  0  0  0  0  0
   13.8185    4.8135   22.4971 H   0  0  0  0  0  0  0  0  0  0  0  0
    8.4015   -6.1034   27.3296 H   0  0  0  0  0  0  0  0  0  0  0  0
    8.3316   -4.3345   27.6337 H   0  0  0  0  0  0  0  0  0  0  0  0
    7.2546   -5.0776   26.4030 H   0  0  0  0  0  0  0  0  0  0  0  0
   10.0610   -6.7893   26.2744 H   0  0  0  0  0  0  0  0  0  0  0  0
   10.1605   -6.2785   24.5553 H   0  0  0  0  0  0  0  0  0  0  0  0
   11.2536   -5.5421   25.7757 H   0  0  0  0  0  0  0  0  0  0  0  0
   11.5732    0.0341   22.2521 H   0  0  0  0  0  0  0  0  0  0  0  0
   11.3908    0.0462   23.9854 H   0  0  0  0  0  0  0  0  0  0  0  0
    8.9107    0.7231   23.6509 H   0  0  0  0  0  0  0  0  0  0  0  0
    8.1479   -1.8049   21.3777 H   0  0  0  0  0  0  0  0  0  0  0  0
  1  2  1  0  0  0  0
  1  5  2  0  0  0  0
  2  6  2  0  0  0  0
  3  7  2  0  0  0  0
  3 11  1  0  0  0  0
  4  8  1  0  0  0  0
  4 11  2  0  0  0  0
  5 13  1  0  0  0  0
  6 14  1  0  0  0  0
  7 15  1  0  0  0  0
  8 15  2  0  0  0  0
  9 12  1  0  0  0  0
  9 22  2  0  0  0  0
 10 12  2  0  0  0  0
 10 25  1  0  0  0  0
 11 21  1  0  0  0  0
 12 20  1  0  0  0  0
 13 14  2  0  0  0  0
 13 23  1  0  0  0  0
 14 26  1  0  0  0  0
 15 28  1  0  0  0  0
 16 21  1  0  0  0  0
 16 27  1  0  0  0  0
 16 29  2  0  0  0  0
 17 25  1  0  0  0  0
 18 28  1  0  0  0  0
 19 28  1  0  0  0  0
 20 21  1  1  0  0  0
 22 25  1  0  0  0  0
 23 24  2  0  0  0  0
 24 26  1  0  0  0  0
 26 27  1  0  0  0  0
  1 30  1  0  0  0  0
  2 31  1  0  0  0  0
  3 32  1  0  0  0  0
  4 33  1  0  0  0  0
  5 34  1  0  0  0  0
  6 35  1  0  0  0  0
  7 36  1  0  0  0  0
  8 37  1  0  0  0  0
  9 38  1  0  0  0  0
 10 39  1  0  0  0  0
 17 40  1  0  0  0  0
 17 41  1  0  0  0  0
 17 42  1  0  0  0  0
 18 43  1  0  0  0  0
 18 44  1  0  0  0  0
 18 45  1  0  0  0  0
 19 46  1  0  0  0  0
 19 47  1  0  0  0  0
 19 48  1  0  0  0  0
 20 49  1  0  0  0  0
 20 50  1  0  0  0  0
 21 51  1  0  0  0  0
 27 52  1  0  0  0  0
M  END
> <clash_score>
0

> <docking_score>
-11.730368614196777

> <overlap_score>
0.9277177453041077

$$$$
BENZO_171_2
  -OEChem-08232013483D

 52 55  0     1  0  0  0  0  0999 V2000
    4.0980    2.1130   19.5350 C   0  0  0  0  0  0  0  0  0  0  0  0
    4.2970    1.6690   20.8430 C   0  0  0  0  0  0  0  0  0  0  0  0
    8.3510   -1.5420   24.6110 C   0  0  0  0  0  0  0  0  0  0  0  0
   10.2760   -2.3270   23.4020 C   0  0  0  0  0  0  0  0  0  0  0  0
    4.9400    1.7060   18.5060 C   0  0  0  0  0  0  0  0  0  0  0  0
    5.3360    0.8000   21.1530 C   0  0  0  0  0  0  0  0  0  0  0  0
    8.3310   -2.7170   25.3430 C   0  0  0  0  0  0  0  0  0  0  0  0
   10.2570   -3.5000   24.1350 C   0  0  0  0  0  0  0  0  0  0  0  0
   10.8351    2.6231   23.1433 C   0  0  0  0  0  0  0  0  0  0  0  0
    9.0177    3.6781   23.7909 C   0  0  0  0  0  0  0  0  0  0  0  0
    9.3300   -1.3350   23.6390 C   0  0  0  0  0  0  0  0  0  0  0  0
    9.5350    2.4145   23.6414 C   0  0  0  0  0  0  0  0  0  0  0  0
    5.9810    0.8330   18.8060 C   0  0  0  0  0  0  0  0  0  0  0  0
    6.1600    0.3870   20.1140 C   0  0  0  0  0  0  0  0  0  0  0  0
    9.2850   -3.7090   25.1090 C   0  0  0  0  0  0  0  0  0  0  0  0
    8.9510    0.1280   21.6880 C   0  0  0  0  0  0  0  0  0  0  0  0
    9.9253    5.9744   23.3647 C   0  0  0  0  0  0  0  0  0  0  0  0
    8.2520   -5.1176   26.8652 C   0  0  0  0  0  0  0  0  0  0  0  0
   10.2437   -5.9407   25.5988 C   0  0  0  0  0  0  0  0  0  0  0  0
    8.8577    1.0982   23.9421 C   0  0  0  0  0  0  0  0  0  0  0  0
    9.4200   -0.0840   22.9530 C   0  0  2  0  0  0  0  0  0  0  0  0
   11.1257    3.9173   22.9866 N   0  0  0  0  0  0  0  0  0  0  0  0
    6.9440    0.2550   18.0100 N   0  0  0  0  0  0  0  0  0  0  0  0
    7.6830   -0.5170   18.7600 N   0  0  0  0  0  0  0  0  0  0  0  0
   10.0010    4.5334   23.3885 N   0  0  0  0  0  0  0  0  0  0  0  0
    7.2210   -0.4620   20.0350 N   0  0  0  0  0  0  0  0  0  0  0  0
    8.0810   -0.9750   21.0820 N   0  0  0  0  0  0  0  0  0  0  0  0
    9.2638   -4.9025   25.8500 N   0  0  0  0  0  0  0  0  0  0  0  0
    9.1870    1.1500   21.0630 O   0  0  0  0  0  0  0  0  0  0  0  0
    3.2714    2.7876   19.3199 H   0  0  0  0  0  0  0  0  0  0  0  0
    3.6283    2.0091   21.6296 H   0  0  0  0  0  0  0  0  0  0  0  0
    7.5957   -0.7779   24.7973 H   0  0  0  0  0  0  0  0  0  0  0  0
   11.0384   -2.1852   22.6338 H   0  0  0  0  0  0  0  0  0  0  0  0
    4.7824    2.0670   17.4883 H   0  0  0  0  0  0  0  0  0  0  0  0
    5.4937    0.4574   22.1805 H   0  0  0  0  0  0  0  0  0  0  0  0
    7.5634   -2.8637   26.1037 H   0  0  0  0  0  0  0  0  0  0  0  0
   11.0139   -4.2645   23.9419 H   0  0  0  0  0  0  0  0  0  0  0  0
   11.5842    1.8876   22.8864 H   0  0  0  0  0  0  0  0  0  0  0  0
    8.0571    4.0326   24.1394 H   0  0  0  0  0  0  0  0  0  0  0  0
   10.2748    6.3466   24.3314 H   0  0  0  0  0  0  0  0  0  0  0  0
   10.5545    6.3588   22.5570 H   0  0  0  0  0  0  0  0  0  0  0  0
    8.8900    6.2791   23.1881 H   0  0  0  0  0  0  0  0  0  0  0  0
    8.4015   -6.1034   27.3296 H   0  0  0  0  0  0  0  0  0  0  0  0
    8.3316   -4.3345   27.6337 H   0  0  0  0  0  0  0  0  0  0  0  0
    7.2546   -5.0776   26.4030 H   0  0  0  0  0  0  0  0  0  0  0  0
   10.0610   -6.7893   26.2744 H   0  0  0  0  0  0  0  0  0  0  0  0
   10.1605   -6.2785   24.5553 H   0  0  0  0  0  0  0  0  0  0  0  0
   11.2536   -5.5421   25.7757 H   0  0  0  0  0  0  0  0  0  0  0  0
    8.9995    0.8809   25.0099 H   0  0  0  0  0  0  0  0  0  0  0  0
    7.7720    1.2044   23.8156 H   0  0  0  0  0  0  0  0  0  0  0  0
   10.5616    0.2233   22.9565 H   0  0  0  0  0  0  0  0  0  0  0  0
    8.1479   -1.8049   21.3777 H   0  0  0  0  0  0  0  0  0  0  0  0
  1  2  1  0  0  0  0
  1  5  2  0  0  0  0
  2  6  2  0  0  0  0
  3  7  2  0  0  0  0
  3 11  1  0  0  0  0
  4  8  1  0  0  0  0
  4 11  2  0  0  0  0
  5 13  1  0  0  0  0
  6 14  1  0  0  0  0
  7 15  1  0  0  0  0
  8 15  2  0  0  0  0
  9 12  1  0  0  0  0
  9 22  2  0  0  0  0
 10 12  2  0  0  0  0
 10 25  1  0  0  0  0
 11 21  1  0  0  0  0
 12 20  1  0  0  0  0
 13 14  2  0  0  0  0
 13 23  1  0  0  0  0
 14 26  1  0  0  0  0
 15 28  1  0  0  0  0
 16 21  1  0  0  0  0
 16 27  1  0  0  0  0
 16 29  2  0  0  0  0
 17 25  1  0  0  0  0
 18 28  1  0  0  0  0
 19 28  1  0  0  0  0
 20 21  1  6  0  0  0
 22 25  1  0  0  0  0
 23 24  2  0  0  0  0
 24 26  1  0  0  0  0
 26 27  1  0  0  0  0
  1 30  1  0  0  0  0
  2 31  1  0  0  0  0
  3 32  1  0  0  0  0
  4 33  1  0  0  0  0
  5 34  1  0  0  0  0
  6 35  1  0  0  0  0
  7 36  1  0  0  0  0
  8 37  1  0  0  0  0
  9 38  1  0  0  0  0
 10 39  1  0  0  0  0
 17 40  1  0  0  0  0
 17 41  1  0  0  0  0
 17 42  1  0  0  0  0
 18 43  1  0  0  0  0
 18 44  1  0  0  0  0
 18 45  1  0  0  0  0
 19 46  1  0  0  0  0
 19 47  1  0  0  0  0
 19 48  1  0  0  0  0
 20 49  1  0  0  0  0
 20 50  1  0  0  0  0
 21 51  1  0  0  0  0
 27 52  1  0  0  0  0
M  END
> <clash_score>
0

> <docking_score>
-10.528491020202637

> <overlap_score>
0.8622313141822815

$$$$
BENZO_173_2
  -OEChem-08232013483D

 54 57  0     1  0  0  0  0  0999 V2000
   10.7871    4.8449   23.0864 C   0  0  0  0  0  0  0  0  0  0  0  0
    9.4814    4.8291   23.5768 C   0  0  0  0  0  0  0  0  0  0  0  0
   11.4667    3.6455   22.8734 C   0  0  0  0  0  0  0  0  0  0  0  0
    4.0980    2.1130   19.5350 C   0  0  0  0  0  0  0  0  0  0  0  0
    4.2970    1.6690   20.8430 C   0  0  0  0  0  0  0  0  0  0  0  0
    8.8554    3.6139   23.8543 C   0  0  0  0  0  0  0  0  0  0  0  0
   10.8407    2.4304   23.1510 C   0  0  0  0  0  0  0  0  0  0  0  0
    8.3510   -1.5420   24.6110 C   0  0  0  0  0  0  0  0  0  0  0  0
   10.2760   -2.3270   23.4020 C   0  0  0  0  0  0  0  0  0  0  0  0
    4.9400    1.7060   18.5060 C   0  0  0  0  0  0  0  0  0  0  0  0
    5.3360    0.8000   21.1530 C   0  0  0  0  0  0  0  0  0  0  0  0
    8.3310   -2.7170   25.3430 C   0  0  0  0  0  0  0  0  0  0  0  0
   10.2570   -3.5000   24.1350 C   0  0  0  0  0  0  0  0  0  0  0  0
    9.5350    2.4145   23.6414 C   0  0  0  0  0  0  0  0  0  0  0  0
    9.3300   -1.3350   23.6390 C   0  0  0  0  0  0  0  0  0  0  0  0
    5.9810    0.8330   18.8060 C   0  0  0  0  0  0  0  0  0  0  0  0
    6.1600    0.3870   20.1140 C   0  0  0  0  0  0  0  0  0  0  0  0
    9.2850   -3.7090   25.1090 C   0  0  0  0  0  0  0  0  0  0  0  0
    8.3642   -5.2691   26.8512 C   0  0  0  0  0  0  0  0  0  0  0  0
    8.9510    0.1280   21.6880 C   0  0  0  0  0  0  0  0  0  0  0  0
    7.9642   -7.7613   26.6647 C   0  0  0  0  0  0  0  0  0  0  0  0
    8.8577    1.0982   23.9421 C   0  0  0  0  0  0  0  0  0  0  0  0
    8.6981   -6.6505   27.3944 C   0  0  0  0  0  0  0  0  0  0  0  0
    9.4200   -0.0840   22.9530 C   0  0  2  0  0  0  0  0  0  0  0  0
    6.9440    0.2550   18.0100 N   0  0  0  0  0  0  0  0  0  0  0  0
    7.6830   -0.5170   18.7600 N   0  0  0  0  0  0  0  0  0  0  0  0
    7.2210   -0.4620   20.0350 N   0  0  0  0  0  0  0  0  0  0  0  0
    9.2630   -4.8903   25.8409 N   0  0  0  0  0  0  0  0  0  0  0  0
    8.0810   -0.9750   21.0820 N   0  0  0  0  0  0  0  0  0  0  0  0
    7.4190   -4.6136   27.2772 O   0  0  0  0  0  0  0  0  0  0  0  0
    9.1870    1.1500   21.0630 O   0  0  0  0  0  0  0  0  0  0  0  0
   11.2739    5.7911   22.8690 H   0  0  0  0  0  0  0  0  0  0  0  0
    8.9517    5.7628   23.7416 H   0  0  0  0  0  0  0  0  0  0  0  0
   12.4829    3.6575   22.4905 H   0  0  0  0  0  0  0  0  0  0  0  0
    3.2714    2.7876   19.3199 H   0  0  0  0  0  0  0  0  0  0  0  0
    3.6283    2.0091   21.6296 H   0  0  0  0  0  0  0  0  0  0  0  0
    7.8379    3.6112   24.2364 H   0  0  0  0  0  0  0  0  0  0  0  0
   11.3780    1.5009   22.9821 H   0  0  0  0  0  0  0  0  0  0  0  0
    7.5948   -0.7783   24.7966 H   0  0  0  0  0  0  0  0  0  0  0  0
   11.0389   -2.1844   22.6342 H   0  0  0  0  0  0  0  0  0  0  0  0
    4.7824    2.0670   17.4883 H   0  0  0  0  0  0  0  0  0  0  0  0
    5.4937    0.4574   22.1805 H   0  0  0  0  0  0  0  0  0  0  0  0
    7.5642   -2.8624   26.1050 H   0  0  0  0  0  0  0  0  0  0  0  0
   11.0137   -4.2649   23.9418 H   0  0  0  0  0  0  0  0  0  0  0  0
    6.8795   -7.6299   26.7374 H   0  0  0  0  0  0  0  0  0  0  0  0
    8.2204   -8.7342   27.0952 H   0  0  0  0  0  0  0  0  0  0  0  0
    8.2300   -7.7764   25.6026 H   0  0  0  0  0  0  0  0  0  0  0  0
    8.9995    0.8809   25.0099 H   0  0  0  0  0  0  0  0  0  0  0  0
    7.7720    1.2044   23.8156 H   0  0  0  0  0  0  0  0  0  0  0  0
    9.7793   -6.8069   27.3054 H   0  0  0  0  0  0  0  0  0  0  0  0
    8.4375   -6.6778   28.4588 H   0  0  0  0  0  0  0  0  0  0  0  0
   10.5616    0.2233   22.9565 H   0  0  0  0  0  0  0  0  0  0  0  0
    9.9928   -5.5773   25.6185 H   0  0  0  0  0  0  0  0  0  0  0  0
    8.1479   -1.8049   21.3777 H   0  0  0  0  0  0  0  0  0  0  0  0
  1  2  1  0  0  0  0
  1  3  2  0  0  0  0
  2  6  2  0  0  0  0
  3  7  1  0  0  0  0
  4  5  1  0  0  0  0
  4 10  2  0  0  0  0
  5 11  2  0  0  0  0
  6 14  1  0  0  0  0
  7 14  2  0  0  0  0
  8 12  2  0  0  0  0
  8 15  1  0  0  0  0
  9 13  1  0  0  0  0
  9 15  2  0  0  0  0
 10 16  1  0  0  0  0
 11 17  1  0  0  0  0
 12 18  1  0  0  0  0
 13 18  2  0  0  0  0
 14 22  1  0  0  0  0
 15 24  1  0  0  0  0
 16 17  2  0  0  0  0
 16 25  1  0  0  0  0
 17 27  1  0  0  0  0
 18 28  1  0  0  0  0
 19 23  1  0  0  0  0
 19 28  1  0  0  0  0
 19 30  2  0  0  0  0
 20 24  1  0  0  0  0
 20 29  1  0  0  0  0
 20 31  2  0  0  0  0
 21 23  1  0  0  0  0
 22 24  1  6  0  0  0
 25 26  2  0  0  0  0
 26 27  1  0  0  0  0
 27 29  1  0  0  0  0
  1 32  1  0  0  0  0
  2 33  1  0  0  0  0
  3 34  1  0  0  0  0
  4 35  1  0  0  0  0
  5 36  1  0  0  0  0
  6 37  1  0  0  0  0
  7 38  1  0  0  0  0
  8 39  1  0  0  0  0
  9 40  1  0  0  0  0
 10 41  1  0  0  0  0
 11 42  1  0  0  0  0
 12 43  1  0  0  0  0
 13 44  1  0  0  0  0
 21 45  1  0  0  0  0
 21 46  1  0  0  0  0
 21 47  1  0  0  0  0
 22 48  1  0  0  0  0
 22 49  1  0  0  0  0
 23 50  1  0  0  0  0
 23 51  1  0  0  0  0
 24 52  1  0  0  0  0
 28 53  1  0  0  0  0
 29 54  1  0  0  0  0
M  END
> <clash_score>
0.7805938894154716

> <docking_score>
-8.193244934082031

> <overlap_score>
0.878216028213501

$$$$
BENZO_173_1
  -OEChem-08232013483D

 54 57  0     1  0  0  0  0  0999 V2000
   11.4961    4.7275   23.0120 C   0  0  0  0  0  0  0  0  0  0  0  0
   12.4919    3.8950   22.5015 C   0  0  0  0  0  0  0  0  0  0  0  0
   10.3281    4.1760   23.5388 C   0  0  0  0  0  0  0  0  0  0  0  0
    4.0980    2.1130   19.5350 C   0  0  0  0  0  0  0  0  0  0  0  0
    4.2970    1.6690   20.8430 C   0  0  0  0  0  0  0  0  0  0  0  0
   12.3199    2.5108   22.5177 C   0  0  0  0  0  0  0  0  0  0  0  0
   10.1560    2.7919   23.5549 C   0  0  0  0  0  0  0  0  0  0  0  0
    8.3510   -1.5420   24.6110 C   0  0  0  0  0  0  0  0  0  0  0  0
   10.2760   -2.3270   23.4020 C   0  0  0  0  0  0  0  0  0  0  0  0
    4.9400    1.7060   18.5060 C   0  0  0  0  0  0  0  0  0  0  0  0
    5.3360    0.8000   21.1530 C   0  0  0  0  0  0  0  0  0  0  0  0
    8.3310   -2.7170   25.3430 C   0  0  0  0  0  0  0  0  0  0  0  0
   10.2570   -3.5000   24.1350 C   0  0  0  0  0  0  0  0  0  0  0  0
   11.1519    1.9593   23.0443 C   0  0  0  0  0  0  0  0  0  0  0  0
    9.3300   -1.3350   23.6390 C   0  0  0  0  0  0  0  0  0  0  0  0
    5.9810    0.8330   18.8060 C   0  0  0  0  0  0  0  0  0  0  0  0
    6.1600    0.3870   20.1140 C   0  0  0  0  0  0  0  0  0  0  0  0
    9.2850   -3.7090   25.1090 C   0  0  0  0  0  0  0  0  0  0  0  0
    8.1532   -5.5459   26.3982 C   0  0  0  0  0  0  0  0  0  0  0  0
    8.9510    0.1280   21.6880 C   0  0  0  0  0  0  0  0  0  0  0  0
    9.2300   -7.8281   26.2037 C   0  0  0  0  0  0  0  0  0  0  0  0
   10.9648    0.4604   23.0619 C   0  0  0  0  0  0  0  0  0  0  0  0
    8.5721   -6.8157   27.1241 C   0  0  0  0  0  0  0  0  0  0  0  0
    9.4200   -0.0840   22.9530 C   0  0  1  0  0  0  0  0  0  0  0  0
    6.9440    0.2550   18.0100 N   0  0  0  0  0  0  0  0  0  0  0  0
    7.6830   -0.5170   18.7600 N   0  0  0  0  0  0  0  0  0  0  0  0
    7.2210   -0.4620   20.0350 N   0  0  0  0  0  0  0  0  0  0  0  0
    9.2630   -4.8903   25.8409 N   0  0  0  0  0  0  0  0  0  0  0  0
    8.0810   -0.9750   21.0820 N   0  0  0  0  0  0  0  0  0  0  0  0
    6.9817   -5.1875   26.3377 O   0  0  0  0  0  0  0  0  0  0  0  0
    9.1870    1.1500   21.0630 O   0  0  0  0  0  0  0  0  0  0  0  0
   11.6308    5.8052   23.0007 H   0  0  0  0  0  0  0  0  0  0  0  0
   13.4019    4.3242   22.0924 H   0  0  0  0  0  0  0  0  0  0  0  0
    9.5530    4.8238   23.9374 H   0  0  0  0  0  0  0  0  0  0  0  0
    3.2714    2.7876   19.3199 H   0  0  0  0  0  0  0  0  0  0  0  0
    3.6283    2.0091   21.6296 H   0  0  0  0  0  0  0  0  0  0  0  0
   13.1011    1.8699   22.1175 H   0  0  0  0  0  0  0  0  0  0  0  0
    9.2427    2.3711   23.9671 H   0  0  0  0  0  0  0  0  0  0  0  0
    7.5948   -0.7783   24.7966 H   0  0  0  0  0  0  0  0  0  0  0  0
   11.0389   -2.1844   22.6342 H   0  0  0  0  0  0  0  0  0  0  0  0
    4.7824    2.0670   17.4883 H   0  0  0  0  0  0  0  0  0  0  0  0
    5.4937    0.4574   22.1805 H   0  0  0  0  0  0  0  0  0  0  0  0
    7.5642   -2.8624   26.1050 H   0  0  0  0  0  0  0  0  0  0  0  0
   11.0137   -4.2649   23.9418 H   0  0  0  0  0  0  0  0  0  0  0  0
    8.5552   -8.1180   25.3915 H   0  0  0  0  0  0  0  0  0  0  0  0
    9.5015   -8.7298   26.7610 H   0  0  0  0  0  0  0  0  0  0  0  0
   10.1398   -7.4172   25.7536 H   0  0  0  0  0  0  0  0  0  0  0  0
   11.5732    0.0341   22.2521 H   0  0  0  0  0  0  0  0  0  0  0  0
   11.3908    0.0462   23.9854 H   0  0  0  0  0  0  0  0  0  0  0  0
    9.2685   -6.5440   27.9257 H   0  0  0  0  0  0  0  0  0  0  0  0
    7.6831   -7.2629   27.5835 H   0  0  0  0  0  0  0  0  0  0  0  0
    8.9107    0.7231   23.6509 H   0  0  0  0  0  0  0  0  0  0  0  0
   10.1695   -5.3466   25.9960 H   0  0  0  0  0  0  0  0  0  0  0  0
    8.1479   -1.8049   21.3777 H   0  0  0  0  0  0  0  0  0  0  0  0
  1  2  1  0  0  0  0
  1  3  2  0  0  0  0
  2  6  2  0  0  0  0
  3  7  1  0  0  0  0
  4  5  1  0  0  0  0
  4 10  2  0  0  0  0
  5 11  2  0  0  0  0
  6 14  1  0  0  0  0
  7 14  2  0  0  0  0
  8 12  2  0  0  0  0
  8 15  1  0  0  0  0
  9 13  1  0  0  0  0
  9 15  2  0  0  0  0
 10 16  1  0  0  0  0
 11 17  1  0  0  0  0
 12 18  1  0  0  0  0
 13 18  2  0  0  0  0
 14 22  1  0  0  0  0
 15 24  1  0  0  0  0
 16 17  2  0  0  0  0
 16 25  1  0  0  0  0
 17 27  1  0  0  0  0
 18 28  1  0  0  0  0
 19 23  1  0  0  0  0
 19 28  1  0  0  0  0
 19 30  2  0  0  0  0
 20 24  1  0  0  0  0
 20 29  1  0  0  0  0
 20 31  2  0  0  0  0
 21 23  1  0  0  0  0
 22 24  1  1  0  0  0
 25 26  2  0  0  0  0
 26 27  1  0  0  0  0
 27 29  1  0  0  0  0
  1 32  1  0  0  0  0
  2 33  1  0  0  0  0
  3 34  1  0  0  0  0
  4 35  1  0  0  0  0
  5 36  1  0  0  0  0
  6 37  1  0  0  0  0
  7 38  1  0  0  0  0
  8 39  1  0  0  0  0
  9 40  1  0  0  0  0
 10 41  1  0  0  0  0
 11 42  1  0  0  0  0
 12 43  1  0  0  0  0
 13 44  1  0  0  0  0
 21 45  1  0  0  0  0
 21 46  1  0  0  0  0
 21 47  1  0  0  0  0
 22 48  1  0  0  0  0
 22 49  1  0  0  0  0
 23 50  1  0  0  0  0
 23 51  1  0  0  0  0
 24 52  1  0  0  0  0
 28 53  1  0  0  0  0
 29 54  1  0  0  0  0
M  END
> <clash_score>
1.2358139644684458

> <docking_score>
-9.897522926330566

> <overlap_score>
0.9384776949882507

$$$$
BENZO_172_1
  -OEChem-08232013483D

 51 54  0     1  0  0  0  0  0999 V2000
    4.0980    2.1130   19.5350 C   0  0  0  0  0  0  0  0  0  0  0  0
    4.2970    1.6690   20.8430 C   0  0  0  0  0  0  0  0  0  0  0  0
    8.3510   -1.5420   24.6110 C   0  0  0  0  0  0  0  0  0  0  0  0
   10.2760   -2.3270   23.4020 C   0  0  0  0  0  0  0  0  0  0  0  0
    4.9400    1.7060   18.5060 C   0  0  0  0  0  0  0  0  0  0  0  0
    5.3360    0.8000   21.1530 C   0  0  0  0  0  0  0  0  0  0  0  0
    8.3310   -2.7170   25.3430 C   0  0  0  0  0  0  0  0  0  0  0  0
   10.2570   -3.5000   24.1350 C   0  0  0  0  0  0  0  0  0  0  0  0
   11.9859    2.6451   22.1146 C   0  0  0  0  0  0  0  0  0  0  0  0
   11.9778    4.0073   22.3192 C   0  0  0  0  0  0  0  0  0  0  0  0
   10.5383    2.8236   23.9243 C   0  0  0  0  0  0  0  0  0  0  0  0
    9.3300   -1.3350   23.6390 C   0  0  0  0  0  0  0  0  0  0  0  0
   11.1519    1.9593   23.0443 C   0  0  0  0  0  0  0  0  0  0  0  0
    5.9810    0.8330   18.8060 C   0  0  0  0  0  0  0  0  0  0  0  0
    6.1600    0.3870   20.1140 C   0  0  0  0  0  0  0  0  0  0  0  0
    9.2850   -3.7090   25.1090 C   0  0  0  0  0  0  0  0  0  0  0  0
    8.1532   -5.5459   26.3982 C   0  0  0  0  0  0  0  0  0  0  0  0
    8.9510    0.1280   21.6880 C   0  0  0  0  0  0  0  0  0  0  0  0
    9.2300   -7.8281   26.2037 C   0  0  0  0  0  0  0  0  0  0  0  0
   10.9648    0.4604   23.0619 C   0  0  0  0  0  0  0  0  0  0  0  0
    8.5721   -6.8157   27.1241 C   0  0  0  0  0  0  0  0  0  0  0  0
    9.4200   -0.0840   22.9530 C   0  0  1  0  0  0  0  0  0  0  0  0
    6.9440    0.2550   18.0100 N   0  0  0  0  0  0  0  0  0  0  0  0
    7.6830   -0.5170   18.7600 N   0  0  0  0  0  0  0  0  0  0  0  0
    7.2210   -0.4620   20.0350 N   0  0  0  0  0  0  0  0  0  0  0  0
    9.2630   -4.8903   25.8409 N   0  0  0  0  0  0  0  0  0  0  0  0
    8.0810   -0.9750   21.0820 N   0  0  0  0  0  0  0  0  0  0  0  0
    6.9817   -5.1875   26.3377 O   0  0  0  0  0  0  0  0  0  0  0  0
    9.1870    1.1500   21.0630 O   0  0  0  0  0  0  0  0  0  0  0  0
   10.9679    4.4545   23.6278 S   0  0  0  0  0  0  0  0  0  0  0  0
    3.2714    2.7876   19.3199 H   0  0  0  0  0  0  0  0  0  0  0  0
    3.6283    2.0091   21.6296 H   0  0  0  0  0  0  0  0  0  0  0  0
    7.5948   -0.7783   24.7966 H   0  0  0  0  0  0  0  0  0  0  0  0
   11.0389   -2.1844   22.6342 H   0  0  0  0  0  0  0  0  0  0  0  0
    4.7824    2.0670   17.4883 H   0  0  0  0  0  0  0  0  0  0  0  0
    5.4937    0.4574   22.1805 H   0  0  0  0  0  0  0  0  0  0  0  0
    7.5642   -2.8624   26.1050 H   0  0  0  0  0  0  0  0  0  0  0  0
   11.0137   -4.2649   23.9418 H   0  0  0  0  0  0  0  0  0  0  0  0
   12.5644    2.1673   21.3341 H   0  0  0  0  0  0  0  0  0  0  0  0
   12.5171    4.7612   21.7633 H   0  0  0  0  0  0  0  0  0  0  0  0
    9.8588    2.5795   24.7291 H   0  0  0  0  0  0  0  0  0  0  0  0
    8.5552   -8.1180   25.3915 H   0  0  0  0  0  0  0  0  0  0  0  0
    9.5015   -8.7298   26.7610 H   0  0  0  0  0  0  0  0  0  0  0  0
   10.1398   -7.4172   25.7536 H   0  0  0  0  0  0  0  0  0  0  0  0
   11.5732    0.0341   22.2521 H   0  0  0  0  0  0  0  0  0  0  0  0
   11.3908    0.0462   23.9854 H   0  0  0  0  0  0  0  0  0  0  0  0
    9.2685   -6.5440   27.9257 H   0  0  0  0  0  0  0  0  0  0  0  0
    7.6831   -7.2629   27.5835 H   0  0  0  0  0  0  0  0  0  0  0  0
    8.9107    0.7231   23.6509 H   0  0  0  0  0  0  0  0  0  0  0  0
   10.1695   -5.3466   25.9960 H   0  0  0  0  0  0  0  0  0  0  0  0
    8.1479   -1.8049   21.3777 H   0  0  0  0  0  0  0  0  0  0  0  0
  1  2  1  0  0  0  0
  1  5  2  0  0  0  0
  2  6  2  0  0  0  0
  3  7  2  0  0  0  0
  3 12  1  0  0  0  0
  4  8  1  0  0  0  0
  4 12  2  0  0  0  0
  5 14  1  0  0  0  0
  6 15  1  0  0  0  0
  7 16  1  0  0  0  0
  8 16  2  0  0  0  0
  9 10  2  0  0  0  0
  9 13  1  0  0  0  0
 10 30  1  0  0  0  0
 11 13  2  0  0  0  0
 11 30  1  0  0  0  0
 12 22  1  0  0  0  0
 13 20  1  0  0  0  0
 14 15  2  0  0  0  0
 14 23  1  0  0  0  0
 15 25  1  0  0  0  0
 16 26  1  0  0  0  0
 17 21  1  0  0  0  0
 17 26  1  0  0  0  0
 17 28  2  0  0  0  0
 18 22  1  0  0  0  0
 18 27  1  0  0  0  0
 18 29  2  0  0  0  0
 19 21  1  0  0  0  0
 20 22  1  1  0  0  0
 23 24  2  0  0  0  0
 24 25  1  0  0  0  0
 25 27  1  0  0  0  0
  1 31  1  0  0  0  0
  2 32  1  0  0  0  0
  3 33  1  0  0  0  0
  4 34  1  0  0  0  0
  5 35  1  0  0  0  0
  6 36  1  0  0  0  0
  7 37  1  0  0  0  0
  8 38  1  0  0  0  0
  9 39  1  0  0  0  0
 10 40  1  0  0  0  0
 11 41  1  0  0  0  0
 19 42  1  0  0  0  0
 19 43  1  0  0  0  0
 19 44  1  0  0  0  0
 20 45  1  0  0  0  0
 20 46  1  0  0  0  0
 21 47  1  0  0  0  0
 21 48  1  0  0  0  0
 22 49  1  0  0  0  0
 26 50  1  0  0  0  0
 27 51  1  0  0  0  0
M  END
> <clash_score>
1.2358139644684458

> <docking_score>
-8.72079849243164

> <overlap_score>
0.9284039735794067

$$$$
BENZO_172_2
  -OEChem-08232013483D

 51 54  0     1  0  0  0  0  0999 V2000
    4.0980    2.1130   19.5350 C   0  0  0  0  0  0  0  0  0  0  0  0
    4.2970    1.6690   20.8430 C   0  0  0  0  0  0  0  0  0  0  0  0
    8.3510   -1.5420   24.6110 C   0  0  0  0  0  0  0  0  0  0  0  0
   10.2760   -2.3270   23.4020 C   0  0  0  0  0  0  0  0  0  0  0  0
    4.9400    1.7060   18.5060 C   0  0  0  0  0  0  0  0  0  0  0  0
    5.3360    0.8000   21.1530 C   0  0  0  0  0  0  0  0  0  0  0  0
    8.3310   -2.7170   25.3430 C   0  0  0  0  0  0  0  0  0  0  0  0
   10.2570   -3.5000   24.1350 C   0  0  0  0  0  0  0  0  0  0  0  0
   10.8949    2.5334   23.2333 C   0  0  0  0  0  0  0  0  0  0  0  0
   11.2600    3.8453   23.0253 C   0  0  0  0  0  0  0  0  0  0  0  0
    8.9125    3.6403   23.7301 C   0  0  0  0  0  0  0  0  0  0  0  0
    9.3300   -1.3350   23.6390 C   0  0  0  0  0  0  0  0  0  0  0  0
    9.5350    2.4145   23.6414 C   0  0  0  0  0  0  0  0  0  0  0  0
    5.9810    0.8330   18.8060 C   0  0  0  0  0  0  0  0  0  0  0  0
    6.1600    0.3870   20.1140 C   0  0  0  0  0  0  0  0  0  0  0  0
    9.2850   -3.7090   25.1090 C   0  0  0  0  0  0  0  0  0  0  0  0
    8.1532   -5.5459   26.3982 C   0  0  0  0  0  0  0  0  0  0  0  0
    8.9510    0.1280   21.6880 C   0  0  0  0  0  0  0  0  0  0  0  0
    9.2300   -7.8281   26.2037 C   0  0  0  0  0  0  0  0  0  0  0  0
    8.8577    1.0982   23.9421 C   0  0  0  0  0  0  0  0  0  0  0  0
    8.5721   -6.8157   27.1241 C   0  0  0  0  0  0  0  0  0  0  0  0
    9.4200   -0.0840   22.9530 C   0  0  2  0  0  0  0  0  0  0  0  0
    6.9440    0.2550   18.0100 N   0  0  0  0  0  0  0  0  0  0  0  0
    7.6830   -0.5170   18.7600 N   0  0  0  0  0  0  0  0  0  0  0  0
    7.2210   -0.4620   20.0350 N   0  0  0  0  0  0  0  0  0  0  0  0
    9.2630   -4.8903   25.8409 N   0  0  0  0  0  0  0  0  0  0  0  0
    8.0810   -0.9750   21.0820 N   0  0  0  0  0  0  0  0  0  0  0  0
    6.9817   -5.1875   26.3377 O   0  0  0  0  0  0  0  0  0  0  0  0
    9.1870    1.1500   21.0630 O   0  0  0  0  0  0  0  0  0  0  0  0
    9.9661    4.9270   23.3220 S   0  0  0  0  0  0  0  0  0  0  0  0
    3.2714    2.7876   19.3199 H   0  0  0  0  0  0  0  0  0  0  0  0
    3.6283    2.0091   21.6296 H   0  0  0  0  0  0  0  0  0  0  0  0
    7.5948   -0.7783   24.7966 H   0  0  0  0  0  0  0  0  0  0  0  0
   11.0389   -2.1844   22.6342 H   0  0  0  0  0  0  0  0  0  0  0  0
    4.7824    2.0670   17.4883 H   0  0  0  0  0  0  0  0  0  0  0  0
    5.4937    0.4574   22.1805 H   0  0  0  0  0  0  0  0  0  0  0  0
    7.5642   -2.8624   26.1050 H   0  0  0  0  0  0  0  0  0  0  0  0
   11.0137   -4.2649   23.9418 H   0  0  0  0  0  0  0  0  0  0  0  0
   11.5746    1.7015   23.0982 H   0  0  0  0  0  0  0  0  0  0  0  0
   12.2247    4.2203   22.7141 H   0  0  0  0  0  0  0  0  0  0  0  0
    7.8902    3.8463   24.0157 H   0  0  0  0  0  0  0  0  0  0  0  0
    8.5552   -8.1180   25.3915 H   0  0  0  0  0  0  0  0  0  0  0  0
    9.5015   -8.7298   26.7610 H   0  0  0  0  0  0  0  0  0  0  0  0
   10.1398   -7.4172   25.7536 H   0  0  0  0  0  0  0  0  0  0  0  0
    8.9995    0.8809   25.0099 H   0  0  0  0  0  0  0  0  0  0  0  0
    7.7720    1.2044   23.8156 H   0  0  0  0  0  0  0  0  0  0  0  0
    9.2685   -6.5440   27.9257 H   0  0  0  0  0  0  0  0  0  0  0  0
    7.6831   -7.2629   27.5835 H   0  0  0  0  0  0  0  0  0  0  0  0
   10.5616    0.2233   22.9565 H   0  0  0  0  0  0  0  0  0  0  0  0
   10.1695   -5.3466   25.9960 H   0  0  0  0  0  0  0  0  0  0  0  0
    8.1479   -1.8049   21.3777 H   0  0  0  0  0  0  0  0  0  0  0  0
  1  2  1  0  0  0  0
  1  5  2  0  0  0  0
  2  6  2  0  0  0  0
  3  7  2  0  0  0  0
  3 12  1  0  0  0  0
  4  8  1  0  0  0  0
  4 12  2  0  0  0  0
  5 14  1  0  0  0  0
  6 15  1  0  0  0  0
  7 16  1  0  0  0  0
  8 16  2  0  0  0  0
  9 10  2  0  0  0  0
  9 13  1  0  0  0  0
 10 30  1  0  0  0  0
 11 13  2  0  0  0  0
 11 30  1  0  0  0  0
 12 22  1  0  0  0  0
 13 20  1  0  0  0  0
 14 15  2  0  0  0  0
 14 23  1  0  0  0  0
 15 25  1  0  0  0  0
 16 26  1  0  0  0  0
 17 21  1  0  0  0  0
 17 26  1  0  0  0  0
 17 28  2  0  0  0  0
 18 22  1  0  0  0  0
 18 27  1  0  0  0  0
 18 29  2  0  0  0  0
 19 21  1  0  0  0  0
 20 22  1  6  0  0  0
 23 24  2  0  0  0  0
 24 25  1  0  0  0  0
 25 27  1  0  0  0  0
  1 31  1  0  0  0  0
  2 32  1  0  0  0  0
  3 33  1  0  0  0  0
  4 34  1  0  0  0  0
  5 35  1  0  0  0  0
  6 36  1  0  0  0  0
  7 37  1  0  0  0  0
  8 38  1  0  0  0  0
  9 39  1  0  0  0  0
 10 40  1  0  0  0  0
 11 41  1  0  0  0  0
 19 42  1  0  0  0  0
 19 43  1  0  0  0  0
 19 44  1  0  0  0  0
 20 45  1  0  0  0  0
 20 46  1  0  0  0  0
 21 47  1  0  0  0  0
 21 48  1  0  0  0  0
 22 49  1  0  0  0  0
 26 50  1  0  0  0  0
 27 51  1  0  0  0  0
M  END
> <clash_score>
1.2358139644684458

> <docking_score>
-8.200662612915039

> <overlap_score>
0.8733944296836853

$$$$
BENZO_174_2
  -OEChem-08232013483D

 54 57  0     1  0  0  0  0  0999 V2000
    4.0980    2.1130   19.5350 C   0  0  0  0  0  0  0  0  0  0  0  0
    4.2970    1.6690   20.8430 C   0  0  0  0  0  0  0  0  0  0  0  0
    9.4797    4.8290   23.5793 C   0  0  0  0  0  0  0  0  0  0  0  0
    8.8545    3.6132   23.8556 C   0  0  0  0  0  0  0  0  0  0  0  0
    8.3510   -1.5420   24.6110 C   0  0  0  0  0  0  0  0  0  0  0  0
   10.2760   -2.3270   23.4020 C   0  0  0  0  0  0  0  0  0  0  0  0
    4.9400    1.7060   18.5060 C   0  0  0  0  0  0  0  0  0  0  0  0
    5.3360    0.8000   21.1530 C   0  0  0  0  0  0  0  0  0  0  0  0
    8.3310   -2.7170   25.3430 C   0  0  0  0  0  0  0  0  0  0  0  0
   10.2570   -3.5000   24.1350 C   0  0  0  0  0  0  0  0  0  0  0  0
   10.7854    4.8463   23.0887 C   0  0  0  0  0  0  0  0  0  0  0  0
   10.8407    2.4317   23.1509 C   0  0  0  0  0  0  0  0  0  0  0  0
    9.3300   -1.3350   23.6390 C   0  0  0  0  0  0  0  0  0  0  0  0
    9.5350    2.4145   23.6414 C   0  0  0  0  0  0  0  0  0  0  0  0
    5.9810    0.8330   18.8060 C   0  0  0  0  0  0  0  0  0  0  0  0
    6.1600    0.3870   20.1140 C   0  0  0  0  0  0  0  0  0  0  0  0
    9.2850   -3.7090   25.1090 C   0  0  0  0  0  0  0  0  0  0  0  0
   11.4659    3.6477   22.8746 C   0  0  0  0  0  0  0  0  0  0  0  0
    8.3642   -5.2691   26.8512 C   0  0  0  0  0  0  0  0  0  0  0  0
    8.9510    0.1280   21.6880 C   0  0  0  0  0  0  0  0  0  0  0  0
    7.7677   -7.0815   28.5141 C   0  0  0  0  0  0  0  0  0  0  0  0
    8.8577    1.0982   23.9421 C   0  0  0  0  0  0  0  0  0  0  0  0
    8.6981   -6.6505   27.3944 C   0  0  0  0  0  0  0  0  0  0  0  0
    9.4200   -0.0840   22.9530 C   0  0  2  0  0  0  0  0  0  0  0  0
    6.9440    0.2550   18.0100 N   0  0  0  0  0  0  0  0  0  0  0  0
    7.6830   -0.5170   18.7600 N   0  0  0  0  0  0  0  0  0  0  0  0
    7.2210   -0.4620   20.0350 N   0  0  0  0  0  0  0  0  0  0  0  0
    9.2630   -4.8903   25.8409 N   0  0  0  0  0  0  0  0  0  0  0  0
    8.0810   -0.9750   21.0820 N   0  0  0  0  0  0  0  0  0  0  0  0
    7.4190   -4.6136   27.2772 O   0  0  0  0  0  0  0  0  0  0  0  0
    9.1870    1.1500   21.0630 O   0  0  0  0  0  0  0  0  0  0  0  0
   13.0772    3.6696   22.2705 Cl  0  0  0  0  0  0  0  0  0  0  0  0
    3.2714    2.7876   19.3199 H   0  0  0  0  0  0  0  0  0  0  0  0
    3.6283    2.0091   21.6296 H   0  0  0  0  0  0  0  0  0  0  0  0
    8.9496    5.7622   23.7463 H   0  0  0  0  0  0  0  0  0  0  0  0
    7.8370    3.6092   24.2377 H   0  0  0  0  0  0  0  0  0  0  0  0
    7.5948   -0.7783   24.7966 H   0  0  0  0  0  0  0  0  0  0  0  0
   11.0389   -2.1844   22.6342 H   0  0  0  0  0  0  0  0  0  0  0  0
    4.7824    2.0670   17.4883 H   0  0  0  0  0  0  0  0  0  0  0  0
    5.4937    0.4574   22.1805 H   0  0  0  0  0  0  0  0  0  0  0  0
    7.5642   -2.8624   26.1050 H   0  0  0  0  0  0  0  0  0  0  0  0
   11.0137   -4.2649   23.9418 H   0  0  0  0  0  0  0  0  0  0  0  0
   11.2603    5.8014   22.8781 H   0  0  0  0  0  0  0  0  0  0  0  0
   11.3668    1.4944   22.9852 H   0  0  0  0  0  0  0  0  0  0  0  0
    7.8080   -6.3775   29.3518 H   0  0  0  0  0  0  0  0  0  0  0  0
    8.0511   -8.0712   28.8852 H   0  0  0  0  0  0  0  0  0  0  0  0
    6.7306   -7.1306   28.1664 H   0  0  0  0  0  0  0  0  0  0  0  0
    8.9995    0.8809   25.0099 H   0  0  0  0  0  0  0  0  0  0  0  0
    7.7720    1.2044   23.8156 H   0  0  0  0  0  0  0  0  0  0  0  0
    8.6376   -7.3716   26.5712 H   0  0  0  0  0  0  0  0  0  0  0  0
    9.7309   -6.6396   27.7612 H   0  0  0  0  0  0  0  0  0  0  0  0
   10.5616    0.2233   22.9565 H   0  0  0  0  0  0  0  0  0  0  0  0
    9.9928   -5.5773   25.6185 H   0  0  0  0  0  0  0  0  0  0  0  0
    8.1479   -1.8049   21.3777 H   0  0  0  0  0  0  0  0  0  0  0  0
  1  2  1  0  0  0  0
  1  7  2  0  0  0  0
  2  8  2  0  0  0  0
  3  4  2  0  0  0  0
  3 11  1  0  0  0  0
  4 14  1  0  0  0  0
  5  9  2  0  0  0  0
  5 13  1  0  0  0  0
  6 10  1  0  0  0  0
  6 13  2  0  0  0  0
  7 15  1  0  0  0  0
  8 16  1  0  0  0  0
  9 17  1  0  0  0  0
 10 17  2  0  0  0  0
 11 18  2  0  0  0  0
 12 14  2  0  0  0  0
 12 18  1  0  0  0  0
 13 24  1  0  0  0  0
 14 22  1  0  0  0  0
 15 16  2  0  0  0  0
 15 25  1  0  0  0  0
 16 27  1  0  0  0  0
 17 28  1  0  0  0  0
 18 32  1  0  0  0  0
 19 23  1  0  0  0  0
 19 28  1  0  0  0  0
 19 30  2  0  0  0  0
 20 24  1  0  0  0  0
 20 29  1  0  0  0  0
 20 31  2  0  0  0  0
 21 23  1  0  0  0  0
 22 24  1  6  0  0  0
 25 26  2  0  0  0  0
 26 27  1  0  0  0  0
 27 29  1  0  0  0  0
  1 33  1  0  0  0  0
  2 34  1  0  0  0  0
  3 35  1  0  0  0  0
  4 36  1  0  0  0  0
  5 37  1  0  0  0  0
  6 38  1  0  0  0  0
  7 39  1  0  0  0  0
  8 40  1  0  0  0  0
  9 41  1  0  0  0  0
 10 42  1  0  0  0  0
 11 43  1  0  0  0  0
 12 44  1  0  0  0  0
 21 45  1  0  0  0  0
 21 46  1  0  0  0  0
 21 47  1  0  0  0  0
 22 48  1  0  0  0  0
 22 49  1  0  0  0  0
 23 50  1  0  0  0  0
 23 51  1  0  0  0  0
 24 52  1  0  0  0  0
 28 53  1  0  0  0  0
 29 54  1  0  0  0  0
M  END
> <clash_score>
0

> <docking_score>
-8.87562084197998

> <overlap_score>
0.8891777396202087

$$$$
BENZO_174_1
  -OEChem-08232013483D

 54 57  0     1  0  0  0  0  0999 V2000
    4.0980    2.1130   19.5350 C   0  0  0  0  0  0  0  0  0  0  0  0
    4.2970    1.6690   20.8430 C   0  0  0  0  0  0  0  0  0  0  0  0
   10.3291    4.1758   23.5411 C   0  0  0  0  0  0  0  0  0  0  0  0
   10.1565    2.7918   23.5559 C   0  0  0  0  0  0  0  0  0  0  0  0
    8.3510   -1.5420   24.6110 C   0  0  0  0  0  0  0  0  0  0  0  0
   10.2760   -2.3270   23.4020 C   0  0  0  0  0  0  0  0  0  0  0  0
    4.9400    1.7060   18.5060 C   0  0  0  0  0  0  0  0  0  0  0  0
    5.3360    0.8000   21.1530 C   0  0  0  0  0  0  0  0  0  0  0  0
    8.3310   -2.7170   25.3430 C   0  0  0  0  0  0  0  0  0  0  0  0
   10.2570   -3.5000   24.1350 C   0  0  0  0  0  0  0  0  0  0  0  0
   11.4971    4.7274   23.0146 C   0  0  0  0  0  0  0  0  0  0  0  0
   12.3200    2.5108   22.5179 C   0  0  0  0  0  0  0  0  0  0  0  0
    9.3300   -1.3350   23.6390 C   0  0  0  0  0  0  0  0  0  0  0  0
   11.1519    1.9593   23.0443 C   0  0  0  0  0  0  0  0  0  0  0  0
    5.9810    0.8330   18.8060 C   0  0  0  0  0  0  0  0  0  0  0  0
    6.1600    0.3870   20.1140 C   0  0  0  0  0  0  0  0  0  0  0  0
    9.2850   -3.7090   25.1090 C   0  0  0  0  0  0  0  0  0  0  0  0
   12.4925    3.8949   22.5030 C   0  0  0  0  0  0  0  0  0  0  0  0
    8.3642   -5.2691   26.8512 C   0  0  0  0  0  0  0  0  0  0  0  0
    8.9510    0.1280   21.6880 C   0  0  0  0  0  0  0  0  0  0  0  0
    7.9642   -7.7613   26.6647 C   0  0  0  0  0  0  0  0  0  0  0  0
   10.9648    0.4604   23.0619 C   0  0  0  0  0  0  0  0  0  0  0  0
    8.6981   -6.6505   27.3944 C   0  0  0  0  0  0  0  0  0  0  0  0
    9.4200   -0.0840   22.9530 C   0  0  1  0  0  0  0  0  0  0  0  0
    6.9440    0.2550   18.0100 N   0  0  0  0  0  0  0  0  0  0  0  0
    7.6830   -0.5170   18.7600 N   0  0  0  0  0  0  0  0  0  0  0  0
    7.2210   -0.4620   20.0350 N   0  0  0  0  0  0  0  0  0  0  0  0
    9.2630   -4.8903   25.8409 N   0  0  0  0  0  0  0  0  0  0  0  0
    8.0810   -0.9750   21.0820 N   0  0  0  0  0  0  0  0  0  0  0  0
    7.4190   -4.6136   27.2772 O   0  0  0  0  0  0  0  0  0  0  0  0
    9.1870    1.1500   21.0630 O   0  0  0  0  0  0  0  0  0  0  0  0
   13.9339    4.5760   21.8546 Cl  0  0  0  0  0  0  0  0  0  0  0  0
    3.2714    2.7876   19.3199 H   0  0  0  0  0  0  0  0  0  0  0  0
    3.6283    2.0091   21.6296 H   0  0  0  0  0  0  0  0  0  0  0  0
    9.5538    4.8237   23.9397 H   0  0  0  0  0  0  0  0  0  0  0  0
    9.2432    2.3707   23.9682 H   0  0  0  0  0  0  0  0  0  0  0  0
    7.5948   -0.7783   24.7966 H   0  0  0  0  0  0  0  0  0  0  0  0
   11.0389   -2.1844   22.6342 H   0  0  0  0  0  0  0  0  0  0  0  0
    4.7824    2.0670   17.4883 H   0  0  0  0  0  0  0  0  0  0  0  0
    5.4937    0.4574   22.1805 H   0  0  0  0  0  0  0  0  0  0  0  0
    7.5642   -2.8624   26.1050 H   0  0  0  0  0  0  0  0  0  0  0  0
   11.0137   -4.2649   23.9418 H   0  0  0  0  0  0  0  0  0  0  0  0
   11.6181    5.8079   23.0098 H   0  0  0  0  0  0  0  0  0  0  0  0
   13.0929    1.8575   22.1197 H   0  0  0  0  0  0  0  0  0  0  0  0
    6.8795   -7.6299   26.7374 H   0  0  0  0  0  0  0  0  0  0  0  0
    8.2204   -8.7342   27.0952 H   0  0  0  0  0  0  0  0  0  0  0  0
    8.2300   -7.7764   25.6026 H   0  0  0  0  0  0  0  0  0  0  0  0
   11.5732    0.0341   22.2521 H   0  0  0  0  0  0  0  0  0  0  0  0
   11.3908    0.0462   23.9854 H   0  0  0  0  0  0  0  0  0  0  0  0
    9.7793   -6.8069   27.3054 H   0  0  0  0  0  0  0  0  0  0  0  0
    8.4375   -6.6778   28.4588 H   0  0  0  0  0  0  0  0  0  0  0  0
    8.9107    0.7231   23.6509 H   0  0  0  0  0  0  0  0  0  0  0  0
    9.9928   -5.5773   25.6185 H   0  0  0  0  0  0  0  0  0  0  0  0
    8.1479   -1.8049   21.3777 H   0  0  0  0  0  0  0  0  0  0  0  0
  1  2  1  0  0  0  0
  1  7  2  0  0  0  0
  2  8  2  0  0  0  0
  3  4  2  0  0  0  0
  3 11  1  0  0  0  0
  4 14  1  0  0  0  0
  5  9  2  0  0  0  0
  5 13  1  0  0  0  0
  6 10  1  0  0  0  0
  6 13  2  0  0  0  0
  7 15  1  0  0  0  0
  8 16  1  0  0  0  0
  9 17  1  0  0  0  0
 10 17  2  0  0  0  0
 11 18  2  0  0  0  0
 12 14  2  0  0  0  0
 12 18  1  0  0  0  0
 13 24  1  0  0  0  0
 14 22  1  0  0  0  0
 15 16  2  0  0  0  0
 15 25  1  0  0  0  0
 16 27  1  0  0  0  0
 17 28  1  0  0  0  0
 18 32  1  0  0  0  0
 19 23  1  0  0  0  0
 19 28  1  0  0  0  0
 19 30  2  0  0  0  0
 20 24  1  0  0  0  0
 20 29  1  0  0  0  0
 20 31  2  0  0  0  0
 21 23  1  0  0  0  0
 22 24  1  1  0  0  0
 25 26  2  0  0  0  0
 26 27  1  0  0  0  0
 27 29  1  0  0  0  0
  1 33  1  0  0  0  0
  2 34  1  0  0  0  0
  3 35  1  0  0  0  0
  4 36  1  0  0  0  0
  5 37  1  0  0  0  0
  6 38  1  0  0  0  0
  7 39  1  0  0  0  0
  8 40  1  0  0  0  0
  9 41  1  0  0  0  0
 10 42  1  0  0  0  0
 11 43  1  0  0  0  0
 12 44  1  0  0  0  0
 21 45  1  0  0  0  0
 21 46  1  0  0  0  0
 21 47  1  0  0  0  0
 22 48  1  0  0  0  0
 22 49  1  0  0  0  0
 23 50  1  0  0  0  0
 23 51  1  0  0  0  0
 24 52  1  0  0  0  0
 28 53  1  0  0  0  0
 29 54  1  0  0  0  0
M  END
> <clash_score>
0.7805938894154716

> <docking_score>
-9.958481788635254

> <overlap_score>
0.9404538869857788

$$$$
BENZO_175_2
  -OEChem-08232013483D

 54 57  0     1  0  0  0  0  0999 V2000
    4.0980    2.1130   19.5350 C   0  0  0  0  0  0  0  0  0  0  0  0
    4.2970    1.6690   20.8430 C   0  0  0  0  0  0  0  0  0  0  0  0
    8.3510   -1.5420   24.6110 C   0  0  0  0  0  0  0  0  0  0  0  0
   10.2760   -2.3270   23.4020 C   0  0  0  0  0  0  0  0  0  0  0  0
    4.9400    1.7060   18.5060 C   0  0  0  0  0  0  0  0  0  0  0  0
    5.3360    0.8000   21.1530 C   0  0  0  0  0  0  0  0  0  0  0  0
    8.3310   -2.7170   25.3430 C   0  0  0  0  0  0  0  0  0  0  0  0
   10.2570   -3.5000   24.1350 C   0  0  0  0  0  0  0  0  0  0  0  0
   10.8351    2.6231   23.1433 C   0  0  0  0  0  0  0  0  0  0  0  0
    9.0177    3.6781   23.7909 C   0  0  0  0  0  0  0  0  0  0  0  0
    9.3300   -1.3350   23.6390 C   0  0  0  0  0  0  0  0  0  0  0  0
    9.5350    2.4145   23.6414 C   0  0  0  0  0  0  0  0  0  0  0  0
    5.9810    0.8330   18.8060 C   0  0  0  0  0  0  0  0  0  0  0  0
    6.1600    0.3870   20.1140 C   0  0  0  0  0  0  0  0  0  0  0  0
    9.2850   -3.7090   25.1090 C   0  0  0  0  0  0  0  0  0  0  0  0
    8.1532   -5.5459   26.3982 C   0  0  0  0  0  0  0  0  0  0  0  0
    8.9510    0.1280   21.6880 C   0  0  0  0  0  0  0  0  0  0  0  0
    9.2300   -7.8281   26.2037 C   0  0  0  0  0  0  0  0  0  0  0  0
    9.9253    5.9744   23.3647 C   0  0  0  0  0  0  0  0  0  0  0  0
    8.8577    1.0982   23.9421 C   0  0  0  0  0  0  0  0  0  0  0  0
    8.5721   -6.8157   27.1241 C   0  0  0  0  0  0  0  0  0  0  0  0
    9.4200   -0.0840   22.9530 C   0  0  2  0  0  0  0  0  0  0  0  0
   11.1257    3.9173   22.9866 N   0  0  0  0  0  0  0  0  0  0  0  0
    6.9440    0.2550   18.0100 N   0  0  0  0  0  0  0  0  0  0  0  0
    7.6830   -0.5170   18.7600 N   0  0  0  0  0  0  0  0  0  0  0  0
   10.0010    4.5334   23.3885 N   0  0  0  0  0  0  0  0  0  0  0  0
    7.2210   -0.4620   20.0350 N   0  0  0  0  0  0  0  0  0  0  0  0
    9.2630   -4.8903   25.8409 N   0  0  0  0  0  0  0  0  0  0  0  0
    8.0810   -0.9750   21.0820 N   0  0  0  0  0  0  0  0  0  0  0  0
    6.9817   -5.1875   26.3377 O   0  0  0  0  0  0  0  0  0  0  0  0
    9.1870    1.1500   21.0630 O   0  0  0  0  0  0  0  0  0  0  0  0
    3.2714    2.7876   19.3199 H   0  0  0  0  0  0  0  0  0  0  0  0
    3.6283    2.0091   21.6296 H   0  0  0  0  0  0  0  0  0  0  0  0
    7.5948   -0.7783   24.7966 H   0  0  0  0  0  0  0  0  0  0  0  0
   11.0389   -2.1844   22.6342 H   0  0  0  0  0  0  0  0  0  0  0  0
    4.7824    2.0670   17.4883 H   0  0  0  0  0  0  0  0  0  0  0  0
    5.4937    0.4574   22.1805 H   0  0  0  0  0  0  0  0  0  0  0  0
    7.5642   -2.8624   26.1050 H   0  0  0  0  0  0  0  0  0  0  0  0
   11.0137   -4.2649   23.9418 H   0  0  0  0  0  0  0  0  0  0  0  0
   11.5842    1.8876   22.8864 H   0  0  0  0  0  0  0  0  0  0  0  0
    8.0571    4.0326   24.1394 H   0  0  0  0  0  0  0  0  0  0  0  0
    8.5552   -8.1180   25.3915 H   0  0  0  0  0  0  0  0  0  0  0  0
    9.5015   -8.7298   26.7610 H   0  0  0  0  0  0  0  0  0  0  0  0
   10.1398   -7.4172   25.7536 H   0  0  0  0  0  0  0  0  0  0  0  0
   10.2748    6.3466   24.3314 H   0  0  0  0  0  0  0  0  0  0  0  0
   10.5545    6.3588   22.5570 H   0  0  0  0  0  0  0  0  0  0  0  0
    8.8900    6.2791   23.1881 H   0  0  0  0  0  0  0  0  0  0  0  0
    8.9995    0.8809   25.0099 H   0  0  0  0  0  0  0  0  0  0  0  0
    7.7720    1.2044   23.8156 H   0  0  0  0  0  0  0  0  0  0  0  0
    9.2685   -6.5440   27.9257 H   0  0  0  0  0  0  0  0  0  0  0  0
    7.6831   -7.2629   27.5835 H   0  0  0  0  0  0  0  0  0  0  0  0
   10.5616    0.2233   22.9565 H   0  0  0  0  0  0  0  0  0  0  0  0
   10.1695   -5.3466   25.9960 H   0  0  0  0  0  0  0  0  0  0  0  0
    8.1479   -1.8049   21.3777 H   0  0  0  0  0  0  0  0  0  0  0  0
  1  2  1  0  0  0  0
  1  5  2  0  0  0  0
  2  6  2  0  0  0  0
  3  7  2  0  0  0  0
  3 11  1  0  0  0  0
  4  8  1  0  0  0  0
  4 11  2  0  0  0  0
  5 13  1  0  0  0  0
  6 14  1  0  0  0  0
  7 15  1  0  0  0  0
  8 15  2  0  0  0  0
  9 12  1  0  0  0  0
  9 23  2  0  0  0  0
 10 12  2  0  0  0  0
 10 26  1  0  0  0  0
 11 22  1  0  0  0  0
 12 20  1  0  0  0  0
 13 14  2  0  0  0  0
 13 24  1  0  0  0  0
 14 27  1  0  0  0  0
 15 28  1  0  0  0  0
 16 21  1  0  0  0  0
 16 28  1  0  0  0  0
 16 30  2  0  0  0  0
 17 22  1  0  0  0  0
 17 29  1  0  0  0  0
 17 31  2  0  0  0  0
 18 21  1  0  0  0  0
 19 26  1  0  0  0  0
 20 22  1  6  0  0  0
 23 26  1  0  0  0  0
 24 25  2  0  0  0  0
 25 27  1  0  0  0  0
 27 29  1  0  0  0  0
  1 32  1  0  0  0  0
  2 33  1  0  0  0  0
  3 34  1  0  0  0  0
  4 35  1  0  0  0  0
  5 36  1  0  0  0  0
  6 37  1  0  0  0  0
  7 38  1  0  0  0  0
  8 39  1  0  0  0  0
  9 40  1  0  0  0  0
 10 41  1  0  0  0  0
 18 42  1  0  0  0  0
 18 43  1  0  0  0  0
 18 44  1  0  0  0  0
 19 45  1  0  0  0  0
 19 46  1  0  0  0  0
 19 47  1  0  0  0  0
 20 48  1  0  0  0  0
 20 49  1  0  0  0  0
 21 50  1  0  0  0  0
 21 51  1  0  0  0  0
 22 52  1  0  0  0  0
 28 53  1  0  0  0  0
 29 54  1  0  0  0  0
M  END
> <clash_score>
1.2358139644684458

> <docking_score>
-8.628405570983887

> <overlap_score>
0.8682135343551636

$$$$
BENZO_175_1
  -OEChem-08232013483D

 54 57  0     1  0  0  0  0  0999 V2000
    4.0980    2.1130   19.5350 C   0  0  0  0  0  0  0  0  0  0  0  0
    4.2970    1.6690   20.8430 C   0  0  0  0  0  0  0  0  0  0  0  0
    8.3510   -1.5420   24.6110 C   0  0  0  0  0  0  0  0  0  0  0  0
   10.2760   -2.3270   23.4020 C   0  0  0  0  0  0  0  0  0  0  0  0
    4.9400    1.7060   18.5060 C   0  0  0  0  0  0  0  0  0  0  0  0
    5.3360    0.8000   21.1530 C   0  0  0  0  0  0  0  0  0  0  0  0
    8.3310   -2.7170   25.3430 C   0  0  0  0  0  0  0  0  0  0  0  0
   10.2570   -3.5000   24.1350 C   0  0  0  0  0  0  0  0  0  0  0  0
   10.2645    2.9461   23.5139 C   0  0  0  0  0  0  0  0  0  0  0  0
   12.2295    2.6651   22.5680 C   0  0  0  0  0  0  0  0  0  0  0  0
    9.3300   -1.3350   23.6390 C   0  0  0  0  0  0  0  0  0  0  0  0
   11.1519    1.9593   23.0443 C   0  0  0  0  0  0  0  0  0  0  0  0
    5.9810    0.8330   18.8060 C   0  0  0  0  0  0  0  0  0  0  0  0
    6.1600    0.3870   20.1140 C   0  0  0  0  0  0  0  0  0  0  0  0
    9.2850   -3.7090   25.1090 C   0  0  0  0  0  0  0  0  0  0  0  0
    8.1532   -5.5459   26.3982 C   0  0  0  0  0  0  0  0  0  0  0  0
    8.9510    0.1280   21.6880 C   0  0  0  0  0  0  0  0  0  0  0  0
    9.2300   -7.8281   26.2037 C   0  0  0  0  0  0  0  0  0  0  0  0
   12.7674    5.1088   22.4339 C   0  0  0  0  0  0  0  0  0  0  0  0
   10.9648    0.4604   23.0619 C   0  0  0  0  0  0  0  0  0  0  0  0
    8.5721   -6.8157   27.1241 C   0  0  0  0  0  0  0  0  0  0  0  0
    9.4200   -0.0840   22.9530 C   0  0  1  0  0  0  0  0  0  0  0  0
   10.7375    4.1845   23.3509 N   0  0  0  0  0  0  0  0  0  0  0  0
    6.9440    0.2550   18.0100 N   0  0  0  0  0  0  0  0  0  0  0  0
    7.6830   -0.5170   18.7600 N   0  0  0  0  0  0  0  0  0  0  0  0
   11.9338    3.9806   22.7735 N   0  0  0  0  0  0  0  0  0  0  0  0
    7.2210   -0.4620   20.0350 N   0  0  0  0  0  0  0  0  0  0  0  0
    9.2630   -4.8903   25.8409 N   0  0  0  0  0  0  0  0  0  0  0  0
    8.0810   -0.9750   21.0820 N   0  0  0  0  0  0  0  0  0  0  0  0
    6.9817   -5.1875   26.3377 O   0  0  0  0  0  0  0  0  0  0  0  0
    9.1870    1.1500   21.0630 O   0  0  0  0  0  0  0  0  0  0  0  0
    3.2714    2.7876   19.3199 H   0  0  0  0  0  0  0  0  0  0  0  0
    3.6283    2.0091   21.6296 H   0  0  0  0  0  0  0  0  0  0  0  0
    7.5948   -0.7783   24.7966 H   0  0  0  0  0  0  0  0  0  0  0  0
   11.0389   -2.1844   22.6342 H   0  0  0  0  0  0  0  0  0  0  0  0
    4.7824    2.0670   17.4883 H   0  0  0  0  0  0  0  0  0  0  0  0
    5.4937    0.4574   22.1805 H   0  0  0  0  0  0  0  0  0  0  0  0
    7.5642   -2.8624   26.1050 H   0  0  0  0  0  0  0  0  0  0  0  0
   11.0137   -4.2649   23.9418 H   0  0  0  0  0  0  0  0  0  0  0  0
    9.2929    2.8169   23.9694 H   0  0  0  0  0  0  0  0  0  0  0  0
   13.1591    2.3512   22.1127 H   0  0  0  0  0  0  0  0  0  0  0  0
    8.5552   -8.1180   25.3915 H   0  0  0  0  0  0  0  0  0  0  0  0
    9.5015   -8.7298   26.7610 H   0  0  0  0  0  0  0  0  0  0  0  0
   10.1398   -7.4172   25.7536 H   0  0  0  0  0  0  0  0  0  0  0  0
   12.5169    5.4190   21.4160 H   0  0  0  0  0  0  0  0  0  0  0  0
   12.5816    5.9241   23.1387 H   0  0  0  0  0  0  0  0  0  0  0  0
   13.8185    4.8135   22.4971 H   0  0  0  0  0  0  0  0  0  0  0  0
   11.5732    0.0341   22.2521 H   0  0  0  0  0  0  0  0  0  0  0  0
   11.3908    0.0462   23.9854 H   0  0  0  0  0  0  0  0  0  0  0  0
    9.2685   -6.5440   27.9257 H   0  0  0  0  0  0  0  0  0  0  0  0
    7.6831   -7.2629   27.5835 H   0  0  0  0  0  0  0  0  0  0  0  0
    8.9107    0.7231   23.6509 H   0  0  0  0  0  0  0  0  0  0  0  0
   10.1695   -5.3466   25.9960 H   0  0  0  0  0  0  0  0  0  0  0  0
    8.1479   -1.8049   21.3777 H   0  0  0  0  0  0  0  0  0  0  0  0
  1  2  1  0  0  0  0
  1  5  2  0  0  0  0
  2  6  2  0  0  0  0
  3  7  2  0  0  0  0
  3 11  1  0  0  0  0
  4  8  1  0  0  0  0
  4 11  2  0  0  0  0
  5 13  1  0  0  0  0
  6 14  1  0  0  0  0
  7 15  1  0  0  0  0
  8 15  2  0  0  0  0
  9 12  1  0  0  0  0
  9 23  2  0  0  0  0
 10 12  2  0  0  0  0
 10 26  1  0  0  0  0
 11 22  1  0  0  0  0
 12 20  1  0  0  0  0
 13 14  2  0  0  0  0
 13 24  1  0  0  0  0
 14 27  1  0  0  0  0
 15 28  1  0  0  0  0
 16 21  1  0  0  0  0
 16 28  1  0  0  0  0
 16 30  2  0  0  0  0
 17 22  1  0  0  0  0
 17 29  1  0  0  0  0
 17 31  2  0  0  0  0
 18 21  1  0  0  0  0
 19 26  1  0  0  0  0
 20 22  1  1  0  0  0
 23 26  1  0  0  0  0
 24 25  2  0  0  0  0
 25 27  1  0  0  0  0
 27 29  1  0  0  0  0
  1 32  1  0  0  0  0
  2 33  1  0  0  0  0
  3 34  1  0  0  0  0
  4 35  1  0  0  0  0
  5 36  1  0  0  0  0
  6 37  1  0  0  0  0
  7 38  1  0  0  0  0
  8 39  1  0  0  0  0
  9 40  1  0  0  0  0
 10 41  1  0  0  0  0
 18 42  1  0  0  0  0
 18 43  1  0  0  0  0
 18 44  1  0  0  0  0
 19 45  1  0  0  0  0
 19 46  1  0  0  0  0
 19 47  1  0  0  0  0
 20 48  1  0  0  0  0
 20 49  1  0  0  0  0
 21 50  1  0  0  0  0
 21 51  1  0  0  0  0
 22 52  1  0  0  0  0
 28 53  1  0  0  0  0
 29 54  1  0  0  0  0
M  END
> <clash_score>
1.2358139644684458

> <docking_score>
-9.830283164978027

> <overlap_score>
0.9334759712219238

$$$$
BENZO_177_1
  -OEChem-08232013483D

 59 63  0     1  0  0  0  0  0999 V2000
   10.7843    4.8294   22.9654 C   0  0  0  0  0  0  0  0  0  0  0  0
   11.3381    3.9837   23.9264 C   0  0  0  0  0  0  0  0  0  0  0  0
    9.6033    4.4690   22.3166 C   0  0  0  0  0  0  0  0  0  0  0  0
    4.0980    2.1130   19.5350 C   0  0  0  0  0  0  0  0  0  0  0  0
    4.2970    1.6690   20.8430 C   0  0  0  0  0  0  0  0  0  0  0  0
   10.7110    2.7775   24.2386 C   0  0  0  0  0  0  0  0  0  0  0  0
    8.9762    3.2628   22.6287 C   0  0  0  0  0  0  0  0  0  0  0  0
    8.3510   -1.5420   24.6110 C   0  0  0  0  0  0  0  0  0  0  0  0
   10.2760   -2.3270   23.4020 C   0  0  0  0  0  0  0  0  0  0  0  0
    4.9400    1.7060   18.5060 C   0  0  0  0  0  0  0  0  0  0  0  0
    5.3360    0.8000   21.1530 C   0  0  0  0  0  0  0  0  0  0  0  0
    8.3310   -2.7170   25.3430 C   0  0  0  0  0  0  0  0  0  0  0  0
   10.2570   -3.5000   24.1350 C   0  0  0  0  0  0  0  0  0  0  0  0
    9.5300    2.4170   23.5897 C   0  0  0  0  0  0  0  0  0  0  0  0
    9.3300   -1.3350   23.6390 C   0  0  0  0  0  0  0  0  0  0  0  0
    5.9810    0.8330   18.8060 C   0  0  0  0  0  0  0  0  0  0  0  0
    6.1600    0.3870   20.1140 C   0  0  0  0  0  0  0  0  0  0  0  0
    9.2850   -3.7090   25.1090 C   0  0  0  0  0  0  0  0  0  0  0  0
    8.9510    0.1280   21.6880 C   0  0  0  0  0  0  0  0  0  0  0  0
    7.3211   -6.8875   26.5227 C   0  0  0  0  0  0  0  0  0  0  0  0
    7.3523   -5.5278   27.2244 C   0  0  0  0  0  0  0  0  0  0  0  0
    7.9422   -6.8107   25.1261 C   0  0  0  0  0  0  0  0  0  0  0  0
    8.7641   -4.9418   27.2163 C   0  0  0  0  0  0  0  0  0  0  0  0
    9.3411   -6.1879   25.1670 C   0  0  0  0  0  0  0  0  0  0  0  0
    8.8505    1.1108   23.9271 C   0  0  0  0  0  0  0  0  0  0  0  0
    9.4200   -0.0840   22.9530 C   0  0  1  0  0  0  0  0  0  0  0  0
    6.9440    0.2550   18.0100 N   0  0  0  0  0  0  0  0  0  0  0  0
    7.6830   -0.5170   18.7600 N   0  0  0  0  0  0  0  0  0  0  0  0
    7.2210   -0.4620   20.0350 N   0  0  0  0  0  0  0  0  0  0  0  0
    9.2641   -4.8861   25.8398 N   0  0  0  0  0  0  0  0  0  0  0  0
    8.0810   -0.9750   21.0820 N   0  0  0  0  0  0  0  0  0  0  0  0
    9.1870    1.1500   21.0630 O   0  0  0  0  0  0  0  0  0  0  0  0
   11.2720    5.7692   22.7234 H   0  0  0  0  0  0  0  0  0  0  0  0
   12.2571    4.2647   24.4325 H   0  0  0  0  0  0  0  0  0  0  0  0
    9.1712    5.1277   21.5691 H   0  0  0  0  0  0  0  0  0  0  0  0
    3.2714    2.7876   19.3199 H   0  0  0  0  0  0  0  0  0  0  0  0
    3.6283    2.0091   21.6296 H   0  0  0  0  0  0  0  0  0  0  0  0
   11.1499    2.1247   24.9886 H   0  0  0  0  0  0  0  0  0  0  0  0
    8.0564    2.9902   22.1180 H   0  0  0  0  0  0  0  0  0  0  0  0
    7.5957   -0.7779   24.7973 H   0  0  0  0  0  0  0  0  0  0  0  0
   11.0384   -2.1852   22.6338 H   0  0  0  0  0  0  0  0  0  0  0  0
    4.7824    2.0670   17.4883 H   0  0  0  0  0  0  0  0  0  0  0  0
    5.4937    0.4574   22.1805 H   0  0  0  0  0  0  0  0  0  0  0  0
    7.5634   -2.8637   26.1037 H   0  0  0  0  0  0  0  0  0  0  0  0
   11.0139   -4.2645   23.9419 H   0  0  0  0  0  0  0  0  0  0  0  0
    7.8644   -7.6283   27.1289 H   0  0  0  0  0  0  0  0  0  0  0  0
    6.2830   -7.2423   26.4478 H   0  0  0  0  0  0  0  0  0  0  0  0
    6.6663   -4.8405   26.7221 H   0  0  0  0  0  0  0  0  0  0  0  0
    7.0062   -5.6400   28.2540 H   0  0  0  0  0  0  0  0  0  0  0  0
    8.0018   -7.8160   24.6962 H   0  0  0  0  0  0  0  0  0  0  0  0
    7.2963   -6.2182   24.4678 H   0  0  0  0  0  0  0  0  0  0  0  0
    8.7322   -3.9404   27.6532 H   0  0  0  0  0  0  0  0  0  0  0  0
    9.4260   -5.5610   27.8283 H   0  0  0  0  0  0  0  0  0  0  0  0
   10.0249   -6.8474   25.7028 H   0  0  0  0  0  0  0  0  0  0  0  0
    9.7015   -6.0700   24.1446 H   0  0  0  0  0  0  0  0  0  0  0  0
    8.9922    0.9231   25.0006 H   0  0  0  0  0  0  0  0  0  0  0  0
    7.7650    1.2154   23.7980 H   0  0  0  0  0  0  0  0  0  0  0  0
   10.5617    0.2354   22.9523 H   0  0  0  0  0  0  0  0  0  0  0  0
    8.1256   -1.8039   21.3539 H   0  0  0  0  0  0  0  0  0  0  0  0
  1  2  1  0  0  0  0
  1  3  2  0  0  0  0
  2  6  2  0  0  0  0
  3  7  1  0  0  0  0
  4  5  1  0  0  0  0
  4 10  2  0  0  0  0
  5 11  2  0  0  0  0
  6 14  1  0  0  0  0
  7 14  2  0  0  0  0
  8 12  2  0  0  0  0
  8 15  1  0  0  0  0
  9 13  1  0  0  0  0
  9 15  2  0  0  0  0
 10 16  1  0  0  0  0
 11 17  1  0  0  0  0
 12 18  1  0  0  0  0
 13 18  2  0  0  0  0
 14 25  1  0  0  0  0
 15 26  1  0  0  0  0
 16 17  2  0  0  0  0
 16 27  1  0  0  0  0
 17 29  1  0  0  0  0
 18 30  1  0  0  0  0
 19 26  1  1  0  0  0
 19 31  1  0  0  0  0
 19 32  2  0  0  0  0
 20 21  1  0  0  0  0
 20 22  1  0  0  0  0
 21 23  1  0  0  0  0
 22 24  1  0  0  0  0
 23 30  1  0  0  0  0
 24 30  1  0  0  0  0
 25 26  1  0  0  0  0
 27 28  2  0  0  0  0
 28 29  1  0  0  0  0
 29 31  1  0  0  0  0
  1 33  1  0  0  0  0
  2 34  1  0  0  0  0
  3 35  1  0  0  0  0
  4 36  1  0  0  0  0
  5 37  1  0  0  0  0
  6 38  1  0  0  0  0
  7 39  1  0  0  0  0
  8 40  1  0  0  0  0
  9 41  1  0  0  0  0
 10 42  1  0  0  0  0
 11 43  1  0  0  0  0
 12 44  1  0  0  0  0
 13 45  1  0  0  0  0
 20 46  1  0  0  0  0
 20 47  1  0  0  0  0
 21 48  1  0  0  0  0
 21 49  1  0  0  0  0
 22 50  1  0  0  0  0
 22 51  1  0  0  0  0
 23 52  1  0  0  0  0
 23 53  1  0  0  0  0
 24 54  1  0  0  0  0
 24 55  1  0  0  0  0
 25 56  1  0  0  0  0
 25 57  1  0  0  0  0
 26 58  1  0  0  0  0
 31 59  1  0  0  0  0
M  END
> <clash_score>
0

> <docking_score>
-6.998611927032471

> <overlap_score>
0.8661469221115112

$$$$
BENZO_176_1
  -OEChem-08232013483D

 56 60  0     1  0  0  0  0  0999 V2000
    4.0980    2.1130   19.5350 C   0  0  0  0  0  0  0  0  0  0  0  0
    4.2970    1.6690   20.8430 C   0  0  0  0  0  0  0  0  0  0  0  0
    8.3510   -1.5420   24.6110 C   0  0  0  0  0  0  0  0  0  0  0  0
   10.2760   -2.3270   23.4020 C   0  0  0  0  0  0  0  0  0  0  0  0
    4.9400    1.7060   18.5060 C   0  0  0  0  0  0  0  0  0  0  0  0
    5.3360    0.8000   21.1530 C   0  0  0  0  0  0  0  0  0  0  0  0
    8.3310   -2.7170   25.3430 C   0  0  0  0  0  0  0  0  0  0  0  0
   10.2570   -3.5000   24.1350 C   0  0  0  0  0  0  0  0  0  0  0  0
    8.8849    3.6862   23.6465 C   0  0  0  0  0  0  0  0  0  0  0  0
    9.7305    4.7130   23.2887 C   0  0  0  0  0  0  0  0  0  0  0  0
   10.8444    2.5222   23.1905 C   0  0  0  0  0  0  0  0  0  0  0  0
    9.3300   -1.3350   23.6390 C   0  0  0  0  0  0  0  0  0  0  0  0
    9.5300    2.4170   23.5897 C   0  0  0  0  0  0  0  0  0  0  0  0
    5.9810    0.8330   18.8060 C   0  0  0  0  0  0  0  0  0  0  0  0
    6.1600    0.3870   20.1140 C   0  0  0  0  0  0  0  0  0  0  0  0
    9.2850   -3.7090   25.1090 C   0  0  0  0  0  0  0  0  0  0  0  0
    8.9510    0.1280   21.6880 C   0  0  0  0  0  0  0  0  0  0  0  0
    7.3211   -6.8875   26.5227 C   0  0  0  0  0  0  0  0  0  0  0  0
    7.3523   -5.5278   27.2244 C   0  0  0  0  0  0  0  0  0  0  0  0
    7.9422   -6.8107   25.1261 C   0  0  0  0  0  0  0  0  0  0  0  0
    8.7641   -4.9418   27.2163 C   0  0  0  0  0  0  0  0  0  0  0  0
    9.3411   -6.1879   25.1670 C   0  0  0  0  0  0  0  0  0  0  0  0
    8.8504    1.1108   23.9271 C   0  0  0  0  0  0  0  0  0  0  0  0
    9.4200   -0.0840   22.9530 C   0  0  1  0  0  0  0  0  0  0  0  0
    6.9440    0.2550   18.0100 N   0  0  0  0  0  0  0  0  0  0  0  0
    7.6830   -0.5170   18.7600 N   0  0  0  0  0  0  0  0  0  0  0  0
    7.2210   -0.4620   20.0350 N   0  0  0  0  0  0  0  0  0  0  0  0
    9.2641   -4.8861   25.8398 N   0  0  0  0  0  0  0  0  0  0  0  0
    8.0810   -0.9750   21.0820 N   0  0  0  0  0  0  0  0  0  0  0  0
    9.1870    1.1500   21.0630 O   0  0  0  0  0  0  0  0  0  0  0  0
   11.2955    4.1459   22.8865 S   0  0  0  0  0  0  0  0  0  0  0  0
    3.2714    2.7876   19.3199 H   0  0  0  0  0  0  0  0  0  0  0  0
    3.6283    2.0091   21.6296 H   0  0  0  0  0  0  0  0  0  0  0  0
    7.5957   -0.7779   24.7973 H   0  0  0  0  0  0  0  0  0  0  0  0
   11.0384   -2.1852   22.6338 H   0  0  0  0  0  0  0  0  0  0  0  0
    4.7824    2.0670   17.4883 H   0  0  0  0  0  0  0  0  0  0  0  0
    5.4937    0.4574   22.1805 H   0  0  0  0  0  0  0  0  0  0  0  0
    7.5634   -2.8637   26.1037 H   0  0  0  0  0  0  0  0  0  0  0  0
   11.0139   -4.2645   23.9419 H   0  0  0  0  0  0  0  0  0  0  0  0
    7.8528    3.8425   23.9342 H   0  0  0  0  0  0  0  0  0  0  0  0
    9.5042    5.7689   23.2436 H   0  0  0  0  0  0  0  0  0  0  0  0
   11.5641    1.7260   23.0605 H   0  0  0  0  0  0  0  0  0  0  0  0
    7.8644   -7.6283   27.1289 H   0  0  0  0  0  0  0  0  0  0  0  0
    6.2830   -7.2423   26.4478 H   0  0  0  0  0  0  0  0  0  0  0  0
    6.6663   -4.8405   26.7221 H   0  0  0  0  0  0  0  0  0  0  0  0
    7.0062   -5.6400   28.2540 H   0  0  0  0  0  0  0  0  0  0  0  0
    8.0018   -7.8160   24.6962 H   0  0  0  0  0  0  0  0  0  0  0  0
    7.2963   -6.2182   24.4678 H   0  0  0  0  0  0  0  0  0  0  0  0
    8.7322   -3.9404   27.6532 H   0  0  0  0  0  0  0  0  0  0  0  0
    9.4260   -5.5610   27.8283 H   0  0  0  0  0  0  0  0  0  0  0  0
   10.0249   -6.8474   25.7028 H   0  0  0  0  0  0  0  0  0  0  0  0
    9.7015   -6.0700   24.1446 H   0  0  0  0  0  0  0  0  0  0  0  0
    8.9922    0.9231   25.0006 H   0  0  0  0  0  0  0  0  0  0  0  0
    7.7650    1.2154   23.7980 H   0  0  0  0  0  0  0  0  0  0  0  0
   10.5617    0.2354   22.9523 H   0  0  0  0  0  0  0  0  0  0  0  0
    8.1256   -1.8039   21.3539 H   0  0  0  0  0  0  0  0  0  0  0  0
  1  2  1  0  0  0  0
  1  5  2  0  0  0  0
  2  6  2  0  0  0  0
  3  7  2  0  0  0  0
  3 12  1  0  0  0  0
  4  8  1  0  0  0  0
  4 12  2  0  0  0  0
  5 14  1  0  0  0  0
  6 15  1  0  0  0  0
  7 16  1  0  0  0  0
  8 16  2  0  0  0  0
  9 10  2  0  0  0  0
  9 13  1  0  0  0  0
 10 31  1  0  0  0  0
 11 13  2  0  0  0  0
 11 31  1  0  0  0  0
 12 24  1  0  0  0  0
 13 23  1  0  0  0  0
 14 15  2  0  0  0  0
 14 25  1  0  0  0  0
 15 27  1  0  0  0  0
 16 28  1  0  0  0  0
 17 24  1  1  0  0  0
 17 29  1  0  0  0  0
 17 30  2  0  0  0  0
 18 19  1  0  0  0  0
 18 20  1  0  0  0  0
 19 21  1  0  0  0  0
 20 22  1  0  0  0  0
 21 28  1  0  0  0  0
 22 28  1  0  0  0  0
 23 24  1  0  0  0  0
 25 26  2  0  0  0  0
 26 27  1  0  0  0  0
 27 29  1  0  0  0  0
  1 32  1  0  0  0  0
  2 33  1  0  0  0  0
  3 34  1  0  0  0  0
  4 35  1  0  0  0  0
  5 36  1  0  0  0  0
  6 37  1  0  0  0  0
  7 38  1  0  0  0  0
  8 39  1  0  0  0  0
  9 40  1  0  0  0  0
 10 41  1  0  0  0  0
 11 42  1  0  0  0  0
 18 43  1  0  0  0  0
 18 44  1  0  0  0  0
 19 45  1  0  0  0  0
 19 46  1  0  0  0  0
 20 47  1  0  0  0  0
 20 48  1  0  0  0  0
 21 49  1  0  0  0  0
 21 50  1  0  0  0  0
 22 51  1  0  0  0  0
 22 52  1  0  0  0  0
 23 53  1  0  0  0  0
 23 54  1  0  0  0  0
 24 55  1  0  0  0  0
 29 56  1  0  0  0  0
M  END
> <clash_score>
0

> <docking_score>
-8.60925579071045

> <overlap_score>
0.8779449462890625

$$$$
BENZO_177_2
  -OEChem-08232013483D

 59 63  0     1  0  0  0  0  0999 V2000
   11.4573    4.7431   22.9506 C   0  0  0  0  0  0  0  0  0  0  0  0
   12.4604    3.9133   22.4498 C   0  0  0  0  0  0  0  0  0  0  0  0
   10.2948    4.1875   23.4851 C   0  0  0  0  0  0  0  0  0  0  0  0
    4.0980    2.1130   19.5350 C   0  0  0  0  0  0  0  0  0  0  0  0
    4.2970    1.6690   20.8430 C   0  0  0  0  0  0  0  0  0  0  0  0
   12.3011    2.5280   22.4834 C   0  0  0  0  0  0  0  0  0  0  0  0
   10.1354    2.8022   23.5187 C   0  0  0  0  0  0  0  0  0  0  0  0
    8.3510   -1.5420   24.6110 C   0  0  0  0  0  0  0  0  0  0  0  0
   10.2760   -2.3270   23.4020 C   0  0  0  0  0  0  0  0  0  0  0  0
    4.9400    1.7060   18.5060 C   0  0  0  0  0  0  0  0  0  0  0  0
    5.3360    0.8000   21.1530 C   0  0  0  0  0  0  0  0  0  0  0  0
    8.3310   -2.7170   25.3430 C   0  0  0  0  0  0  0  0  0  0  0  0
   10.2570   -3.5000   24.1350 C   0  0  0  0  0  0  0  0  0  0  0  0
   11.1386    1.9724   23.0179 C   0  0  0  0  0  0  0  0  0  0  0  0
    9.3300   -1.3350   23.6390 C   0  0  0  0  0  0  0  0  0  0  0  0
    5.9810    0.8330   18.8060 C   0  0  0  0  0  0  0  0  0  0  0  0
    6.1600    0.3870   20.1140 C   0  0  0  0  0  0  0  0  0  0  0  0
    9.2850   -3.7090   25.1090 C   0  0  0  0  0  0  0  0  0  0  0  0
    8.9510    0.1280   21.6880 C   0  0  0  0  0  0  0  0  0  0  0  0
    7.3211   -6.8875   26.5227 C   0  0  0  0  0  0  0  0  0  0  0  0
    7.3523   -5.5278   27.2244 C   0  0  0  0  0  0  0  0  0  0  0  0
    7.9422   -6.8107   25.1261 C   0  0  0  0  0  0  0  0  0  0  0  0
    8.7641   -4.9418   27.2163 C   0  0  0  0  0  0  0  0  0  0  0  0
    9.3411   -6.1879   25.1670 C   0  0  0  0  0  0  0  0  0  0  0  0
   10.9652    0.4722   23.0544 C   0  0  0  0  0  0  0  0  0  0  0  0
    9.4200   -0.0840   22.9530 C   0  0  2  0  0  0  0  0  0  0  0  0
    6.9440    0.2550   18.0100 N   0  0  0  0  0  0  0  0  0  0  0  0
    7.6830   -0.5170   18.7600 N   0  0  0  0  0  0  0  0  0  0  0  0
    7.2210   -0.4620   20.0350 N   0  0  0  0  0  0  0  0  0  0  0  0
    9.2641   -4.8861   25.8398 N   0  0  0  0  0  0  0  0  0  0  0  0
    8.0810   -0.9750   21.0820 N   0  0  0  0  0  0  0  0  0  0  0  0
    9.1870    1.1500   21.0630 O   0  0  0  0  0  0  0  0  0  0  0  0
   11.5821    5.8217   22.9256 H   0  0  0  0  0  0  0  0  0  0  0  0
   13.3661    4.3457   22.0346 H   0  0  0  0  0  0  0  0  0  0  0  0
    9.5141    4.8332   23.8761 H   0  0  0  0  0  0  0  0  0  0  0  0
    3.2714    2.7876   19.3199 H   0  0  0  0  0  0  0  0  0  0  0  0
    3.6283    2.0091   21.6296 H   0  0  0  0  0  0  0  0  0  0  0  0
   13.0879    1.8893   22.0908 H   0  0  0  0  0  0  0  0  0  0  0  0
    9.2263    2.3782   23.9369 H   0  0  0  0  0  0  0  0  0  0  0  0
    7.5957   -0.7779   24.7973 H   0  0  0  0  0  0  0  0  0  0  0  0
   11.0384   -2.1852   22.6338 H   0  0  0  0  0  0  0  0  0  0  0  0
    4.7824    2.0670   17.4883 H   0  0  0  0  0  0  0  0  0  0  0  0
    5.4937    0.4574   22.1805 H   0  0  0  0  0  0  0  0  0  0  0  0
    7.5634   -2.8637   26.1037 H   0  0  0  0  0  0  0  0  0  0  0  0
   11.0139   -4.2645   23.9419 H   0  0  0  0  0  0  0  0  0  0  0  0
    7.8644   -7.6283   27.1289 H   0  0  0  0  0  0  0  0  0  0  0  0
    6.2830   -7.2423   26.4478 H   0  0  0  0  0  0  0  0  0  0  0  0
    6.6663   -4.8405   26.7221 H   0  0  0  0  0  0  0  0  0  0  0  0
    7.0062   -5.6400   28.2540 H   0  0  0  0  0  0  0  0  0  0  0  0
    8.0018   -7.8160   24.6962 H   0  0  0  0  0  0  0  0  0  0  0  0
    7.2963   -6.2182   24.4678 H   0  0  0  0  0  0  0  0  0  0  0  0
    8.7322   -3.9404   27.6532 H   0  0  0  0  0  0  0  0  0  0  0  0
    9.4260   -5.5610   27.8283 H   0  0  0  0  0  0  0  0  0  0  0  0
   10.0249   -6.8474   25.7028 H   0  0  0  0  0  0  0  0  0  0  0  0
    9.7015   -6.0700   24.1446 H   0  0  0  0  0  0  0  0  0  0  0  0
   11.5818    0.0409   22.2535 H   0  0  0  0  0  0  0  0  0  0  0  0
   11.3901    0.0742   23.9855 H   0  0  0  0  0  0  0  0  0  0  0  0
    8.9113    0.7342   23.6444 H   0  0  0  0  0  0  0  0  0  0  0  0
    8.1256   -1.8039   21.3539 H   0  0  0  0  0  0  0  0  0  0  0  0
  1  2  1  0  0  0  0
  1  3  2  0  0  0  0
  2  6  2  0  0  0  0
  3  7  1  0  0  0  0
  4  5  1  0  0  0  0
  4 10  2  0  0  0  0
  5 11  2  0  0  0  0
  6 14  1  0  0  0  0
  7 14  2  0  0  0  0
  8 12  2  0  0  0  0
  8 15  1  0  0  0  0
  9 13  1  0  0  0  0
  9 15  2  0  0  0  0
 10 16  1  0  0  0  0
 11 17  1  0  0  0  0
 12 18  1  0  0  0  0
 13 18  2  0  0  0  0
 14 25  1  0  0  0  0
 15 26  1  0  0  0  0
 16 17  2  0  0  0  0
 16 27  1  0  0  0  0
 17 29  1  0  0  0  0
 18 30  1  0  0  0  0
 19 26  1  6  0  0  0
 19 31  1  0  0  0  0
 19 32  2  0  0  0  0
 20 21  1  0  0  0  0
 20 22  1  0  0  0  0
 21 23  1  0  0  0  0
 22 24  1  0  0  0  0
 23 30  1  0  0  0  0
 24 30  1  0  0  0  0
 25 26  1  0  0  0  0
 27 28  2  0  0  0  0
 28 29  1  0  0  0  0
 29 31  1  0  0  0  0
  1 33  1  0  0  0  0
  2 34  1  0  0  0  0
  3 35  1  0  0  0  0
  4 36  1  0  0  0  0
  5 37  1  0  0  0  0
  6 38  1  0  0  0  0
  7 39  1  0  0  0  0
  8 40  1  0  0  0  0
  9 41  1  0  0  0  0
 10 42  1  0  0  0  0
 11 43  1  0  0  0  0
 12 44  1  0  0  0  0
 13 45  1  0  0  0  0
 20 46  1  0  0  0  0
 20 47  1  0  0  0  0
 21 48  1  0  0  0  0
 21 49  1  0  0  0  0
 22 50  1  0  0  0  0
 22 51  1  0  0  0  0
 23 52  1  0  0  0  0
 23 53  1  0  0  0  0
 24 54  1  0  0  0  0
 24 55  1  0  0  0  0
 25 56  1  0  0  0  0
 25 57  1  0  0  0  0
 26 58  1  0  0  0  0
 31 59  1  0  0  0  0
M  END
> <clash_score>
0

> <docking_score>
-10.33460521697998

> <overlap_score>
0.9440480470657349

$$$$
BENZO_176_2
  -OEChem-08232013483D

 56 60  0     1  0  0  0  0  0999 V2000
    4.0980    2.1130   19.5350 C   0  0  0  0  0  0  0  0  0  0  0  0
    4.2970    1.6690   20.8430 C   0  0  0  0  0  0  0  0  0  0  0  0
    8.3510   -1.5420   24.6110 C   0  0  0  0  0  0  0  0  0  0  0  0
   10.2760   -2.3270   23.4020 C   0  0  0  0  0  0  0  0  0  0  0  0
    4.9400    1.7060   18.5060 C   0  0  0  0  0  0  0  0  0  0  0  0
    5.3360    0.8000   21.1530 C   0  0  0  0  0  0  0  0  0  0  0  0
    8.3310   -2.7170   25.3430 C   0  0  0  0  0  0  0  0  0  0  0  0
   10.2570   -3.5000   24.1350 C   0  0  0  0  0  0  0  0  0  0  0  0
   11.9711    2.6536   22.0835 C   0  0  0  0  0  0  0  0  0  0  0  0
   11.9493    4.0182   22.2699 C   0  0  0  0  0  0  0  0  0  0  0  0
   10.5124    2.8426   23.8831 C   0  0  0  0  0  0  0  0  0  0  0  0
    9.3300   -1.3350   23.6390 C   0  0  0  0  0  0  0  0  0  0  0  0
   11.1386    1.9724   23.0179 C   0  0  0  0  0  0  0  0  0  0  0  0
    5.9810    0.8330   18.8060 C   0  0  0  0  0  0  0  0  0  0  0  0
    6.1600    0.3870   20.1140 C   0  0  0  0  0  0  0  0  0  0  0  0
    9.2850   -3.7090   25.1090 C   0  0  0  0  0  0  0  0  0  0  0  0
    8.9510    0.1280   21.6880 C   0  0  0  0  0  0  0  0  0  0  0  0
    7.3211   -6.8875   26.5227 C   0  0  0  0  0  0  0  0  0  0  0  0
    7.3523   -5.5278   27.2244 C   0  0  0  0  0  0  0  0  0  0  0  0
    7.9422   -6.8107   25.1261 C   0  0  0  0  0  0  0  0  0  0  0  0
    8.7641   -4.9418   27.2163 C   0  0  0  0  0  0  0  0  0  0  0  0
    9.3411   -6.1879   25.1670 C   0  0  0  0  0  0  0  0  0  0  0  0
   10.9652    0.4722   23.0544 C   0  0  0  0  0  0  0  0  0  0  0  0
    9.4200   -0.0840   22.9530 C   0  0  2  0  0  0  0  0  0  0  0  0
    6.9440    0.2550   18.0100 N   0  0  0  0  0  0  0  0  0  0  0  0
    7.6830   -0.5170   18.7600 N   0  0  0  0  0  0  0  0  0  0  0  0
    7.2210   -0.4620   20.0350 N   0  0  0  0  0  0  0  0  0  0  0  0
    9.2641   -4.8861   25.8398 N   0  0  0  0  0  0  0  0  0  0  0  0
    8.0810   -0.9750   21.0820 N   0  0  0  0  0  0  0  0  0  0  0  0
    9.1870    1.1500   21.0630 O   0  0  0  0  0  0  0  0  0  0  0  0
   10.9284    4.4733   23.5672 S   0  0  0  0  0  0  0  0  0  0  0  0
    3.2714    2.7876   19.3199 H   0  0  0  0  0  0  0  0  0  0  0  0
    3.6283    2.0091   21.6296 H   0  0  0  0  0  0  0  0  0  0  0  0
    7.5957   -0.7779   24.7973 H   0  0  0  0  0  0  0  0  0  0  0  0
   11.0384   -2.1852   22.6338 H   0  0  0  0  0  0  0  0  0  0  0  0
    4.7824    2.0670   17.4883 H   0  0  0  0  0  0  0  0  0  0  0  0
    5.4937    0.4574   22.1805 H   0  0  0  0  0  0  0  0  0  0  0  0
    7.5634   -2.8637   26.1037 H   0  0  0  0  0  0  0  0  0  0  0  0
   11.0139   -4.2645   23.9419 H   0  0  0  0  0  0  0  0  0  0  0  0
   12.5581    2.1709   21.3123 H   0  0  0  0  0  0  0  0  0  0  0  0
   12.4846    4.7697   21.7069 H   0  0  0  0  0  0  0  0  0  0  0  0
    9.8309    2.6028   24.6876 H   0  0  0  0  0  0  0  0  0  0  0  0
    7.8644   -7.6283   27.1289 H   0  0  0  0  0  0  0  0  0  0  0  0
    6.2830   -7.2423   26.4478 H   0  0  0  0  0  0  0  0  0  0  0  0
    6.6663   -4.8405   26.7221 H   0  0  0  0  0  0  0  0  0  0  0  0
    7.0062   -5.6400   28.2540 H   0  0  0  0  0  0  0  0  0  0  0  0
    8.0018   -7.8160   24.6962 H   0  0  0  0  0  0  0  0  0  0  0  0
    7.2963   -6.2182   24.4678 H   0  0  0  0  0  0  0  0  0  0  0  0
    8.7322   -3.9404   27.6532 H   0  0  0  0  0  0  0  0  0  0  0  0
    9.4260   -5.5610   27.8283 H   0  0  0  0  0  0  0  0  0  0  0  0
   10.0249   -6.8474   25.7028 H   0  0  0  0  0  0  0  0  0  0  0  0
    9.7015   -6.0700   24.1446 H   0  0  0  0  0  0  0  0  0  0  0  0
   11.5818    0.0409   22.2535 H   0  0  0  0  0  0  0  0  0  0  0  0
   11.3901    0.0742   23.9855 H   0  0  0  0  0  0  0  0  0  0  0  0
    8.9113    0.7342   23.6444 H   0  0  0  0  0  0  0  0  0  0  0  0
    8.1256   -1.8039   21.3539 H   0  0  0  0  0  0  0  0  0  0  0  0
  1  2  1  0  0  0  0
  1  5  2  0  0  0  0
  2  6  2  0  0  0  0
  3  7  2  0  0  0  0
  3 12  1  0  0  0  0
  4  8  1  0  0  0  0
  4 12  2  0  0  0  0
  5 14  1  0  0  0  0
  6 15  1  0  0  0  0
  7 16  1  0  0  0  0
  8 16  2  0  0  0  0
  9 10  2  0  0  0  0
  9 13  1  0  0  0  0
 10 31  1  0  0  0  0
 11 13  2  0  0  0  0
 11 31  1  0  0  0  0
 12 24  1  0  0  0  0
 13 23  1  0  0  0  0
 14 15  2  0  0  0  0
 14 25  1  0  0  0  0
 15 27  1  0  0  0  0
 16 28  1  0  0  0  0
 17 24  1  6  0  0  0
 17 29  1  0  0  0  0
 17 30  2  0  0  0  0
 18 19  1  0  0  0  0
 18 20  1  0  0  0  0
 19 21  1  0  0  0  0
 20 22  1  0  0  0  0
 21 28  1  0  0  0  0
 22 28  1  0  0  0  0
 23 24  1  0  0  0  0
 25 26  2  0  0  0  0
 26 27  1  0  0  0  0
 27 29  1  0  0  0  0
  1 32  1  0  0  0  0
  2 33  1  0  0  0  0
  3 34  1  0  0  0  0
  4 35  1  0  0  0  0
  5 36  1  0  0  0  0
  6 37  1  0  0  0  0
  7 38  1  0  0  0  0
  8 39  1  0  0  0  0
  9 40  1  0  0  0  0
 10 41  1  0  0  0  0
 11 42  1  0  0  0  0
 18 43  1  0  0  0  0
 18 44  1  0  0  0  0
 19 45  1  0  0  0  0
 19 46  1  0  0  0  0
 20 47  1  0  0  0  0
 20 48  1  0  0  0  0
 21 49  1  0  0  0  0
 21 50  1  0  0  0  0
 22 51  1  0  0  0  0
 22 52  1  0  0  0  0
 23 53  1  0  0  0  0
 23 54  1  0  0  0  0
 24 55  1  0  0  0  0
 29 56  1  0  0  0  0
M  END
> <clash_score>
0

> <docking_score>
-9.262284278869629

> <overlap_score>
0.934128999710083

$$$$
BENZO_178_1
  -OEChem-08232013483D

 59 63  0     1  0  0  0  0  0999 V2000
    4.0980    2.1130   19.5350 C   0  0  0  0  0  0  0  0  0  0  0  0
    4.2970    1.6690   20.8430 C   0  0  0  0  0  0  0  0  0  0  0  0
   11.3400    3.9813   23.9268 C   0  0  0  0  0  0  0  0  0  0  0  0
   10.7114    2.7759   24.2387 C   0  0  0  0  0  0  0  0  0  0  0  0
    8.3510   -1.5420   24.6110 C   0  0  0  0  0  0  0  0  0  0  0  0
   10.2760   -2.3270   23.4020 C   0  0  0  0  0  0  0  0  0  0  0  0
    4.9400    1.7060   18.5060 C   0  0  0  0  0  0  0  0  0  0  0  0
    5.3360    0.8000   21.1530 C   0  0  0  0  0  0  0  0  0  0  0  0
    8.3310   -2.7170   25.3430 C   0  0  0  0  0  0  0  0  0  0  0  0
   10.2570   -3.5000   24.1350 C   0  0  0  0  0  0  0  0  0  0  0  0
   10.7872    4.8281   22.9660 C   0  0  0  0  0  0  0  0  0  0  0  0
    8.9772    3.2637   22.6289 C   0  0  0  0  0  0  0  0  0  0  0  0
    9.3300   -1.3350   23.6390 C   0  0  0  0  0  0  0  0  0  0  0  0
    9.5300    2.4170   23.5897 C   0  0  0  0  0  0  0  0  0  0  0  0
    5.9810    0.8330   18.8060 C   0  0  0  0  0  0  0  0  0  0  0  0
    6.1600    0.3870   20.1140 C   0  0  0  0  0  0  0  0  0  0  0  0
    9.2850   -3.7090   25.1090 C   0  0  0  0  0  0  0  0  0  0  0  0
    9.6058    4.4692   22.3170 C   0  0  0  0  0  0  0  0  0  0  0  0
    8.9510    0.1280   21.6880 C   0  0  0  0  0  0  0  0  0  0  0  0
    7.3211   -6.8875   26.5227 C   0  0  0  0  0  0  0  0  0  0  0  0
    7.3523   -5.5278   27.2244 C   0  0  0  0  0  0  0  0  0  0  0  0
    7.9422   -6.8107   25.1261 C   0  0  0  0  0  0  0  0  0  0  0  0
    8.7641   -4.9418   27.2163 C   0  0  0  0  0  0  0  0  0  0  0  0
    9.3411   -6.1879   25.1670 C   0  0  0  0  0  0  0  0  0  0  0  0
    8.8504    1.1108   23.9271 C   0  0  0  0  0  0  0  0  0  0  0  0
    9.4200   -0.0840   22.9530 C   0  0  1  0  0  0  0  0  0  0  0  0
    6.9440    0.2550   18.0100 N   0  0  0  0  0  0  0  0  0  0  0  0
    7.6830   -0.5170   18.7600 N   0  0  0  0  0  0  0  0  0  0  0  0
    7.2210   -0.4620   20.0350 N   0  0  0  0  0  0  0  0  0  0  0  0
    9.2641   -4.8861   25.8398 N   0  0  0  0  0  0  0  0  0  0  0  0
    8.0810   -0.9750   21.0820 N   0  0  0  0  0  0  0  0  0  0  0  0
    9.1870    1.1500   21.0630 O   0  0  0  0  0  0  0  0  0  0  0  0
    8.9248    5.5138   21.1309 Cl  0  0  0  0  0  0  0  0  0  0  0  0
    3.2714    2.7876   19.3199 H   0  0  0  0  0  0  0  0  0  0  0  0
    3.6283    2.0091   21.6296 H   0  0  0  0  0  0  0  0  0  0  0  0
   12.2600    4.2603   24.4323 H   0  0  0  0  0  0  0  0  0  0  0  0
   11.1493    2.1222   24.9886 H   0  0  0  0  0  0  0  0  0  0  0  0
    7.5957   -0.7779   24.7973 H   0  0  0  0  0  0  0  0  0  0  0  0
   11.0384   -2.1852   22.6338 H   0  0  0  0  0  0  0  0  0  0  0  0
    4.7824    2.0670   17.4883 H   0  0  0  0  0  0  0  0  0  0  0  0
    5.4937    0.4574   22.1805 H   0  0  0  0  0  0  0  0  0  0  0  0
    7.5634   -2.8637   26.1037 H   0  0  0  0  0  0  0  0  0  0  0  0
   11.0139   -4.2645   23.9419 H   0  0  0  0  0  0  0  0  0  0  0  0
   11.2882    5.7644   22.7329 H   0  0  0  0  0  0  0  0  0  0  0  0
    8.0556    2.9797   22.1261 H   0  0  0  0  0  0  0  0  0  0  0  0
    7.8644   -7.6283   27.1289 H   0  0  0  0  0  0  0  0  0  0  0  0
    6.2830   -7.2423   26.4478 H   0  0  0  0  0  0  0  0  0  0  0  0
    6.6663   -4.8405   26.7221 H   0  0  0  0  0  0  0  0  0  0  0  0
    7.0062   -5.6400   28.2540 H   0  0  0  0  0  0  0  0  0  0  0  0
    8.0018   -7.8160   24.6962 H   0  0  0  0  0  0  0  0  0  0  0  0
    7.2963   -6.2182   24.4678 H   0  0  0  0  0  0  0  0  0  0  0  0
    8.7322   -3.9404   27.6532 H   0  0  0  0  0  0  0  0  0  0  0  0
    9.4260   -5.5610   27.8283 H   0  0  0  0  0  0  0  0  0  0  0  0
   10.0249   -6.8474   25.7028 H   0  0  0  0  0  0  0  0  0  0  0  0
    9.7015   -6.0700   24.1446 H   0  0  0  0  0  0  0  0  0  0  0  0
    8.9922    0.9231   25.0006 H   0  0  0  0  0  0  0  0  0  0  0  0
    7.7650    1.2154   23.7980 H   0  0  0  0  0  0  0  0  0  0  0  0
   10.5617    0.2354   22.9523 H   0  0  0  0  0  0  0  0  0  0  0  0
    8.1256   -1.8039   21.3539 H   0  0  0  0  0  0  0  0  0  0  0  0
  1  2  1  0  0  0  0
  1  7  2  0  0  0  0
  2  8  2  0  0  0  0
  3  4  2  0  0  0  0
  3 11  1  0  0  0  0
  4 14  1  0  0  0  0
  5  9  2  0  0  0  0
  5 13  1  0  0  0  0
  6 10  1  0  0  0  0
  6 13  2  0  0  0  0
  7 15  1  0  0  0  0
  8 16  1  0  0  0  0
  9 17  1  0  0  0  0
 10 17  2  0  0  0  0
 11 18  2  0  0  0  0
 12 14  2  0  0  0  0
 12 18  1  0  0  0  0
 13 26  1  0  0  0  0
 14 25  1  0  0  0  0
 15 16  2  0  0  0  0
 15 27  1  0  0  0  0
 16 29  1  0  0  0  0
 17 30  1  0  0  0  0
 18 33  1  0  0  0  0
 19 26  1  1  0  0  0
 19 31  1  0  0  0  0
 19 32  2  0  0  0  0
 20 21  1  0  0  0  0
 20 22  1  0  0  0  0
 21 23  1  0  0  0  0
 22 24  1  0  0  0  0
 23 30  1  0  0  0  0
 24 30  1  0  0  0  0
 25 26  1  0  0  0  0
 27 28  2  0  0  0  0
 28 29  1  0  0  0  0
 29 31  1  0  0  0  0
  1 34  1  0  0  0  0
  2 35  1  0  0  0  0
  3 36  1  0  0  0  0
  4 37  1  0  0  0  0
  5 38  1  0  0  0  0
  6 39  1  0  0  0  0
  7 40  1  0  0  0  0
  8 41  1  0  0  0  0
  9 42  1  0  0  0  0
 10 43  1  0  0  0  0
 11 44  1  0  0  0  0
 12 45  1  0  0  0  0
 20 46  1  0  0  0  0
 20 47  1  0  0  0  0
 21 48  1  0  0  0  0
 21 49  1  0  0  0  0
 22 50  1  0  0  0  0
 22 51  1  0  0  0  0
 23 52  1  0  0  0  0
 23 53  1  0  0  0  0
 24 54  1  0  0  0  0
 24 55  1  0  0  0  0
 25 56  1  0  0  0  0
 25 57  1  0  0  0  0
 26 58  1  0  0  0  0
 31 59  1  0  0  0  0
M  END
> <clash_score>
0.6943726714606115

> <docking_score>
-6.20048713684082

> <overlap_score>
0.8649634718894958

$$$$
BENZO_178_2
  -OEChem-08232013483D

 59 63  0     1  0  0  0  0  0999 V2000
    4.0980    2.1130   19.5350 C   0  0  0  0  0  0  0  0  0  0  0  0
    4.2970    1.6690   20.8430 C   0  0  0  0  0  0  0  0  0  0  0  0
   10.2958    4.1874   23.4874 C   0  0  0  0  0  0  0  0  0  0  0  0
   10.1359    2.8021   23.5197 C   0  0  0  0  0  0  0  0  0  0  0  0
    8.3510   -1.5420   24.6110 C   0  0  0  0  0  0  0  0  0  0  0  0
   10.2760   -2.3270   23.4020 C   0  0  0  0  0  0  0  0  0  0  0  0
    4.9400    1.7060   18.5060 C   0  0  0  0  0  0  0  0  0  0  0  0
    5.3360    0.8000   21.1530 C   0  0  0  0  0  0  0  0  0  0  0  0
    8.3310   -2.7170   25.3430 C   0  0  0  0  0  0  0  0  0  0  0  0
   10.2570   -3.5000   24.1350 C   0  0  0  0  0  0  0  0  0  0  0  0
   11.4583    4.7430   22.9531 C   0  0  0  0  0  0  0  0  0  0  0  0
   12.3012    2.5280   22.4836 C   0  0  0  0  0  0  0  0  0  0  0  0
    9.3300   -1.3350   23.6390 C   0  0  0  0  0  0  0  0  0  0  0  0
   11.1386    1.9724   23.0179 C   0  0  0  0  0  0  0  0  0  0  0  0
    5.9810    0.8330   18.8060 C   0  0  0  0  0  0  0  0  0  0  0  0
    6.1600    0.3870   20.1140 C   0  0  0  0  0  0  0  0  0  0  0  0
    9.2850   -3.7090   25.1090 C   0  0  0  0  0  0  0  0  0  0  0  0
   12.4610    3.9133   22.4513 C   0  0  0  0  0  0  0  0  0  0  0  0
    8.9510    0.1280   21.6880 C   0  0  0  0  0  0  0  0  0  0  0  0
    7.3211   -6.8875   26.5227 C   0  0  0  0  0  0  0  0  0  0  0  0
    7.3523   -5.5278   27.2244 C   0  0  0  0  0  0  0  0  0  0  0  0
    7.9422   -6.8107   25.1261 C   0  0  0  0  0  0  0  0  0  0  0  0
    8.7641   -4.9418   27.2163 C   0  0  0  0  0  0  0  0  0  0  0  0
    9.3411   -6.1879   25.1670 C   0  0  0  0  0  0  0  0  0  0  0  0
   10.9652    0.4722   23.0544 C   0  0  0  0  0  0  0  0  0  0  0  0
    9.4200   -0.0840   22.9530 C   0  0  2  0  0  0  0  0  0  0  0  0
    6.9440    0.2550   18.0100 N   0  0  0  0  0  0  0  0  0  0  0  0
    7.6830   -0.5170   18.7600 N   0  0  0  0  0  0  0  0  0  0  0  0
    7.2210   -0.4620   20.0350 N   0  0  0  0  0  0  0  0  0  0  0  0
    9.2641   -4.8861   25.8398 N   0  0  0  0  0  0  0  0  0  0  0  0
    8.0810   -0.9750   21.0820 N   0  0  0  0  0  0  0  0  0  0  0  0
    9.1870    1.1500   21.0630 O   0  0  0  0  0  0  0  0  0  0  0  0
   13.8956    4.5993   21.7932 Cl  0  0  0  0  0  0  0  0  0  0  0  0
    3.2714    2.7876   19.3199 H   0  0  0  0  0  0  0  0  0  0  0  0
    3.6283    2.0091   21.6296 H   0  0  0  0  0  0  0  0  0  0  0  0
    9.5148    4.8331   23.8784 H   0  0  0  0  0  0  0  0  0  0  0  0
    9.2268    2.3779   23.9380 H   0  0  0  0  0  0  0  0  0  0  0  0
    7.5957   -0.7779   24.7973 H   0  0  0  0  0  0  0  0  0  0  0  0
   11.0384   -2.1852   22.6338 H   0  0  0  0  0  0  0  0  0  0  0  0
    4.7824    2.0670   17.4883 H   0  0  0  0  0  0  0  0  0  0  0  0
    5.4937    0.4574   22.1805 H   0  0  0  0  0  0  0  0  0  0  0  0
    7.5634   -2.8637   26.1037 H   0  0  0  0  0  0  0  0  0  0  0  0
   11.0139   -4.2645   23.9419 H   0  0  0  0  0  0  0  0  0  0  0  0
   11.5694    5.8244   22.9347 H   0  0  0  0  0  0  0  0  0  0  0  0
   13.0798    1.8768   22.0931 H   0  0  0  0  0  0  0  0  0  0  0  0
    7.8644   -7.6283   27.1289 H   0  0  0  0  0  0  0  0  0  0  0  0
    6.2830   -7.2423   26.4478 H   0  0  0  0  0  0  0  0  0  0  0  0
    6.6663   -4.8405   26.7221 H   0  0  0  0  0  0  0  0  0  0  0  0
    7.0062   -5.6400   28.2540 H   0  0  0  0  0  0  0  0  0  0  0  0
    8.0018   -7.8160   24.6962 H   0  0  0  0  0  0  0  0  0  0  0  0
    7.2963   -6.2182   24.4678 H   0  0  0  0  0  0  0  0  0  0  0  0
    8.7322   -3.9404   27.6532 H   0  0  0  0  0  0  0  0  0  0  0  0
    9.4260   -5.5610   27.8283 H   0  0  0  0  0  0  0  0  0  0  0  0
   10.0249   -6.8474   25.7028 H   0  0  0  0  0  0  0  0  0  0  0  0
    9.7015   -6.0700   24.1446 H   0  0  0  0  0  0  0  0  0  0  0  0
   11.5818    0.0409   22.2535 H   0  0  0  0  0  0  0  0  0  0  0  0
   11.3901    0.0742   23.9855 H   0  0  0  0  0  0  0  0  0  0  0  0
    8.9113    0.7342   23.6444 H   0  0  0  0  0  0  0  0  0  0  0  0
    8.1256   -1.8039   21.3539 H   0  0  0  0  0  0  0  0  0  0  0  0
  1  2  1  0  0  0  0
  1  7  2  0  0  0  0
  2  8  2  0  0  0  0
  3  4  2  0  0  0  0
  3 11  1  0  0  0  0
  4 14  1  0  0  0  0
  5  9  2  0  0  0  0
  5 13  1  0  0  0  0
  6 10  1  0  0  0  0
  6 13  2  0  0  0  0
  7 15  1  0  0  0  0
  8 16  1  0  0  0  0
  9 17  1  0  0  0  0
 10 17  2  0  0  0  0
 11 18  2  0  0  0  0
 12 14  2  0  0  0  0
 12 18  1  0  0  0  0
 13 26  1  0  0  0  0
 14 25  1  0  0  0  0
 15 16  2  0  0  0  0
 15 27  1  0  0  0  0
 16 29  1  0  0  0  0
 17 30  1  0  0  0  0
 18 33  1  0  0  0  0
 19 26  1  6  0  0  0
 19 31  1  0  0  0  0
 19 32  2  0  0  0  0
 20 21  1  0  0  0  0
 20 22  1  0  0  0  0
 21 23  1  0  0  0  0
 22 24  1  0  0  0  0
 23 30  1  0  0  0  0
 24 30  1  0  0  0  0
 25 26  1  0  0  0  0
 27 28  2  0  0  0  0
 28 29  1  0  0  0  0
 29 31  1  0  0  0  0
  1 34  1  0  0  0  0
  2 35  1  0  0  0  0
  3 36  1  0  0  0  0
  4 37  1  0  0  0  0
  5 38  1  0  0  0  0
  6 39  1  0  0  0  0
  7 40  1  0  0  0  0
  8 41  1  0  0  0  0
  9 42  1  0  0  0  0
 10 43  1  0  0  0  0
 11 44  1  0  0  0  0
 12 45  1  0  0  0  0
 20 46  1  0  0  0  0
 20 47  1  0  0  0  0
 21 48  1  0  0  0  0
 21 49  1  0  0  0  0
 22 50  1  0  0  0  0
 22 51  1  0  0  0  0
 23 52  1  0  0  0  0
 23 53  1  0  0  0  0
 24 54  1  0  0  0  0
 24 55  1  0  0  0  0
 25 56  1  0  0  0  0
 25 57  1  0  0  0  0
 26 58  1  0  0  0  0
 31 59  1  0  0  0  0
M  END
> <clash_score>
0

> <docking_score>
-10.686345100402832

> <overlap_score>
0.9445412158966064

$$$$
BENZO_180_1
  -OEChem-08232013483D

 44 47  0     1  0  0  0  0  0999 V2000
    4.0980    2.1130   19.5350 C   0  0  0  0  0  0  0  0  0  0  0  0
    4.2970    1.6690   20.8430 C   0  0  0  0  0  0  0  0  0  0  0  0
    8.3310   -2.7170   25.3430 C   0  0  0  0  0  0  0  0  0  0  0  0
   10.2570   -3.5000   24.1350 C   0  0  0  0  0  0  0  0  0  0  0  0
    8.3510   -1.5420   24.6110 C   0  0  0  0  0  0  0  0  0  0  0  0
   10.2760   -2.3270   23.4020 C   0  0  0  0  0  0  0  0  0  0  0  0
    4.9400    1.7060   18.5060 C   0  0  0  0  0  0  0  0  0  0  0  0
    5.3360    0.8000   21.1530 C   0  0  0  0  0  0  0  0  0  0  0  0
   11.9859    2.6451   22.1146 C   0  0  0  0  0  0  0  0  0  0  0  0
   11.9778    4.0073   22.3192 C   0  0  0  0  0  0  0  0  0  0  0  0
   10.5383    2.8236   23.9243 C   0  0  0  0  0  0  0  0  0  0  0  0
    9.2850   -3.7090   25.1090 C   0  0  0  0  0  0  0  0  0  0  0  0
    9.3300   -1.3350   23.6390 C   0  0  0  0  0  0  0  0  0  0  0  0
   11.1519    1.9593   23.0443 C   0  0  0  0  0  0  0  0  0  0  0  0
    5.9810    0.8330   18.8060 C   0  0  0  0  0  0  0  0  0  0  0  0
    6.1600    0.3870   20.1140 C   0  0  0  0  0  0  0  0  0  0  0  0
    8.9510    0.1280   21.6880 C   0  0  0  0  0  0  0  0  0  0  0  0
    9.2618   -4.9724   25.8910 C   0  0  0  0  0  0  0  0  0  0  0  0
   10.9648    0.4604   23.0619 C   0  0  0  0  0  0  0  0  0  0  0  0
    9.4200   -0.0840   22.9530 C   0  0  1  0  0  0  0  0  0  0  0  0
    6.9440    0.2550   18.0100 N   0  0  0  0  0  0  0  0  0  0  0  0
    7.6830   -0.5170   18.7600 N   0  0  0  0  0  0  0  0  0  0  0  0
    7.2210   -0.4620   20.0350 N   0  0  0  0  0  0  0  0  0  0  0  0
    8.0810   -0.9750   21.0820 N   0  0  0  0  0  0  0  0  0  0  0  0
    9.1870    1.1500   21.0630 O   0  0  0  0  0  0  0  0  0  0  0  0
   10.9679    4.4545   23.6278 S   0  0  0  0  0  0  0  0  0  0  0  0
    3.2714    2.7876   19.3199 H   0  0  0  0  0  0  0  0  0  0  0  0
    3.6283    2.0091   21.6296 H   0  0  0  0  0  0  0  0  0  0  0  0
    7.5655   -2.8644   26.1055 H   0  0  0  0  0  0  0  0  0  0  0  0
   11.0125   -4.2662   23.9435 H   0  0  0  0  0  0  0  0  0  0  0  0
    7.5953   -0.7782   24.7971 H   0  0  0  0  0  0  0  0  0  0  0  0
   11.0394   -2.1837   22.6349 H   0  0  0  0  0  0  0  0  0  0  0  0
    4.7824    2.0670   17.4883 H   0  0  0  0  0  0  0  0  0  0  0  0
    5.4937    0.4574   22.1805 H   0  0  0  0  0  0  0  0  0  0  0  0
   12.5644    2.1673   21.3341 H   0  0  0  0  0  0  0  0  0  0  0  0
   12.5171    4.7612   21.7633 H   0  0  0  0  0  0  0  0  0  0  0  0
    9.8588    2.5795   24.7291 H   0  0  0  0  0  0  0  0  0  0  0  0
    8.6408   -5.7227   25.3864 H   0  0  0  0  0  0  0  0  0  0  0  0
   10.2726   -5.3829   26.0135 H   0  0  0  0  0  0  0  0  0  0  0  0
    8.8606   -4.8102   26.9000 H   0  0  0  0  0  0  0  0  0  0  0  0
   11.5732    0.0341   22.2521 H   0  0  0  0  0  0  0  0  0  0  0  0
   11.3908    0.0462   23.9854 H   0  0  0  0  0  0  0  0  0  0  0  0
    8.9107    0.7231   23.6509 H   0  0  0  0  0  0  0  0  0  0  0  0
    8.1479   -1.8049   21.3777 H   0  0  0  0  0  0  0  0  0  0  0  0
  1  2  1  0  0  0  0
  1  7  2  0  0  0  0
  2  8  2  0  0  0  0
  3  5  2  0  0  0  0
  3 12  1  0  0  0  0
  4  6  1  0  0  0  0
  4 12  2  0  0  0  0
  5 13  1  0  0  0  0
  6 13  2  0  0  0  0
  7 15  1  0  0  0  0
  8 16  1  0  0  0  0
  9 10  2  0  0  0  0
  9 14  1  0  0  0  0
 10 26  1  0  0  0  0
 11 14  2  0  0  0  0
 11 26  1  0  0  0  0
 12 18  1  0  0  0  0
 13 20  1  0  0  0  0
 14 19  1  0  0  0  0
 15 16  2  0  0  0  0
 15 21  1  0  0  0  0
 16 23  1  0  0  0  0
 17 20  1  0  0  0  0
 17 24  1  0  0  0  0
 17 25  2  0  0  0  0
 19 20  1  1  0  0  0
 21 22  2  0  0  0  0
 22 23  1  0  0  0  0
 23 24  1  0  0  0  0
  1 27  1  0  0  0  0
  2 28  1  0  0  0  0
  3 29  1  0  0  0  0
  4 30  1  0  0  0  0
  5 31  1  0  0  0  0
  6 32  1  0  0  0  0
  7 33  1  0  0  0  0
  8 34  1  0  0  0  0
  9 35  1  0  0  0  0
 10 36  1  0  0  0  0
 11 37  1  0  0  0  0
 18 38  1  0  0  0  0
 18 39  1  0  0  0  0
 18 40  1  0  0  0  0
 19 41  1  0  0  0  0
 19 42  1  0  0  0  0
 20 43  1  0  0  0  0
 24 44  1  0  0  0  0
M  END
> <clash_score>
0

> <docking_score>
-10.29210376739502

> <overlap_score>
0.8909391760826111

$$$$
BENZO_181_1
  -OEChem-08232013483D

 47 50  0     1  0  0  0  0  0999 V2000
   11.4961    4.7275   23.0120 C   0  0  0  0  0  0  0  0  0  0  0  0
   12.4919    3.8950   22.5015 C   0  0  0  0  0  0  0  0  0  0  0  0
   10.3281    4.1760   23.5388 C   0  0  0  0  0  0  0  0  0  0  0  0
    4.0980    2.1130   19.5350 C   0  0  0  0  0  0  0  0  0  0  0  0
    4.2970    1.6690   20.8430 C   0  0  0  0  0  0  0  0  0  0  0  0
   12.3199    2.5108   22.5177 C   0  0  0  0  0  0  0  0  0  0  0  0
   10.1560    2.7919   23.5549 C   0  0  0  0  0  0  0  0  0  0  0  0
    8.3310   -2.7170   25.3430 C   0  0  0  0  0  0  0  0  0  0  0  0
   10.2570   -3.5000   24.1350 C   0  0  0  0  0  0  0  0  0  0  0  0
    8.3510   -1.5420   24.6110 C   0  0  0  0  0  0  0  0  0  0  0  0
   10.2760   -2.3270   23.4020 C   0  0  0  0  0  0  0  0  0  0  0  0
    4.9400    1.7060   18.5060 C   0  0  0  0  0  0  0  0  0  0  0  0
    5.3360    0.8000   21.1530 C   0  0  0  0  0  0  0  0  0  0  0  0
    9.2850   -3.7090   25.1090 C   0  0  0  0  0  0  0  0  0  0  0  0
   11.1519    1.9593   23.0443 C   0  0  0  0  0  0  0  0  0  0  0  0
    9.3300   -1.3350   23.6390 C   0  0  0  0  0  0  0  0  0  0  0  0
    5.9810    0.8330   18.8060 C   0  0  0  0  0  0  0  0  0  0  0  0
    6.1600    0.3870   20.1140 C   0  0  0  0  0  0  0  0  0  0  0  0
    8.9510    0.1280   21.6880 C   0  0  0  0  0  0  0  0  0  0  0  0
    9.2618   -4.9724   25.8910 C   0  0  0  0  0  0  0  0  0  0  0  0
   10.9648    0.4604   23.0619 C   0  0  0  0  0  0  0  0  0  0  0  0
    9.4200   -0.0840   22.9530 C   0  0  1  0  0  0  0  0  0  0  0  0
    6.9440    0.2550   18.0100 N   0  0  0  0  0  0  0  0  0  0  0  0
    7.6830   -0.5170   18.7600 N   0  0  0  0  0  0  0  0  0  0  0  0
    7.2210   -0.4620   20.0350 N   0  0  0  0  0  0  0  0  0  0  0  0
    8.0810   -0.9750   21.0820 N   0  0  0  0  0  0  0  0  0  0  0  0
    9.1870    1.1500   21.0630 O   0  0  0  0  0  0  0  0  0  0  0  0
   11.6308    5.8052   23.0007 H   0  0  0  0  0  0  0  0  0  0  0  0
   13.4019    4.3242   22.0924 H   0  0  0  0  0  0  0  0  0  0  0  0
    9.5530    4.8238   23.9374 H   0  0  0  0  0  0  0  0  0  0  0  0
    3.2714    2.7876   19.3199 H   0  0  0  0  0  0  0  0  0  0  0  0
    3.6283    2.0091   21.6296 H   0  0  0  0  0  0  0  0  0  0  0  0
   13.1011    1.8699   22.1175 H   0  0  0  0  0  0  0  0  0  0  0  0
    9.2427    2.3711   23.9671 H   0  0  0  0  0  0  0  0  0  0  0  0
    7.5655   -2.8644   26.1055 H   0  0  0  0  0  0  0  0  0  0  0  0
   11.0125   -4.2662   23.9435 H   0  0  0  0  0  0  0  0  0  0  0  0
    7.5953   -0.7782   24.7971 H   0  0  0  0  0  0  0  0  0  0  0  0
   11.0394   -2.1837   22.6349 H   0  0  0  0  0  0  0  0  0  0  0  0
    4.7824    2.0670   17.4883 H   0  0  0  0  0  0  0  0  0  0  0  0
    5.4937    0.4574   22.1805 H   0  0  0  0  0  0  0  0  0  0  0  0
    8.6408   -5.7227   25.3864 H   0  0  0  0  0  0  0  0  0  0  0  0
   10.2726   -5.3829   26.0135 H   0  0  0  0  0  0  0  0  0  0  0  0
    8.8606   -4.8102   26.9000 H   0  0  0  0  0  0  0  0  0  0  0  0
   11.5732    0.0341   22.2521 H   0  0  0  0  0  0  0  0  0  0  0  0
   11.3908    0.0462   23.9854 H   0  0  0  0  0  0  0  0  0  0  0  0
    8.9107    0.7231   23.6509 H   0  0  0  0  0  0  0  0  0  0  0  0
    8.1479   -1.8049   21.3777 H   0  0  0  0  0  0  0  0  0  0  0  0
  1  2  1  0  0  0  0
  1  3  2  0  0  0  0
  2  6  2  0  0  0  0
  3  7  1  0  0  0  0
  4  5  1  0  0  0  0
  4 12  2  0  0  0  0
  5 13  2  0  0  0  0
  6 15  1  0  0  0  0
  7 15  2  0  0  0  0
  8 10  2  0  0  0  0
  8 14  1  0  0  0  0
  9 11  1  0  0  0  0
  9 14  2  0  0  0  0
 10 16  1  0  0  0  0
 11 16  2  0  0  0  0
 12 17  1  0  0  0  0
 13 18  1  0  0  0  0
 14 20  1  0  0  0  0
 15 21  1  0  0  0  0
 16 22  1  0  0  0  0
 17 18  2  0  0  0  0
 17 23  1  0  0  0  0
 18 25  1  0  0  0  0
 19 22  1  0  0  0  0
 19 26  1  0  0  0  0
 19 27  2  0  0  0  0
 21 22  1  1  0  0  0
 23 24  2  0  0  0  0
 24 25  1  0  0  0  0
 25 26  1  0  0  0  0
  1 28  1  0  0  0  0
  2 29  1  0  0  0  0
  3 30  1  0  0  0  0
  4 31  1  0  0  0  0
  5 32  1  0  0  0  0
  6 33  1  0  0  0  0
  7 34  1  0  0  0  0
  8 35  1  0  0  0  0
  9 36  1  0  0  0  0
 10 37  1  0  0  0  0
 11 38  1  0  0  0  0
 12 39  1  0  0  0  0
 13 40  1  0  0  0  0
 20 41  1  0  0  0  0
 20 42  1  0  0  0  0
 20 43  1  0  0  0  0
 21 44  1  0  0  0  0
 21 45  1  0  0  0  0
 22 46  1  0  0  0  0
 26 47  1  0  0  0  0
M  END
> <clash_score>
0

> <docking_score>
-11.468825340270996

> <overlap_score>
0.9011747241020203

$$$$
BENZO_181_2
  -OEChem-08232013483D

 47 50  0     1  0  0  0  0  0999 V2000
   10.7871    4.8449   23.0864 C   0  0  0  0  0  0  0  0  0  0  0  0
    9.4814    4.8291   23.5768 C   0  0  0  0  0  0  0  0  0  0  0  0
   11.4667    3.6455   22.8734 C   0  0  0  0  0  0  0  0  0  0  0  0
    4.0980    2.1130   19.5350 C   0  0  0  0  0  0  0  0  0  0  0  0
    4.2970    1.6690   20.8430 C   0  0  0  0  0  0  0  0  0  0  0  0
    8.8554    3.6139   23.8543 C   0  0  0  0  0  0  0  0  0  0  0  0
   10.8407    2.4304   23.1510 C   0  0  0  0  0  0  0  0  0  0  0  0
    8.3310   -2.7170   25.3430 C   0  0  0  0  0  0  0  0  0  0  0  0
   10.2570   -3.5000   24.1350 C   0  0  0  0  0  0  0  0  0  0  0  0
    8.3510   -1.5420   24.6110 C   0  0  0  0  0  0  0  0  0  0  0  0
   10.2760   -2.3270   23.4020 C   0  0  0  0  0  0  0  0  0  0  0  0
    4.9400    1.7060   18.5060 C   0  0  0  0  0  0  0  0  0  0  0  0
    5.3360    0.8000   21.1530 C   0  0  0  0  0  0  0  0  0  0  0  0
    9.2850   -3.7090   25.1090 C   0  0  0  0  0  0  0  0  0  0  0  0
    9.5350    2.4145   23.6414 C   0  0  0  0  0  0  0  0  0  0  0  0
    9.3300   -1.3350   23.6390 C   0  0  0  0  0  0  0  0  0  0  0  0
    5.9810    0.8330   18.8060 C   0  0  0  0  0  0  0  0  0  0  0  0
    6.1600    0.3870   20.1140 C   0  0  0  0  0  0  0  0  0  0  0  0
    8.9510    0.1280   21.6880 C   0  0  0  0  0  0  0  0  0  0  0  0
    9.2618   -4.9724   25.8910 C   0  0  0  0  0  0  0  0  0  0  0  0
    8.8577    1.0982   23.9421 C   0  0  0  0  0  0  0  0  0  0  0  0
    9.4200   -0.0840   22.9530 C   0  0  2  0  0  0  0  0  0  0  0  0
    6.9440    0.2550   18.0100 N   0  0  0  0  0  0  0  0  0  0  0  0
    7.6830   -0.5170   18.7600 N   0  0  0  0  0  0  0  0  0  0  0  0
    7.2210   -0.4620   20.0350 N   0  0  0  0  0  0  0  0  0  0  0  0
    8.0810   -0.9750   21.0820 N   0  0  0  0  0  0  0  0  0  0  0  0
    9.1870    1.1500   21.0630 O   0  0  0  0  0  0  0  0  0  0  0  0
   11.2739    5.7911   22.8690 H   0  0  0  0  0  0  0  0  0  0  0  0
    8.9517    5.7628   23.7416 H   0  0  0  0  0  0  0  0  0  0  0  0
   12.4829    3.6575   22.4905 H   0  0  0  0  0  0  0  0  0  0  0  0
    3.2714    2.7876   19.3199 H   0  0  0  0  0  0  0  0  0  0  0  0
    3.6283    2.0091   21.6296 H   0  0  0  0  0  0  0  0  0  0  0  0
    7.8379    3.6112   24.2364 H   0  0  0  0  0  0  0  0  0  0  0  0
   11.3780    1.5009   22.9821 H   0  0  0  0  0  0  0  0  0  0  0  0
    7.5655   -2.8644   26.1055 H   0  0  0  0  0  0  0  0  0  0  0  0
   11.0125   -4.2662   23.9435 H   0  0  0  0  0  0  0  0  0  0  0  0
    7.5953   -0.7782   24.7971 H   0  0  0  0  0  0  0  0  0  0  0  0
   11.0394   -2.1837   22.6349 H   0  0  0  0  0  0  0  0  0  0  0  0
    4.7824    2.0670   17.4883 H   0  0  0  0  0  0  0  0  0  0  0  0
    5.4937    0.4574   22.1805 H   0  0  0  0  0  0  0  0  0  0  0  0
    8.6408   -5.7227   25.3864 H   0  0  0  0  0  0  0  0  0  0  0  0
   10.2726   -5.3829   26.0135 H   0  0  0  0  0  0  0  0  0  0  0  0
    8.8606   -4.8102   26.9000 H   0  0  0  0  0  0  0  0  0  0  0  0
    8.9995    0.8809   25.0099 H   0  0  0  0  0  0  0  0  0  0  0  0
    7.7720    1.2044   23.8156 H   0  0  0  0  0  0  0  0  0  0  0  0
   10.5616    0.2233   22.9565 H   0  0  0  0  0  0  0  0  0  0  0  0
    8.1479   -1.8049   21.3777 H   0  0  0  0  0  0  0  0  0  0  0  0
  1  2  1  0  0  0  0
  1  3  2  0  0  0  0
  2  6  2  0  0  0  0
  3  7  1  0  0  0  0
  4  5  1  0  0  0  0
  4 12  2  0  0  0  0
  5 13  2  0  0  0  0
  6 15  1  0  0  0  0
  7 15  2  0  0  0  0
  8 10  2  0  0  0  0
  8 14  1  0  0  0  0
  9 11  1  0  0  0  0
  9 14  2  0  0  0  0
 10 16  1  0  0  0  0
 11 16  2  0  0  0  0
 12 17  1  0  0  0  0
 13 18  1  0  0  0  0
 14 20  1  0  0  0  0
 15 21  1  0  0  0  0
 16 22  1  0  0  0  0
 17 18  2  0  0  0  0
 17 23  1  0  0  0  0
 18 25  1  0  0  0  0
 19 22  1  0  0  0  0
 19 26  1  0  0  0  0
 19 27  2  0  0  0  0
 21 22  1  6  0  0  0
 23 24  2  0  0  0  0
 24 25  1  0  0  0  0
 25 26  1  0  0  0  0
  1 28  1  0  0  0  0
  2 29  1  0  0  0  0
  3 30  1  0  0  0  0
  4 31  1  0  0  0  0
  5 32  1  0  0  0  0
  6 33  1  0  0  0  0
  7 34  1  0  0  0  0
  8 35  1  0  0  0  0
  9 36  1  0  0  0  0
 10 37  1  0  0  0  0
 11 38  1  0  0  0  0
 12 39  1  0  0  0  0
 13 40  1  0  0  0  0
 20 41  1  0  0  0  0
 20 42  1  0  0  0  0
 20 43  1  0  0  0  0
 21 44  1  0  0  0  0
 21 45  1  0  0  0  0
 22 46  1  0  0  0  0
 26 47  1  0  0  0  0
M  END
> <clash_score>
0

> <docking_score>
-10.031203269958496

> <overlap_score>
0.8391151428222656

$$$$
BENZO_180_2
  -OEChem-08232013483D

 44 47  0     1  0  0  0  0  0999 V2000
    4.0980    2.1130   19.5350 C   0  0  0  0  0  0  0  0  0  0  0  0
    4.2970    1.6690   20.8430 C   0  0  0  0  0  0  0  0  0  0  0  0
    8.3310   -2.7170   25.3430 C   0  0  0  0  0  0  0  0  0  0  0  0
   10.2570   -3.5000   24.1350 C   0  0  0  0  0  0  0  0  0  0  0  0
    8.3510   -1.5420   24.6110 C   0  0  0  0  0  0  0  0  0  0  0  0
   10.2760   -2.3270   23.4020 C   0  0  0  0  0  0  0  0  0  0  0  0
    4.9400    1.7060   18.5060 C   0  0  0  0  0  0  0  0  0  0  0  0
    5.3360    0.8000   21.1530 C   0  0  0  0  0  0  0  0  0  0  0  0
   10.8949    2.5334   23.2333 C   0  0  0  0  0  0  0  0  0  0  0  0
   11.2600    3.8453   23.0253 C   0  0  0  0  0  0  0  0  0  0  0  0
    8.9125    3.6403   23.7301 C   0  0  0  0  0  0  0  0  0  0  0  0
    9.2850   -3.7090   25.1090 C   0  0  0  0  0  0  0  0  0  0  0  0
    9.3300   -1.3350   23.6390 C   0  0  0  0  0  0  0  0  0  0  0  0
    9.5350    2.4145   23.6414 C   0  0  0  0  0  0  0  0  0  0  0  0
    5.9810    0.8330   18.8060 C   0  0  0  0  0  0  0  0  0  0  0  0
    6.1600    0.3870   20.1140 C   0  0  0  0  0  0  0  0  0  0  0  0
    8.9510    0.1280   21.6880 C   0  0  0  0  0  0  0  0  0  0  0  0
    9.2618   -4.9724   25.8910 C   0  0  0  0  0  0  0  0  0  0  0  0
    8.8577    1.0982   23.9421 C   0  0  0  0  0  0  0  0  0  0  0  0
    9.4200   -0.0840   22.9530 C   0  0  2  0  0  0  0  0  0  0  0  0
    6.9440    0.2550   18.0100 N   0  0  0  0  0  0  0  0  0  0  0  0
    7.6830   -0.5170   18.7600 N   0  0  0  0  0  0  0  0  0  0  0  0
    7.2210   -0.4620   20.0350 N   0  0  0  0  0  0  0  0  0  0  0  0
    8.0810   -0.9750   21.0820 N   0  0  0  0  0  0  0  0  0  0  0  0
    9.1870    1.1500   21.0630 O   0  0  0  0  0  0  0  0  0  0  0  0
    9.9661    4.9270   23.3220 S   0  0  0  0  0  0  0  0  0  0  0  0
    3.2714    2.7876   19.3199 H   0  0  0  0  0  0  0  0  0  0  0  0
    3.6283    2.0091   21.6296 H   0  0  0  0  0  0  0  0  0  0  0  0
    7.5655   -2.8644   26.1055 H   0  0  0  0  0  0  0  0  0  0  0  0
   11.0125   -4.2662   23.9435 H   0  0  0  0  0  0  0  0  0  0  0  0
    7.5953   -0.7782   24.7971 H   0  0  0  0  0  0  0  0  0  0  0  0
   11.0394   -2.1837   22.6349 H   0  0  0  0  0  0  0  0  0  0  0  0
    4.7824    2.0670   17.4883 H   0  0  0  0  0  0  0  0  0  0  0  0
    5.4937    0.4574   22.1805 H   0  0  0  0  0  0  0  0  0  0  0  0
   11.5746    1.7015   23.0982 H   0  0  0  0  0  0  0  0  0  0  0  0
   12.2247    4.2203   22.7141 H   0  0  0  0  0  0  0  0  0  0  0  0
    7.8902    3.8463   24.0157 H   0  0  0  0  0  0  0  0  0  0  0  0
    8.6408   -5.7227   25.3864 H   0  0  0  0  0  0  0  0  0  0  0  0
   10.2726   -5.3829   26.0135 H   0  0  0  0  0  0  0  0  0  0  0  0
    8.8606   -4.8102   26.9000 H   0  0  0  0  0  0  0  0  0  0  0  0
    8.9995    0.8809   25.0099 H   0  0  0  0  0  0  0  0  0  0  0  0
    7.7720    1.2044   23.8156 H   0  0  0  0  0  0  0  0  0  0  0  0
   10.5616    0.2233   22.9565 H   0  0  0  0  0  0  0  0  0  0  0  0
    8.1479   -1.8049   21.3777 H   0  0  0  0  0  0  0  0  0  0  0  0
  1  2  1  0  0  0  0
  1  7  2  0  0  0  0
  2  8  2  0  0  0  0
  3  5  2  0  0  0  0
  3 12  1  0  0  0  0
  4  6  1  0  0  0  0
  4 12  2  0  0  0  0
  5 13  1  0  0  0  0
  6 13  2  0  0  0  0
  7 15  1  0  0  0  0
  8 16  1  0  0  0  0
  9 10  2  0  0  0  0
  9 14  1  0  0  0  0
 10 26  1  0  0  0  0
 11 14  2  0  0  0  0
 11 26  1  0  0  0  0
 12 18  1  0  0  0  0
 13 20  1  0  0  0  0
 14 19  1  0  0  0  0
 15 16  2  0  0  0  0
 15 21  1  0  0  0  0
 16 23  1  0  0  0  0
 17 20  1  0  0  0  0
 17 24  1  0  0  0  0
 17 25  2  0  0  0  0
 19 20  1  6  0  0  0
 21 22  2  0  0  0  0
 22 23  1  0  0  0  0
 23 24  1  0  0  0  0
  1 27  1  0  0  0  0
  2 28  1  0  0  0  0
  3 29  1  0  0  0  0
  4 30  1  0  0  0  0
  5 31  1  0  0  0  0
  6 32  1  0  0  0  0
  7 33  1  0  0  0  0
  8 34  1  0  0  0  0
  9 35  1  0  0  0  0
 10 36  1  0  0  0  0
 11 37  1  0  0  0  0
 18 38  1  0  0  0  0
 18 39  1  0  0  0  0
 18 40  1  0  0  0  0
 19 41  1  0  0  0  0
 19 42  1  0  0  0  0
 20 43  1  0  0  0  0
 24 44  1  0  0  0  0
M  END
> <clash_score>
0

> <docking_score>
-9.771964073181152

> <overlap_score>
0.8355454802513123

$$$$
BENZO_179_2
  -OEChem-08232013483D

 59 63  0     1  0  0  0  0  0999 V2000
    4.0980    2.1130   19.5350 C   0  0  0  0  0  0  0  0  0  0  0  0
    4.2970    1.6690   20.8430 C   0  0  0  0  0  0  0  0  0  0  0  0
    8.3510   -1.5420   24.6110 C   0  0  0  0  0  0  0  0  0  0  0  0
   10.2760   -2.3270   23.4020 C   0  0  0  0  0  0  0  0  0  0  0  0
    4.9400    1.7060   18.5060 C   0  0  0  0  0  0  0  0  0  0  0  0
    5.3360    0.8000   21.1530 C   0  0  0  0  0  0  0  0  0  0  0  0
    8.3310   -2.7170   25.3430 C   0  0  0  0  0  0  0  0  0  0  0  0
   10.2570   -3.5000   24.1350 C   0  0  0  0  0  0  0  0  0  0  0  0
   10.8281    2.6090   23.0800 C   0  0  0  0  0  0  0  0  0  0  0  0
    9.0171    3.6855   23.7096 C   0  0  0  0  0  0  0  0  0  0  0  0
    9.3300   -1.3350   23.6390 C   0  0  0  0  0  0  0  0  0  0  0  0
    9.5300    2.4170   23.5897 C   0  0  0  0  0  0  0  0  0  0  0  0
    5.9810    0.8330   18.8060 C   0  0  0  0  0  0  0  0  0  0  0  0
    6.1600    0.3870   20.1140 C   0  0  0  0  0  0  0  0  0  0  0  0
    9.2850   -3.7090   25.1090 C   0  0  0  0  0  0  0  0  0  0  0  0
    8.9510    0.1280   21.6880 C   0  0  0  0  0  0  0  0  0  0  0  0
    7.3211   -6.8875   26.5227 C   0  0  0  0  0  0  0  0  0  0  0  0
    7.3523   -5.5278   27.2244 C   0  0  0  0  0  0  0  0  0  0  0  0
    7.9422   -6.8107   25.1261 C   0  0  0  0  0  0  0  0  0  0  0  0
    8.7641   -4.9418   27.2163 C   0  0  0  0  0  0  0  0  0  0  0  0
    9.3411   -6.1879   25.1670 C   0  0  0  0  0  0  0  0  0  0  0  0
    9.9292    5.9676   23.2205 C   0  0  0  0  0  0  0  0  0  0  0  0
    8.8505    1.1108   23.9271 C   0  0  0  0  0  0  0  0  0  0  0  0
    9.4200   -0.0840   22.9530 C   0  0  2  0  0  0  0  0  0  0  0  0
   11.1217    3.8979   22.8890 N   0  0  0  0  0  0  0  0  0  0  0  0
    6.9440    0.2550   18.0100 N   0  0  0  0  0  0  0  0  0  0  0  0
    7.6830   -0.5170   18.7600 N   0  0  0  0  0  0  0  0  0  0  0  0
   10.0008    4.5274   23.2807 N   0  0  0  0  0  0  0  0  0  0  0  0
    7.2210   -0.4620   20.0350 N   0  0  0  0  0  0  0  0  0  0  0  0
    9.2641   -4.8861   25.8398 N   0  0  0  0  0  0  0  0  0  0  0  0
    8.0810   -0.9750   21.0820 N   0  0  0  0  0  0  0  0  0  0  0  0
    9.1870    1.1500   21.0630 O   0  0  0  0  0  0  0  0  0  0  0  0
    3.2714    2.7876   19.3199 H   0  0  0  0  0  0  0  0  0  0  0  0
    3.6283    2.0091   21.6296 H   0  0  0  0  0  0  0  0  0  0  0  0
    7.5957   -0.7779   24.7973 H   0  0  0  0  0  0  0  0  0  0  0  0
   11.0384   -2.1852   22.6338 H   0  0  0  0  0  0  0  0  0  0  0  0
    4.7824    2.0670   17.4883 H   0  0  0  0  0  0  0  0  0  0  0  0
    5.4937    0.4574   22.1805 H   0  0  0  0  0  0  0  0  0  0  0  0
    7.5634   -2.8637   26.1037 H   0  0  0  0  0  0  0  0  0  0  0  0
   11.0139   -4.2645   23.9419 H   0  0  0  0  0  0  0  0  0  0  0  0
   11.5739    1.8650   22.8381 H   0  0  0  0  0  0  0  0  0  0  0  0
    8.0593    4.0517   24.0537 H   0  0  0  0  0  0  0  0  0  0  0  0
    7.8644   -7.6283   27.1289 H   0  0  0  0  0  0  0  0  0  0  0  0
    6.2830   -7.2423   26.4478 H   0  0  0  0  0  0  0  0  0  0  0  0
    6.6663   -4.8405   26.7221 H   0  0  0  0  0  0  0  0  0  0  0  0
    7.0062   -5.6400   28.2540 H   0  0  0  0  0  0  0  0  0  0  0  0
    8.0018   -7.8160   24.6962 H   0  0  0  0  0  0  0  0  0  0  0  0
    7.2963   -6.2182   24.4678 H   0  0  0  0  0  0  0  0  0  0  0  0
    8.7322   -3.9404   27.6532 H   0  0  0  0  0  0  0  0  0  0  0  0
    9.4260   -5.5610   27.8283 H   0  0  0  0  0  0  0  0  0  0  0  0
   10.0249   -6.8474   25.7028 H   0  0  0  0  0  0  0  0  0  0  0  0
    9.7015   -6.0700   24.1446 H   0  0  0  0  0  0  0  0  0  0  0  0
   10.2845    6.3631   24.1757 H   0  0  0  0  0  0  0  0  0  0  0  0
   10.5553    6.3294   22.4002 H   0  0  0  0  0  0  0  0  0  0  0  0
    8.8938    6.2708   23.0414 H   0  0  0  0  0  0  0  0  0  0  0  0
    8.9922    0.9231   25.0006 H   0  0  0  0  0  0  0  0  0  0  0  0
    7.7650    1.2154   23.7980 H   0  0  0  0  0  0  0  0  0  0  0  0
   10.5617    0.2354   22.9523 H   0  0  0  0  0  0  0  0  0  0  0  0
    8.1256   -1.8039   21.3539 H   0  0  0  0  0  0  0  0  0  0  0  0
  1  2  1  0  0  0  0
  1  5  2  0  0  0  0
  2  6  2  0  0  0  0
  3  7  2  0  0  0  0
  3 11  1  0  0  0  0
  4  8  1  0  0  0  0
  4 11  2  0  0  0  0
  5 13  1  0  0  0  0
  6 14  1  0  0  0  0
  7 15  1  0  0  0  0
  8 15  2  0  0  0  0
  9 12  1  0  0  0  0
  9 25  2  0  0  0  0
 10 12  2  0  0  0  0
 10 28  1  0  0  0  0
 11 24  1  0  0  0  0
 12 23  1  0  0  0  0
 13 14  2  0  0  0  0
 13 26  1  0  0  0  0
 14 29  1  0  0  0  0
 15 30  1  0  0  0  0
 16 24  1  0  0  0  0
 16 31  1  0  0  0  0
 16 32  2  0  0  0  0
 17 18  1  0  0  0  0
 17 19  1  0  0  0  0
 18 20  1  0  0  0  0
 19 21  1  0  0  0  0
 20 30  1  0  0  0  0
 21 30  1  0  0  0  0
 22 28  1  0  0  0  0
 23 24  1  6  0  0  0
 25 28  1  0  0  0  0
 26 27  2  0  0  0  0
 27 29  1  0  0  0  0
 29 31  1  0  0  0  0
  1 33  1  0  0  0  0
  2 34  1  0  0  0  0
  3 35  1  0  0  0  0
  4 36  1  0  0  0  0
  5 37  1  0  0  0  0
  6 38  1  0  0  0  0
  7 39  1  0  0  0  0
  8 40  1  0  0  0  0
  9 41  1  0  0  0  0
 10 42  1  0  0  0  0
 17 43  1  0  0  0  0
 17 44  1  0  0  0  0
 18 45  1  0  0  0  0
 18 46  1  0  0  0  0
 19 47  1  0  0  0  0
 19 48  1  0  0  0  0
 20 49  1  0  0  0  0
 20 50  1  0  0  0  0
 21 51  1  0  0  0  0
 21 52  1  0  0  0  0
 22 53  1  0  0  0  0
 22 54  1  0  0  0  0
 22 55  1  0  0  0  0
 23 56  1  0  0  0  0
 23 57  1  0  0  0  0
 24 58  1  0  0  0  0
 31 59  1  0  0  0  0
M  END
> <clash_score>
0

> <docking_score>
-8.996160507202148

> <overlap_score>
0.8759509325027466

$$$$
BENZO_179_1
  -OEChem-08232013483D

 59 63  0     1  0  0  0  0  0999 V2000
    4.0980    2.1130   19.5350 C   0  0  0  0  0  0  0  0  0  0  0  0
    4.2970    1.6690   20.8430 C   0  0  0  0  0  0  0  0  0  0  0  0
    8.3510   -1.5420   24.6110 C   0  0  0  0  0  0  0  0  0  0  0  0
   10.2760   -2.3270   23.4020 C   0  0  0  0  0  0  0  0  0  0  0  0
    4.9400    1.7060   18.5060 C   0  0  0  0  0  0  0  0  0  0  0  0
    5.3360    0.8000   21.1530 C   0  0  0  0  0  0  0  0  0  0  0  0
    8.3310   -2.7170   25.3430 C   0  0  0  0  0  0  0  0  0  0  0  0
   10.2570   -3.5000   24.1350 C   0  0  0  0  0  0  0  0  0  0  0  0
   10.2425    2.9569   23.4758 C   0  0  0  0  0  0  0  0  0  0  0  0
   12.2094    2.6821   22.5319 C   0  0  0  0  0  0  0  0  0  0  0  0
    9.3300   -1.3350   23.6390 C   0  0  0  0  0  0  0  0  0  0  0  0
   11.1386    1.9724   23.0179 C   0  0  0  0  0  0  0  0  0  0  0  0
    5.9810    0.8330   18.8060 C   0  0  0  0  0  0  0  0  0  0  0  0
    6.1600    0.3870   20.1140 C   0  0  0  0  0  0  0  0  0  0  0  0
    9.2850   -3.7090   25.1090 C   0  0  0  0  0  0  0  0  0  0  0  0
    8.9510    0.1280   21.6880 C   0  0  0  0  0  0  0  0  0  0  0  0
    7.3211   -6.8875   26.5227 C   0  0  0  0  0  0  0  0  0  0  0  0
    7.3523   -5.5278   27.2244 C   0  0  0  0  0  0  0  0  0  0  0  0
    7.9422   -6.8107   25.1261 C   0  0  0  0  0  0  0  0  0  0  0  0
    8.7641   -4.9418   27.2163 C   0  0  0  0  0  0  0  0  0  0  0  0
    9.3411   -6.1879   25.1670 C   0  0  0  0  0  0  0  0  0  0  0  0
   12.7247    5.1287   22.3668 C   0  0  0  0  0  0  0  0  0  0  0  0
   10.9652    0.4722   23.0544 C   0  0  0  0  0  0  0  0  0  0  0  0
    9.4200   -0.0840   22.9530 C   0  0  1  0  0  0  0  0  0  0  0  0
   10.7039    4.1975   23.2968 N   0  0  0  0  0  0  0  0  0  0  0  0
    6.9440    0.2550   18.0100 N   0  0  0  0  0  0  0  0  0  0  0  0
    7.6830   -0.5170   18.7600 N   0  0  0  0  0  0  0  0  0  0  0  0
   11.9017    3.9973   22.7211 N   0  0  0  0  0  0  0  0  0  0  0  0
    7.2210   -0.4620   20.0350 N   0  0  0  0  0  0  0  0  0  0  0  0
    9.2641   -4.8861   25.8398 N   0  0  0  0  0  0  0  0  0  0  0  0
    8.0810   -0.9750   21.0820 N   0  0  0  0  0  0  0  0  0  0  0  0
    9.1870    1.1500   21.0630 O   0  0  0  0  0  0  0  0  0  0  0  0
    3.2714    2.7876   19.3199 H   0  0  0  0  0  0  0  0  0  0  0  0
    3.6283    2.0091   21.6296 H   0  0  0  0  0  0  0  0  0  0  0  0
    7.5957   -0.7779   24.7973 H   0  0  0  0  0  0  0  0  0  0  0  0
   11.0384   -2.1852   22.6338 H   0  0  0  0  0  0  0  0  0  0  0  0
    4.7824    2.0670   17.4883 H   0  0  0  0  0  0  0  0  0  0  0  0
    5.4937    0.4574   22.1805 H   0  0  0  0  0  0  0  0  0  0  0  0
    7.5634   -2.8637   26.1037 H   0  0  0  0  0  0  0  0  0  0  0  0
   11.0139   -4.2645   23.9419 H   0  0  0  0  0  0  0  0  0  0  0  0
    9.2724    2.8245   23.9335 H   0  0  0  0  0  0  0  0  0  0  0  0
   13.1415    2.3710   22.0799 H   0  0  0  0  0  0  0  0  0  0  0  0
    7.8644   -7.6283   27.1289 H   0  0  0  0  0  0  0  0  0  0  0  0
    6.2830   -7.2423   26.4478 H   0  0  0  0  0  0  0  0  0  0  0  0
    6.6663   -4.8405   26.7221 H   0  0  0  0  0  0  0  0  0  0  0  0
    7.0062   -5.6400   28.2540 H   0  0  0  0  0  0  0  0  0  0  0  0
    8.0018   -7.8160   24.6962 H   0  0  0  0  0  0  0  0  0  0  0  0
    7.2963   -6.2182   24.4678 H   0  0  0  0  0  0  0  0  0  0  0  0
    8.7322   -3.9404   27.6532 H   0  0  0  0  0  0  0  0  0  0  0  0
    9.4260   -5.5610   27.8283 H   0  0  0  0  0  0  0  0  0  0  0  0
   10.0249   -6.8474   25.7028 H   0  0  0  0  0  0  0  0  0  0  0  0
    9.7015   -6.0700   24.1446 H   0  0  0  0  0  0  0  0  0  0  0  0
   12.4707    5.4238   21.3453 H   0  0  0  0  0  0  0  0  0  0  0  0
   12.5318    5.9510   23.0614 H   0  0  0  0  0  0  0  0  0  0  0  0
   13.7785    4.8438   22.4328 H   0  0  0  0  0  0  0  0  0  0  0  0
   11.5818    0.0409   22.2535 H   0  0  0  0  0  0  0  0  0  0  0  0
   11.3901    0.0742   23.9855 H   0  0  0  0  0  0  0  0  0  0  0  0
    8.9113    0.7342   23.6444 H   0  0  0  0  0  0  0  0  0  0  0  0
    8.1256   -1.8039   21.3539 H   0  0  0  0  0  0  0  0  0  0  0  0
  1  2  1  0  0  0  0
  1  5  2  0  0  0  0
  2  6  2  0  0  0  0
  3  7  2  0  0  0  0
  3 11  1  0  0  0  0
  4  8  1  0  0  0  0
  4 11  2  0  0  0  0
  5 13  1  0  0  0  0
  6 14  1  0  0  0  0
  7 15  1  0  0  0  0
  8 15  2  0  0  0  0
  9 12  1  0  0  0  0
  9 25  2  0  0  0  0
 10 12  2  0  0  0  0
 10 28  1  0  0  0  0
 11 24  1  0  0  0  0
 12 23  1  0  0  0  0
 13 14  2  0  0  0  0
 13 26  1  0  0  0  0
 14 29  1  0  0  0  0
 15 30  1  0  0  0  0
 16 24  1  0  0  0  0
 16 31  1  0  0  0  0
 16 32  2  0  0  0  0
 17 18  1  0  0  0  0
 17 19  1  0  0  0  0
 18 20  1  0  0  0  0
 19 21  1  0  0  0  0
 20 30  1  0  0  0  0
 21 30  1  0  0  0  0
 22 28  1  0  0  0  0
 23 24  1  1  0  0  0
 25 28  1  0  0  0  0
 26 27  2  0  0  0  0
 27 29  1  0  0  0  0
 29 31  1  0  0  0  0
  1 33  1  0  0  0  0
  2 34  1  0  0  0  0
  3 35  1  0  0  0  0
  4 36  1  0  0  0  0
  5 37  1  0  0  0  0
  6 38  1  0  0  0  0
  7 39  1  0  0  0  0
  8 40  1  0  0  0  0
  9 41  1  0  0  0  0
 10 42  1  0  0  0  0
 17 43  1  0  0  0  0
 17 44  1  0  0  0  0
 18 45  1  0  0  0  0
 18 46  1  0  0  0  0
 19 47  1  0  0  0  0
 19 48  1  0  0  0  0
 20 49  1  0  0  0  0
 20 50  1  0  0  0  0
 21 51  1  0  0  0  0
 21 52  1  0  0  0  0
 22 53  1  0  0  0  0
 22 54  1  0  0  0  0
 22 55  1  0  0  0  0
 23 56  1  0  0  0  0
 23 57  1  0  0  0  0
 24 58  1  0  0  0  0
 31 59  1  0  0  0  0
M  END
> <clash_score>
0

> <docking_score>
-10.29165267944336

> <overlap_score>
0.9391068816184998

$$$$
BENZO_182_1
  -OEChem-08232013483D

 47 50  0     1  0  0  0  0  0999 V2000
    4.0980    2.1130   19.5350 C   0  0  0  0  0  0  0  0  0  0  0  0
    4.2970    1.6690   20.8430 C   0  0  0  0  0  0  0  0  0  0  0  0
   10.3291    4.1758   23.5411 C   0  0  0  0  0  0  0  0  0  0  0  0
   10.1565    2.7918   23.5559 C   0  0  0  0  0  0  0  0  0  0  0  0
    8.3310   -2.7170   25.3430 C   0  0  0  0  0  0  0  0  0  0  0  0
   10.2570   -3.5000   24.1350 C   0  0  0  0  0  0  0  0  0  0  0  0
    8.3510   -1.5420   24.6110 C   0  0  0  0  0  0  0  0  0  0  0  0
   10.2760   -2.3270   23.4020 C   0  0  0  0  0  0  0  0  0  0  0  0
    4.9400    1.7060   18.5060 C   0  0  0  0  0  0  0  0  0  0  0  0
    5.3360    0.8000   21.1530 C   0  0  0  0  0  0  0  0  0  0  0  0
   11.4971    4.7274   23.0146 C   0  0  0  0  0  0  0  0  0  0  0  0
   12.3200    2.5108   22.5179 C   0  0  0  0  0  0  0  0  0  0  0  0
    9.2850   -3.7090   25.1090 C   0  0  0  0  0  0  0  0  0  0  0  0
    9.3300   -1.3350   23.6390 C   0  0  0  0  0  0  0  0  0  0  0  0
   11.1519    1.9593   23.0443 C   0  0  0  0  0  0  0  0  0  0  0  0
    5.9810    0.8330   18.8060 C   0  0  0  0  0  0  0  0  0  0  0  0
    6.1600    0.3870   20.1140 C   0  0  0  0  0  0  0  0  0  0  0  0
   12.4925    3.8949   22.5030 C   0  0  0  0  0  0  0  0  0  0  0  0
    8.9510    0.1280   21.6880 C   0  0  0  0  0  0  0  0  0  0  0  0
    9.2618   -4.9724   25.8910 C   0  0  0  0  0  0  0  0  0  0  0  0
   10.9648    0.4604   23.0619 C   0  0  0  0  0  0  0  0  0  0  0  0
    9.4200   -0.0840   22.9530 C   0  0  1  0  0  0  0  0  0  0  0  0
    6.9440    0.2550   18.0100 N   0  0  0  0  0  0  0  0  0  0  0  0
    7.6830   -0.5170   18.7600 N   0  0  0  0  0  0  0  0  0  0  0  0
    7.2210   -0.4620   20.0350 N   0  0  0  0  0  0  0  0  0  0  0  0
    8.0810   -0.9750   21.0820 N   0  0  0  0  0  0  0  0  0  0  0  0
    9.1870    1.1500   21.0630 O   0  0  0  0  0  0  0  0  0  0  0  0
   13.9339    4.5760   21.8546 Cl  0  0  0  0  0  0  0  0  0  0  0  0
    3.2714    2.7876   19.3199 H   0  0  0  0  0  0  0  0  0  0  0  0
    3.6283    2.0091   21.6296 H   0  0  0  0  0  0  0  0  0  0  0  0
    9.5538    4.8237   23.9397 H   0  0  0  0  0  0  0  0  0  0  0  0
    9.2432    2.3707   23.9682 H   0  0  0  0  0  0  0  0  0  0  0  0
    7.5655   -2.8644   26.1055 H   0  0  0  0  0  0  0  0  0  0  0  0
   11.0125   -4.2662   23.9435 H   0  0  0  0  0  0  0  0  0  0  0  0
    7.5953   -0.7782   24.7971 H   0  0  0  0  0  0  0  0  0  0  0  0
   11.0394   -2.1837   22.6349 H   0  0  0  0  0  0  0  0  0  0  0  0
    4.7824    2.0670   17.4883 H   0  0  0  0  0  0  0  0  0  0  0  0
    5.4937    0.4574   22.1805 H   0  0  0  0  0  0  0  0  0  0  0  0
   11.6181    5.8079   23.0098 H   0  0  0  0  0  0  0  0  0  0  0  0
   13.0929    1.8575   22.1197 H   0  0  0  0  0  0  0  0  0  0  0  0
    8.6408   -5.7227   25.3864 H   0  0  0  0  0  0  0  0  0  0  0  0
   10.2726   -5.3829   26.0135 H   0  0  0  0  0  0  0  0  0  0  0  0
    8.8606   -4.8102   26.9000 H   0  0  0  0  0  0  0  0  0  0  0  0
   11.5732    0.0341   22.2521 H   0  0  0  0  0  0  0  0  0  0  0  0
   11.3908    0.0462   23.9854 H   0  0  0  0  0  0  0  0  0  0  0  0
    8.9107    0.7231   23.6509 H   0  0  0  0  0  0  0  0  0  0  0  0
    8.1479   -1.8049   21.3777 H   0  0  0  0  0  0  0  0  0  0  0  0
  1  2  1  0  0  0  0
  1  9  2  0  0  0  0
  2 10  2  0  0  0  0
  3  4  2  0  0  0  0
  3 11  1  0  0  0  0
  4 15  1  0  0  0  0
  5  7  2  0  0  0  0
  5 13  1  0  0  0  0
  6  8  1  0  0  0  0
  6 13  2  0  0  0  0
  7 14  1  0  0  0  0
  8 14  2  0  0  0  0
  9 16  1  0  0  0  0
 10 17  1  0  0  0  0
 11 18  2  0  0  0  0
 12 15  2  0  0  0  0
 12 18  1  0  0  0  0
 13 20  1  0  0  0  0
 14 22  1  0  0  0  0
 15 21  1  0  0  0  0
 16 17  2  0  0  0  0
 16 23  1  0  0  0  0
 17 25  1  0  0  0  0
 18 28  1  0  0  0  0
 19 22  1  0  0  0  0
 19 26  1  0  0  0  0
 19 27  2  0  0  0  0
 21 22  1  1  0  0  0
 23 24  2  0  0  0  0
 24 25  1  0  0  0  0
 25 26  1  0  0  0  0
  1 29  1  0  0  0  0
  2 30  1  0  0  0  0
  3 31  1  0  0  0  0
  4 32  1  0  0  0  0
  5 33  1  0  0  0  0
  6 34  1  0  0  0  0
  7 35  1  0  0  0  0
  8 36  1  0  0  0  0
  9 37  1  0  0  0  0
 10 38  1  0  0  0  0
 11 39  1  0  0  0  0
 12 40  1  0  0  0  0
 20 41  1  0  0  0  0
 20 42  1  0  0  0  0
 20 43  1  0  0  0  0
 21 44  1  0  0  0  0
 21 45  1  0  0  0  0
 22 46  1  0  0  0  0
 26 47  1  0  0  0  0
M  END
> <clash_score>
0

> <docking_score>
-11.796439170837402

> <overlap_score>
0.9018428921699524

$$$$
BENZO_183_1
  -OEChem-08232013483D

 47 50  0     1  0  0  0  0  0999 V2000
    4.0980    2.1130   19.5350 C   0  0  0  0  0  0  0  0  0  0  0  0
    4.2970    1.6690   20.8430 C   0  0  0  0  0  0  0  0  0  0  0  0
    8.3310   -2.7170   25.3430 C   0  0  0  0  0  0  0  0  0  0  0  0
   10.2570   -3.5000   24.1350 C   0  0  0  0  0  0  0  0  0  0  0  0
    8.3510   -1.5420   24.6110 C   0  0  0  0  0  0  0  0  0  0  0  0
   10.2760   -2.3270   23.4020 C   0  0  0  0  0  0  0  0  0  0  0  0
    4.9400    1.7060   18.5060 C   0  0  0  0  0  0  0  0  0  0  0  0
    5.3360    0.8000   21.1530 C   0  0  0  0  0  0  0  0  0  0  0  0
   10.2645    2.9461   23.5139 C   0  0  0  0  0  0  0  0  0  0  0  0
   12.2295    2.6651   22.5680 C   0  0  0  0  0  0  0  0  0  0  0  0
    9.2850   -3.7090   25.1090 C   0  0  0  0  0  0  0  0  0  0  0  0
    9.3300   -1.3350   23.6390 C   0  0  0  0  0  0  0  0  0  0  0  0
   11.1519    1.9593   23.0443 C   0  0  0  0  0  0  0  0  0  0  0  0
    5.9810    0.8330   18.8060 C   0  0  0  0  0  0  0  0  0  0  0  0
    6.1600    0.3870   20.1140 C   0  0  0  0  0  0  0  0  0  0  0  0
    8.9510    0.1280   21.6880 C   0  0  0  0  0  0  0  0  0  0  0  0
    9.2618   -4.9724   25.8910 C   0  0  0  0  0  0  0  0  0  0  0  0
   12.7674    5.1088   22.4339 C   0  0  0  0  0  0  0  0  0  0  0  0
   10.9648    0.4604   23.0619 C   0  0  0  0  0  0  0  0  0  0  0  0
    9.4200   -0.0840   22.9530 C   0  0  1  0  0  0  0  0  0  0  0  0
   10.7375    4.1845   23.3509 N   0  0  0  0  0  0  0  0  0  0  0  0
    6.9440    0.2550   18.0100 N   0  0  0  0  0  0  0  0  0  0  0  0
    7.6830   -0.5170   18.7600 N   0  0  0  0  0  0  0  0  0  0  0  0
   11.9338    3.9806   22.7735 N   0  0  0  0  0  0  0  0  0  0  0  0
    7.2210   -0.4620   20.0350 N   0  0  0  0  0  0  0  0  0  0  0  0
    8.0810   -0.9750   21.0820 N   0  0  0  0  0  0  0  0  0  0  0  0
    9.1870    1.1500   21.0630 O   0  0  0  0  0  0  0  0  0  0  0  0
    3.2714    2.7876   19.3199 H   0  0  0  0  0  0  0  0  0  0  0  0
    3.6283    2.0091   21.6296 H   0  0  0  0  0  0  0  0  0  0  0  0
    7.5655   -2.8644   26.1055 H   0  0  0  0  0  0  0  0  0  0  0  0
   11.0125   -4.2662   23.9435 H   0  0  0  0  0  0  0  0  0  0  0  0
    7.5953   -0.7782   24.7971 H   0  0  0  0  0  0  0  0  0  0  0  0
   11.0394   -2.1837   22.6349 H   0  0  0  0  0  0  0  0  0  0  0  0
    4.7824    2.0670   17.4883 H   0  0  0  0  0  0  0  0  0  0  0  0
    5.4937    0.4574   22.1805 H   0  0  0  0  0  0  0  0  0  0  0  0
    9.2929    2.8169   23.9694 H   0  0  0  0  0  0  0  0  0  0  0  0
   13.1591    2.3512   22.1127 H   0  0  0  0  0  0  0  0  0  0  0  0
    8.6408   -5.7227   25.3864 H   0  0  0  0  0  0  0  0  0  0  0  0
   10.2726   -5.3829   26.0135 H   0  0  0  0  0  0  0  0  0  0  0  0
    8.8606   -4.8102   26.9000 H   0  0  0  0  0  0  0  0  0  0  0  0
   12.5169    5.4190   21.4160 H   0  0  0  0  0  0  0  0  0  0  0  0
   12.5816    5.9241   23.1387 H   0  0  0  0  0  0  0  0  0  0  0  0
   13.8185    4.8135   22.4971 H   0  0  0  0  0  0  0  0  0  0  0  0
   11.5732    0.0341   22.2521 H   0  0  0  0  0  0  0  0  0  0  0  0
   11.3908    0.0462   23.9854 H   0  0  0  0  0  0  0  0  0  0  0  0
    8.9107    0.7231   23.6509 H   0  0  0  0  0  0  0  0  0  0  0  0
    8.1479   -1.8049   21.3777 H   0  0  0  0  0  0  0  0  0  0  0  0
  1  2  1  0  0  0  0
  1  7  2  0  0  0  0
  2  8  2  0  0  0  0
  3  5  2  0  0  0  0
  3 11  1  0  0  0  0
  4  6  1  0  0  0  0
  4 11  2  0  0  0  0
  5 12  1  0  0  0  0
  6 12  2  0  0  0  0
  7 14  1  0  0  0  0
  8 15  1  0  0  0  0
  9 13  1  0  0  0  0
  9 21  2  0  0  0  0
 10 13  2  0  0  0  0
 10 24  1  0  0  0  0
 11 17  1  0  0  0  0
 12 20  1  0  0  0  0
 13 19  1  0  0  0  0
 14 15  2  0  0  0  0
 14 22  1  0  0  0  0
 15 25  1  0  0  0  0
 16 20  1  0  0  0  0
 16 26  1  0  0  0  0
 16 27  2  0  0  0  0
 18 24  1  0  0  0  0
 19 20  1  1  0  0  0
 21 24  1  0  0  0  0
 22 23  2  0  0  0  0
 23 25  1  0  0  0  0
 25 26  1  0  0  0  0
  1 28  1  0  0  0  0
  2 29  1  0  0  0  0
  3 30  1  0  0  0  0
  4 31  1  0  0  0  0
  5 32  1  0  0  0  0
  6 33  1  0  0  0  0
  7 34  1  0  0  0  0
  8 35  1  0  0  0  0
  9 36  1  0  0  0  0
 10 37  1  0  0  0  0
 17 38  1  0  0  0  0
 17 39  1  0  0  0  0
 17 40  1  0  0  0  0
 18 41  1  0  0  0  0
 18 42  1  0  0  0  0
 18 43  1  0  0  0  0
 19 44  1  0  0  0  0
 19 45  1  0  0  0  0
 20 46  1  0  0  0  0
 26 47  1  0  0  0  0
M  END
> <clash_score>
0

> <docking_score>
-11.401585578918457

> <overlap_score>
0.8961501121520996

$$$$
BENZO_182_2
  -OEChem-08232013483D

 47 50  0     1  0  0  0  0  0999 V2000
    4.0980    2.1130   19.5350 C   0  0  0  0  0  0  0  0  0  0  0  0
    4.2970    1.6690   20.8430 C   0  0  0  0  0  0  0  0  0  0  0  0
    9.4797    4.8290   23.5793 C   0  0  0  0  0  0  0  0  0  0  0  0
    8.8545    3.6132   23.8556 C   0  0  0  0  0  0  0  0  0  0  0  0
    8.3310   -2.7170   25.3430 C   0  0  0  0  0  0  0  0  0  0  0  0
   10.2570   -3.5000   24.1350 C   0  0  0  0  0  0  0  0  0  0  0  0
    8.3510   -1.5420   24.6110 C   0  0  0  0  0  0  0  0  0  0  0  0
   10.2760   -2.3270   23.4020 C   0  0  0  0  0  0  0  0  0  0  0  0
    4.9400    1.7060   18.5060 C   0  0  0  0  0  0  0  0  0  0  0  0
    5.3360    0.8000   21.1530 C   0  0  0  0  0  0  0  0  0  0  0  0
   10.7854    4.8463   23.0887 C   0  0  0  0  0  0  0  0  0  0  0  0
   10.8407    2.4317   23.1509 C   0  0  0  0  0  0  0  0  0  0  0  0
    9.2850   -3.7090   25.1090 C   0  0  0  0  0  0  0  0  0  0  0  0
    9.3300   -1.3350   23.6390 C   0  0  0  0  0  0  0  0  0  0  0  0
    9.5350    2.4145   23.6414 C   0  0  0  0  0  0  0  0  0  0  0  0
    5.9810    0.8330   18.8060 C   0  0  0  0  0  0  0  0  0  0  0  0
    6.1600    0.3870   20.1140 C   0  0  0  0  0  0  0  0  0  0  0  0
   11.4659    3.6477   22.8746 C   0  0  0  0  0  0  0  0  0  0  0  0
    8.9510    0.1280   21.6880 C   0  0  0  0  0  0  0  0  0  0  0  0
    9.2618   -4.9724   25.8910 C   0  0  0  0  0  0  0  0  0  0  0  0
    8.8577    1.0982   23.9421 C   0  0  0  0  0  0  0  0  0  0  0  0
    9.4200   -0.0840   22.9530 C   0  0  2  0  0  0  0  0  0  0  0  0
    6.9440    0.2550   18.0100 N   0  0  0  0  0  0  0  0  0  0  0  0
    7.6830   -0.5170   18.7600 N   0  0  0  0  0  0  0  0  0  0  0  0
    7.2210   -0.4620   20.0350 N   0  0  0  0  0  0  0  0  0  0  0  0
    8.0810   -0.9750   21.0820 N   0  0  0  0  0  0  0  0  0  0  0  0
    9.1870    1.1500   21.0630 O   0  0  0  0  0  0  0  0  0  0  0  0
   13.0772    3.6696   22.2705 Cl  0  0  0  0  0  0  0  0  0  0  0  0
    3.2714    2.7876   19.3199 H   0  0  0  0  0  0  0  0  0  0  0  0
    3.6283    2.0091   21.6296 H   0  0  0  0  0  0  0  0  0  0  0  0
    8.9496    5.7622   23.7463 H   0  0  0  0  0  0  0  0  0  0  0  0
    7.8370    3.6092   24.2377 H   0  0  0  0  0  0  0  0  0  0  0  0
    7.5655   -2.8644   26.1055 H   0  0  0  0  0  0  0  0  0  0  0  0
   11.0125   -4.2662   23.9435 H   0  0  0  0  0  0  0  0  0  0  0  0
    7.5953   -0.7782   24.7971 H   0  0  0  0  0  0  0  0  0  0  0  0
   11.0394   -2.1837   22.6349 H   0  0  0  0  0  0  0  0  0  0  0  0
    4.7824    2.0670   17.4883 H   0  0  0  0  0  0  0  0  0  0  0  0
    5.4937    0.4574   22.1805 H   0  0  0  0  0  0  0  0  0  0  0  0
   11.2603    5.8014   22.8781 H   0  0  0  0  0  0  0  0  0  0  0  0
   11.3668    1.4944   22.9852 H   0  0  0  0  0  0  0  0  0  0  0  0
    8.6408   -5.7227   25.3864 H   0  0  0  0  0  0  0  0  0  0  0  0
   10.2726   -5.3829   26.0135 H   0  0  0  0  0  0  0  0  0  0  0  0
    8.8606   -4.8102   26.9000 H   0  0  0  0  0  0  0  0  0  0  0  0
    8.9995    0.8809   25.0099 H   0  0  0  0  0  0  0  0  0  0  0  0
    7.7720    1.2044   23.8156 H   0  0  0  0  0  0  0  0  0  0  0  0
   10.5616    0.2233   22.9565 H   0  0  0  0  0  0  0  0  0  0  0  0
    8.1479   -1.8049   21.3777 H   0  0  0  0  0  0  0  0  0  0  0  0
  1  2  1  0  0  0  0
  1  9  2  0  0  0  0
  2 10  2  0  0  0  0
  3  4  2  0  0  0  0
  3 11  1  0  0  0  0
  4 15  1  0  0  0  0
  5  7  2  0  0  0  0
  5 13  1  0  0  0  0
  6  8  1  0  0  0  0
  6 13  2  0  0  0  0
  7 14  1  0  0  0  0
  8 14  2  0  0  0  0
  9 16  1  0  0  0  0
 10 17  1  0  0  0  0
 11 18  2  0  0  0  0
 12 15  2  0  0  0  0
 12 18  1  0  0  0  0
 13 20  1  0  0  0  0
 14 22  1  0  0  0  0
 15 21  1  0  0  0  0
 16 17  2  0  0  0  0
 16 23  1  0  0  0  0
 17 25  1  0  0  0  0
 18 28  1  0  0  0  0
 19 22  1  0  0  0  0
 19 26  1  0  0  0  0
 19 27  2  0  0  0  0
 21 22  1  6  0  0  0
 23 24  2  0  0  0  0
 24 25  1  0  0  0  0
 25 26  1  0  0  0  0
  1 29  1  0  0  0  0
  2 30  1  0  0  0  0
  3 31  1  0  0  0  0
  4 32  1  0  0  0  0
  5 33  1  0  0  0  0
  6 34  1  0  0  0  0
  7 35  1  0  0  0  0
  8 36  1  0  0  0  0
  9 37  1  0  0  0  0
 10 38  1  0  0  0  0
 11 39  1  0  0  0  0
 12 40  1  0  0  0  0
 20 41  1  0  0  0  0
 20 42  1  0  0  0  0
 20 43  1  0  0  0  0
 21 44  1  0  0  0  0
 21 45  1  0  0  0  0
 22 46  1  0  0  0  0
 26 47  1  0  0  0  0
M  END
> <clash_score>
0

> <docking_score>
-10.717514991760254

> <overlap_score>
0.8506958484649658

$$$$
BENZO_183_2
  -OEChem-08232013483D

 47 50  0     1  0  0  0  0  0999 V2000
    4.0980    2.1130   19.5350 C   0  0  0  0  0  0  0  0  0  0  0  0
    4.2970    1.6690   20.8430 C   0  0  0  0  0  0  0  0  0  0  0  0
    8.3310   -2.7170   25.3430 C   0  0  0  0  0  0  0  0  0  0  0  0
   10.2570   -3.5000   24.1350 C   0  0  0  0  0  0  0  0  0  0  0  0
    8.3510   -1.5420   24.6110 C   0  0  0  0  0  0  0  0  0  0  0  0
   10.2760   -2.3270   23.4020 C   0  0  0  0  0  0  0  0  0  0  0  0
    4.9400    1.7060   18.5060 C   0  0  0  0  0  0  0  0  0  0  0  0
    5.3360    0.8000   21.1530 C   0  0  0  0  0  0  0  0  0  0  0  0
   10.8351    2.6231   23.1433 C   0  0  0  0  0  0  0  0  0  0  0  0
    9.0177    3.6781   23.7909 C   0  0  0  0  0  0  0  0  0  0  0  0
    9.2850   -3.7090   25.1090 C   0  0  0  0  0  0  0  0  0  0  0  0
    9.3300   -1.3350   23.6390 C   0  0  0  0  0  0  0  0  0  0  0  0
    9.5350    2.4145   23.6414 C   0  0  0  0  0  0  0  0  0  0  0  0
    5.9810    0.8330   18.8060 C   0  0  0  0  0  0  0  0  0  0  0  0
    6.1600    0.3870   20.1140 C   0  0  0  0  0  0  0  0  0  0  0  0
    8.9510    0.1280   21.6880 C   0  0  0  0  0  0  0  0  0  0  0  0
    9.2618   -4.9724   25.8910 C   0  0  0  0  0  0  0  0  0  0  0  0
    9.9253    5.9744   23.3647 C   0  0  0  0  0  0  0  0  0  0  0  0
    8.8577    1.0982   23.9421 C   0  0  0  0  0  0  0  0  0  0  0  0
    9.4200   -0.0840   22.9530 C   0  0  2  0  0  0  0  0  0  0  0  0
   11.1257    3.9173   22.9866 N   0  0  0  0  0  0  0  0  0  0  0  0
    6.9440    0.2550   18.0100 N   0  0  0  0  0  0  0  0  0  0  0  0
    7.6830   -0.5170   18.7600 N   0  0  0  0  0  0  0  0  0  0  0  0
   10.0010    4.5334   23.3885 N   0  0  0  0  0  0  0  0  0  0  0  0
    7.2210   -0.4620   20.0350 N   0  0  0  0  0  0  0  0  0  0  0  0
    8.0810   -0.9750   21.0820 N   0  0  0  0  0  0  0  0  0  0  0  0
    9.1870    1.1500   21.0630 O   0  0  0  0  0  0  0  0  0  0  0  0
    3.2714    2.7876   19.3199 H   0  0  0  0  0  0  0  0  0  0  0  0
    3.6283    2.0091   21.6296 H   0  0  0  0  0  0  0  0  0  0  0  0
    7.5655   -2.8644   26.1055 H   0  0  0  0  0  0  0  0  0  0  0  0
   11.0125   -4.2662   23.9435 H   0  0  0  0  0  0  0  0  0  0  0  0
    7.5953   -0.7782   24.7971 H   0  0  0  0  0  0  0  0  0  0  0  0
   11.0394   -2.1837   22.6349 H   0  0  0  0  0  0  0  0  0  0  0  0
    4.7824    2.0670   17.4883 H   0  0  0  0  0  0  0  0  0  0  0  0
    5.4937    0.4574   22.1805 H   0  0  0  0  0  0  0  0  0  0  0  0
   11.5842    1.8876   22.8864 H   0  0  0  0  0  0  0  0  0  0  0  0
    8.0571    4.0326   24.1394 H   0  0  0  0  0  0  0  0  0  0  0  0
    8.6408   -5.7227   25.3864 H   0  0  0  0  0  0  0  0  0  0  0  0
   10.2726   -5.3829   26.0135 H   0  0  0  0  0  0  0  0  0  0  0  0
    8.8606   -4.8102   26.9000 H   0  0  0  0  0  0  0  0  0  0  0  0
   10.2748    6.3466   24.3314 H   0  0  0  0  0  0  0  0  0  0  0  0
   10.5545    6.3588   22.5570 H   0  0  0  0  0  0  0  0  0  0  0  0
    8.8900    6.2791   23.1881 H   0  0  0  0  0  0  0  0  0  0  0  0
    8.9995    0.8809   25.0099 H   0  0  0  0  0  0  0  0  0  0  0  0
    7.7720    1.2044   23.8156 H   0  0  0  0  0  0  0  0  0  0  0  0
   10.5616    0.2233   22.9565 H   0  0  0  0  0  0  0  0  0  0  0  0
    8.1479   -1.8049   21.3777 H   0  0  0  0  0  0  0  0  0  0  0  0
  1  2  1  0  0  0  0
  1  7  2  0  0  0  0
  2  8  2  0  0  0  0
  3  5  2  0  0  0  0
  3 11  1  0  0  0  0
  4  6  1  0  0  0  0
  4 11  2  0  0  0  0
  5 12  1  0  0  0  0
  6 12  2  0  0  0  0
  7 14  1  0  0  0  0
  8 15  1  0  0  0  0
  9 13  1  0  0  0  0
  9 21  2  0  0  0  0
 10 13  2  0  0  0  0
 10 24  1  0  0  0  0
 11 17  1  0  0  0  0
 12 20  1  0  0  0  0
 13 19  1  0  0  0  0
 14 15  2  0  0  0  0
 14 22  1  0  0  0  0
 15 25  1  0  0  0  0
 16 20  1  0  0  0  0
 16 26  1  0  0  0  0
 16 27  2  0  0  0  0
 18 24  1  0  0  0  0
 19 20  1  6  0  0  0
 21 24  1  0  0  0  0
 22 23  2  0  0  0  0
 23 25  1  0  0  0  0
 25 26  1  0  0  0  0
  1 28  1  0  0  0  0
  2 29  1  0  0  0  0
  3 30  1  0  0  0  0
  4 31  1  0  0  0  0
  5 32  1  0  0  0  0
  6 33  1  0  0  0  0
  7 34  1  0  0  0  0
  8 35  1  0  0  0  0
  9 36  1  0  0  0  0
 10 37  1  0  0  0  0
 17 38  1  0  0  0  0
 17 39  1  0  0  0  0
 17 40  1  0  0  0  0
 18 41  1  0  0  0  0
 18 42  1  0  0  0  0
 18 43  1  0  0  0  0
 19 44  1  0  0  0  0
 19 45  1  0  0  0  0
 20 46  1  0  0  0  0
 26 47  1  0  0  0  0
M  END
> <clash_score>
0

> <docking_score>
-10.199706077575684

> <overlap_score>
0.8304322361946106

$$$$
BENZO_184_1
  -OEChem-08232013483D

 45 48  0     1  0  0  0  0  0999 V2000
    4.0980    2.1130   19.5350 C   0  0  0  0  0  0  0  0  0  0  0  0
    4.2970    1.6690   20.8430 C   0  0  0  0  0  0  0  0  0  0  0  0
    8.3510   -1.5420   24.6110 C   0  0  0  0  0  0  0  0  0  0  0  0
   10.2760   -2.3270   23.4020 C   0  0  0  0  0  0  0  0  0  0  0  0
    4.9400    1.7060   18.5060 C   0  0  0  0  0  0  0  0  0  0  0  0
    5.3360    0.8000   21.1530 C   0  0  0  0  0  0  0  0  0  0  0  0
    8.3310   -2.7170   25.3430 C   0  0  0  0  0  0  0  0  0  0  0  0
   10.2570   -3.5000   24.1350 C   0  0  0  0  0  0  0  0  0  0  0  0
   11.9859    2.6451   22.1146 C   0  0  0  0  0  0  0  0  0  0  0  0
   11.9778    4.0073   22.3192 C   0  0  0  0  0  0  0  0  0  0  0  0
   10.5383    2.8236   23.9243 C   0  0  0  0  0  0  0  0  0  0  0  0
    9.3300   -1.3350   23.6390 C   0  0  0  0  0  0  0  0  0  0  0  0
   11.1519    1.9593   23.0443 C   0  0  0  0  0  0  0  0  0  0  0  0
    5.9810    0.8330   18.8060 C   0  0  0  0  0  0  0  0  0  0  0  0
    6.1600    0.3870   20.1140 C   0  0  0  0  0  0  0  0  0  0  0  0
    9.2850   -3.7090   25.1090 C   0  0  0  0  0  0  0  0  0  0  0  0
    8.9510    0.1280   21.6880 C   0  0  0  0  0  0  0  0  0  0  0  0
    8.2358   -4.9962   26.8042 C   0  0  0  0  0  0  0  0  0  0  0  0
   10.9648    0.4604   23.0619 C   0  0  0  0  0  0  0  0  0  0  0  0
    9.4200   -0.0840   22.9530 C   0  0  1  0  0  0  0  0  0  0  0  0
    6.9440    0.2550   18.0100 N   0  0  0  0  0  0  0  0  0  0  0  0
    7.6830   -0.5170   18.7600 N   0  0  0  0  0  0  0  0  0  0  0  0
    7.2210   -0.4620   20.0350 N   0  0  0  0  0  0  0  0  0  0  0  0
    8.0810   -0.9750   21.0820 N   0  0  0  0  0  0  0  0  0  0  0  0
    9.1870    1.1500   21.0630 O   0  0  0  0  0  0  0  0  0  0  0  0
    9.2637   -4.8607   25.8240 O   0  0  0  0  0  0  0  0  0  0  0  0
   10.9679    4.4545   23.6278 S   0  0  0  0  0  0  0  0  0  0  0  0
    3.2714    2.7876   19.3199 H   0  0  0  0  0  0  0  0  0  0  0  0
    3.6283    2.0091   21.6296 H   0  0  0  0  0  0  0  0  0  0  0  0
    7.5962   -0.7776   24.7980 H   0  0  0  0  0  0  0  0  0  0  0  0
   11.0395   -2.1844   22.6346 H   0  0  0  0  0  0  0  0  0  0  0  0
    4.7824    2.0670   17.4883 H   0  0  0  0  0  0  0  0  0  0  0  0
    5.4937    0.4574   22.1805 H   0  0  0  0  0  0  0  0  0  0  0  0
    7.5664   -2.8672   26.1058 H   0  0  0  0  0  0  0  0  0  0  0  0
   11.0120   -4.2666   23.9463 H   0  0  0  0  0  0  0  0  0  0  0  0
   12.5644    2.1673   21.3341 H   0  0  0  0  0  0  0  0  0  0  0  0
   12.5171    4.7612   21.7633 H   0  0  0  0  0  0  0  0  0  0  0  0
    9.8588    2.5795   24.7291 H   0  0  0  0  0  0  0  0  0  0  0  0
    8.3326   -5.9634   27.3035 H   0  0  0  0  0  0  0  0  0  0  0  0
    7.2583   -4.9194   26.3215 H   0  0  0  0  0  0  0  0  0  0  0  0
    8.3398   -4.1963   27.5412 H   0  0  0  0  0  0  0  0  0  0  0  0
   11.5732    0.0341   22.2521 H   0  0  0  0  0  0  0  0  0  0  0  0
   11.3908    0.0462   23.9854 H   0  0  0  0  0  0  0  0  0  0  0  0
    8.9107    0.7231   23.6509 H   0  0  0  0  0  0  0  0  0  0  0  0
    8.1479   -1.8049   21.3777 H   0  0  0  0  0  0  0  0  0  0  0  0
  1  2  1  0  0  0  0
  1  5  2  0  0  0  0
  2  6  2  0  0  0  0
  3  7  2  0  0  0  0
  3 12  1  0  0  0  0
  4  8  1  0  0  0  0
  4 12  2  0  0  0  0
  5 14  1  0  0  0  0
  6 15  1  0  0  0  0
  7 16  1  0  0  0  0
  8 16  2  0  0  0  0
  9 10  2  0  0  0  0
  9 13  1  0  0  0  0
 10 27  1  0  0  0  0
 11 13  2  0  0  0  0
 11 27  1  0  0  0  0
 12 20  1  0  0  0  0
 13 19  1  0  0  0  0
 14 15  2  0  0  0  0
 14 21  1  0  0  0  0
 15 23  1  0  0  0  0
 16 26  1  0  0  0  0
 17 20  1  0  0  0  0
 17 24  1  0  0  0  0
 17 25  2  0  0  0  0
 18 26  1  0  0  0  0
 19 20  1  1  0  0  0
 21 22  2  0  0  0  0
 22 23  1  0  0  0  0
 23 24  1  0  0  0  0
  1 28  1  0  0  0  0
  2 29  1  0  0  0  0
  3 30  1  0  0  0  0
  4 31  1  0  0  0  0
  5 32  1  0  0  0  0
  6 33  1  0  0  0  0
  7 34  1  0  0  0  0
  8 35  1  0  0  0  0
  9 36  1  0  0  0  0
 10 37  1  0  0  0  0
 11 38  1  0  0  0  0
 18 39  1  0  0  0  0
 18 40  1  0  0  0  0
 18 41  1  0  0  0  0
 19 42  1  0  0  0  0
 19 43  1  0  0  0  0
 20 44  1  0  0  0  0
 24 45  1  0  0  0  0
M  END
> <clash_score>
0

> <docking_score>
-10.00039005279541

> <overlap_score>
0.9150314927101135

$$$$
BENZO_185_1
  -OEChem-08232013483D

 48 51  0     1  0  0  0  0  0999 V2000
   11.4961    4.7275   23.0120 C   0  0  0  0  0  0  0  0  0  0  0  0
   12.4919    3.8950   22.5015 C   0  0  0  0  0  0  0  0  0  0  0  0
   10.3281    4.1760   23.5388 C   0  0  0  0  0  0  0  0  0  0  0  0
    4.0980    2.1130   19.5350 C   0  0  0  0  0  0  0  0  0  0  0  0
    4.2970    1.6690   20.8430 C   0  0  0  0  0  0  0  0  0  0  0  0
   12.3199    2.5108   22.5177 C   0  0  0  0  0  0  0  0  0  0  0  0
   10.1560    2.7919   23.5549 C   0  0  0  0  0  0  0  0  0  0  0  0
    8.3510   -1.5420   24.6110 C   0  0  0  0  0  0  0  0  0  0  0  0
   10.2760   -2.3270   23.4020 C   0  0  0  0  0  0  0  0  0  0  0  0
    4.9400    1.7060   18.5060 C   0  0  0  0  0  0  0  0  0  0  0  0
    5.3360    0.8000   21.1530 C   0  0  0  0  0  0  0  0  0  0  0  0
    8.3310   -2.7170   25.3430 C   0  0  0  0  0  0  0  0  0  0  0  0
   10.2570   -3.5000   24.1350 C   0  0  0  0  0  0  0  0  0  0  0  0
   11.1519    1.9593   23.0443 C   0  0  0  0  0  0  0  0  0  0  0  0
    9.3300   -1.3350   23.6390 C   0  0  0  0  0  0  0  0  0  0  0  0
    5.9810    0.8330   18.8060 C   0  0  0  0  0  0  0  0  0  0  0  0
    6.1600    0.3870   20.1140 C   0  0  0  0  0  0  0  0  0  0  0  0
    9.2850   -3.7090   25.1090 C   0  0  0  0  0  0  0  0  0  0  0  0
    8.9510    0.1280   21.6880 C   0  0  0  0  0  0  0  0  0  0  0  0
    8.2358   -4.9962   26.8042 C   0  0  0  0  0  0  0  0  0  0  0  0
   10.9648    0.4604   23.0619 C   0  0  0  0  0  0  0  0  0  0  0  0
    9.4200   -0.0840   22.9530 C   0  0  1  0  0  0  0  0  0  0  0  0
    6.9440    0.2550   18.0100 N   0  0  0  0  0  0  0  0  0  0  0  0
    7.6830   -0.5170   18.7600 N   0  0  0  0  0  0  0  0  0  0  0  0
    7.2210   -0.4620   20.0350 N   0  0  0  0  0  0  0  0  0  0  0  0
    8.0810   -0.9750   21.0820 N   0  0  0  0  0  0  0  0  0  0  0  0
    9.1870    1.1500   21.0630 O   0  0  0  0  0  0  0  0  0  0  0  0
    9.2637   -4.8607   25.8240 O   0  0  0  0  0  0  0  0  0  0  0  0
   11.6308    5.8052   23.0007 H   0  0  0  0  0  0  0  0  0  0  0  0
   13.4019    4.3242   22.0924 H   0  0  0  0  0  0  0  0  0  0  0  0
    9.5530    4.8238   23.9374 H   0  0  0  0  0  0  0  0  0  0  0  0
    3.2714    2.7876   19.3199 H   0  0  0  0  0  0  0  0  0  0  0  0
    3.6283    2.0091   21.6296 H   0  0  0  0  0  0  0  0  0  0  0  0
   13.1011    1.8699   22.1175 H   0  0  0  0  0  0  0  0  0  0  0  0
    9.2427    2.3711   23.9671 H   0  0  0  0  0  0  0  0  0  0  0  0
    7.5962   -0.7776   24.7980 H   0  0  0  0  0  0  0  0  0  0  0  0
   11.0395   -2.1844   22.6346 H   0  0  0  0  0  0  0  0  0  0  0  0
    4.7824    2.0670   17.4883 H   0  0  0  0  0  0  0  0  0  0  0  0
    5.4937    0.4574   22.1805 H   0  0  0  0  0  0  0  0  0  0  0  0
    7.5664   -2.8672   26.1058 H   0  0  0  0  0  0  0  0  0  0  0  0
   11.0120   -4.2666   23.9463 H   0  0  0  0  0  0  0  0  0  0  0  0
    8.3326   -5.9634   27.3035 H   0  0  0  0  0  0  0  0  0  0  0  0
    7.2583   -4.9194   26.3215 H   0  0  0  0  0  0  0  0  0  0  0  0
    8.3398   -4.1963   27.5412 H   0  0  0  0  0  0  0  0  0  0  0  0
   11.5732    0.0341   22.2521 H   0  0  0  0  0  0  0  0  0  0  0  0
   11.3908    0.0462   23.9854 H   0  0  0  0  0  0  0  0  0  0  0  0
    8.9107    0.7231   23.6509 H   0  0  0  0  0  0  0  0  0  0  0  0
    8.1479   -1.8049   21.3777 H   0  0  0  0  0  0  0  0  0  0  0  0
  1  2  1  0  0  0  0
  1  3  2  0  0  0  0
  2  6  2  0  0  0  0
  3  7  1  0  0  0  0
  4  5  1  0  0  0  0
  4 10  2  0  0  0  0
  5 11  2  0  0  0  0
  6 14  1  0  0  0  0
  7 14  2  0  0  0  0
  8 12  2  0  0  0  0
  8 15  1  0  0  0  0
  9 13  1  0  0  0  0
  9 15  2  0  0  0  0
 10 16  1  0  0  0  0
 11 17  1  0  0  0  0
 12 18  1  0  0  0  0
 13 18  2  0  0  0  0
 14 21  1  0  0  0  0
 15 22  1  0  0  0  0
 16 17  2  0  0  0  0
 16 23  1  0  0  0  0
 17 25  1  0  0  0  0
 18 28  1  0  0  0  0
 19 22  1  0  0  0  0
 19 26  1  0  0  0  0
 19 27  2  0  0  0  0
 20 28  1  0  0  0  0
 21 22  1  1  0  0  0
 23 24  2  0  0  0  0
 24 25  1  0  0  0  0
 25 26  1  0  0  0  0
  1 29  1  0  0  0  0
  2 30  1  0  0  0  0
  3 31  1  0  0  0  0
  4 32  1  0  0  0  0
  5 33  1  0  0  0  0
  6 34  1  0  0  0  0
  7 35  1  0  0  0  0
  8 36  1  0  0  0  0
  9 37  1  0  0  0  0
 10 38  1  0  0  0  0
 11 39  1  0  0  0  0
 12 40  1  0  0  0  0
 13 41  1  0  0  0  0
 20 42  1  0  0  0  0
 20 43  1  0  0  0  0
 20 44  1  0  0  0  0
 21 45  1  0  0  0  0
 21 46  1  0  0  0  0
 22 47  1  0  0  0  0
 26 48  1  0  0  0  0
M  END
> <clash_score>
0

> <docking_score>
-11.177111625671387

> <overlap_score>
0.9251888394355774

$$$$
BENZO_185_2
  -OEChem-08232013483D

 48 51  0     1  0  0  0  0  0999 V2000
   10.7871    4.8449   23.0864 C   0  0  0  0  0  0  0  0  0  0  0  0
    9.4814    4.8291   23.5768 C   0  0  0  0  0  0  0  0  0  0  0  0
   11.4667    3.6455   22.8734 C   0  0  0  0  0  0  0  0  0  0  0  0
    4.0980    2.1130   19.5350 C   0  0  0  0  0  0  0  0  0  0  0  0
    4.2970    1.6690   20.8430 C   0  0  0  0  0  0  0  0  0  0  0  0
    8.8554    3.6139   23.8543 C   0  0  0  0  0  0  0  0  0  0  0  0
   10.8407    2.4304   23.1510 C   0  0  0  0  0  0  0  0  0  0  0  0
    8.3510   -1.5420   24.6110 C   0  0  0  0  0  0  0  0  0  0  0  0
   10.2760   -2.3270   23.4020 C   0  0  0  0  0  0  0  0  0  0  0  0
    4.9400    1.7060   18.5060 C   0  0  0  0  0  0  0  0  0  0  0  0
    5.3360    0.8000   21.1530 C   0  0  0  0  0  0  0  0  0  0  0  0
    8.3310   -2.7170   25.3430 C   0  0  0  0  0  0  0  0  0  0  0  0
   10.2570   -3.5000   24.1350 C   0  0  0  0  0  0  0  0  0  0  0  0
    9.5350    2.4145   23.6414 C   0  0  0  0  0  0  0  0  0  0  0  0
    9.3300   -1.3350   23.6390 C   0  0  0  0  0  0  0  0  0  0  0  0
    5.9810    0.8330   18.8060 C   0  0  0  0  0  0  0  0  0  0  0  0
    6.1600    0.3870   20.1140 C   0  0  0  0  0  0  0  0  0  0  0  0
    9.2850   -3.7090   25.1090 C   0  0  0  0  0  0  0  0  0  0  0  0
    8.9510    0.1280   21.6880 C   0  0  0  0  0  0  0  0  0  0  0  0
    8.2358   -4.9962   26.8042 C   0  0  0  0  0  0  0  0  0  0  0  0
    8.8577    1.0982   23.9421 C   0  0  0  0  0  0  0  0  0  0  0  0
    9.4200   -0.0840   22.9530 C   0  0  2  0  0  0  0  0  0  0  0  0
    6.9440    0.2550   18.0100 N   0  0  0  0  0  0  0  0  0  0  0  0
    7.6830   -0.5170   18.7600 N   0  0  0  0  0  0  0  0  0  0  0  0
    7.2210   -0.4620   20.0350 N   0  0  0  0  0  0  0  0  0  0  0  0
    8.0810   -0.9750   21.0820 N   0  0  0  0  0  0  0  0  0  0  0  0
    9.1870    1.1500   21.0630 O   0  0  0  0  0  0  0  0  0  0  0  0
    9.2637   -4.8607   25.8240 O   0  0  0  0  0  0  0  0  0  0  0  0
   11.2739    5.7911   22.8690 H   0  0  0  0  0  0  0  0  0  0  0  0
    8.9517    5.7628   23.7416 H   0  0  0  0  0  0  0  0  0  0  0  0
   12.4829    3.6575   22.4905 H   0  0  0  0  0  0  0  0  0  0  0  0
    3.2714    2.7876   19.3199 H   0  0  0  0  0  0  0  0  0  0  0  0
    3.6283    2.0091   21.6296 H   0  0  0  0  0  0  0  0  0  0  0  0
    7.8379    3.6112   24.2364 H   0  0  0  0  0  0  0  0  0  0  0  0
   11.3780    1.5009   22.9821 H   0  0  0  0  0  0  0  0  0  0  0  0
    7.5962   -0.7776   24.7980 H   0  0  0  0  0  0  0  0  0  0  0  0
   11.0395   -2.1844   22.6346 H   0  0  0  0  0  0  0  0  0  0  0  0
    4.7824    2.0670   17.4883 H   0  0  0  0  0  0  0  0  0  0  0  0
    5.4937    0.4574   22.1805 H   0  0  0  0  0  0  0  0  0  0  0  0
    7.5664   -2.8672   26.1058 H   0  0  0  0  0  0  0  0  0  0  0  0
   11.0120   -4.2666   23.9463 H   0  0  0  0  0  0  0  0  0  0  0  0
    8.3326   -5.9634   27.3035 H   0  0  0  0  0  0  0  0  0  0  0  0
    7.2583   -4.9194   26.3215 H   0  0  0  0  0  0  0  0  0  0  0  0
    8.3398   -4.1963   27.5412 H   0  0  0  0  0  0  0  0  0  0  0  0
    8.9995    0.8809   25.0099 H   0  0  0  0  0  0  0  0  0  0  0  0
    7.7720    1.2044   23.8156 H   0  0  0  0  0  0  0  0  0  0  0  0
   10.5616    0.2233   22.9565 H   0  0  0  0  0  0  0  0  0  0  0  0
    8.1479   -1.8049   21.3777 H   0  0  0  0  0  0  0  0  0  0  0  0
  1  2  1  0  0  0  0
  1  3  2  0  0  0  0
  2  6  2  0  0  0  0
  3  7  1  0  0  0  0
  4  5  1  0  0  0  0
  4 10  2  0  0  0  0
  5 11  2  0  0  0  0
  6 14  1  0  0  0  0
  7 14  2  0  0  0  0
  8 12  2  0  0  0  0
  8 15  1  0  0  0  0
  9 13  1  0  0  0  0
  9 15  2  0  0  0  0
 10 16  1  0  0  0  0
 11 17  1  0  0  0  0
 12 18  1  0  0  0  0
 13 18  2  0  0  0  0
 14 21  1  0  0  0  0
 15 22  1  0  0  0  0
 16 17  2  0  0  0  0
 16 23  1  0  0  0  0
 17 25  1  0  0  0  0
 18 28  1  0  0  0  0
 19 22  1  0  0  0  0
 19 26  1  0  0  0  0
 19 27  2  0  0  0  0
 20 28  1  0  0  0  0
 21 22  1  6  0  0  0
 23 24  2  0  0  0  0
 24 25  1  0  0  0  0
 25 26  1  0  0  0  0
  1 29  1  0  0  0  0
  2 30  1  0  0  0  0
  3 31  1  0  0  0  0
  4 32  1  0  0  0  0
  5 33  1  0  0  0  0
  6 34  1  0  0  0  0
  7 35  1  0  0  0  0
  8 36  1  0  0  0  0
  9 37  1  0  0  0  0
 10 38  1  0  0  0  0
 11 39  1  0  0  0  0
 12 40  1  0  0  0  0
 13 41  1  0  0  0  0
 20 42  1  0  0  0  0
 20 43  1  0  0  0  0
 20 44  1  0  0  0  0
 21 45  1  0  0  0  0
 21 46  1  0  0  0  0
 22 47  1  0  0  0  0
 26 48  1  0  0  0  0
M  END
> <clash_score>
0

> <docking_score>
-9.73948860168457

> <overlap_score>
0.8632459044456482

$$$$
BENZO_184_2
  -OEChem-08232013483D

 45 48  0     1  0  0  0  0  0999 V2000
    4.0980    2.1130   19.5350 C   0  0  0  0  0  0  0  0  0  0  0  0
    4.2970    1.6690   20.8430 C   0  0  0  0  0  0  0  0  0  0  0  0
    8.3510   -1.5420   24.6110 C   0  0  0  0  0  0  0  0  0  0  0  0
   10.2760   -2.3270   23.4020 C   0  0  0  0  0  0  0  0  0  0  0  0
    4.9400    1.7060   18.5060 C   0  0  0  0  0  0  0  0  0  0  0  0
    5.3360    0.8000   21.1530 C   0  0  0  0  0  0  0  0  0  0  0  0
    8.3310   -2.7170   25.3430 C   0  0  0  0  0  0  0  0  0  0  0  0
   10.2570   -3.5000   24.1350 C   0  0  0  0  0  0  0  0  0  0  0  0
   10.8949    2.5334   23.2333 C   0  0  0  0  0  0  0  0  0  0  0  0
   11.2600    3.8453   23.0253 C   0  0  0  0  0  0  0  0  0  0  0  0
    8.9125    3.6403   23.7301 C   0  0  0  0  0  0  0  0  0  0  0  0
    9.3300   -1.3350   23.6390 C   0  0  0  0  0  0  0  0  0  0  0  0
    9.5350    2.4145   23.6414 C   0  0  0  0  0  0  0  0  0  0  0  0
    5.9810    0.8330   18.8060 C   0  0  0  0  0  0  0  0  0  0  0  0
    6.1600    0.3870   20.1140 C   0  0  0  0  0  0  0  0  0  0  0  0
    9.2850   -3.7090   25.1090 C   0  0  0  0  0  0  0  0  0  0  0  0
    8.9510    0.1280   21.6880 C   0  0  0  0  0  0  0  0  0  0  0  0
    8.2358   -4.9962   26.8042 C   0  0  0  0  0  0  0  0  0  0  0  0
    8.8577    1.0982   23.9421 C   0  0  0  0  0  0  0  0  0  0  0  0
    9.4200   -0.0840   22.9530 C   0  0  2  0  0  0  0  0  0  0  0  0
    6.9440    0.2550   18.0100 N   0  0  0  0  0  0  0  0  0  0  0  0
    7.6830   -0.5170   18.7600 N   0  0  0  0  0  0  0  0  0  0  0  0
    7.2210   -0.4620   20.0350 N   0  0  0  0  0  0  0  0  0  0  0  0
    8.0810   -0.9750   21.0820 N   0  0  0  0  0  0  0  0  0  0  0  0
    9.1870    1.1500   21.0630 O   0  0  0  0  0  0  0  0  0  0  0  0
    9.2637   -4.8607   25.8240 O   0  0  0  0  0  0  0  0  0  0  0  0
    9.9661    4.9270   23.3220 S   0  0  0  0  0  0  0  0  0  0  0  0
    3.2714    2.7876   19.3199 H   0  0  0  0  0  0  0  0  0  0  0  0
    3.6283    2.0091   21.6296 H   0  0  0  0  0  0  0  0  0  0  0  0
    7.5962   -0.7776   24.7980 H   0  0  0  0  0  0  0  0  0  0  0  0
   11.0395   -2.1844   22.6346 H   0  0  0  0  0  0  0  0  0  0  0  0
    4.7824    2.0670   17.4883 H   0  0  0  0  0  0  0  0  0  0  0  0
    5.4937    0.4574   22.1805 H   0  0  0  0  0  0  0  0  0  0  0  0
    7.5664   -2.8672   26.1058 H   0  0  0  0  0  0  0  0  0  0  0  0
   11.0120   -4.2666   23.9463 H   0  0  0  0  0  0  0  0  0  0  0  0
   11.5746    1.7015   23.0982 H   0  0  0  0  0  0  0  0  0  0  0  0
   12.2247    4.2203   22.7141 H   0  0  0  0  0  0  0  0  0  0  0  0
    7.8902    3.8463   24.0157 H   0  0  0  0  0  0  0  0  0  0  0  0
    8.3326   -5.9634   27.3035 H   0  0  0  0  0  0  0  0  0  0  0  0
    7.2583   -4.9194   26.3215 H   0  0  0  0  0  0  0  0  0  0  0  0
    8.3398   -4.1963   27.5412 H   0  0  0  0  0  0  0  0  0  0  0  0
    8.9995    0.8809   25.0099 H   0  0  0  0  0  0  0  0  0  0  0  0
    7.7720    1.2044   23.8156 H   0  0  0  0  0  0  0  0  0  0  0  0
   10.5616    0.2233   22.9565 H   0  0  0  0  0  0  0  0  0  0  0  0
    8.1479   -1.8049   21.3777 H   0  0  0  0  0  0  0  0  0  0  0  0
  1  2  1  0  0  0  0
  1  5  2  0  0  0  0
  2  6  2  0  0  0  0
  3  7  2  0  0  0  0
  3 12  1  0  0  0  0
  4  8  1  0  0  0  0
  4 12  2  0  0  0  0
  5 14  1  0  0  0  0
  6 15  1  0  0  0  0
  7 16  1  0  0  0  0
  8 16  2  0  0  0  0
  9 10  2  0  0  0  0
  9 13  1  0  0  0  0
 10 27  1  0  0  0  0
 11 13  2  0  0  0  0
 11 27  1  0  0  0  0
 12 20  1  0  0  0  0
 13 19  1  0  0  0  0
 14 15  2  0  0  0  0
 14 21  1  0  0  0  0
 15 23  1  0  0  0  0
 16 26  1  0  0  0  0
 17 20  1  0  0  0  0
 17 24  1  0  0  0  0
 17 25  2  0  0  0  0
 18 26  1  0  0  0  0
 19 20  1  6  0  0  0
 21 22  2  0  0  0  0
 22 23  1  0  0  0  0
 23 24  1  0  0  0  0
  1 28  1  0  0  0  0
  2 29  1  0  0  0  0
  3 30  1  0  0  0  0
  4 31  1  0  0  0  0
  5 32  1  0  0  0  0
  6 33  1  0  0  0  0
  7 34  1  0  0  0  0
  8 35  1  0  0  0  0
  9 36  1  0  0  0  0
 10 37  1  0  0  0  0
 11 38  1  0  0  0  0
 18 39  1  0  0  0  0
 18 40  1  0  0  0  0
 18 41  1  0  0  0  0
 19 42  1  0  0  0  0
 19 43  1  0  0  0  0
 20 44  1  0  0  0  0
 24 45  1  0  0  0  0
M  END
> <clash_score>
0

> <docking_score>
-9.48024845123291

> <overlap_score>
0.8597418665885925

$$$$
BENZO_186_1
  -OEChem-08232013483D

 48 51  0     1  0  0  0  0  0999 V2000
    4.0980    2.1130   19.5350 C   0  0  0  0  0  0  0  0  0  0  0  0
    4.2970    1.6690   20.8430 C   0  0  0  0  0  0  0  0  0  0  0  0
   10.3291    4.1758   23.5411 C   0  0  0  0  0  0  0  0  0  0  0  0
   10.1565    2.7918   23.5559 C   0  0  0  0  0  0  0  0  0  0  0  0
    8.3510   -1.5420   24.6110 C   0  0  0  0  0  0  0  0  0  0  0  0
   10.2760   -2.3270   23.4020 C   0  0  0  0  0  0  0  0  0  0  0  0
    4.9400    1.7060   18.5060 C   0  0  0  0  0  0  0  0  0  0  0  0
    5.3360    0.8000   21.1530 C   0  0  0  0  0  0  0  0  0  0  0  0
    8.3310   -2.7170   25.3430 C   0  0  0  0  0  0  0  0  0  0  0  0
   10.2570   -3.5000   24.1350 C   0  0  0  0  0  0  0  0  0  0  0  0
   11.4971    4.7274   23.0146 C   0  0  0  0  0  0  0  0  0  0  0  0
   12.3200    2.5108   22.5179 C   0  0  0  0  0  0  0  0  0  0  0  0
    9.3300   -1.3350   23.6390 C   0  0  0  0  0  0  0  0  0  0  0  0
   11.1519    1.9593   23.0443 C   0  0  0  0  0  0  0  0  0  0  0  0
    5.9810    0.8330   18.8060 C   0  0  0  0  0  0  0  0  0  0  0  0
    6.1600    0.3870   20.1140 C   0  0  0  0  0  0  0  0  0  0  0  0
    9.2850   -3.7090   25.1090 C   0  0  0  0  0  0  0  0  0  0  0  0
   12.4925    3.8949   22.5030 C   0  0  0  0  0  0  0  0  0  0  0  0
    8.9510    0.1280   21.6880 C   0  0  0  0  0  0  0  0  0  0  0  0
    8.2358   -4.9962   26.8042 C   0  0  0  0  0  0  0  0  0  0  0  0
   10.9648    0.4604   23.0619 C   0  0  0  0  0  0  0  0  0  0  0  0
    9.4200   -0.0840   22.9530 C   0  0  1  0  0  0  0  0  0  0  0  0
    6.9440    0.2550   18.0100 N   0  0  0  0  0  0  0  0  0  0  0  0
    7.6830   -0.5170   18.7600 N   0  0  0  0  0  0  0  0  0  0  0  0
    7.2210   -0.4620   20.0350 N   0  0  0  0  0  0  0  0  0  0  0  0
    8.0810   -0.9750   21.0820 N   0  0  0  0  0  0  0  0  0  0  0  0
    9.1870    1.1500   21.0630 O   0  0  0  0  0  0  0  0  0  0  0  0
    9.2637   -4.8607   25.8240 O   0  0  0  0  0  0  0  0  0  0  0  0
   13.9339    4.5760   21.8546 Cl  0  0  0  0  0  0  0  0  0  0  0  0
    3.2714    2.7876   19.3199 H   0  0  0  0  0  0  0  0  0  0  0  0
    3.6283    2.0091   21.6296 H   0  0  0  0  0  0  0  0  0  0  0  0
    9.5538    4.8237   23.9397 H   0  0  0  0  0  0  0  0  0  0  0  0
    9.2432    2.3707   23.9682 H   0  0  0  0  0  0  0  0  0  0  0  0
    7.5962   -0.7776   24.7980 H   0  0  0  0  0  0  0  0  0  0  0  0
   11.0395   -2.1844   22.6346 H   0  0  0  0  0  0  0  0  0  0  0  0
    4.7824    2.0670   17.4883 H   0  0  0  0  0  0  0  0  0  0  0  0
    5.4937    0.4574   22.1805 H   0  0  0  0  0  0  0  0  0  0  0  0
    7.5664   -2.8672   26.1058 H   0  0  0  0  0  0  0  0  0  0  0  0
   11.0120   -4.2666   23.9463 H   0  0  0  0  0  0  0  0  0  0  0  0
   11.6181    5.8079   23.0098 H   0  0  0  0  0  0  0  0  0  0  0  0
   13.0929    1.8575   22.1197 H   0  0  0  0  0  0  0  0  0  0  0  0
    8.3326   -5.9634   27.3035 H   0  0  0  0  0  0  0  0  0  0  0  0
    7.2583   -4.9194   26.3215 H   0  0  0  0  0  0  0  0  0  0  0  0
    8.3398   -4.1963   27.5412 H   0  0  0  0  0  0  0  0  0  0  0  0
   11.5732    0.0341   22.2521 H   0  0  0  0  0  0  0  0  0  0  0  0
   11.3908    0.0462   23.9854 H   0  0  0  0  0  0  0  0  0  0  0  0
    8.9107    0.7231   23.6509 H   0  0  0  0  0  0  0  0  0  0  0  0
    8.1479   -1.8049   21.3777 H   0  0  0  0  0  0  0  0  0  0  0  0
  1  2  1  0  0  0  0
  1  7  2  0  0  0  0
  2  8  2  0  0  0  0
  3  4  2  0  0  0  0
  3 11  1  0  0  0  0
  4 14  1  0  0  0  0
  5  9  2  0  0  0  0
  5 13  1  0  0  0  0
  6 10  1  0  0  0  0
  6 13  2  0  0  0  0
  7 15  1  0  0  0  0
  8 16  1  0  0  0  0
  9 17  1  0  0  0  0
 10 17  2  0  0  0  0
 11 18  2  0  0  0  0
 12 14  2  0  0  0  0
 12 18  1  0  0  0  0
 13 22  1  0  0  0  0
 14 21  1  0  0  0  0
 15 16  2  0  0  0  0
 15 23  1  0  0  0  0
 16 25  1  0  0  0  0
 17 28  1  0  0  0  0
 18 29  1  0  0  0  0
 19 22  1  0  0  0  0
 19 26  1  0  0  0  0
 19 27  2  0  0  0  0
 20 28  1  0  0  0  0
 21 22  1  1  0  0  0
 23 24  2  0  0  0  0
 24 25  1  0  0  0  0
 25 26  1  0  0  0  0
  1 30  1  0  0  0  0
  2 31  1  0  0  0  0
  3 32  1  0  0  0  0
  4 33  1  0  0  0  0
  5 34  1  0  0  0  0
  6 35  1  0  0  0  0
  7 36  1  0  0  0  0
  8 37  1  0  0  0  0
  9 38  1  0  0  0  0
 10 39  1  0  0  0  0
 11 40  1  0  0  0  0
 12 41  1  0  0  0  0
 20 42  1  0  0  0  0
 20 43  1  0  0  0  0
 20 44  1  0  0  0  0
 21 45  1  0  0  0  0
 21 46  1  0  0  0  0
 22 47  1  0  0  0  0
 26 48  1  0  0  0  0
M  END
> <clash_score>
0

> <docking_score>
-11.50472354888916

> <overlap_score>
0.9258213043212891

$$$$
BENZO_187_1
  -OEChem-08232013483D

 48 51  0     1  0  0  0  0  0999 V2000
    4.0980    2.1130   19.5350 C   0  0  0  0  0  0  0  0  0  0  0  0
    4.2970    1.6690   20.8430 C   0  0  0  0  0  0  0  0  0  0  0  0
    8.3510   -1.5420   24.6110 C   0  0  0  0  0  0  0  0  0  0  0  0
   10.2760   -2.3270   23.4020 C   0  0  0  0  0  0  0  0  0  0  0  0
    4.9400    1.7060   18.5060 C   0  0  0  0  0  0  0  0  0  0  0  0
    5.3360    0.8000   21.1530 C   0  0  0  0  0  0  0  0  0  0  0  0
    8.3310   -2.7170   25.3430 C   0  0  0  0  0  0  0  0  0  0  0  0
   10.2570   -3.5000   24.1350 C   0  0  0  0  0  0  0  0  0  0  0  0
   10.2645    2.9461   23.5139 C   0  0  0  0  0  0  0  0  0  0  0  0
   12.2295    2.6651   22.5680 C   0  0  0  0  0  0  0  0  0  0  0  0
    9.3300   -1.3350   23.6390 C   0  0  0  0  0  0  0  0  0  0  0  0
   11.1519    1.9593   23.0443 C   0  0  0  0  0  0  0  0  0  0  0  0
    5.9810    0.8330   18.8060 C   0  0  0  0  0  0  0  0  0  0  0  0
    6.1600    0.3870   20.1140 C   0  0  0  0  0  0  0  0  0  0  0  0
    9.2850   -3.7090   25.1090 C   0  0  0  0  0  0  0  0  0  0  0  0
    8.9510    0.1280   21.6880 C   0  0  0  0  0  0  0  0  0  0  0  0
   12.7674    5.1088   22.4339 C   0  0  0  0  0  0  0  0  0  0  0  0
    8.2358   -4.9962   26.8042 C   0  0  0  0  0  0  0  0  0  0  0  0
   10.9648    0.4604   23.0619 C   0  0  0  0  0  0  0  0  0  0  0  0
    9.4200   -0.0840   22.9530 C   0  0  1  0  0  0  0  0  0  0  0  0
   10.7375    4.1845   23.3509 N   0  0  0  0  0  0  0  0  0  0  0  0
    6.9440    0.2550   18.0100 N   0  0  0  0  0  0  0  0  0  0  0  0
    7.6830   -0.5170   18.7600 N   0  0  0  0  0  0  0  0  0  0  0  0
   11.9338    3.9806   22.7735 N   0  0  0  0  0  0  0  0  0  0  0  0
    7.2210   -0.4620   20.0350 N   0  0  0  0  0  0  0  0  0  0  0  0
    8.0810   -0.9750   21.0820 N   0  0  0  0  0  0  0  0  0  0  0  0
    9.1870    1.1500   21.0630 O   0  0  0  0  0  0  0  0  0  0  0  0
    9.2637   -4.8607   25.8240 O   0  0  0  0  0  0  0  0  0  0  0  0
    3.2714    2.7876   19.3199 H   0  0  0  0  0  0  0  0  0  0  0  0
    3.6283    2.0091   21.6296 H   0  0  0  0  0  0  0  0  0  0  0  0
    7.5962   -0.7776   24.7980 H   0  0  0  0  0  0  0  0  0  0  0  0
   11.0395   -2.1844   22.6346 H   0  0  0  0  0  0  0  0  0  0  0  0
    4.7824    2.0670   17.4883 H   0  0  0  0  0  0  0  0  0  0  0  0
    5.4937    0.4574   22.1805 H   0  0  0  0  0  0  0  0  0  0  0  0
    7.5664   -2.8672   26.1058 H   0  0  0  0  0  0  0  0  0  0  0  0
   11.0120   -4.2666   23.9463 H   0  0  0  0  0  0  0  0  0  0  0  0
    9.2929    2.8169   23.9694 H   0  0  0  0  0  0  0  0  0  0  0  0
   13.1591    2.3512   22.1127 H   0  0  0  0  0  0  0  0  0  0  0  0
   12.5169    5.4190   21.4160 H   0  0  0  0  0  0  0  0  0  0  0  0
   12.5816    5.9241   23.1387 H   0  0  0  0  0  0  0  0  0  0  0  0
   13.8185    4.8135   22.4971 H   0  0  0  0  0  0  0  0  0  0  0  0
    8.3326   -5.9634   27.3035 H   0  0  0  0  0  0  0  0  0  0  0  0
    7.2583   -4.9194   26.3215 H   0  0  0  0  0  0  0  0  0  0  0  0
    8.3398   -4.1963   27.5412 H   0  0  0  0  0  0  0  0  0  0  0  0
   11.5732    0.0341   22.2521 H   0  0  0  0  0  0  0  0  0  0  0  0
   11.3908    0.0462   23.9854 H   0  0  0  0  0  0  0  0  0  0  0  0
    8.9107    0.7231   23.6509 H   0  0  0  0  0  0  0  0  0  0  0  0
    8.1479   -1.8049   21.3777 H   0  0  0  0  0  0  0  0  0  0  0  0
  1  2  1  0  0  0  0
  1  5  2  0  0  0  0
  2  6  2  0  0  0  0
  3  7  2  0  0  0  0
  3 11  1  0  0  0  0
  4  8  1  0  0  0  0
  4 11  2  0  0  0  0
  5 13  1  0  0  0  0
  6 14  1  0  0  0  0
  7 15  1  0  0  0  0
  8 15  2  0  0  0  0
  9 12  1  0  0  0  0
  9 21  2  0  0  0  0
 10 12  2  0  0  0  0
 10 24  1  0  0  0  0
 11 20  1  0  0  0  0
 12 19  1  0  0  0  0
 13 14  2  0  0  0  0
 13 22  1  0  0  0  0
 14 25  1  0  0  0  0
 15 28  1  0  0  0  0
 16 20  1  0  0  0  0
 16 26  1  0  0  0  0
 16 27  2  0  0  0  0
 17 24  1  0  0  0  0
 18 28  1  0  0  0  0
 19 20  1  1  0  0  0
 21 24  1  0  0  0  0
 22 23  2  0  0  0  0
 23 25  1  0  0  0  0
 25 26  1  0  0  0  0
  1 29  1  0  0  0  0
  2 30  1  0  0  0  0
  3 31  1  0  0  0  0
  4 32  1  0  0  0  0
  5 33  1  0  0  0  0
  6 34  1  0  0  0  0
  7 35  1  0  0  0  0
  8 36  1  0  0  0  0
  9 37  1  0  0  0  0
 10 38  1  0  0  0  0
 17 39  1  0  0  0  0
 17 40  1  0  0  0  0
 17 41  1  0  0  0  0
 18 42  1  0  0  0  0
 18 43  1  0  0  0  0
 18 44  1  0  0  0  0
 19 45  1  0  0  0  0
 19 46  1  0  0  0  0
 20 47  1  0  0  0  0
 26 48  1  0  0  0  0
M  END
> <clash_score>
0

> <docking_score>
-11.109871864318848

> <overlap_score>
0.9201659560203552

$$$$
BENZO_187_2
  -OEChem-08232013483D

 48 51  0     1  0  0  0  0  0999 V2000
    4.0980    2.1130   19.5350 C   0  0  0  0  0  0  0  0  0  0  0  0
    4.2970    1.6690   20.8430 C   0  0  0  0  0  0  0  0  0  0  0  0
    8.3510   -1.5420   24.6110 C   0  0  0  0  0  0  0  0  0  0  0  0
   10.2760   -2.3270   23.4020 C   0  0  0  0  0  0  0  0  0  0  0  0
    4.9400    1.7060   18.5060 C   0  0  0  0  0  0  0  0  0  0  0  0
    5.3360    0.8000   21.1530 C   0  0  0  0  0  0  0  0  0  0  0  0
    8.3310   -2.7170   25.3430 C   0  0  0  0  0  0  0  0  0  0  0  0
   10.2570   -3.5000   24.1350 C   0  0  0  0  0  0  0  0  0  0  0  0
   10.8351    2.6231   23.1433 C   0  0  0  0  0  0  0  0  0  0  0  0
    9.0177    3.6781   23.7909 C   0  0  0  0  0  0  0  0  0  0  0  0
    9.3300   -1.3350   23.6390 C   0  0  0  0  0  0  0  0  0  0  0  0
    9.5350    2.4145   23.6414 C   0  0  0  0  0  0  0  0  0  0  0  0
    5.9810    0.8330   18.8060 C   0  0  0  0  0  0  0  0  0  0  0  0
    6.1600    0.3870   20.1140 C   0  0  0  0  0  0  0  0  0  0  0  0
    9.2850   -3.7090   25.1090 C   0  0  0  0  0  0  0  0  0  0  0  0
    8.9510    0.1280   21.6880 C   0  0  0  0  0  0  0  0  0  0  0  0
    9.9253    5.9744   23.3647 C   0  0  0  0  0  0  0  0  0  0  0  0
    8.2358   -4.9962   26.8042 C   0  0  0  0  0  0  0  0  0  0  0  0
    8.8577    1.0982   23.9421 C   0  0  0  0  0  0  0  0  0  0  0  0
    9.4200   -0.0840   22.9530 C   0  0  2  0  0  0  0  0  0  0  0  0
   11.1257    3.9173   22.9866 N   0  0  0  0  0  0  0  0  0  0  0  0
    6.9440    0.2550   18.0100 N   0  0  0  0  0  0  0  0  0  0  0  0
    7.6830   -0.5170   18.7600 N   0  0  0  0  0  0  0  0  0  0  0  0
   10.0010    4.5334   23.3885 N   0  0  0  0  0  0  0  0  0  0  0  0
    7.2210   -0.4620   20.0350 N   0  0  0  0  0  0  0  0  0  0  0  0
    8.0810   -0.9750   21.0820 N   0  0  0  0  0  0  0  0  0  0  0  0
    9.1870    1.1500   21.0630 O   0  0  0  0  0  0  0  0  0  0  0  0
    9.2637   -4.8607   25.8240 O   0  0  0  0  0  0  0  0  0  0  0  0
    3.2714    2.7876   19.3199 H   0  0  0  0  0  0  0  0  0  0  0  0
    3.6283    2.0091   21.6296 H   0  0  0  0  0  0  0  0  0  0  0  0
    7.5962   -0.7776   24.7980 H   0  0  0  0  0  0  0  0  0  0  0  0
   11.0395   -2.1844   22.6346 H   0  0  0  0  0  0  0  0  0  0  0  0
    4.7824    2.0670   17.4883 H   0  0  0  0  0  0  0  0  0  0  0  0
    5.4937    0.4574   22.1805 H   0  0  0  0  0  0  0  0  0  0  0  0
    7.5664   -2.8672   26.1058 H   0  0  0  0  0  0  0  0  0  0  0  0
   11.0120   -4.2666   23.9463 H   0  0  0  0  0  0  0  0  0  0  0  0
   11.5842    1.8876   22.8864 H   0  0  0  0  0  0  0  0  0  0  0  0
    8.0571    4.0326   24.1394 H   0  0  0  0  0  0  0  0  0  0  0  0
   10.2748    6.3466   24.3314 H   0  0  0  0  0  0  0  0  0  0  0  0
   10.5545    6.3588   22.5570 H   0  0  0  0  0  0  0  0  0  0  0  0
    8.8900    6.2791   23.1881 H   0  0  0  0  0  0  0  0  0  0  0  0
    8.3326   -5.9634   27.3035 H   0  0  0  0  0  0  0  0  0  0  0  0
    7.2583   -4.9194   26.3215 H   0  0  0  0  0  0  0  0  0  0  0  0
    8.3398   -4.1963   27.5412 H   0  0  0  0  0  0  0  0  0  0  0  0
    8.9995    0.8809   25.0099 H   0  0  0  0  0  0  0  0  0  0  0  0
    7.7720    1.2044   23.8156 H   0  0  0  0  0  0  0  0  0  0  0  0
   10.5616    0.2233   22.9565 H   0  0  0  0  0  0  0  0  0  0  0  0
    8.1479   -1.8049   21.3777 H   0  0  0  0  0  0  0  0  0  0  0  0
  1  2  1  0  0  0  0
  1  5  2  0  0  0  0
  2  6  2  0  0  0  0
  3  7  2  0  0  0  0
  3 11  1  0  0  0  0
  4  8  1  0  0  0  0
  4 11  2  0  0  0  0
  5 13  1  0  0  0  0
  6 14  1  0  0  0  0
  7 15  1  0  0  0  0
  8 15  2  0  0  0  0
  9 12  1  0  0  0  0
  9 21  2  0  0  0  0
 10 12  2  0  0  0  0
 10 24  1  0  0  0  0
 11 20  1  0  0  0  0
 12 19  1  0  0  0  0
 13 14  2  0  0  0  0
 13 22  1  0  0  0  0
 14 25  1  0  0  0  0
 15 28  1  0  0  0  0
 16 20  1  0  0  0  0
 16 26  1  0  0  0  0
 16 27  2  0  0  0  0
 17 24  1  0  0  0  0
 18 28  1  0  0  0  0
 19 20  1  6  0  0  0
 21 24  1  0  0  0  0
 22 23  2  0  0  0  0
 23 25  1  0  0  0  0
 25 26  1  0  0  0  0
  1 29  1  0  0  0  0
  2 30  1  0  0  0  0
  3 31  1  0  0  0  0
  4 32  1  0  0  0  0
  5 33  1  0  0  0  0
  6 34  1  0  0  0  0
  7 35  1  0  0  0  0
  8 36  1  0  0  0  0
  9 37  1  0  0  0  0
 10 38  1  0  0  0  0
 17 39  1  0  0  0  0
 17 40  1  0  0  0  0
 17 41  1  0  0  0  0
 18 42  1  0  0  0  0
 18 43  1  0  0  0  0
 18 44  1  0  0  0  0
 19 45  1  0  0  0  0
 19 46  1  0  0  0  0
 20 47  1  0  0  0  0
 26 48  1  0  0  0  0
M  END
> <clash_score>
0

> <docking_score>
-9.907994270324707

> <overlap_score>
0.8545718789100647

$$$$
BENZO_186_2
  -OEChem-08232013483D

 48 51  0     1  0  0  0  0  0999 V2000
    4.0980    2.1130   19.5350 C   0  0  0  0  0  0  0  0  0  0  0  0
    4.2970    1.6690   20.8430 C   0  0  0  0  0  0  0  0  0  0  0  0
    9.4797    4.8290   23.5793 C   0  0  0  0  0  0  0  0  0  0  0  0
    8.8545    3.6132   23.8556 C   0  0  0  0  0  0  0  0  0  0  0  0
    8.3510   -1.5420   24.6110 C   0  0  0  0  0  0  0  0  0  0  0  0
   10.2760   -2.3270   23.4020 C   0  0  0  0  0  0  0  0  0  0  0  0
    4.9400    1.7060   18.5060 C   0  0  0  0  0  0  0  0  0  0  0  0
    5.3360    0.8000   21.1530 C   0  0  0  0  0  0  0  0  0  0  0  0
    8.3310   -2.7170   25.3430 C   0  0  0  0  0  0  0  0  0  0  0  0
   10.2570   -3.5000   24.1350 C   0  0  0  0  0  0  0  0  0  0  0  0
   10.7854    4.8463   23.0887 C   0  0  0  0  0  0  0  0  0  0  0  0
   10.8407    2.4317   23.1509 C   0  0  0  0  0  0  0  0  0  0  0  0
    9.3300   -1.3350   23.6390 C   0  0  0  0  0  0  0  0  0  0  0  0
    9.5350    2.4145   23.6414 C   0  0  0  0  0  0  0  0  0  0  0  0
    5.9810    0.8330   18.8060 C   0  0  0  0  0  0  0  0  0  0  0  0
    6.1600    0.3870   20.1140 C   0  0  0  0  0  0  0  0  0  0  0  0
    9.2850   -3.7090   25.1090 C   0  0  0  0  0  0  0  0  0  0  0  0
   11.4659    3.6477   22.8746 C   0  0  0  0  0  0  0  0  0  0  0  0
    8.9510    0.1280   21.6880 C   0  0  0  0  0  0  0  0  0  0  0  0
    8.2358   -4.9962   26.8042 C   0  0  0  0  0  0  0  0  0  0  0  0
    8.8577    1.0982   23.9421 C   0  0  0  0  0  0  0  0  0  0  0  0
    9.4200   -0.0840   22.9530 C   0  0  2  0  0  0  0  0  0  0  0  0
    6.9440    0.2550   18.0100 N   0  0  0  0  0  0  0  0  0  0  0  0
    7.6830   -0.5170   18.7600 N   0  0  0  0  0  0  0  0  0  0  0  0
    7.2210   -0.4620   20.0350 N   0  0  0  0  0  0  0  0  0  0  0  0
    8.0810   -0.9750   21.0820 N   0  0  0  0  0  0  0  0  0  0  0  0
    9.1870    1.1500   21.0630 O   0  0  0  0  0  0  0  0  0  0  0  0
    9.2637   -4.8607   25.8240 O   0  0  0  0  0  0  0  0  0  0  0  0
   13.0772    3.6696   22.2705 Cl  0  0  0  0  0  0  0  0  0  0  0  0
    3.2714    2.7876   19.3199 H   0  0  0  0  0  0  0  0  0  0  0  0
    3.6283    2.0091   21.6296 H   0  0  0  0  0  0  0  0  0  0  0  0
    8.9496    5.7622   23.7463 H   0  0  0  0  0  0  0  0  0  0  0  0
    7.8370    3.6092   24.2377 H   0  0  0  0  0  0  0  0  0  0  0  0
    7.5962   -0.7776   24.7980 H   0  0  0  0  0  0  0  0  0  0  0  0
   11.0395   -2.1844   22.6346 H   0  0  0  0  0  0  0  0  0  0  0  0
    4.7824    2.0670   17.4883 H   0  0  0  0  0  0  0  0  0  0  0  0
    5.4937    0.4574   22.1805 H   0  0  0  0  0  0  0  0  0  0  0  0
    7.5664   -2.8672   26.1058 H   0  0  0  0  0  0  0  0  0  0  0  0
   11.0120   -4.2666   23.9463 H   0  0  0  0  0  0  0  0  0  0  0  0
   11.2603    5.8014   22.8781 H   0  0  0  0  0  0  0  0  0  0  0  0
   11.3668    1.4944   22.9852 H   0  0  0  0  0  0  0  0  0  0  0  0
    8.3326   -5.9634   27.3035 H   0  0  0  0  0  0  0  0  0  0  0  0
    7.2583   -4.9194   26.3215 H   0  0  0  0  0  0  0  0  0  0  0  0
    8.3398   -4.1963   27.5412 H   0  0  0  0  0  0  0  0  0  0  0  0
    8.9995    0.8809   25.0099 H   0  0  0  0  0  0  0  0  0  0  0  0
    7.7720    1.2044   23.8156 H   0  0  0  0  0  0  0  0  0  0  0  0
   10.5616    0.2233   22.9565 H   0  0  0  0  0  0  0  0  0  0  0  0
    8.1479   -1.8049   21.3777 H   0  0  0  0  0  0  0  0  0  0  0  0
  1  2  1  0  0  0  0
  1  7  2  0  0  0  0
  2  8  2  0  0  0  0
  3  4  2  0  0  0  0
  3 11  1  0  0  0  0
  4 14  1  0  0  0  0
  5  9  2  0  0  0  0
  5 13  1  0  0  0  0
  6 10  1  0  0  0  0
  6 13  2  0  0  0  0
  7 15  1  0  0  0  0
  8 16  1  0  0  0  0
  9 17  1  0  0  0  0
 10 17  2  0  0  0  0
 11 18  2  0  0  0  0
 12 14  2  0  0  0  0
 12 18  1  0  0  0  0
 13 22  1  0  0  0  0
 14 21  1  0  0  0  0
 15 16  2  0  0  0  0
 15 23  1  0  0  0  0
 16 25  1  0  0  0  0
 17 28  1  0  0  0  0
 18 29  1  0  0  0  0
 19 22  1  0  0  0  0
 19 26  1  0  0  0  0
 19 27  2  0  0  0  0
 20 28  1  0  0  0  0
 21 22  1  6  0  0  0
 23 24  2  0  0  0  0
 24 25  1  0  0  0  0
 25 26  1  0  0  0  0
  1 30  1  0  0  0  0
  2 31  1  0  0  0  0
  3 32  1  0  0  0  0
  4 33  1  0  0  0  0
  5 34  1  0  0  0  0
  6 35  1  0  0  0  0
  7 36  1  0  0  0  0
  8 37  1  0  0  0  0
  9 38  1  0  0  0  0
 10 39  1  0  0  0  0
 11 40  1  0  0  0  0
 12 41  1  0  0  0  0
 20 42  1  0  0  0  0
 20 43  1  0  0  0  0
 20 44  1  0  0  0  0
 21 45  1  0  0  0  0
 21 46  1  0  0  0  0
 22 47  1  0  0  0  0
 26 48  1  0  0  0  0
M  END
> <clash_score>
0

> <docking_score>
-10.425801277160645

> <overlap_score>
0.8747698664665222

$$$$
BENZO_189_1
  -OEChem-08232013483D

 58 62  0     1  0  0  0  0  0999 V2000
   10.7843    4.8295   22.9656 C   0  0  0  0  0  0  0  0  0  0  0  0
   11.3381    3.9837   23.9266 C   0  0  0  0  0  0  0  0  0  0  0  0
    9.6033    4.4691   22.3167 C   0  0  0  0  0  0  0  0  0  0  0  0
    4.0980    2.1130   19.5350 C   0  0  0  0  0  0  0  0  0  0  0  0
    4.2970    1.6690   20.8430 C   0  0  0  0  0  0  0  0  0  0  0  0
   10.7110    2.7775   24.2387 C   0  0  0  0  0  0  0  0  0  0  0  0
    8.9762    3.2629   22.6288 C   0  0  0  0  0  0  0  0  0  0  0  0
    8.3510   -1.5420   24.6110 C   0  0  0  0  0  0  0  0  0  0  0  0
   10.2760   -2.3270   23.4020 C   0  0  0  0  0  0  0  0  0  0  0  0
    4.9400    1.7060   18.5060 C   0  0  0  0  0  0  0  0  0  0  0  0
    5.3360    0.8000   21.1530 C   0  0  0  0  0  0  0  0  0  0  0  0
    8.3310   -2.7170   25.3430 C   0  0  0  0  0  0  0  0  0  0  0  0
   10.2570   -3.5000   24.1350 C   0  0  0  0  0  0  0  0  0  0  0  0
    9.5300    2.4170   23.5898 C   0  0  0  0  0  0  0  0  0  0  0  0
    9.3300   -1.3350   23.6390 C   0  0  0  0  0  0  0  0  0  0  0  0
    5.9810    0.8330   18.8060 C   0  0  0  0  0  0  0  0  0  0  0  0
    6.1600    0.3870   20.1140 C   0  0  0  0  0  0  0  0  0  0  0  0
    9.2850   -3.7090   25.1090 C   0  0  0  0  0  0  0  0  0  0  0  0
    8.0643   -5.4721   26.3672 C   0  0  0  0  0  0  0  0  0  0  0  0
    8.9510    0.1280   21.6880 C   0  0  0  0  0  0  0  0  0  0  0  0
    8.2649   -6.7591   27.1477 C   0  0  0  0  0  0  0  0  0  0  0  0
    9.4073   -6.6157   28.1377 C   0  0  0  0  0  0  0  0  0  0  0  0
   10.6967   -6.1489   27.4694 C   0  0  0  0  0  0  0  0  0  0  0  0
   10.4950   -5.7059   26.0212 C   0  0  0  0  0  0  0  0  0  0  0  0
    8.8505    1.1108   23.9272 C   0  0  0  0  0  0  0  0  0  0  0  0
    9.4200   -0.0840   22.9530 C   0  0  1  0  0  0  0  0  0  0  0  0
    6.9440    0.2550   18.0100 N   0  0  0  0  0  0  0  0  0  0  0  0
    7.6830   -0.5170   18.7600 N   0  0  0  0  0  0  0  0  0  0  0  0
    7.2210   -0.4620   20.0350 N   0  0  0  0  0  0  0  0  0  0  0  0
    9.2624   -4.9267   25.8634 N   0  0  0  0  0  0  0  0  0  0  0  0
    8.0810   -0.9750   21.0820 N   0  0  0  0  0  0  0  0  0  0  0  0
    6.9247   -5.0497   26.1749 O   0  0  0  0  0  0  0  0  0  0  0  0
    9.1870    1.1500   21.0630 O   0  0  0  0  0  0  0  0  0  0  0  0
   11.2720    5.7693   22.7237 H   0  0  0  0  0  0  0  0  0  0  0  0
   12.2571    4.2647   24.4327 H   0  0  0  0  0  0  0  0  0  0  0  0
    9.1712    5.1278   21.5693 H   0  0  0  0  0  0  0  0  0  0  0  0
    3.2714    2.7876   19.3199 H   0  0  0  0  0  0  0  0  0  0  0  0
    3.6283    2.0091   21.6296 H   0  0  0  0  0  0  0  0  0  0  0  0
   11.1499    2.1247   24.9887 H   0  0  0  0  0  0  0  0  0  0  0  0
    8.0564    2.9902   22.1181 H   0  0  0  0  0  0  0  0  0  0  0  0
    7.5948   -0.7783   24.7966 H   0  0  0  0  0  0  0  0  0  0  0  0
   11.0389   -2.1844   22.6342 H   0  0  0  0  0  0  0  0  0  0  0  0
    4.7824    2.0670   17.4883 H   0  0  0  0  0  0  0  0  0  0  0  0
    5.4937    0.4574   22.1805 H   0  0  0  0  0  0  0  0  0  0  0  0
    7.5642   -2.8624   26.1050 H   0  0  0  0  0  0  0  0  0  0  0  0
   11.0137   -4.2649   23.9418 H   0  0  0  0  0  0  0  0  0  0  0  0
    7.3543   -6.9829   27.6818 H   0  0  0  0  0  0  0  0  0  0  0  0
    8.4783   -7.5436   26.4372 H   0  0  0  0  0  0  0  0  0  0  0  0
    9.1257   -5.9021   28.9399 H   0  0  0  0  0  0  0  0  0  0  0  0
    9.5814   -7.5840   28.6486 H   0  0  0  0  0  0  0  0  0  0  0  0
   11.1319   -5.3094   28.0513 H   0  0  0  0  0  0  0  0  0  0  0  0
   11.4591   -6.9570   27.5118 H   0  0  0  0  0  0  0  0  0  0  0  0
   11.3214   -5.0711   25.7158 H   0  0  0  0  0  0  0  0  0  0  0  0
   10.4496   -6.5786   25.3788 H   0  0  0  0  0  0  0  0  0  0  0  0
    8.9923    0.9231   25.0006 H   0  0  0  0  0  0  0  0  0  0  0  0
    7.7650    1.2154   23.7981 H   0  0  0  0  0  0  0  0  0  0  0  0
   10.5617    0.2354   22.9523 H   0  0  0  0  0  0  0  0  0  0  0  0
    8.1256   -1.8039   21.3539 H   0  0  0  0  0  0  0  0  0  0  0  0
  1  2  1  0  0  0  0
  1  3  2  0  0  0  0
  2  6  2  0  0  0  0
  3  7  1  0  0  0  0
  4  5  1  0  0  0  0
  4 10  2  0  0  0  0
  5 11  2  0  0  0  0
  6 14  1  0  0  0  0
  7 14  2  0  0  0  0
  8 12  2  0  0  0  0
  8 15  1  0  0  0  0
  9 13  1  0  0  0  0
  9 15  2  0  0  0  0
 10 16  1  0  0  0  0
 11 17  1  0  0  0  0
 12 18  1  0  0  0  0
 13 18  2  0  0  0  0
 14 25  1  0  0  0  0
 15 26  1  0  0  0  0
 16 17  2  0  0  0  0
 16 27  1  0  0  0  0
 17 29  1  0  0  0  0
 18 30  1  0  0  0  0
 19 21  1  0  0  0  0
 19 30  1  0  0  0  0
 19 32  2  0  0  0  0
 20 26  1  1  0  0  0
 20 31  1  0  0  0  0
 20 33  2  0  0  0  0
 21 22  1  0  0  0  0
 22 23  1  0  0  0  0
 23 24  1  0  0  0  0
 24 30  1  0  0  0  0
 25 26  1  0  0  0  0
 27 28  2  0  0  0  0
 28 29  1  0  0  0  0
 29 31  1  0  0  0  0
  1 34  1  0  0  0  0
  2 35  1  0  0  0  0
  3 36  1  0  0  0  0
  4 37  1  0  0  0  0
  5 38  1  0  0  0  0
  6 39  1  0  0  0  0
  7 40  1  0  0  0  0
  8 41  1  0  0  0  0
  9 42  1  0  0  0  0
 10 43  1  0  0  0  0
 11 44  1  0  0  0  0
 12 45  1  0  0  0  0
 13 46  1  0  0  0  0
 21 47  1  0  0  0  0
 21 48  1  0  0  0  0
 22 49  1  0  0  0  0
 22 50  1  0  0  0  0
 23 51  1  0  0  0  0
 23 52  1  0  0  0  0
 24 53  1  0  0  0  0
 24 54  1  0  0  0  0
 25 55  1  0  0  0  0
 25 56  1  0  0  0  0
 26 57  1  0  0  0  0
 31 58  1  0  0  0  0
M  END
> <clash_score>
1.2728248649063287

> <docking_score>
-6.157844543457031

> <overlap_score>
0.8668079972267151

$$$$
BENZO_189_2
  -OEChem-08232013483D

 58 62  0     1  0  0  0  0  0999 V2000
   11.4573    4.7430   22.9507 C   0  0  0  0  0  0  0  0  0  0  0  0
   12.4605    3.9133   22.4499 C   0  0  0  0  0  0  0  0  0  0  0  0
   10.2948    4.1875   23.4852 C   0  0  0  0  0  0  0  0  0  0  0  0
    4.0980    2.1130   19.5350 C   0  0  0  0  0  0  0  0  0  0  0  0
    4.2970    1.6690   20.8430 C   0  0  0  0  0  0  0  0  0  0  0  0
   12.3011    2.5280   22.4835 C   0  0  0  0  0  0  0  0  0  0  0  0
   10.1355    2.8022   23.5188 C   0  0  0  0  0  0  0  0  0  0  0  0
    8.3510   -1.5420   24.6110 C   0  0  0  0  0  0  0  0  0  0  0  0
   10.2760   -2.3270   23.4020 C   0  0  0  0  0  0  0  0  0  0  0  0
    4.9400    1.7060   18.5060 C   0  0  0  0  0  0  0  0  0  0  0  0
    5.3360    0.8000   21.1530 C   0  0  0  0  0  0  0  0  0  0  0  0
    8.3310   -2.7170   25.3430 C   0  0  0  0  0  0  0  0  0  0  0  0
   10.2570   -3.5000   24.1350 C   0  0  0  0  0  0  0  0  0  0  0  0
   11.1386    1.9724   23.0179 C   0  0  0  0  0  0  0  0  0  0  0  0
    9.3300   -1.3350   23.6390 C   0  0  0  0  0  0  0  0  0  0  0  0
    5.9810    0.8330   18.8060 C   0  0  0  0  0  0  0  0  0  0  0  0
    6.1600    0.3870   20.1140 C   0  0  0  0  0  0  0  0  0  0  0  0
    9.2850   -3.7090   25.1090 C   0  0  0  0  0  0  0  0  0  0  0  0
    8.0643   -5.4721   26.3672 C   0  0  0  0  0  0  0  0  0  0  0  0
    8.9510    0.1280   21.6880 C   0  0  0  0  0  0  0  0  0  0  0  0
    8.2649   -6.7591   27.1477 C   0  0  0  0  0  0  0  0  0  0  0  0
    9.4073   -6.6157   28.1377 C   0  0  0  0  0  0  0  0  0  0  0  0
   10.6967   -6.1489   27.4694 C   0  0  0  0  0  0  0  0  0  0  0  0
   10.4950   -5.7059   26.0212 C   0  0  0  0  0  0  0  0  0  0  0  0
   10.9652    0.4722   23.0544 C   0  0  0  0  0  0  0  0  0  0  0  0
    9.4200   -0.0840   22.9530 C   0  0  2  0  0  0  0  0  0  0  0  0
    6.9440    0.2550   18.0100 N   0  0  0  0  0  0  0  0  0  0  0  0
    7.6830   -0.5170   18.7600 N   0  0  0  0  0  0  0  0  0  0  0  0
    7.2210   -0.4620   20.0350 N   0  0  0  0  0  0  0  0  0  0  0  0
    9.2624   -4.9267   25.8634 N   0  0  0  0  0  0  0  0  0  0  0  0
    8.0810   -0.9750   21.0820 N   0  0  0  0  0  0  0  0  0  0  0  0
    6.9247   -5.0497   26.1749 O   0  0  0  0  0  0  0  0  0  0  0  0
    9.1870    1.1500   21.0630 O   0  0  0  0  0  0  0  0  0  0  0  0
   11.5822    5.8217   22.9257 H   0  0  0  0  0  0  0  0  0  0  0  0
   13.3662    4.3457   22.0347 H   0  0  0  0  0  0  0  0  0  0  0  0
    9.5141    4.8332   23.8762 H   0  0  0  0  0  0  0  0  0  0  0  0
    3.2714    2.7876   19.3199 H   0  0  0  0  0  0  0  0  0  0  0  0
    3.6283    2.0091   21.6296 H   0  0  0  0  0  0  0  0  0  0  0  0
   13.0879    1.8892   22.0908 H   0  0  0  0  0  0  0  0  0  0  0  0
    9.2263    2.3782   23.9370 H   0  0  0  0  0  0  0  0  0  0  0  0
    7.5948   -0.7783   24.7966 H   0  0  0  0  0  0  0  0  0  0  0  0
   11.0389   -2.1844   22.6342 H   0  0  0  0  0  0  0  0  0  0  0  0
    4.7824    2.0670   17.4883 H   0  0  0  0  0  0  0  0  0  0  0  0
    5.4937    0.4574   22.1805 H   0  0  0  0  0  0  0  0  0  0  0  0
    7.5642   -2.8624   26.1050 H   0  0  0  0  0  0  0  0  0  0  0  0
   11.0137   -4.2649   23.9418 H   0  0  0  0  0  0  0  0  0  0  0  0
    7.3543   -6.9829   27.6818 H   0  0  0  0  0  0  0  0  0  0  0  0
    8.4783   -7.5436   26.4372 H   0  0  0  0  0  0  0  0  0  0  0  0
    9.1257   -5.9021   28.9399 H   0  0  0  0  0  0  0  0  0  0  0  0
    9.5814   -7.5840   28.6486 H   0  0  0  0  0  0  0  0  0  0  0  0
   11.1319   -5.3094   28.0513 H   0  0  0  0  0  0  0  0  0  0  0  0
   11.4591   -6.9570   27.5118 H   0  0  0  0  0  0  0  0  0  0  0  0
   11.3214   -5.0711   25.7158 H   0  0  0  0  0  0  0  0  0  0  0  0
   10.4496   -6.5786   25.3788 H   0  0  0  0  0  0  0  0  0  0  0  0
   11.5818    0.0409   22.2535 H   0  0  0  0  0  0  0  0  0  0  0  0
   11.3901    0.0742   23.9855 H   0  0  0  0  0  0  0  0  0  0  0  0
    8.9113    0.7342   23.6444 H   0  0  0  0  0  0  0  0  0  0  0  0
    8.1256   -1.8039   21.3539 H   0  0  0  0  0  0  0  0  0  0  0  0
  1  2  1  0  0  0  0
  1  3  2  0  0  0  0
  2  6  2  0  0  0  0
  3  7  1  0  0  0  0
  4  5  1  0  0  0  0
  4 10  2  0  0  0  0
  5 11  2  0  0  0  0
  6 14  1  0  0  0  0
  7 14  2  0  0  0  0
  8 12  2  0  0  0  0
  8 15  1  0  0  0  0
  9 13  1  0  0  0  0
  9 15  2  0  0  0  0
 10 16  1  0  0  0  0
 11 17  1  0  0  0  0
 12 18  1  0  0  0  0
 13 18  2  0  0  0  0
 14 25  1  0  0  0  0
 15 26  1  0  0  0  0
 16 17  2  0  0  0  0
 16 27  1  0  0  0  0
 17 29  1  0  0  0  0
 18 30  1  0  0  0  0
 19 21  1  0  0  0  0
 19 30  1  0  0  0  0
 19 32  2  0  0  0  0
 20 26  1  6  0  0  0
 20 31  1  0  0  0  0
 20 33  2  0  0  0  0
 21 22  1  0  0  0  0
 22 23  1  0  0  0  0
 23 24  1  0  0  0  0
 24 30  1  0  0  0  0
 25 26  1  0  0  0  0
 27 28  2  0  0  0  0
 28 29  1  0  0  0  0
 29 31  1  0  0  0  0
  1 34  1  0  0  0  0
  2 35  1  0  0  0  0
  3 36  1  0  0  0  0
  4 37  1  0  0  0  0
  5 38  1  0  0  0  0
  6 39  1  0  0  0  0
  7 40  1  0  0  0  0
  8 41  1  0  0  0  0
  9 42  1  0  0  0  0
 10 43  1  0  0  0  0
 11 44  1  0  0  0  0
 12 45  1  0  0  0  0
 13 46  1  0  0  0  0
 21 47  1  0  0  0  0
 21 48  1  0  0  0  0
 22 49  1  0  0  0  0
 22 50  1  0  0  0  0
 23 51  1  0  0  0  0
 23 52  1  0  0  0  0
 24 53  1  0  0  0  0
 24 54  1  0  0  0  0
 25 55  1  0  0  0  0
 25 56  1  0  0  0  0
 26 57  1  0  0  0  0
 31 58  1  0  0  0  0
M  END
> <clash_score>
1.2728248649063287

> <docking_score>
-9.49406623840332

> <overlap_score>
0.9445502758026123

$$$$
BENZO_188_1
  -OEChem-08232013483D

 55 59  0     1  0  0  0  0  0999 V2000
    4.0980    2.1130   19.5350 C   0  0  0  0  0  0  0  0  0  0  0  0
    4.2970    1.6690   20.8430 C   0  0  0  0  0  0  0  0  0  0  0  0
    8.3510   -1.5420   24.6110 C   0  0  0  0  0  0  0  0  0  0  0  0
   10.2760   -2.3270   23.4020 C   0  0  0  0  0  0  0  0  0  0  0  0
    4.9400    1.7060   18.5060 C   0  0  0  0  0  0  0  0  0  0  0  0
    5.3360    0.8000   21.1530 C   0  0  0  0  0  0  0  0  0  0  0  0
    8.3310   -2.7170   25.3430 C   0  0  0  0  0  0  0  0  0  0  0  0
   10.2570   -3.5000   24.1350 C   0  0  0  0  0  0  0  0  0  0  0  0
    8.8849    3.6862   23.6466 C   0  0  0  0  0  0  0  0  0  0  0  0
    9.7306    4.7130   23.2889 C   0  0  0  0  0  0  0  0  0  0  0  0
   10.8444    2.5223   23.1906 C   0  0  0  0  0  0  0  0  0  0  0  0
    9.3300   -1.3350   23.6390 C   0  0  0  0  0  0  0  0  0  0  0  0
    9.5300    2.4170   23.5898 C   0  0  0  0  0  0  0  0  0  0  0  0
    5.9810    0.8330   18.8060 C   0  0  0  0  0  0  0  0  0  0  0  0
    6.1600    0.3870   20.1140 C   0  0  0  0  0  0  0  0  0  0  0  0
    9.2850   -3.7090   25.1090 C   0  0  0  0  0  0  0  0  0  0  0  0
    8.0643   -5.4721   26.3672 C   0  0  0  0  0  0  0  0  0  0  0  0
    8.9510    0.1280   21.6880 C   0  0  0  0  0  0  0  0  0  0  0  0
    8.2649   -6.7591   27.1477 C   0  0  0  0  0  0  0  0  0  0  0  0
    9.4073   -6.6157   28.1377 C   0  0  0  0  0  0  0  0  0  0  0  0
   10.6967   -6.1489   27.4694 C   0  0  0  0  0  0  0  0  0  0  0  0
   10.4950   -5.7059   26.0212 C   0  0  0  0  0  0  0  0  0  0  0  0
    8.8505    1.1108   23.9272 C   0  0  0  0  0  0  0  0  0  0  0  0
    9.4200   -0.0840   22.9530 C   0  0  1  0  0  0  0  0  0  0  0  0
    6.9440    0.2550   18.0100 N   0  0  0  0  0  0  0  0  0  0  0  0
    7.6830   -0.5170   18.7600 N   0  0  0  0  0  0  0  0  0  0  0  0
    7.2210   -0.4620   20.0350 N   0  0  0  0  0  0  0  0  0  0  0  0
    9.2624   -4.9267   25.8634 N   0  0  0  0  0  0  0  0  0  0  0  0
    8.0810   -0.9750   21.0820 N   0  0  0  0  0  0  0  0  0  0  0  0
    6.9247   -5.0497   26.1749 O   0  0  0  0  0  0  0  0  0  0  0  0
    9.1870    1.1500   21.0630 O   0  0  0  0  0  0  0  0  0  0  0  0
   11.2955    4.1459   22.8866 S   0  0  0  0  0  0  0  0  0  0  0  0
    3.2714    2.7876   19.3199 H   0  0  0  0  0  0  0  0  0  0  0  0
    3.6283    2.0091   21.6296 H   0  0  0  0  0  0  0  0  0  0  0  0
    7.5948   -0.7783   24.7966 H   0  0  0  0  0  0  0  0  0  0  0  0
   11.0389   -2.1844   22.6342 H   0  0  0  0  0  0  0  0  0  0  0  0
    4.7824    2.0670   17.4883 H   0  0  0  0  0  0  0  0  0  0  0  0
    5.4937    0.4574   22.1805 H   0  0  0  0  0  0  0  0  0  0  0  0
    7.5642   -2.8624   26.1050 H   0  0  0  0  0  0  0  0  0  0  0  0
   11.0137   -4.2649   23.9418 H   0  0  0  0  0  0  0  0  0  0  0  0
    7.8528    3.8425   23.9343 H   0  0  0  0  0  0  0  0  0  0  0  0
    9.5042    5.7689   23.2439 H   0  0  0  0  0  0  0  0  0  0  0  0
   11.5641    1.7260   23.0605 H   0  0  0  0  0  0  0  0  0  0  0  0
    7.3543   -6.9829   27.6818 H   0  0  0  0  0  0  0  0  0  0  0  0
    8.4783   -7.5436   26.4372 H   0  0  0  0  0  0  0  0  0  0  0  0
    9.1257   -5.9021   28.9399 H   0  0  0  0  0  0  0  0  0  0  0  0
    9.5814   -7.5840   28.6486 H   0  0  0  0  0  0  0  0  0  0  0  0
   11.1319   -5.3094   28.0513 H   0  0  0  0  0  0  0  0  0  0  0  0
   11.4591   -6.9570   27.5118 H   0  0  0  0  0  0  0  0  0  0  0  0
   11.3214   -5.0711   25.7158 H   0  0  0  0  0  0  0  0  0  0  0  0
   10.4496   -6.5786   25.3788 H   0  0  0  0  0  0  0  0  0  0  0  0
    8.9923    0.9231   25.0006 H   0  0  0  0  0  0  0  0  0  0  0  0
    7.7650    1.2154   23.7981 H   0  0  0  0  0  0  0  0  0  0  0  0
   10.5617    0.2354   22.9523 H   0  0  0  0  0  0  0  0  0  0  0  0
    8.1256   -1.8039   21.3539 H   0  0  0  0  0  0  0  0  0  0  0  0
  1  2  1  0  0  0  0
  1  5  2  0  0  0  0
  2  6  2  0  0  0  0
  3  7  2  0  0  0  0
  3 12  1  0  0  0  0
  4  8  1  0  0  0  0
  4 12  2  0  0  0  0
  5 14  1  0  0  0  0
  6 15  1  0  0  0  0
  7 16  1  0  0  0  0
  8 16  2  0  0  0  0
  9 10  2  0  0  0  0
  9 13  1  0  0  0  0
 10 32  1  0  0  0  0
 11 13  2  0  0  0  0
 11 32  1  0  0  0  0
 12 24  1  0  0  0  0
 13 23  1  0  0  0  0
 14 15  2  0  0  0  0
 14 25  1  0  0  0  0
 15 27  1  0  0  0  0
 16 28  1  0  0  0  0
 17 19  1  0  0  0  0
 17 28  1  0  0  0  0
 17 30  2  0  0  0  0
 18 24  1  1  0  0  0
 18 29  1  0  0  0  0
 18 31  2  0  0  0  0
 19 20  1  0  0  0  0
 20 21  1  0  0  0  0
 21 22  1  0  0  0  0
 22 28  1  0  0  0  0
 23 24  1  0  0  0  0
 25 26  2  0  0  0  0
 26 27  1  0  0  0  0
 27 29  1  0  0  0  0
  1 33  1  0  0  0  0
  2 34  1  0  0  0  0
  3 35  1  0  0  0  0
  4 36  1  0  0  0  0
  5 37  1  0  0  0  0
  6 38  1  0  0  0  0
  7 39  1  0  0  0  0
  8 40  1  0  0  0  0
  9 41  1  0  0  0  0
 10 42  1  0  0  0  0
 11 43  1  0  0  0  0
 19 44  1  0  0  0  0
 19 45  1  0  0  0  0
 20 46  1  0  0  0  0
 20 47  1  0  0  0  0
 21 48  1  0  0  0  0
 21 49  1  0  0  0  0
 22 50  1  0  0  0  0
 22 51  1  0  0  0  0
 23 52  1  0  0  0  0
 23 53  1  0  0  0  0
 24 54  1  0  0  0  0
 29 55  1  0  0  0  0
M  END
> <clash_score>
1.2728248649063287

> <docking_score>
-7.768721103668213

> <overlap_score>
0.8785838484764099

$$$$
BENZO_188_2
  -OEChem-08232013483D

 55 59  0     1  0  0  0  0  0999 V2000
    4.0980    2.1130   19.5350 C   0  0  0  0  0  0  0  0  0  0  0  0
    4.2970    1.6690   20.8430 C   0  0  0  0  0  0  0  0  0  0  0  0
    8.3510   -1.5420   24.6110 C   0  0  0  0  0  0  0  0  0  0  0  0
   10.2760   -2.3270   23.4020 C   0  0  0  0  0  0  0  0  0  0  0  0
    4.9400    1.7060   18.5060 C   0  0  0  0  0  0  0  0  0  0  0  0
    5.3360    0.8000   21.1530 C   0  0  0  0  0  0  0  0  0  0  0  0
    8.3310   -2.7170   25.3430 C   0  0  0  0  0  0  0  0  0  0  0  0
   10.2570   -3.5000   24.1350 C   0  0  0  0  0  0  0  0  0  0  0  0
   11.9711    2.6535   22.0835 C   0  0  0  0  0  0  0  0  0  0  0  0
   11.9494    4.0182   22.2699 C   0  0  0  0  0  0  0  0  0  0  0  0
   10.5124    2.8425   23.8832 C   0  0  0  0  0  0  0  0  0  0  0  0
    9.3300   -1.3350   23.6390 C   0  0  0  0  0  0  0  0  0  0  0  0
   11.1386    1.9724   23.0179 C   0  0  0  0  0  0  0  0  0  0  0  0
    5.9810    0.8330   18.8060 C   0  0  0  0  0  0  0  0  0  0  0  0
    6.1600    0.3870   20.1140 C   0  0  0  0  0  0  0  0  0  0  0  0
    9.2850   -3.7090   25.1090 C   0  0  0  0  0  0  0  0  0  0  0  0
    8.0643   -5.4721   26.3672 C   0  0  0  0  0  0  0  0  0  0  0  0
    8.9510    0.1280   21.6880 C   0  0  0  0  0  0  0  0  0  0  0  0
    8.2649   -6.7591   27.1477 C   0  0  0  0  0  0  0  0  0  0  0  0
    9.4073   -6.6157   28.1377 C   0  0  0  0  0  0  0  0  0  0  0  0
   10.6967   -6.1489   27.4694 C   0  0  0  0  0  0  0  0  0  0  0  0
   10.4950   -5.7059   26.0212 C   0  0  0  0  0  0  0  0  0  0  0  0
   10.9652    0.4722   23.0544 C   0  0  0  0  0  0  0  0  0  0  0  0
    9.4200   -0.0840   22.9530 C   0  0  2  0  0  0  0  0  0  0  0  0
    6.9440    0.2550   18.0100 N   0  0  0  0  0  0  0  0  0  0  0  0
    7.6830   -0.5170   18.7600 N   0  0  0  0  0  0  0  0  0  0  0  0
    7.2210   -0.4620   20.0350 N   0  0  0  0  0  0  0  0  0  0  0  0
    9.2624   -4.9267   25.8634 N   0  0  0  0  0  0  0  0  0  0  0  0
    8.0810   -0.9750   21.0820 N   0  0  0  0  0  0  0  0  0  0  0  0
    6.9247   -5.0497   26.1749 O   0  0  0  0  0  0  0  0  0  0  0  0
    9.1870    1.1500   21.0630 O   0  0  0  0  0  0  0  0  0  0  0  0
   10.9285    4.4733   23.5673 S   0  0  0  0  0  0  0  0  0  0  0  0
    3.2714    2.7876   19.3199 H   0  0  0  0  0  0  0  0  0  0  0  0
    3.6283    2.0091   21.6296 H   0  0  0  0  0  0  0  0  0  0  0  0
    7.5948   -0.7783   24.7966 H   0  0  0  0  0  0  0  0  0  0  0  0
   11.0389   -2.1844   22.6342 H   0  0  0  0  0  0  0  0  0  0  0  0
    4.7824    2.0670   17.4883 H   0  0  0  0  0  0  0  0  0  0  0  0
    5.4937    0.4574   22.1805 H   0  0  0  0  0  0  0  0  0  0  0  0
    7.5642   -2.8624   26.1050 H   0  0  0  0  0  0  0  0  0  0  0  0
   11.0137   -4.2649   23.9418 H   0  0  0  0  0  0  0  0  0  0  0  0
   12.5582    2.1709   21.3124 H   0  0  0  0  0  0  0  0  0  0  0  0
   12.4846    4.7697   21.7069 H   0  0  0  0  0  0  0  0  0  0  0  0
    9.8309    2.6028   24.6876 H   0  0  0  0  0  0  0  0  0  0  0  0
    7.3543   -6.9829   27.6818 H   0  0  0  0  0  0  0  0  0  0  0  0
    8.4783   -7.5436   26.4372 H   0  0  0  0  0  0  0  0  0  0  0  0
    9.1257   -5.9021   28.9399 H   0  0  0  0  0  0  0  0  0  0  0  0
    9.5814   -7.5840   28.6486 H   0  0  0  0  0  0  0  0  0  0  0  0
   11.1319   -5.3094   28.0513 H   0  0  0  0  0  0  0  0  0  0  0  0
   11.4591   -6.9570   27.5118 H   0  0  0  0  0  0  0  0  0  0  0  0
   11.3214   -5.0711   25.7158 H   0  0  0  0  0  0  0  0  0  0  0  0
   10.4496   -6.5786   25.3788 H   0  0  0  0  0  0  0  0  0  0  0  0
   11.5818    0.0409   22.2535 H   0  0  0  0  0  0  0  0  0  0  0  0
   11.3901    0.0742   23.9855 H   0  0  0  0  0  0  0  0  0  0  0  0
    8.9113    0.7342   23.6444 H   0  0  0  0  0  0  0  0  0  0  0  0
    8.1256   -1.8039   21.3539 H   0  0  0  0  0  0  0  0  0  0  0  0
  1  2  1  0  0  0  0
  1  5  2  0  0  0  0
  2  6  2  0  0  0  0
  3  7  2  0  0  0  0
  3 12  1  0  0  0  0
  4  8  1  0  0  0  0
  4 12  2  0  0  0  0
  5 14  1  0  0  0  0
  6 15  1  0  0  0  0
  7 16  1  0  0  0  0
  8 16  2  0  0  0  0
  9 10  2  0  0  0  0
  9 13  1  0  0  0  0
 10 32  1  0  0  0  0
 11 13  2  0  0  0  0
 11 32  1  0  0  0  0
 12 24  1  0  0  0  0
 13 23  1  0  0  0  0
 14 15  2  0  0  0  0
 14 25  1  0  0  0  0
 15 27  1  0  0  0  0
 16 28  1  0  0  0  0
 17 19  1  0  0  0  0
 17 28  1  0  0  0  0
 17 30  2  0  0  0  0
 18 24  1  6  0  0  0
 18 29  1  0  0  0  0
 18 31  2  0  0  0  0
 19 20  1  0  0  0  0
 20 21  1  0  0  0  0
 21 22  1  0  0  0  0
 22 28  1  0  0  0  0
 23 24  1  0  0  0  0
 25 26  2  0  0  0  0
 26 27  1  0  0  0  0
 27 29  1  0  0  0  0
  1 33  1  0  0  0  0
  2 34  1  0  0  0  0
  3 35  1  0  0  0  0
  4 36  1  0  0  0  0
  5 37  1  0  0  0  0
  6 38  1  0  0  0  0
  7 39  1  0  0  0  0
  8 40  1  0  0  0  0
  9 41  1  0  0  0  0
 10 42  1  0  0  0  0
 11 43  1  0  0  0  0
 19 44  1  0  0  0  0
 19 45  1  0  0  0  0
 20 46  1  0  0  0  0
 20 47  1  0  0  0  0
 21 48  1  0  0  0  0
 21 49  1  0  0  0  0
 22 50  1  0  0  0  0
 22 51  1  0  0  0  0
 23 52  1  0  0  0  0
 23 53  1  0  0  0  0
 24 54  1  0  0  0  0
 29 55  1  0  0  0  0
M  END
> <clash_score>
1.2728248649063287

> <docking_score>
-8.42153263092041

> <overlap_score>
0.9346531629562378

$$$$
BENZO_190_1
  -OEChem-08232013483D

 58 62  0     1  0  0  0  0  0999 V2000
    4.0980    2.1130   19.5350 C   0  0  0  0  0  0  0  0  0  0  0  0
    4.2970    1.6690   20.8430 C   0  0  0  0  0  0  0  0  0  0  0  0
   11.3400    3.9813   23.9270 C   0  0  0  0  0  0  0  0  0  0  0  0
   10.7114    2.7759   24.2388 C   0  0  0  0  0  0  0  0  0  0  0  0
    8.3510   -1.5420   24.6110 C   0  0  0  0  0  0  0  0  0  0  0  0
   10.2760   -2.3270   23.4020 C   0  0  0  0  0  0  0  0  0  0  0  0
    4.9400    1.7060   18.5060 C   0  0  0  0  0  0  0  0  0  0  0  0
    5.3360    0.8000   21.1530 C   0  0  0  0  0  0  0  0  0  0  0  0
    8.3310   -2.7170   25.3430 C   0  0  0  0  0  0  0  0  0  0  0  0
   10.2570   -3.5000   24.1350 C   0  0  0  0  0  0  0  0  0  0  0  0
   10.7872    4.8281   22.9662 C   0  0  0  0  0  0  0  0  0  0  0  0
    8.9772    3.2638   22.6290 C   0  0  0  0  0  0  0  0  0  0  0  0
    9.3300   -1.3350   23.6390 C   0  0  0  0  0  0  0  0  0  0  0  0
    9.5300    2.4170   23.5898 C   0  0  0  0  0  0  0  0  0  0  0  0
    5.9810    0.8330   18.8060 C   0  0  0  0  0  0  0  0  0  0  0  0
    6.1600    0.3870   20.1140 C   0  0  0  0  0  0  0  0  0  0  0  0
    9.2850   -3.7090   25.1090 C   0  0  0  0  0  0  0  0  0  0  0  0
    9.6058    4.4693   22.3172 C   0  0  0  0  0  0  0  0  0  0  0  0
    8.2936   -5.1727   26.8573 C   0  0  0  0  0  0  0  0  0  0  0  0
    8.9510    0.1280   21.6880 C   0  0  0  0  0  0  0  0  0  0  0  0
    8.4570   -6.5172   27.5438 C   0  0  0  0  0  0  0  0  0  0  0  0
    9.9041   -6.7452   27.9437 C   0  0  0  0  0  0  0  0  0  0  0  0
   10.8613   -6.5876   26.7664 C   0  0  0  0  0  0  0  0  0  0  0  0
   10.1902   -6.0099   25.5212 C   0  0  0  0  0  0  0  0  0  0  0  0
    8.8505    1.1108   23.9272 C   0  0  0  0  0  0  0  0  0  0  0  0
    9.4200   -0.0840   22.9530 C   0  0  1  0  0  0  0  0  0  0  0  0
    6.9440    0.2550   18.0100 N   0  0  0  0  0  0  0  0  0  0  0  0
    7.6830   -0.5170   18.7600 N   0  0  0  0  0  0  0  0  0  0  0  0
    7.2210   -0.4620   20.0350 N   0  0  0  0  0  0  0  0  0  0  0  0
    9.2624   -4.9267   25.8634 N   0  0  0  0  0  0  0  0  0  0  0  0
    8.0810   -0.9750   21.0820 N   0  0  0  0  0  0  0  0  0  0  0  0
    7.3372   -4.4549   27.1472 O   0  0  0  0  0  0  0  0  0  0  0  0
    9.1870    1.1500   21.0630 O   0  0  0  0  0  0  0  0  0  0  0  0
    8.9248    5.5139   21.1311 Cl  0  0  0  0  0  0  0  0  0  0  0  0
    3.2714    2.7876   19.3199 H   0  0  0  0  0  0  0  0  0  0  0  0
    3.6283    2.0091   21.6296 H   0  0  0  0  0  0  0  0  0  0  0  0
   12.2600    4.2603   24.4325 H   0  0  0  0  0  0  0  0  0  0  0  0
   11.1493    2.1222   24.9887 H   0  0  0  0  0  0  0  0  0  0  0  0
    7.5948   -0.7783   24.7966 H   0  0  0  0  0  0  0  0  0  0  0  0
   11.0389   -2.1844   22.6342 H   0  0  0  0  0  0  0  0  0  0  0  0
    4.7824    2.0670   17.4883 H   0  0  0  0  0  0  0  0  0  0  0  0
    5.4937    0.4574   22.1805 H   0  0  0  0  0  0  0  0  0  0  0  0
    7.5642   -2.8624   26.1050 H   0  0  0  0  0  0  0  0  0  0  0  0
   11.0137   -4.2649   23.9418 H   0  0  0  0  0  0  0  0  0  0  0  0
   11.2882    5.7644   22.7331 H   0  0  0  0  0  0  0  0  0  0  0  0
    8.0556    2.9797   22.1262 H   0  0  0  0  0  0  0  0  0  0  0  0
    7.8354   -6.5308   28.4258 H   0  0  0  0  0  0  0  0  0  0  0  0
    8.1327   -7.2802   26.8520 H   0  0  0  0  0  0  0  0  0  0  0  0
   10.1894   -6.0388   28.7510 H   0  0  0  0  0  0  0  0  0  0  0  0
   10.0147   -7.7577   28.3814 H   0  0  0  0  0  0  0  0  0  0  0  0
   11.7074   -5.9326   27.0628 H   0  0  0  0  0  0  0  0  0  0  0  0
   11.3252   -7.5678   26.5219 H   0  0  0  0  0  0  0  0  0  0  0  0
   10.9447   -5.5942   24.8603 H   0  0  0  0  0  0  0  0  0  0  0  0
    9.6472   -6.7947   25.0059 H   0  0  0  0  0  0  0  0  0  0  0  0
    8.9923    0.9231   25.0006 H   0  0  0  0  0  0  0  0  0  0  0  0
    7.7650    1.2154   23.7981 H   0  0  0  0  0  0  0  0  0  0  0  0
   10.5617    0.2354   22.9523 H   0  0  0  0  0  0  0  0  0  0  0  0
    8.1256   -1.8039   21.3539 H   0  0  0  0  0  0  0  0  0  0  0  0
  1  2  1  0  0  0  0
  1  7  2  0  0  0  0
  2  8  2  0  0  0  0
  3  4  2  0  0  0  0
  3 11  1  0  0  0  0
  4 14  1  0  0  0  0
  5  9  2  0  0  0  0
  5 13  1  0  0  0  0
  6 10  1  0  0  0  0
  6 13  2  0  0  0  0
  7 15  1  0  0  0  0
  8 16  1  0  0  0  0
  9 17  1  0  0  0  0
 10 17  2  0  0  0  0
 11 18  2  0  0  0  0
 12 14  2  0  0  0  0
 12 18  1  0  0  0  0
 13 26  1  0  0  0  0
 14 25  1  0  0  0  0
 15 16  2  0  0  0  0
 15 27  1  0  0  0  0
 16 29  1  0  0  0  0
 17 30  1  0  0  0  0
 18 34  1  0  0  0  0
 19 21  1  0  0  0  0
 19 30  1  0  0  0  0
 19 32  2  0  0  0  0
 20 26  1  1  0  0  0
 20 31  1  0  0  0  0
 20 33  2  0  0  0  0
 21 22  1  0  0  0  0
 22 23  1  0  0  0  0
 23 24  1  0  0  0  0
 24 30  1  0  0  0  0
 25 26  1  0  0  0  0
 27 28  2  0  0  0  0
 28 29  1  0  0  0  0
 29 31  1  0  0  0  0
  1 35  1  0  0  0  0
  2 36  1  0  0  0  0
  3 37  1  0  0  0  0
  4 38  1  0  0  0  0
  5 39  1  0  0  0  0
  6 40  1  0  0  0  0
  7 41  1  0  0  0  0
  8 42  1  0  0  0  0
  9 43  1  0  0  0  0
 10 44  1  0  0  0  0
 11 45  1  0  0  0  0
 12 46  1  0  0  0  0
 21 47  1  0  0  0  0
 21 48  1  0  0  0  0
 22 49  1  0  0  0  0
 22 50  1  0  0  0  0
 23 51  1  0  0  0  0
 23 52  1  0  0  0  0
 24 53  1  0  0  0  0
 24 54  1  0  0  0  0
 25 55  1  0  0  0  0
 25 56  1  0  0  0  0
 26 57  1  0  0  0  0
 31 58  1  0  0  0  0
M  END
> <clash_score>
2.754442320719673

> <docking_score>
-5.369749546051025

> <overlap_score>
0.8663573265075684

$$$$
BENZO_191_2
  -OEChem-08232013483D

 58 62  0     1  0  0  0  0  0999 V2000
    4.0980    2.1130   19.5350 C   0  0  0  0  0  0  0  0  0  0  0  0
    4.2970    1.6690   20.8430 C   0  0  0  0  0  0  0  0  0  0  0  0
    8.3510   -1.5420   24.6110 C   0  0  0  0  0  0  0  0  0  0  0  0
   10.2760   -2.3270   23.4020 C   0  0  0  0  0  0  0  0  0  0  0  0
    4.9400    1.7060   18.5060 C   0  0  0  0  0  0  0  0  0  0  0  0
    5.3360    0.8000   21.1530 C   0  0  0  0  0  0  0  0  0  0  0  0
    8.3310   -2.7170   25.3430 C   0  0  0  0  0  0  0  0  0  0  0  0
   10.2570   -3.5000   24.1350 C   0  0  0  0  0  0  0  0  0  0  0  0
   10.8281    2.6090   23.0801 C   0  0  0  0  0  0  0  0  0  0  0  0
    9.0171    3.6855   23.7097 C   0  0  0  0  0  0  0  0  0  0  0  0
    9.3300   -1.3350   23.6390 C   0  0  0  0  0  0  0  0  0  0  0  0
    9.5300    2.4170   23.5898 C   0  0  0  0  0  0  0  0  0  0  0  0
    5.9810    0.8330   18.8060 C   0  0  0  0  0  0  0  0  0  0  0  0
    6.1600    0.3870   20.1140 C   0  0  0  0  0  0  0  0  0  0  0  0
    9.2850   -3.7090   25.1090 C   0  0  0  0  0  0  0  0  0  0  0  0
    8.0643   -5.4721   26.3672 C   0  0  0  0  0  0  0  0  0  0  0  0
    8.9510    0.1280   21.6880 C   0  0  0  0  0  0  0  0  0  0  0  0
    8.2649   -6.7591   27.1477 C   0  0  0  0  0  0  0  0  0  0  0  0
    9.4073   -6.6157   28.1377 C   0  0  0  0  0  0  0  0  0  0  0  0
   10.6967   -6.1489   27.4694 C   0  0  0  0  0  0  0  0  0  0  0  0
   10.4950   -5.7059   26.0212 C   0  0  0  0  0  0  0  0  0  0  0  0
    9.9292    5.9676   23.2208 C   0  0  0  0  0  0  0  0  0  0  0  0
    8.8505    1.1108   23.9272 C   0  0  0  0  0  0  0  0  0  0  0  0
    9.4200   -0.0840   22.9530 C   0  0  2  0  0  0  0  0  0  0  0  0
   11.1217    3.8980   22.8891 N   0  0  0  0  0  0  0  0  0  0  0  0
    6.9440    0.2550   18.0100 N   0  0  0  0  0  0  0  0  0  0  0  0
    7.6830   -0.5170   18.7600 N   0  0  0  0  0  0  0  0  0  0  0  0
   10.0008    4.5274   23.2809 N   0  0  0  0  0  0  0  0  0  0  0  0
    7.2210   -0.4620   20.0350 N   0  0  0  0  0  0  0  0  0  0  0  0
    9.2624   -4.9267   25.8634 N   0  0  0  0  0  0  0  0  0  0  0  0
    8.0810   -0.9750   21.0820 N   0  0  0  0  0  0  0  0  0  0  0  0
    6.9247   -5.0497   26.1749 O   0  0  0  0  0  0  0  0  0  0  0  0
    9.1870    1.1500   21.0630 O   0  0  0  0  0  0  0  0  0  0  0  0
    3.2714    2.7876   19.3199 H   0  0  0  0  0  0  0  0  0  0  0  0
    3.6283    2.0091   21.6296 H   0  0  0  0  0  0  0  0  0  0  0  0
    7.5948   -0.7783   24.7966 H   0  0  0  0  0  0  0  0  0  0  0  0
   11.0389   -2.1844   22.6342 H   0  0  0  0  0  0  0  0  0  0  0  0
    4.7824    2.0670   17.4883 H   0  0  0  0  0  0  0  0  0  0  0  0
    5.4937    0.4574   22.1805 H   0  0  0  0  0  0  0  0  0  0  0  0
    7.5642   -2.8624   26.1050 H   0  0  0  0  0  0  0  0  0  0  0  0
   11.0137   -4.2649   23.9418 H   0  0  0  0  0  0  0  0  0  0  0  0
   11.5739    1.8650   22.8382 H   0  0  0  0  0  0  0  0  0  0  0  0
    8.0593    4.0517   24.0538 H   0  0  0  0  0  0  0  0  0  0  0  0
    7.3543   -6.9829   27.6818 H   0  0  0  0  0  0  0  0  0  0  0  0
    8.4783   -7.5436   26.4372 H   0  0  0  0  0  0  0  0  0  0  0  0
    9.1257   -5.9021   28.9399 H   0  0  0  0  0  0  0  0  0  0  0  0
    9.5814   -7.5840   28.6486 H   0  0  0  0  0  0  0  0  0  0  0  0
   11.1319   -5.3094   28.0513 H   0  0  0  0  0  0  0  0  0  0  0  0
   11.4591   -6.9570   27.5118 H   0  0  0  0  0  0  0  0  0  0  0  0
   11.3214   -5.0711   25.7158 H   0  0  0  0  0  0  0  0  0  0  0  0
   10.4496   -6.5786   25.3788 H   0  0  0  0  0  0  0  0  0  0  0  0
   10.2845    6.3631   24.1759 H   0  0  0  0  0  0  0  0  0  0  0  0
   10.5553    6.3294   22.4005 H   0  0  0  0  0  0  0  0  0  0  0  0
    8.8938    6.2708   23.0416 H   0  0  0  0  0  0  0  0  0  0  0  0
    8.9923    0.9231   25.0006 H   0  0  0  0  0  0  0  0  0  0  0  0
    7.7650    1.2154   23.7981 H   0  0  0  0  0  0  0  0  0  0  0  0
   10.5617    0.2354   22.9523 H   0  0  0  0  0  0  0  0  0  0  0  0
    8.1256   -1.8039   21.3539 H   0  0  0  0  0  0  0  0  0  0  0  0
  1  2  1  0  0  0  0
  1  5  2  0  0  0  0
  2  6  2  0  0  0  0
  3  7  2  0  0  0  0
  3 11  1  0  0  0  0
  4  8  1  0  0  0  0
  4 11  2  0  0  0  0
  5 13  1  0  0  0  0
  6 14  1  0  0  0  0
  7 15  1  0  0  0  0
  8 15  2  0  0  0  0
  9 12  1  0  0  0  0
  9 25  2  0  0  0  0
 10 12  2  0  0  0  0
 10 28  1  0  0  0  0
 11 24  1  0  0  0  0
 12 23  1  0  0  0  0
 13 14  2  0  0  0  0
 13 26  1  0  0  0  0
 14 29  1  0  0  0  0
 15 30  1  0  0  0  0
 16 18  1  0  0  0  0
 16 30  1  0  0  0  0
 16 32  2  0  0  0  0
 17 24  1  0  0  0  0
 17 31  1  0  0  0  0
 17 33  2  0  0  0  0
 18 19  1  0  0  0  0
 19 20  1  0  0  0  0
 20 21  1  0  0  0  0
 21 30  1  0  0  0  0
 22 28  1  0  0  0  0
 23 24  1  6  0  0  0
 25 28  1  0  0  0  0
 26 27  2  0  0  0  0
 27 29  1  0  0  0  0
 29 31  1  0  0  0  0
  1 34  1  0  0  0  0
  2 35  1  0  0  0  0
  3 36  1  0  0  0  0
  4 37  1  0  0  0  0
  5 38  1  0  0  0  0
  6 39  1  0  0  0  0
  7 40  1  0  0  0  0
  8 41  1  0  0  0  0
  9 42  1  0  0  0  0
 10 43  1  0  0  0  0
 18 44  1  0  0  0  0
 18 45  1  0  0  0  0
 19 46  1  0  0  0  0
 19 47  1  0  0  0  0
 20 48  1  0  0  0  0
 20 49  1  0  0  0  0
 21 50  1  0  0  0  0
 21 51  1  0  0  0  0
 22 52  1  0  0  0  0
 22 53  1  0  0  0  0
 22 54  1  0  0  0  0
 23 55  1  0  0  0  0
 23 56  1  0  0  0  0
 24 57  1  0  0  0  0
 31 58  1  0  0  0  0
M  END
> <clash_score>
1.2728248649063287

> <docking_score>
-8.155696868896484

> <overlap_score>
0.8765918016433716

$$$$
BENZO_190_2
  -OEChem-08232013483D

 58 62  0     1  0  0  0  0  0999 V2000
    4.0980    2.1130   19.5350 C   0  0  0  0  0  0  0  0  0  0  0  0
    4.2970    1.6690   20.8430 C   0  0  0  0  0  0  0  0  0  0  0  0
   10.2958    4.1873   23.4875 C   0  0  0  0  0  0  0  0  0  0  0  0
   10.1359    2.8021   23.5198 C   0  0  0  0  0  0  0  0  0  0  0  0
    8.3510   -1.5420   24.6110 C   0  0  0  0  0  0  0  0  0  0  0  0
   10.2760   -2.3270   23.4020 C   0  0  0  0  0  0  0  0  0  0  0  0
    4.9400    1.7060   18.5060 C   0  0  0  0  0  0  0  0  0  0  0  0
    5.3360    0.8000   21.1530 C   0  0  0  0  0  0  0  0  0  0  0  0
    8.3310   -2.7170   25.3430 C   0  0  0  0  0  0  0  0  0  0  0  0
   10.2570   -3.5000   24.1350 C   0  0  0  0  0  0  0  0  0  0  0  0
   11.4584    4.7430   22.9532 C   0  0  0  0  0  0  0  0  0  0  0  0
   12.3012    2.5280   22.4837 C   0  0  0  0  0  0  0  0  0  0  0  0
    9.3300   -1.3350   23.6390 C   0  0  0  0  0  0  0  0  0  0  0  0
   11.1386    1.9724   23.0179 C   0  0  0  0  0  0  0  0  0  0  0  0
    5.9810    0.8330   18.8060 C   0  0  0  0  0  0  0  0  0  0  0  0
    6.1600    0.3870   20.1140 C   0  0  0  0  0  0  0  0  0  0  0  0
    9.2850   -3.7090   25.1090 C   0  0  0  0  0  0  0  0  0  0  0  0
   12.4611    3.9133   22.4513 C   0  0  0  0  0  0  0  0  0  0  0  0
    8.0643   -5.4721   26.3672 C   0  0  0  0  0  0  0  0  0  0  0  0
    8.9510    0.1280   21.6880 C   0  0  0  0  0  0  0  0  0  0  0  0
    8.2649   -6.7591   27.1477 C   0  0  0  0  0  0  0  0  0  0  0  0
    9.4073   -6.6157   28.1377 C   0  0  0  0  0  0  0  0  0  0  0  0
   10.6967   -6.1489   27.4694 C   0  0  0  0  0  0  0  0  0  0  0  0
   10.4950   -5.7059   26.0212 C   0  0  0  0  0  0  0  0  0  0  0  0
   10.9652    0.4722   23.0544 C   0  0  0  0  0  0  0  0  0  0  0  0
    9.4200   -0.0840   22.9530 C   0  0  2  0  0  0  0  0  0  0  0  0
    6.9440    0.2550   18.0100 N   0  0  0  0  0  0  0  0  0  0  0  0
    7.6830   -0.5170   18.7600 N   0  0  0  0  0  0  0  0  0  0  0  0
    7.2210   -0.4620   20.0350 N   0  0  0  0  0  0  0  0  0  0  0  0
    9.2624   -4.9267   25.8634 N   0  0  0  0  0  0  0  0  0  0  0  0
    8.0810   -0.9750   21.0820 N   0  0  0  0  0  0  0  0  0  0  0  0
    6.9247   -5.0497   26.1749 O   0  0  0  0  0  0  0  0  0  0  0  0
    9.1870    1.1500   21.0630 O   0  0  0  0  0  0  0  0  0  0  0  0
   13.8957    4.5993   21.7933 Cl  0  0  0  0  0  0  0  0  0  0  0  0
    3.2714    2.7876   19.3199 H   0  0  0  0  0  0  0  0  0  0  0  0
    3.6283    2.0091   21.6296 H   0  0  0  0  0  0  0  0  0  0  0  0
    9.5149    4.8331   23.8785 H   0  0  0  0  0  0  0  0  0  0  0  0
    9.2268    2.3779   23.9380 H   0  0  0  0  0  0  0  0  0  0  0  0
    7.5948   -0.7783   24.7966 H   0  0  0  0  0  0  0  0  0  0  0  0
   11.0389   -2.1844   22.6342 H   0  0  0  0  0  0  0  0  0  0  0  0
    4.7824    2.0670   17.4883 H   0  0  0  0  0  0  0  0  0  0  0  0
    5.4937    0.4574   22.1805 H   0  0  0  0  0  0  0  0  0  0  0  0
    7.5642   -2.8624   26.1050 H   0  0  0  0  0  0  0  0  0  0  0  0
   11.0137   -4.2649   23.9418 H   0  0  0  0  0  0  0  0  0  0  0  0
   11.5695    5.8243   22.9348 H   0  0  0  0  0  0  0  0  0  0  0  0
   13.0798    1.8768   22.0932 H   0  0  0  0  0  0  0  0  0  0  0  0
    7.3543   -6.9829   27.6818 H   0  0  0  0  0  0  0  0  0  0  0  0
    8.4783   -7.5436   26.4372 H   0  0  0  0  0  0  0  0  0  0  0  0
    9.1257   -5.9021   28.9399 H   0  0  0  0  0  0  0  0  0  0  0  0
    9.5814   -7.5840   28.6486 H   0  0  0  0  0  0  0  0  0  0  0  0
   11.1319   -5.3094   28.0513 H   0  0  0  0  0  0  0  0  0  0  0  0
   11.4591   -6.9570   27.5118 H   0  0  0  0  0  0  0  0  0  0  0  0
   11.3214   -5.0711   25.7158 H   0  0  0  0  0  0  0  0  0  0  0  0
   10.4496   -6.5786   25.3788 H   0  0  0  0  0  0  0  0  0  0  0  0
   11.5818    0.0409   22.2535 H   0  0  0  0  0  0  0  0  0  0  0  0
   11.3901    0.0742   23.9855 H   0  0  0  0  0  0  0  0  0  0  0  0
    8.9113    0.7342   23.6444 H   0  0  0  0  0  0  0  0  0  0  0  0
    8.1256   -1.8039   21.3539 H   0  0  0  0  0  0  0  0  0  0  0  0
  1  2  1  0  0  0  0
  1  7  2  0  0  0  0
  2  8  2  0  0  0  0
  3  4  2  0  0  0  0
  3 11  1  0  0  0  0
  4 14  1  0  0  0  0
  5  9  2  0  0  0  0
  5 13  1  0  0  0  0
  6 10  1  0  0  0  0
  6 13  2  0  0  0  0
  7 15  1  0  0  0  0
  8 16  1  0  0  0  0
  9 17  1  0  0  0  0
 10 17  2  0  0  0  0
 11 18  2  0  0  0  0
 12 14  2  0  0  0  0
 12 18  1  0  0  0  0
 13 26  1  0  0  0  0
 14 25  1  0  0  0  0
 15 16  2  0  0  0  0
 15 27  1  0  0  0  0
 16 29  1  0  0  0  0
 17 30  1  0  0  0  0
 18 34  1  0  0  0  0
 19 21  1  0  0  0  0
 19 30  1  0  0  0  0
 19 32  2  0  0  0  0
 20 26  1  6  0  0  0
 20 31  1  0  0  0  0
 20 33  2  0  0  0  0
 21 22  1  0  0  0  0
 22 23  1  0  0  0  0
 23 24  1  0  0  0  0
 24 30  1  0  0  0  0
 25 26  1  0  0  0  0
 27 28  2  0  0  0  0
 28 29  1  0  0  0  0
 29 31  1  0  0  0  0
  1 35  1  0  0  0  0
  2 36  1  0  0  0  0
  3 37  1  0  0  0  0
  4 38  1  0  0  0  0
  5 39  1  0  0  0  0
  6 40  1  0  0  0  0
  7 41  1  0  0  0  0
  8 42  1  0  0  0  0
  9 43  1  0  0  0  0
 10 44  1  0  0  0  0
 11 45  1  0  0  0  0
 12 46  1  0  0  0  0
 21 47  1  0  0  0  0
 21 48  1  0  0  0  0
 22 49  1  0  0  0  0
 22 50  1  0  0  0  0
 23 51  1  0  0  0  0
 23 52  1  0  0  0  0
 24 53  1  0  0  0  0
 24 54  1  0  0  0  0
 25 55  1  0  0  0  0
 25 56  1  0  0  0  0
 26 57  1  0  0  0  0
 31 58  1  0  0  0  0
M  END
> <clash_score>
1.2728248649063287

> <docking_score>
-9.845782279968262

> <overlap_score>
0.9450420141220093

$$$$
BENZO_191_1
  -OEChem-08232013483D

 58 62  0     1  0  0  0  0  0999 V2000
    4.0980    2.1130   19.5350 C   0  0  0  0  0  0  0  0  0  0  0  0
    4.2970    1.6690   20.8430 C   0  0  0  0  0  0  0  0  0  0  0  0
    8.3510   -1.5420   24.6110 C   0  0  0  0  0  0  0  0  0  0  0  0
   10.2760   -2.3270   23.4020 C   0  0  0  0  0  0  0  0  0  0  0  0
    4.9400    1.7060   18.5060 C   0  0  0  0  0  0  0  0  0  0  0  0
    5.3360    0.8000   21.1530 C   0  0  0  0  0  0  0  0  0  0  0  0
    8.3310   -2.7170   25.3430 C   0  0  0  0  0  0  0  0  0  0  0  0
   10.2570   -3.5000   24.1350 C   0  0  0  0  0  0  0  0  0  0  0  0
   10.2425    2.9569   23.4758 C   0  0  0  0  0  0  0  0  0  0  0  0
   12.2094    2.6821   22.5319 C   0  0  0  0  0  0  0  0  0  0  0  0
    9.3300   -1.3350   23.6390 C   0  0  0  0  0  0  0  0  0  0  0  0
   11.1386    1.9724   23.0179 C   0  0  0  0  0  0  0  0  0  0  0  0
    5.9810    0.8330   18.8060 C   0  0  0  0  0  0  0  0  0  0  0  0
    6.1600    0.3870   20.1140 C   0  0  0  0  0  0  0  0  0  0  0  0
    9.2850   -3.7090   25.1090 C   0  0  0  0  0  0  0  0  0  0  0  0
    8.0643   -5.4721   26.3672 C   0  0  0  0  0  0  0  0  0  0  0  0
    8.9510    0.1280   21.6880 C   0  0  0  0  0  0  0  0  0  0  0  0
    8.2649   -6.7591   27.1477 C   0  0  0  0  0  0  0  0  0  0  0  0
    9.4073   -6.6157   28.1377 C   0  0  0  0  0  0  0  0  0  0  0  0
   10.6967   -6.1489   27.4694 C   0  0  0  0  0  0  0  0  0  0  0  0
   10.4950   -5.7059   26.0212 C   0  0  0  0  0  0  0  0  0  0  0  0
   12.7248    5.1287   22.3669 C   0  0  0  0  0  0  0  0  0  0  0  0
   10.9652    0.4722   23.0544 C   0  0  0  0  0  0  0  0  0  0  0  0
    9.4200   -0.0840   22.9530 C   0  0  1  0  0  0  0  0  0  0  0  0
   10.7040    4.1975   23.2969 N   0  0  0  0  0  0  0  0  0  0  0  0
    6.9440    0.2550   18.0100 N   0  0  0  0  0  0  0  0  0  0  0  0
    7.6830   -0.5170   18.7600 N   0  0  0  0  0  0  0  0  0  0  0  0
   11.9018    3.9973   22.7212 N   0  0  0  0  0  0  0  0  0  0  0  0
    7.2210   -0.4620   20.0350 N   0  0  0  0  0  0  0  0  0  0  0  0
    9.2624   -4.9267   25.8634 N   0  0  0  0  0  0  0  0  0  0  0  0
    8.0810   -0.9750   21.0820 N   0  0  0  0  0  0  0  0  0  0  0  0
    6.9247   -5.0497   26.1749 O   0  0  0  0  0  0  0  0  0  0  0  0
    9.1870    1.1500   21.0630 O   0  0  0  0  0  0  0  0  0  0  0  0
    3.2714    2.7876   19.3199 H   0  0  0  0  0  0  0  0  0  0  0  0
    3.6283    2.0091   21.6296 H   0  0  0  0  0  0  0  0  0  0  0  0
    7.5948   -0.7783   24.7966 H   0  0  0  0  0  0  0  0  0  0  0  0
   11.0389   -2.1844   22.6342 H   0  0  0  0  0  0  0  0  0  0  0  0
    4.7824    2.0670   17.4883 H   0  0  0  0  0  0  0  0  0  0  0  0
    5.4937    0.4574   22.1805 H   0  0  0  0  0  0  0  0  0  0  0  0
    7.5642   -2.8624   26.1050 H   0  0  0  0  0  0  0  0  0  0  0  0
   11.0137   -4.2649   23.9418 H   0  0  0  0  0  0  0  0  0  0  0  0
    9.2724    2.8245   23.9336 H   0  0  0  0  0  0  0  0  0  0  0  0
   13.1415    2.3710   22.0799 H   0  0  0  0  0  0  0  0  0  0  0  0
    7.3543   -6.9829   27.6818 H   0  0  0  0  0  0  0  0  0  0  0  0
    8.4783   -7.5436   26.4372 H   0  0  0  0  0  0  0  0  0  0  0  0
    9.1257   -5.9021   28.9399 H   0  0  0  0  0  0  0  0  0  0  0  0
    9.5814   -7.5840   28.6486 H   0  0  0  0  0  0  0  0  0  0  0  0
   11.1319   -5.3094   28.0513 H   0  0  0  0  0  0  0  0  0  0  0  0
   11.4591   -6.9570   27.5118 H   0  0  0  0  0  0  0  0  0  0  0  0
   11.3214   -5.0711   25.7158 H   0  0  0  0  0  0  0  0  0  0  0  0
   10.4496   -6.5786   25.3788 H   0  0  0  0  0  0  0  0  0  0  0  0
   12.4708    5.4238   21.3454 H   0  0  0  0  0  0  0  0  0  0  0  0
   12.5319    5.9510   23.0615 H   0  0  0  0  0  0  0  0  0  0  0  0
   13.7785    4.8438   22.4329 H   0  0  0  0  0  0  0  0  0  0  0  0
   11.5818    0.0409   22.2535 H   0  0  0  0  0  0  0  0  0  0  0  0
   11.3901    0.0742   23.9855 H   0  0  0  0  0  0  0  0  0  0  0  0
    8.9113    0.7342   23.6444 H   0  0  0  0  0  0  0  0  0  0  0  0
    8.1256   -1.8039   21.3539 H   0  0  0  0  0  0  0  0  0  0  0  0
  1  2  1  0  0  0  0
  1  5  2  0  0  0  0
  2  6  2  0  0  0  0
  3  7  2  0  0  0  0
  3 11  1  0  0  0  0
  4  8  1  0  0  0  0
  4 11  2  0  0  0  0
  5 13  1  0  0  0  0
  6 14  1  0  0  0  0
  7 15  1  0  0  0  0
  8 15  2  0  0  0  0
  9 12  1  0  0  0  0
  9 25  2  0  0  0  0
 10 12  2  0  0  0  0
 10 28  1  0  0  0  0
 11 24  1  0  0  0  0
 12 23  1  0  0  0  0
 13 14  2  0  0  0  0
 13 26  1  0  0  0  0
 14 29  1  0  0  0  0
 15 30  1  0  0  0  0
 16 18  1  0  0  0  0
 16 30  1  0  0  0  0
 16 32  2  0  0  0  0
 17 24  1  0  0  0  0
 17 31  1  0  0  0  0
 17 33  2  0  0  0  0
 18 19  1  0  0  0  0
 19 20  1  0  0  0  0
 20 21  1  0  0  0  0
 21 30  1  0  0  0  0
 22 28  1  0  0  0  0
 23 24  1  1  0  0  0
 25 28  1  0  0  0  0
 26 27  2  0  0  0  0
 27 29  1  0  0  0  0
 29 31  1  0  0  0  0
  1 34  1  0  0  0  0
  2 35  1  0  0  0  0
  3 36  1  0  0  0  0
  4 37  1  0  0  0  0
  5 38  1  0  0  0  0
  6 39  1  0  0  0  0
  7 40  1  0  0  0  0
  8 41  1  0  0  0  0
  9 42  1  0  0  0  0
 10 43  1  0  0  0  0
 18 44  1  0  0  0  0
 18 45  1  0  0  0  0
 19 46  1  0  0  0  0
 19 47  1  0  0  0  0
 20 48  1  0  0  0  0
 20 49  1  0  0  0  0
 21 50  1  0  0  0  0
 21 51  1  0  0  0  0
 22 52  1  0  0  0  0
 22 53  1  0  0  0  0
 22 54  1  0  0  0  0
 23 55  1  0  0  0  0
 23 56  1  0  0  0  0
 24 57  1  0  0  0  0
 31 58  1  0  0  0  0
M  END
> <clash_score>
1.2728248649063287

> <docking_score>
-9.451029777526855

> <overlap_score>
0.9396191835403442

$$$$
BENZO_193_1
  -OEChem-08232013483D

 57 61  0     1  0  0  0  0  0999 V2000
   10.7843    4.8294   22.9654 C   0  0  0  0  0  0  0  0  0  0  0  0
   11.3381    3.9837   23.9264 C   0  0  0  0  0  0  0  0  0  0  0  0
    9.6033    4.4690   22.3165 C   0  0  0  0  0  0  0  0  0  0  0  0
    4.0980    2.1130   19.5350 C   0  0  0  0  0  0  0  0  0  0  0  0
    4.2970    1.6690   20.8430 C   0  0  0  0  0  0  0  0  0  0  0  0
   10.7110    2.7775   24.2386 C   0  0  0  0  0  0  0  0  0  0  0  0
    8.9761    3.2628   22.6287 C   0  0  0  0  0  0  0  0  0  0  0  0
    8.3510   -1.5420   24.6110 C   0  0  0  0  0  0  0  0  0  0  0  0
   10.2760   -2.3270   23.4020 C   0  0  0  0  0  0  0  0  0  0  0  0
    4.9400    1.7060   18.5060 C   0  0  0  0  0  0  0  0  0  0  0  0
    5.3360    0.8000   21.1530 C   0  0  0  0  0  0  0  0  0  0  0  0
    8.3310   -2.7170   25.3430 C   0  0  0  0  0  0  0  0  0  0  0  0
   10.2570   -3.5000   24.1350 C   0  0  0  0  0  0  0  0  0  0  0  0
    9.5300    2.4170   23.5897 C   0  0  0  0  0  0  0  0  0  0  0  0
    9.3300   -1.3350   23.6390 C   0  0  0  0  0  0  0  0  0  0  0  0
    5.9810    0.8330   18.8060 C   0  0  0  0  0  0  0  0  0  0  0  0
    6.1600    0.3870   20.1140 C   0  0  0  0  0  0  0  0  0  0  0  0
    9.2850   -3.7090   25.1090 C   0  0  0  0  0  0  0  0  0  0  0  0
    8.9510    0.1280   21.6880 C   0  0  0  0  0  0  0  0  0  0  0  0
    8.7671   -4.9535   27.2147 C   0  0  0  0  0  0  0  0  0  0  0  0
    9.3066   -6.1865   25.1649 C   0  0  0  0  0  0  0  0  0  0  0  0
    7.3847   -5.5970   27.2000 C   0  0  0  0  0  0  0  0  0  0  0  0
    7.9070   -6.7999   25.2264 C   0  0  0  0  0  0  0  0  0  0  0  0
    8.8504    1.1108   23.9271 C   0  0  0  0  0  0  0  0  0  0  0  0
    9.4200   -0.0840   22.9530 C   0  0  1  0  0  0  0  0  0  0  0  0
    6.9440    0.2550   18.0100 N   0  0  0  0  0  0  0  0  0  0  0  0
    7.6830   -0.5170   18.7600 N   0  0  0  0  0  0  0  0  0  0  0  0
    7.2210   -0.4620   20.0350 N   0  0  0  0  0  0  0  0  0  0  0  0
    9.2641   -4.8845   25.8388 N   0  0  0  0  0  0  0  0  0  0  0  0
    8.0810   -0.9750   21.0820 N   0  0  0  0  0  0  0  0  0  0  0  0
    9.1870    1.1500   21.0630 O   0  0  0  0  0  0  0  0  0  0  0  0
    7.4533   -6.8877   26.5818 O   0  0  0  0  0  0  0  0  0  0  0  0
   11.2720    5.7692   22.7234 H   0  0  0  0  0  0  0  0  0  0  0  0
   12.2571    4.2647   24.4325 H   0  0  0  0  0  0  0  0  0  0  0  0
    9.1712    5.1277   21.5691 H   0  0  0  0  0  0  0  0  0  0  0  0
    3.2714    2.7876   19.3199 H   0  0  0  0  0  0  0  0  0  0  0  0
    3.6283    2.0091   21.6296 H   0  0  0  0  0  0  0  0  0  0  0  0
   11.1499    2.1247   24.9886 H   0  0  0  0  0  0  0  0  0  0  0  0
    8.0564    2.9902   22.1180 H   0  0  0  0  0  0  0  0  0  0  0  0
    7.5957   -0.7779   24.7973 H   0  0  0  0  0  0  0  0  0  0  0  0
   11.0384   -2.1852   22.6338 H   0  0  0  0  0  0  0  0  0  0  0  0
    4.7824    2.0670   17.4883 H   0  0  0  0  0  0  0  0  0  0  0  0
    5.4937    0.4574   22.1805 H   0  0  0  0  0  0  0  0  0  0  0  0
    7.5634   -2.8637   26.1037 H   0  0  0  0  0  0  0  0  0  0  0  0
   11.0139   -4.2645   23.9419 H   0  0  0  0  0  0  0  0  0  0  0  0
    8.7013   -3.9575   27.6574 H   0  0  0  0  0  0  0  0  0  0  0  0
    9.4480   -5.5636   27.8142 H   0  0  0  0  0  0  0  0  0  0  0  0
   10.0131   -6.8375   25.6814 H   0  0  0  0  0  0  0  0  0  0  0  0
    9.6116   -6.0794   24.1250 H   0  0  0  0  0  0  0  0  0  0  0  0
    7.0306   -5.7388   28.2232 H   0  0  0  0  0  0  0  0  0  0  0  0
    6.6546   -4.9740   26.6757 H   0  0  0  0  0  0  0  0  0  0  0  0
    7.1892   -6.2226   24.6319 H   0  0  0  0  0  0  0  0  0  0  0  0
    7.9315   -7.8151   24.8187 H   0  0  0  0  0  0  0  0  0  0  0  0
    8.9922    0.9231   25.0006 H   0  0  0  0  0  0  0  0  0  0  0  0
    7.7650    1.2154   23.7980 H   0  0  0  0  0  0  0  0  0  0  0  0
   10.5617    0.2354   22.9523 H   0  0  0  0  0  0  0  0  0  0  0  0
    8.1256   -1.8039   21.3539 H   0  0  0  0  0  0  0  0  0  0  0  0
  1  2  1  0  0  0  0
  1  3  2  0  0  0  0
  2  6  2  0  0  0  0
  3  7  1  0  0  0  0
  4  5  1  0  0  0  0
  4 10  2  0  0  0  0
  5 11  2  0  0  0  0
  6 14  1  0  0  0  0
  7 14  2  0  0  0  0
  8 12  2  0  0  0  0
  8 15  1  0  0  0  0
  9 13  1  0  0  0  0
  9 15  2  0  0  0  0
 10 16  1  0  0  0  0
 11 17  1  0  0  0  0
 12 18  1  0  0  0  0
 13 18  2  0  0  0  0
 14 24  1  0  0  0  0
 15 25  1  0  0  0  0
 16 17  2  0  0  0  0
 16 26  1  0  0  0  0
 17 28  1  0  0  0  0
 18 29  1  0  0  0  0
 19 25  1  1  0  0  0
 19 30  1  0  0  0  0
 19 31  2  0  0  0  0
 20 22  1  0  0  0  0
 20 29  1  0  0  0  0
 21 23  1  0  0  0  0
 21 29  1  0  0  0  0
 22 32  1  0  0  0  0
 23 32  1  0  0  0  0
 24 25  1  0  0  0  0
 26 27  2  0  0  0  0
 27 28  1  0  0  0  0
 28 30  1  0  0  0  0
  1 33  1  0  0  0  0
  2 34  1  0  0  0  0
  3 35  1  0  0  0  0
  4 36  1  0  0  0  0
  5 37  1  0  0  0  0
  6 38  1  0  0  0  0
  7 39  1  0  0  0  0
  8 40  1  0  0  0  0
  9 41  1  0  0  0  0
 10 42  1  0  0  0  0
 11 43  1  0  0  0  0
 12 44  1  0  0  0  0
 13 45  1  0  0  0  0
 20 46  1  0  0  0  0
 20 47  1  0  0  0  0
 21 48  1  0  0  0  0
 21 49  1  0  0  0  0
 22 50  1  0  0  0  0
 22 51  1  0  0  0  0
 23 52  1  0  0  0  0
 23 53  1  0  0  0  0
 24 54  1  0  0  0  0
 24 55  1  0  0  0  0
 25 56  1  0  0  0  0
 30 57  1  0  0  0  0
M  END
> <clash_score>
0

> <docking_score>
-7.393813610076904

> <overlap_score>
0.8671145439147949

$$$$
BENZO_192_1
  -OEChem-08232013483D

 54 58  0     1  0  0  0  0  0999 V2000
    4.0980    2.1130   19.5350 C   0  0  0  0  0  0  0  0  0  0  0  0
    4.2970    1.6690   20.8430 C   0  0  0  0  0  0  0  0  0  0  0  0
    8.3510   -1.5420   24.6110 C   0  0  0  0  0  0  0  0  0  0  0  0
   10.2760   -2.3270   23.4020 C   0  0  0  0  0  0  0  0  0  0  0  0
    4.9400    1.7060   18.5060 C   0  0  0  0  0  0  0  0  0  0  0  0
    5.3360    0.8000   21.1530 C   0  0  0  0  0  0  0  0  0  0  0  0
    8.3310   -2.7170   25.3430 C   0  0  0  0  0  0  0  0  0  0  0  0
   10.2570   -3.5000   24.1350 C   0  0  0  0  0  0  0  0  0  0  0  0
    8.8849    3.6862   23.6465 C   0  0  0  0  0  0  0  0  0  0  0  0
    9.7306    4.7130   23.2887 C   0  0  0  0  0  0  0  0  0  0  0  0
   10.8444    2.5222   23.1905 C   0  0  0  0  0  0  0  0  0  0  0  0
    9.3300   -1.3350   23.6390 C   0  0  0  0  0  0  0  0  0  0  0  0
    9.5300    2.4170   23.5897 C   0  0  0  0  0  0  0  0  0  0  0  0
    5.9810    0.8330   18.8060 C   0  0  0  0  0  0  0  0  0  0  0  0
    6.1600    0.3870   20.1140 C   0  0  0  0  0  0  0  0  0  0  0  0
    9.2850   -3.7090   25.1090 C   0  0  0  0  0  0  0  0  0  0  0  0
    8.9510    0.1280   21.6880 C   0  0  0  0  0  0  0  0  0  0  0  0
    8.7671   -4.9535   27.2147 C   0  0  0  0  0  0  0  0  0  0  0  0
    9.3066   -6.1865   25.1649 C   0  0  0  0  0  0  0  0  0  0  0  0
    7.3847   -5.5970   27.2000 C   0  0  0  0  0  0  0  0  0  0  0  0
    7.9070   -6.7999   25.2264 C   0  0  0  0  0  0  0  0  0  0  0  0
    8.8505    1.1108   23.9271 C   0  0  0  0  0  0  0  0  0  0  0  0
    9.4200   -0.0840   22.9530 C   0  0  1  0  0  0  0  0  0  0  0  0
    6.9440    0.2550   18.0100 N   0  0  0  0  0  0  0  0  0  0  0  0
    7.6830   -0.5170   18.7600 N   0  0  0  0  0  0  0  0  0  0  0  0
    7.2210   -0.4620   20.0350 N   0  0  0  0  0  0  0  0  0  0  0  0
    9.2641   -4.8845   25.8388 N   0  0  0  0  0  0  0  0  0  0  0  0
    8.0810   -0.9750   21.0820 N   0  0  0  0  0  0  0  0  0  0  0  0
    9.1870    1.1500   21.0630 O   0  0  0  0  0  0  0  0  0  0  0  0
    7.4533   -6.8877   26.5818 O   0  0  0  0  0  0  0  0  0  0  0  0
   11.2955    4.1459   22.8865 S   0  0  0  0  0  0  0  0  0  0  0  0
    3.2714    2.7876   19.3199 H   0  0  0  0  0  0  0  0  0  0  0  0
    3.6283    2.0091   21.6296 H   0  0  0  0  0  0  0  0  0  0  0  0
    7.5957   -0.7779   24.7973 H   0  0  0  0  0  0  0  0  0  0  0  0
   11.0384   -2.1852   22.6338 H   0  0  0  0  0  0  0  0  0  0  0  0
    4.7824    2.0670   17.4883 H   0  0  0  0  0  0  0  0  0  0  0  0
    5.4937    0.4574   22.1805 H   0  0  0  0  0  0  0  0  0  0  0  0
    7.5634   -2.8637   26.1037 H   0  0  0  0  0  0  0  0  0  0  0  0
   11.0139   -4.2645   23.9419 H   0  0  0  0  0  0  0  0  0  0  0  0
    7.8528    3.8425   23.9342 H   0  0  0  0  0  0  0  0  0  0  0  0
    9.5042    5.7689   23.2436 H   0  0  0  0  0  0  0  0  0  0  0  0
   11.5641    1.7260   23.0605 H   0  0  0  0  0  0  0  0  0  0  0  0
    8.7013   -3.9575   27.6574 H   0  0  0  0  0  0  0  0  0  0  0  0
    9.4480   -5.5636   27.8142 H   0  0  0  0  0  0  0  0  0  0  0  0
   10.0131   -6.8375   25.6814 H   0  0  0  0  0  0  0  0  0  0  0  0
    9.6116   -6.0794   24.1250 H   0  0  0  0  0  0  0  0  0  0  0  0
    7.0306   -5.7388   28.2232 H   0  0  0  0  0  0  0  0  0  0  0  0
    6.6546   -4.9740   26.6757 H   0  0  0  0  0  0  0  0  0  0  0  0
    7.1892   -6.2226   24.6319 H   0  0  0  0  0  0  0  0  0  0  0  0
    7.9315   -7.8151   24.8187 H   0  0  0  0  0  0  0  0  0  0  0  0
    8.9923    0.9231   25.0006 H   0  0  0  0  0  0  0  0  0  0  0  0
    7.7650    1.2154   23.7980 H   0  0  0  0  0  0  0  0  0  0  0  0
   10.5617    0.2354   22.9523 H   0  0  0  0  0  0  0  0  0  0  0  0
    8.1256   -1.8039   21.3539 H   0  0  0  0  0  0  0  0  0  0  0  0
  1  2  1  0  0  0  0
  1  5  2  0  0  0  0
  2  6  2  0  0  0  0
  3  7  2  0  0  0  0
  3 12  1  0  0  0  0
  4  8  1  0  0  0  0
  4 12  2  0  0  0  0
  5 14  1  0  0  0  0
  6 15  1  0  0  0  0
  7 16  1  0  0  0  0
  8 16  2  0  0  0  0
  9 10  2  0  0  0  0
  9 13  1  0  0  0  0
 10 31  1  0  0  0  0
 11 13  2  0  0  0  0
 11 31  1  0  0  0  0
 12 23  1  0  0  0  0
 13 22  1  0  0  0  0
 14 15  2  0  0  0  0
 14 24  1  0  0  0  0
 15 26  1  0  0  0  0
 16 27  1  0  0  0  0
 17 23  1  1  0  0  0
 17 28  1  0  0  0  0
 17 29  2  0  0  0  0
 18 20  1  0  0  0  0
 18 27  1  0  0  0  0
 19 21  1  0  0  0  0
 19 27  1  0  0  0  0
 20 30  1  0  0  0  0
 21 30  1  0  0  0  0
 22 23  1  0  0  0  0
 24 25  2  0  0  0  0
 25 26  1  0  0  0  0
 26 28  1  0  0  0  0
  1 32  1  0  0  0  0
  2 33  1  0  0  0  0
  3 34  1  0  0  0  0
  4 35  1  0  0  0  0
  5 36  1  0  0  0  0
  6 37  1  0  0  0  0
  7 38  1  0  0  0  0
  8 39  1  0  0  0  0
  9 40  1  0  0  0  0
 10 41  1  0  0  0  0
 11 42  1  0  0  0  0
 18 43  1  0  0  0  0
 18 44  1  0  0  0  0
 19 45  1  0  0  0  0
 19 46  1  0  0  0  0
 20 47  1  0  0  0  0
 20 48  1  0  0  0  0
 21 49  1  0  0  0  0
 21 50  1  0  0  0  0
 22 51  1  0  0  0  0
 22 52  1  0  0  0  0
 23 53  1  0  0  0  0
 28 54  1  0  0  0  0
M  END
> <clash_score>
0

> <docking_score>
-9.004467010498047

> <overlap_score>
0.8789114952087402

$$$$
BENZO_193_2
  -OEChem-08232013483D

 57 61  0     1  0  0  0  0  0999 V2000
   11.4573    4.7431   22.9506 C   0  0  0  0  0  0  0  0  0  0  0  0
   12.4604    3.9133   22.4498 C   0  0  0  0  0  0  0  0  0  0  0  0
   10.2948    4.1875   23.4851 C   0  0  0  0  0  0  0  0  0  0  0  0
    4.0980    2.1130   19.5350 C   0  0  0  0  0  0  0  0  0  0  0  0
    4.2970    1.6690   20.8430 C   0  0  0  0  0  0  0  0  0  0  0  0
   12.3011    2.5280   22.4834 C   0  0  0  0  0  0  0  0  0  0  0  0
   10.1354    2.8022   23.5187 C   0  0  0  0  0  0  0  0  0  0  0  0
    8.3510   -1.5420   24.6110 C   0  0  0  0  0  0  0  0  0  0  0  0
   10.2760   -2.3270   23.4020 C   0  0  0  0  0  0  0  0  0  0  0  0
    4.9400    1.7060   18.5060 C   0  0  0  0  0  0  0  0  0  0  0  0
    5.3360    0.8000   21.1530 C   0  0  0  0  0  0  0  0  0  0  0  0
    8.3310   -2.7170   25.3430 C   0  0  0  0  0  0  0  0  0  0  0  0
   10.2570   -3.5000   24.1350 C   0  0  0  0  0  0  0  0  0  0  0  0
   11.1386    1.9724   23.0179 C   0  0  0  0  0  0  0  0  0  0  0  0
    9.3300   -1.3350   23.6390 C   0  0  0  0  0  0  0  0  0  0  0  0
    5.9810    0.8330   18.8060 C   0  0  0  0  0  0  0  0  0  0  0  0
    6.1600    0.3870   20.1140 C   0  0  0  0  0  0  0  0  0  0  0  0
    9.2850   -3.7090   25.1090 C   0  0  0  0  0  0  0  0  0  0  0  0
    8.9510    0.1280   21.6880 C   0  0  0  0  0  0  0  0  0  0  0  0
    8.7671   -4.9535   27.2147 C   0  0  0  0  0  0  0  0  0  0  0  0
    9.3066   -6.1865   25.1649 C   0  0  0  0  0  0  0  0  0  0  0  0
    7.3847   -5.5970   27.2000 C   0  0  0  0  0  0  0  0  0  0  0  0
    7.9070   -6.7999   25.2264 C   0  0  0  0  0  0  0  0  0  0  0  0
   10.9652    0.4722   23.0544 C   0  0  0  0  0  0  0  0  0  0  0  0
    9.4200   -0.0840   22.9530 C   0  0  2  0  0  0  0  0  0  0  0  0
    6.9440    0.2550   18.0100 N   0  0  0  0  0  0  0  0  0  0  0  0
    7.6830   -0.5170   18.7600 N   0  0  0  0  0  0  0  0  0  0  0  0
    7.2210   -0.4620   20.0350 N   0  0  0  0  0  0  0  0  0  0  0  0
    9.2641   -4.8845   25.8388 N   0  0  0  0  0  0  0  0  0  0  0  0
    8.0810   -0.9750   21.0820 N   0  0  0  0  0  0  0  0  0  0  0  0
    9.1870    1.1500   21.0630 O   0  0  0  0  0  0  0  0  0  0  0  0
    7.4533   -6.8877   26.5818 O   0  0  0  0  0  0  0  0  0  0  0  0
   11.5821    5.8217   22.9256 H   0  0  0  0  0  0  0  0  0  0  0  0
   13.3661    4.3457   22.0346 H   0  0  0  0  0  0  0  0  0  0  0  0
    9.5141    4.8332   23.8761 H   0  0  0  0  0  0  0  0  0  0  0  0
    3.2714    2.7876   19.3199 H   0  0  0  0  0  0  0  0  0  0  0  0
    3.6283    2.0091   21.6296 H   0  0  0  0  0  0  0  0  0  0  0  0
   13.0879    1.8893   22.0908 H   0  0  0  0  0  0  0  0  0  0  0  0
    9.2263    2.3782   23.9369 H   0  0  0  0  0  0  0  0  0  0  0  0
    7.5957   -0.7779   24.7973 H   0  0  0  0  0  0  0  0  0  0  0  0
   11.0384   -2.1852   22.6338 H   0  0  0  0  0  0  0  0  0  0  0  0
    4.7824    2.0670   17.4883 H   0  0  0  0  0  0  0  0  0  0  0  0
    5.4937    0.4574   22.1805 H   0  0  0  0  0  0  0  0  0  0  0  0
    7.5634   -2.8637   26.1037 H   0  0  0  0  0  0  0  0  0  0  0  0
   11.0139   -4.2645   23.9419 H   0  0  0  0  0  0  0  0  0  0  0  0
    8.7013   -3.9575   27.6574 H   0  0  0  0  0  0  0  0  0  0  0  0
    9.4480   -5.5636   27.8142 H   0  0  0  0  0  0  0  0  0  0  0  0
   10.0131   -6.8375   25.6814 H   0  0  0  0  0  0  0  0  0  0  0  0
    9.6116   -6.0794   24.1250 H   0  0  0  0  0  0  0  0  0  0  0  0
    7.0306   -5.7388   28.2232 H   0  0  0  0  0  0  0  0  0  0  0  0
    6.6546   -4.9740   26.6757 H   0  0  0  0  0  0  0  0  0  0  0  0
    7.1892   -6.2226   24.6319 H   0  0  0  0  0  0  0  0  0  0  0  0
    7.9315   -7.8151   24.8187 H   0  0  0  0  0  0  0  0  0  0  0  0
   11.5818    0.0409   22.2535 H   0  0  0  0  0  0  0  0  0  0  0  0
   11.3901    0.0742   23.9855 H   0  0  0  0  0  0  0  0  0  0  0  0
    8.9113    0.7342   23.6444 H   0  0  0  0  0  0  0  0  0  0  0  0
    8.1256   -1.8039   21.3539 H   0  0  0  0  0  0  0  0  0  0  0  0
  1  2  1  0  0  0  0
  1  3  2  0  0  0  0
  2  6  2  0  0  0  0
  3  7  1  0  0  0  0
  4  5  1  0  0  0  0
  4 10  2  0  0  0  0
  5 11  2  0  0  0  0
  6 14  1  0  0  0  0
  7 14  2  0  0  0  0
  8 12  2  0  0  0  0
  8 15  1  0  0  0  0
  9 13  1  0  0  0  0
  9 15  2  0  0  0  0
 10 16  1  0  0  0  0
 11 17  1  0  0  0  0
 12 18  1  0  0  0  0
 13 18  2  0  0  0  0
 14 24  1  0  0  0  0
 15 25  1  0  0  0  0
 16 17  2  0  0  0  0
 16 26  1  0  0  0  0
 17 28  1  0  0  0  0
 18 29  1  0  0  0  0
 19 25  1  6  0  0  0
 19 30  1  0  0  0  0
 19 31  2  0  0  0  0
 20 22  1  0  0  0  0
 20 29  1  0  0  0  0
 21 23  1  0  0  0  0
 21 29  1  0  0  0  0
 22 32  1  0  0  0  0
 23 32  1  0  0  0  0
 24 25  1  0  0  0  0
 26 27  2  0  0  0  0
 27 28  1  0  0  0  0
 28 30  1  0  0  0  0
  1 33  1  0  0  0  0
  2 34  1  0  0  0  0
  3 35  1  0  0  0  0
  4 36  1  0  0  0  0
  5 37  1  0  0  0  0
  6 38  1  0  0  0  0
  7 39  1  0  0  0  0
  8 40  1  0  0  0  0
  9 41  1  0  0  0  0
 10 42  1  0  0  0  0
 11 43  1  0  0  0  0
 12 44  1  0  0  0  0
 13 45  1  0  0  0  0
 20 46  1  0  0  0  0
 20 47  1  0  0  0  0
 21 48  1  0  0  0  0
 21 49  1  0  0  0  0
 22 50  1  0  0  0  0
 22 51  1  0  0  0  0
 23 52  1  0  0  0  0
 23 53  1  0  0  0  0
 24 54  1  0  0  0  0
 24 55  1  0  0  0  0
 25 56  1  0  0  0  0
 30 57  1  0  0  0  0
M  END
> <clash_score>
0

> <docking_score>
-10.729803085327148

> <overlap_score>
0.9449926614761353

$$$$
BENZO_192_2
  -OEChem-08232013493D

 54 58  0     1  0  0  0  0  0999 V2000
    4.0980    2.1130   19.5350 C   0  0  0  0  0  0  0  0  0  0  0  0
    4.2970    1.6690   20.8430 C   0  0  0  0  0  0  0  0  0  0  0  0
    8.3510   -1.5420   24.6110 C   0  0  0  0  0  0  0  0  0  0  0  0
   10.2760   -2.3270   23.4020 C   0  0  0  0  0  0  0  0  0  0  0  0
    4.9400    1.7060   18.5060 C   0  0  0  0  0  0  0  0  0  0  0  0
    5.3360    0.8000   21.1530 C   0  0  0  0  0  0  0  0  0  0  0  0
    8.3310   -2.7170   25.3430 C   0  0  0  0  0  0  0  0  0  0  0  0
   10.2570   -3.5000   24.1350 C   0  0  0  0  0  0  0  0  0  0  0  0
   11.9711    2.6536   22.0835 C   0  0  0  0  0  0  0  0  0  0  0  0
   11.9493    4.0182   22.2699 C   0  0  0  0  0  0  0  0  0  0  0  0
   10.5124    2.8426   23.8831 C   0  0  0  0  0  0  0  0  0  0  0  0
    9.3300   -1.3350   23.6390 C   0  0  0  0  0  0  0  0  0  0  0  0
   11.1386    1.9724   23.0179 C   0  0  0  0  0  0  0  0  0  0  0  0
    5.9810    0.8330   18.8060 C   0  0  0  0  0  0  0  0  0  0  0  0
    6.1600    0.3870   20.1140 C   0  0  0  0  0  0  0  0  0  0  0  0
    9.2850   -3.7090   25.1090 C   0  0  0  0  0  0  0  0  0  0  0  0
    8.9510    0.1280   21.6880 C   0  0  0  0  0  0  0  0  0  0  0  0
    8.7671   -4.9535   27.2147 C   0  0  0  0  0  0  0  0  0  0  0  0
    9.3066   -6.1865   25.1649 C   0  0  0  0  0  0  0  0  0  0  0  0
    7.3847   -5.5970   27.2000 C   0  0  0  0  0  0  0  0  0  0  0  0
    7.9070   -6.7999   25.2264 C   0  0  0  0  0  0  0  0  0  0  0  0
   10.9652    0.4722   23.0544 C   0  0  0  0  0  0  0  0  0  0  0  0
    9.4200   -0.0840   22.9530 C   0  0  2  0  0  0  0  0  0  0  0  0
    6.9440    0.2550   18.0100 N   0  0  0  0  0  0  0  0  0  0  0  0
    7.6830   -0.5170   18.7600 N   0  0  0  0  0  0  0  0  0  0  0  0
    7.2210   -0.4620   20.0350 N   0  0  0  0  0  0  0  0  0  0  0  0
    9.2641   -4.8845   25.8388 N   0  0  0  0  0  0  0  0  0  0  0  0
    8.0810   -0.9750   21.0820 N   0  0  0  0  0  0  0  0  0  0  0  0
    9.1870    1.1500   21.0630 O   0  0  0  0  0  0  0  0  0  0  0  0
    7.4533   -6.8877   26.5818 O   0  0  0  0  0  0  0  0  0  0  0  0
   10.9284    4.4733   23.5672 S   0  0  0  0  0  0  0  0  0  0  0  0
    3.2714    2.7876   19.3199 H   0  0  0  0  0  0  0  0  0  0  0  0
    3.6283    2.0091   21.6296 H   0  0  0  0  0  0  0  0  0  0  0  0
    7.5957   -0.7779   24.7973 H   0  0  0  0  0  0  0  0  0  0  0  0
   11.0384   -2.1852   22.6338 H   0  0  0  0  0  0  0  0  0  0  0  0
    4.7824    2.0670   17.4883 H   0  0  0  0  0  0  0  0  0  0  0  0
    5.4937    0.4574   22.1805 H   0  0  0  0  0  0  0  0  0  0  0  0
    7.5634   -2.8637   26.1037 H   0  0  0  0  0  0  0  0  0  0  0  0
   11.0139   -4.2645   23.9419 H   0  0  0  0  0  0  0  0  0  0  0  0
   12.5582    2.1709   21.3123 H   0  0  0  0  0  0  0  0  0  0  0  0
   12.4846    4.7697   21.7069 H   0  0  0  0  0  0  0  0  0  0  0  0
    9.8309    2.6028   24.6876 H   0  0  0  0  0  0  0  0  0  0  0  0
    8.7013   -3.9575   27.6574 H   0  0  0  0  0  0  0  0  0  0  0  0
    9.4480   -5.5636   27.8142 H   0  0  0  0  0  0  0  0  0  0  0  0
   10.0131   -6.8375   25.6814 H   0  0  0  0  0  0  0  0  0  0  0  0
    9.6116   -6.0794   24.1250 H   0  0  0  0  0  0  0  0  0  0  0  0
    7.0306   -5.7388   28.2232 H   0  0  0  0  0  0  0  0  0  0  0  0
    6.6546   -4.9740   26.6757 H   0  0  0  0  0  0  0  0  0  0  0  0
    7.1892   -6.2226   24.6319 H   0  0  0  0  0  0  0  0  0  0  0  0
    7.9315   -7.8151   24.8187 H   0  0  0  0  0  0  0  0  0  0  0  0
   11.5818    0.0409   22.2535 H   0  0  0  0  0  0  0  0  0  0  0  0
   11.3901    0.0742   23.9855 H   0  0  0  0  0  0  0  0  0  0  0  0
    8.9113    0.7342   23.6444 H   0  0  0  0  0  0  0  0  0  0  0  0
    8.1256   -1.8039   21.3539 H   0  0  0  0  0  0  0  0  0  0  0  0
  1  2  1  0  0  0  0
  1  5  2  0  0  0  0
  2  6  2  0  0  0  0
  3  7  2  0  0  0  0
  3 12  1  0  0  0  0
  4  8  1  0  0  0  0
  4 12  2  0  0  0  0
  5 14  1  0  0  0  0
  6 15  1  0  0  0  0
  7 16  1  0  0  0  0
  8 16  2  0  0  0  0
  9 10  2  0  0  0  0
  9 13  1  0  0  0  0
 10 31  1  0  0  0  0
 11 13  2  0  0  0  0
 11 31  1  0  0  0  0
 12 23  1  0  0  0  0
 13 22  1  0  0  0  0
 14 15  2  0  0  0  0
 14 24  1  0  0  0  0
 15 26  1  0  0  0  0
 16 27  1  0  0  0  0
 17 23  1  6  0  0  0
 17 28  1  0  0  0  0
 17 29  2  0  0  0  0
 18 20  1  0  0  0  0
 18 27  1  0  0  0  0
 19 21  1  0  0  0  0
 19 27  1  0  0  0  0
 20 30  1  0  0  0  0
 21 30  1  0  0  0  0
 22 23  1  0  0  0  0
 24 25  2  0  0  0  0
 25 26  1  0  0  0  0
 26 28  1  0  0  0  0
  1 32  1  0  0  0  0
  2 33  1  0  0  0  0
  3 34  1  0  0  0  0
  4 35  1  0  0  0  0
  5 36  1  0  0  0  0
  6 37  1  0  0  0  0
  7 38  1  0  0  0  0
  8 39  1  0  0  0  0
  9 40  1  0  0  0  0
 10 41  1  0  0  0  0
 11 42  1  0  0  0  0
 18 43  1  0  0  0  0
 18 44  1  0  0  0  0
 19 45  1  0  0  0  0
 19 46  1  0  0  0  0
 20 47  1  0  0  0  0
 20 48  1  0  0  0  0
 21 49  1  0  0  0  0
 21 50  1  0  0  0  0
 22 51  1  0  0  0  0
 22 52  1  0  0  0  0
 23 53  1  0  0  0  0
 28 54  1  0  0  0  0
M  END
> <clash_score>
0

> <docking_score>
-9.657491683959961

> <overlap_score>
0.9350790977478027

$$$$
BENZO_194_1
  -OEChem-08232013493D

 57 61  0     1  0  0  0  0  0999 V2000
    4.0980    2.1130   19.5350 C   0  0  0  0  0  0  0  0  0  0  0  0
    4.2970    1.6690   20.8430 C   0  0  0  0  0  0  0  0  0  0  0  0
   11.3400    3.9813   23.9268 C   0  0  0  0  0  0  0  0  0  0  0  0
   10.7114    2.7759   24.2387 C   0  0  0  0  0  0  0  0  0  0  0  0
    8.3510   -1.5420   24.6110 C   0  0  0  0  0  0  0  0  0  0  0  0
   10.2760   -2.3270   23.4020 C   0  0  0  0  0  0  0  0  0  0  0  0
    4.9400    1.7060   18.5060 C   0  0  0  0  0  0  0  0  0  0  0  0
    5.3360    0.8000   21.1530 C   0  0  0  0  0  0  0  0  0  0  0  0
    8.3310   -2.7170   25.3430 C   0  0  0  0  0  0  0  0  0  0  0  0
   10.2570   -3.5000   24.1350 C   0  0  0  0  0  0  0  0  0  0  0  0
   10.7872    4.8281   22.9660 C   0  0  0  0  0  0  0  0  0  0  0  0
    8.9772    3.2637   22.6289 C   0  0  0  0  0  0  0  0  0  0  0  0
    9.3300   -1.3350   23.6390 C   0  0  0  0  0  0  0  0  0  0  0  0
    9.5300    2.4170   23.5897 C   0  0  0  0  0  0  0  0  0  0  0  0
    5.9810    0.8330   18.8060 C   0  0  0  0  0  0  0  0  0  0  0  0
    6.1600    0.3870   20.1140 C   0  0  0  0  0  0  0  0  0  0  0  0
    9.2850   -3.7090   25.1090 C   0  0  0  0  0  0  0  0  0  0  0  0
    9.6058    4.4692   22.3170 C   0  0  0  0  0  0  0  0  0  0  0  0
    8.9510    0.1280   21.6880 C   0  0  0  0  0  0  0  0  0  0  0  0
    8.7671   -4.9535   27.2147 C   0  0  0  0  0  0  0  0  0  0  0  0
    9.3066   -6.1865   25.1649 C   0  0  0  0  0  0  0  0  0  0  0  0
    7.3847   -5.5970   27.2000 C   0  0  0  0  0  0  0  0  0  0  0  0
    7.9070   -6.7999   25.2264 C   0  0  0  0  0  0  0  0  0  0  0  0
    8.8505    1.1108   23.9271 C   0  0  0  0  0  0  0  0  0  0  0  0
    9.4200   -0.0840   22.9530 C   0  0  1  0  0  0  0  0  0  0  0  0
    6.9440    0.2550   18.0100 N   0  0  0  0  0  0  0  0  0  0  0  0
    7.6830   -0.5170   18.7600 N   0  0  0  0  0  0  0  0  0  0  0  0
    7.2210   -0.4620   20.0350 N   0  0  0  0  0  0  0  0  0  0  0  0
    9.2641   -4.8845   25.8388 N   0  0  0  0  0  0  0  0  0  0  0  0
    8.0810   -0.9750   21.0820 N   0  0  0  0  0  0  0  0  0  0  0  0
    9.1870    1.1500   21.0630 O   0  0  0  0  0  0  0  0  0  0  0  0
    7.4533   -6.8877   26.5818 O   0  0  0  0  0  0  0  0  0  0  0  0
    8.9248    5.5138   21.1309 Cl  0  0  0  0  0  0  0  0  0  0  0  0
    3.2714    2.7876   19.3199 H   0  0  0  0  0  0  0  0  0  0  0  0
    3.6283    2.0091   21.6296 H   0  0  0  0  0  0  0  0  0  0  0  0
   12.2600    4.2603   24.4323 H   0  0  0  0  0  0  0  0  0  0  0  0
   11.1493    2.1222   24.9886 H   0  0  0  0  0  0  0  0  0  0  0  0
    7.5957   -0.7779   24.7973 H   0  0  0  0  0  0  0  0  0  0  0  0
   11.0384   -2.1852   22.6338 H   0  0  0  0  0  0  0  0  0  0  0  0
    4.7824    2.0670   17.4883 H   0  0  0  0  0  0  0  0  0  0  0  0
    5.4937    0.4574   22.1805 H   0  0  0  0  0  0  0  0  0  0  0  0
    7.5634   -2.8637   26.1037 H   0  0  0  0  0  0  0  0  0  0  0  0
   11.0139   -4.2645   23.9419 H   0  0  0  0  0  0  0  0  0  0  0  0
   11.2882    5.7644   22.7329 H   0  0  0  0  0  0  0  0  0  0  0  0
    8.0556    2.9797   22.1261 H   0  0  0  0  0  0  0  0  0  0  0  0
    8.7013   -3.9575   27.6574 H   0  0  0  0  0  0  0  0  0  0  0  0
    9.4480   -5.5636   27.8142 H   0  0  0  0  0  0  0  0  0  0  0  0
   10.0131   -6.8375   25.6814 H   0  0  0  0  0  0  0  0  0  0  0  0
    9.6116   -6.0794   24.1250 H   0  0  0  0  0  0  0  0  0  0  0  0
    7.0306   -5.7388   28.2232 H   0  0  0  0  0  0  0  0  0  0  0  0
    6.6546   -4.9740   26.6757 H   0  0  0  0  0  0  0  0  0  0  0  0
    7.1892   -6.2226   24.6319 H   0  0  0  0  0  0  0  0  0  0  0  0
    7.9315   -7.8151   24.8187 H   0  0  0  0  0  0  0  0  0  0  0  0
    8.9923    0.9231   25.0006 H   0  0  0  0  0  0  0  0  0  0  0  0
    7.7650    1.2154   23.7980 H   0  0  0  0  0  0  0  0  0  0  0  0
   10.5617    0.2354   22.9523 H   0  0  0  0  0  0  0  0  0  0  0  0
    8.1256   -1.8039   21.3539 H   0  0  0  0  0  0  0  0  0  0  0  0
  1  2  1  0  0  0  0
  1  7  2  0  0  0  0
  2  8  2  0  0  0  0
  3  4  2  0  0  0  0
  3 11  1  0  0  0  0
  4 14  1  0  0  0  0
  5  9  2  0  0  0  0
  5 13  1  0  0  0  0
  6 10  1  0  0  0  0
  6 13  2  0  0  0  0
  7 15  1  0  0  0  0
  8 16  1  0  0  0  0
  9 17  1  0  0  0  0
 10 17  2  0  0  0  0
 11 18  2  0  0  0  0
 12 14  2  0  0  0  0
 12 18  1  0  0  0  0
 13 25  1  0  0  0  0
 14 24  1  0  0  0  0
 15 16  2  0  0  0  0
 15 26  1  0  0  0  0
 16 28  1  0  0  0  0
 17 29  1  0  0  0  0
 18 33  1  0  0  0  0
 19 25  1  1  0  0  0
 19 30  1  0  0  0  0
 19 31  2  0  0  0  0
 20 22  1  0  0  0  0
 20 29  1  0  0  0  0
 21 23  1  0  0  0  0
 21 29  1  0  0  0  0
 22 32  1  0  0  0  0
 23 32  1  0  0  0  0
 24 25  1  0  0  0  0
 26 27  2  0  0  0  0
 27 28  1  0  0  0  0
 28 30  1  0  0  0  0
  1 34  1  0  0  0  0
  2 35  1  0  0  0  0
  3 36  1  0  0  0  0
  4 37  1  0  0  0  0
  5 38  1  0  0  0  0
  6 39  1  0  0  0  0
  7 40  1  0  0  0  0
  8 41  1  0  0  0  0
  9 42  1  0  0  0  0
 10 43  1  0  0  0  0
 11 44  1  0  0  0  0
 12 45  1  0  0  0  0
 20 46  1  0  0  0  0
 20 47  1  0  0  0  0
 21 48  1  0  0  0  0
 21 49  1  0  0  0  0
 22 50  1  0  0  0  0
 22 51  1  0  0  0  0
 23 52  1  0  0  0  0
 23 53  1  0  0  0  0
 24 54  1  0  0  0  0
 24 55  1  0  0  0  0
 25 56  1  0  0  0  0
 30 57  1  0  0  0  0
M  END
> <clash_score>
0.6943731598061976

> <docking_score>
-6.5956902503967285

> <overlap_score>
0.8659301996231079

$$$$
BENZO_197_1
  -OEChem-08232013493D

 53 56  0     1  0  0  0  0  0999 V2000
   11.4961    4.7275   23.0120 C   0  0  0  0  0  0  0  0  0  0  0  0
   12.4919    3.8949   22.5015 C   0  0  0  0  0  0  0  0  0  0  0  0
   10.3281    4.1760   23.5388 C   0  0  0  0  0  0  0  0  0  0  0  0
    4.0980    2.1130   19.5350 C   0  0  0  0  0  0  0  0  0  0  0  0
    4.2970    1.6690   20.8430 C   0  0  0  0  0  0  0  0  0  0  0  0
   12.3199    2.5108   22.5177 C   0  0  0  0  0  0  0  0  0  0  0  0
   10.1560    2.7919   23.5549 C   0  0  0  0  0  0  0  0  0  0  0  0
    8.3510   -1.5420   24.6110 C   0  0  0  0  0  0  0  0  0  0  0  0
   10.2760   -2.3270   23.4020 C   0  0  0  0  0  0  0  0  0  0  0  0
    4.9400    1.7060   18.5060 C   0  0  0  0  0  0  0  0  0  0  0  0
    5.3360    0.8000   21.1530 C   0  0  0  0  0  0  0  0  0  0  0  0
    8.3310   -2.7170   25.3430 C   0  0  0  0  0  0  0  0  0  0  0  0
   10.2570   -3.5000   24.1350 C   0  0  0  0  0  0  0  0  0  0  0  0
    7.6830   -0.5170   18.7600 C   0  0  0  0  0  0  0  0  0  0  0  0
   11.1519    1.9593   23.0443 C   0  0  0  0  0  0  0  0  0  0  0  0
    9.3300   -1.3350   23.6390 C   0  0  0  0  0  0  0  0  0  0  0  0
    5.9810    0.8330   18.8060 C   0  0  0  0  0  0  0  0  0  0  0  0
    6.1600    0.3870   20.1140 C   0  0  0  0  0  0  0  0  0  0  0  0
    9.2850   -3.7090   25.1090 C   0  0  0  0  0  0  0  0  0  0  0  0
    8.9510    0.1280   21.6880 C   0  0  0  0  0  0  0  0  0  0  0  0
    8.2528   -5.1193   26.8656 C   0  0  0  0  0  0  0  0  0  0  0  0
   10.2447   -5.9395   25.5976 C   0  0  0  0  0  0  0  0  0  0  0  0
   10.9648    0.4604   23.0619 C   0  0  0  0  0  0  0  0  0  0  0  0
    9.4200   -0.0840   22.9530 C   0  0  1  0  0  0  0  0  0  0  0  0
    6.9440    0.2550   18.0100 N   0  0  0  0  0  0  0  0  0  0  0  0
    7.2210   -0.4620   20.0350 N   0  0  0  0  0  0  0  0  0  0  0  0
    8.0810   -0.9750   21.0820 N   0  0  0  0  0  0  0  0  0  0  0  0
    9.2638   -4.9025   25.8500 N   0  0  0  0  0  0  0  0  0  0  0  0
    9.1870    1.1500   21.0630 O   0  0  0  0  0  0  0  0  0  0  0  0
   11.6308    5.8052   23.0007 H   0  0  0  0  0  0  0  0  0  0  0  0
   13.4019    4.3242   22.0924 H   0  0  0  0  0  0  0  0  0  0  0  0
    9.5530    4.8238   23.9373 H   0  0  0  0  0  0  0  0  0  0  0  0
    3.2711    2.7870   19.3201 H   0  0  0  0  0  0  0  0  0  0  0  0
    3.6262    2.0082   21.6284 H   0  0  0  0  0  0  0  0  0  0  0  0
   13.1011    1.8699   22.1175 H   0  0  0  0  0  0  0  0  0  0  0  0
    9.2427    2.3711   23.9671 H   0  0  0  0  0  0  0  0  0  0  0  0
    7.5957   -0.7779   24.7973 H   0  0  0  0  0  0  0  0  0  0  0  0
   11.0384   -2.1852   22.6338 H   0  0  0  0  0  0  0  0  0  0  0  0
    4.7816    2.0660   17.4901 H   0  0  0  0  0  0  0  0  0  0  0  0
    5.4934    0.4579   22.1787 H   0  0  0  0  0  0  0  0  0  0  0  0
    7.5634   -2.8637   26.1037 H   0  0  0  0  0  0  0  0  0  0  0  0
   11.0139   -4.2645   23.9419 H   0  0  0  0  0  0  0  0  0  0  0  0
    8.5166   -1.1054   18.4533 H   0  0  0  0  0  0  0  0  0  0  0  0
    8.4036   -6.1053   27.3293 H   0  0  0  0  0  0  0  0  0  0  0  0
    8.3319   -4.3367   27.6345 H   0  0  0  0  0  0  0  0  0  0  0  0
    7.2551   -5.0801   26.4039 H   0  0  0  0  0  0  0  0  0  0  0  0
   10.0633   -6.7887   26.2728 H   0  0  0  0  0  0  0  0  0  0  0  0
   10.1613   -6.2767   24.5539 H   0  0  0  0  0  0  0  0  0  0  0  0
   11.2542   -5.5399   25.7743 H   0  0  0  0  0  0  0  0  0  0  0  0
   11.5732    0.0341   22.2521 H   0  0  0  0  0  0  0  0  0  0  0  0
   11.3908    0.0462   23.9854 H   0  0  0  0  0  0  0  0  0  0  0  0
    8.9107    0.7231   23.6509 H   0  0  0  0  0  0  0  0  0  0  0  0
    8.1515   -1.8050   21.3815 H   0  0  0  0  0  0  0  0  0  0  0  0
  1  2  1  0  0  0  0
  1  3  2  0  0  0  0
  2  6  2  0  0  0  0
  3  7  1  0  0  0  0
  4  5  1  0  0  0  0
  4 10  2  0  0  0  0
  5 11  2  0  0  0  0
  6 15  1  0  0  0  0
  7 15  2  0  0  0  0
  8 12  2  0  0  0  0
  8 16  1  0  0  0  0
  9 13  1  0  0  0  0
  9 16  2  0  0  0  0
 10 17  1  0  0  0  0
 11 18  1  0  0  0  0
 12 19  1  0  0  0  0
 13 19  2  0  0  0  0
 14 25  2  0  0  0  0
 14 26  1  0  0  0  0
 15 23  1  0  0  0  0
 16 24  1  0  0  0  0
 17 18  2  0  0  0  0
 17 25  1  0  0  0  0
 18 26  1  0  0  0  0
 19 28  1  0  0  0  0
 20 24  1  0  0  0  0
 20 27  1  0  0  0  0
 20 29  2  0  0  0  0
 21 28  1  0  0  0  0
 22 28  1  0  0  0  0
 23 24  1  1  0  0  0
 26 27  1  0  0  0  0
  1 30  1  0  0  0  0
  2 31  1  0  0  0  0
  3 32  1  0  0  0  0
  4 33  1  0  0  0  0
  5 34  1  0  0  0  0
  6 35  1  0  0  0  0
  7 36  1  0  0  0  0
  8 37  1  0  0  0  0
  9 38  1  0  0  0  0
 10 39  1  0  0  0  0
 11 40  1  0  0  0  0
 12 41  1  0  0  0  0
 13 42  1  0  0  0  0
 14 43  1  0  0  0  0
 21 44  1  0  0  0  0
 21 45  1  0  0  0  0
 21 46  1  0  0  0  0
 22 47  1  0  0  0  0
 22 48  1  0  0  0  0
 22 49  1  0  0  0  0
 23 50  1  0  0  0  0
 23 51  1  0  0  0  0
 24 52  1  0  0  0  0
 27 53  1  0  0  0  0
M  END
> <clash_score>
0

> <docking_score>
-12.243999481201172

> <overlap_score>
0.9327341318130493

$$$$
BENZO_196_1
  -OEChem-08232013493D

 50 53  0     1  0  0  0  0  0999 V2000
    4.0980    2.1130   19.5350 C   0  0  0  0  0  0  0  0  0  0  0  0
    4.2970    1.6690   20.8430 C   0  0  0  0  0  0  0  0  0  0  0  0
    8.3510   -1.5420   24.6110 C   0  0  0  0  0  0  0  0  0  0  0  0
   10.2760   -2.3270   23.4020 C   0  0  0  0  0  0  0  0  0  0  0  0
    4.9400    1.7060   18.5060 C   0  0  0  0  0  0  0  0  0  0  0  0
    5.3360    0.8000   21.1530 C   0  0  0  0  0  0  0  0  0  0  0  0
    8.3310   -2.7170   25.3430 C   0  0  0  0  0  0  0  0  0  0  0  0
   10.2570   -3.5000   24.1350 C   0  0  0  0  0  0  0  0  0  0  0  0
   11.9859    2.6451   22.1146 C   0  0  0  0  0  0  0  0  0  0  0  0
   11.9778    4.0073   22.3192 C   0  0  0  0  0  0  0  0  0  0  0  0
   10.5383    2.8236   23.9243 C   0  0  0  0  0  0  0  0  0  0  0  0
    7.6830   -0.5170   18.7600 C   0  0  0  0  0  0  0  0  0  0  0  0
    9.3300   -1.3350   23.6390 C   0  0  0  0  0  0  0  0  0  0  0  0
   11.1519    1.9593   23.0443 C   0  0  0  0  0  0  0  0  0  0  0  0
    5.9810    0.8330   18.8060 C   0  0  0  0  0  0  0  0  0  0  0  0
    6.1600    0.3870   20.1140 C   0  0  0  0  0  0  0  0  0  0  0  0
    9.2850   -3.7090   25.1090 C   0  0  0  0  0  0  0  0  0  0  0  0
    8.9510    0.1280   21.6880 C   0  0  0  0  0  0  0  0  0  0  0  0
    8.2528   -5.1193   26.8656 C   0  0  0  0  0  0  0  0  0  0  0  0
   10.2447   -5.9395   25.5976 C   0  0  0  0  0  0  0  0  0  0  0  0
   10.9648    0.4604   23.0619 C   0  0  0  0  0  0  0  0  0  0  0  0
    9.4200   -0.0840   22.9530 C   0  0  1  0  0  0  0  0  0  0  0  0
    6.9440    0.2550   18.0100 N   0  0  0  0  0  0  0  0  0  0  0  0
    7.2210   -0.4620   20.0350 N   0  0  0  0  0  0  0  0  0  0  0  0
    8.0810   -0.9750   21.0820 N   0  0  0  0  0  0  0  0  0  0  0  0
    9.2638   -4.9025   25.8500 N   0  0  0  0  0  0  0  0  0  0  0  0
    9.1870    1.1500   21.0630 O   0  0  0  0  0  0  0  0  0  0  0  0
   10.9679    4.4545   23.6278 S   0  0  0  0  0  0  0  0  0  0  0  0
    3.2711    2.7870   19.3201 H   0  0  0  0  0  0  0  0  0  0  0  0
    3.6262    2.0082   21.6284 H   0  0  0  0  0  0  0  0  0  0  0  0
    7.5957   -0.7779   24.7973 H   0  0  0  0  0  0  0  0  0  0  0  0
   11.0384   -2.1852   22.6338 H   0  0  0  0  0  0  0  0  0  0  0  0
    4.7816    2.0660   17.4901 H   0  0  0  0  0  0  0  0  0  0  0  0
    5.4934    0.4579   22.1787 H   0  0  0  0  0  0  0  0  0  0  0  0
    7.5634   -2.8637   26.1037 H   0  0  0  0  0  0  0  0  0  0  0  0
   11.0139   -4.2645   23.9419 H   0  0  0  0  0  0  0  0  0  0  0  0
   12.5644    2.1673   21.3341 H   0  0  0  0  0  0  0  0  0  0  0  0
   12.5171    4.7612   21.7634 H   0  0  0  0  0  0  0  0  0  0  0  0
    9.8588    2.5795   24.7291 H   0  0  0  0  0  0  0  0  0  0  0  0
    8.5166   -1.1054   18.4533 H   0  0  0  0  0  0  0  0  0  0  0  0
    8.4036   -6.1053   27.3293 H   0  0  0  0  0  0  0  0  0  0  0  0
    8.3319   -4.3367   27.6345 H   0  0  0  0  0  0  0  0  0  0  0  0
    7.2551   -5.0801   26.4039 H   0  0  0  0  0  0  0  0  0  0  0  0
   10.0633   -6.7887   26.2728 H   0  0  0  0  0  0  0  0  0  0  0  0
   10.1613   -6.2767   24.5539 H   0  0  0  0  0  0  0  0  0  0  0  0
   11.2542   -5.5399   25.7743 H   0  0  0  0  0  0  0  0  0  0  0  0
   11.5732    0.0341   22.2521 H   0  0  0  0  0  0  0  0  0  0  0  0
   11.3908    0.0462   23.9854 H   0  0  0  0  0  0  0  0  0  0  0  0
    8.9107    0.7231   23.6509 H   0  0  0  0  0  0  0  0  0  0  0  0
    8.1515   -1.8050   21.3815 H   0  0  0  0  0  0  0  0  0  0  0  0
  1  2  1  0  0  0  0
  1  5  2  0  0  0  0
  2  6  2  0  0  0  0
  3  7  2  0  0  0  0
  3 13  1  0  0  0  0
  4  8  1  0  0  0  0
  4 13  2  0  0  0  0
  5 15  1  0  0  0  0
  6 16  1  0  0  0  0
  7 17  1  0  0  0  0
  8 17  2  0  0  0  0
  9 10  2  0  0  0  0
  9 14  1  0  0  0  0
 10 28  1  0  0  0  0
 11 14  2  0  0  0  0
 11 28  1  0  0  0  0
 12 23  2  0  0  0  0
 12 24  1  0  0  0  0
 13 22  1  0  0  0  0
 14 21  1  0  0  0  0
 15 16  2  0  0  0  0
 15 23  1  0  0  0  0
 16 24  1  0  0  0  0
 17 26  1  0  0  0  0
 18 22  1  0  0  0  0
 18 25  1  0  0  0  0
 18 27  2  0  0  0  0
 19 26  1  0  0  0  0
 20 26  1  0  0  0  0
 21 22  1  1  0  0  0
 24 25  1  0  0  0  0
  1 29  1  0  0  0  0
  2 30  1  0  0  0  0
  3 31  1  0  0  0  0
  4 32  1  0  0  0  0
  5 33  1  0  0  0  0
  6 34  1  0  0  0  0
  7 35  1  0  0  0  0
  8 36  1  0  0  0  0
  9 37  1  0  0  0  0
 10 38  1  0  0  0  0
 11 39  1  0  0  0  0
 12 40  1  0  0  0  0
 19 41  1  0  0  0  0
 19 42  1  0  0  0  0
 19 43  1  0  0  0  0
 20 44  1  0  0  0  0
 20 45  1  0  0  0  0
 20 46  1  0  0  0  0
 21 47  1  0  0  0  0
 21 48  1  0  0  0  0
 22 49  1  0  0  0  0
 25 50  1  0  0  0  0
M  END
> <clash_score>
0

> <docking_score>
-11.067281723022461

> <overlap_score>
0.9226120114326477

$$$$
BENZO_197_2
  -OEChem-08232013493D

 53 56  0     1  0  0  0  0  0999 V2000
   10.7871    4.8449   23.0864 C   0  0  0  0  0  0  0  0  0  0  0  0
    9.4814    4.8291   23.5768 C   0  0  0  0  0  0  0  0  0  0  0  0
   11.4667    3.6455   22.8734 C   0  0  0  0  0  0  0  0  0  0  0  0
    4.0980    2.1130   19.5350 C   0  0  0  0  0  0  0  0  0  0  0  0
    4.2970    1.6690   20.8430 C   0  0  0  0  0  0  0  0  0  0  0  0
    8.8554    3.6139   23.8543 C   0  0  0  0  0  0  0  0  0  0  0  0
   10.8407    2.4304   23.1510 C   0  0  0  0  0  0  0  0  0  0  0  0
    8.3510   -1.5420   24.6110 C   0  0  0  0  0  0  0  0  0  0  0  0
   10.2760   -2.3270   23.4020 C   0  0  0  0  0  0  0  0  0  0  0  0
    4.9400    1.7060   18.5060 C   0  0  0  0  0  0  0  0  0  0  0  0
    5.3360    0.8000   21.1530 C   0  0  0  0  0  0  0  0  0  0  0  0
    8.3310   -2.7170   25.3430 C   0  0  0  0  0  0  0  0  0  0  0  0
   10.2570   -3.5000   24.1350 C   0  0  0  0  0  0  0  0  0  0  0  0
    7.6830   -0.5170   18.7600 C   0  0  0  0  0  0  0  0  0  0  0  0
    9.5350    2.4145   23.6414 C   0  0  0  0  0  0  0  0  0  0  0  0
    9.3300   -1.3350   23.6390 C   0  0  0  0  0  0  0  0  0  0  0  0
    5.9810    0.8330   18.8060 C   0  0  0  0  0  0  0  0  0  0  0  0
    6.1600    0.3870   20.1140 C   0  0  0  0  0  0  0  0  0  0  0  0
    9.2850   -3.7090   25.1090 C   0  0  0  0  0  0  0  0  0  0  0  0
    8.9510    0.1280   21.6880 C   0  0  0  0  0  0  0  0  0  0  0  0
    8.2528   -5.1193   26.8656 C   0  0  0  0  0  0  0  0  0  0  0  0
   10.2447   -5.9395   25.5976 C   0  0  0  0  0  0  0  0  0  0  0  0
    8.8577    1.0982   23.9421 C   0  0  0  0  0  0  0  0  0  0  0  0
    9.4200   -0.0840   22.9530 C   0  0  2  0  0  0  0  0  0  0  0  0
    6.9440    0.2550   18.0100 N   0  0  0  0  0  0  0  0  0  0  0  0
    7.2210   -0.4620   20.0350 N   0  0  0  0  0  0  0  0  0  0  0  0
    8.0810   -0.9750   21.0820 N   0  0  0  0  0  0  0  0  0  0  0  0
    9.2638   -4.9025   25.8500 N   0  0  0  0  0  0  0  0  0  0  0  0
    9.1870    1.1500   21.0630 O   0  0  0  0  0  0  0  0  0  0  0  0
   11.2739    5.7912   22.8690 H   0  0  0  0  0  0  0  0  0  0  0  0
    8.9517    5.7628   23.7416 H   0  0  0  0  0  0  0  0  0  0  0  0
   12.4829    3.6575   22.4905 H   0  0  0  0  0  0  0  0  0  0  0  0
    3.2711    2.7870   19.3201 H   0  0  0  0  0  0  0  0  0  0  0  0
    3.6262    2.0082   21.6284 H   0  0  0  0  0  0  0  0  0  0  0  0
    7.8379    3.6112   24.2364 H   0  0  0  0  0  0  0  0  0  0  0  0
   11.3780    1.5009   22.9821 H   0  0  0  0  0  0  0  0  0  0  0  0
    7.5957   -0.7779   24.7973 H   0  0  0  0  0  0  0  0  0  0  0  0
   11.0384   -2.1852   22.6338 H   0  0  0  0  0  0  0  0  0  0  0  0
    4.7816    2.0660   17.4901 H   0  0  0  0  0  0  0  0  0  0  0  0
    5.4934    0.4579   22.1787 H   0  0  0  0  0  0  0  0  0  0  0  0
    7.5634   -2.8637   26.1037 H   0  0  0  0  0  0  0  0  0  0  0  0
   11.0139   -4.2645   23.9419 H   0  0  0  0  0  0  0  0  0  0  0  0
    8.5166   -1.1054   18.4533 H   0  0  0  0  0  0  0  0  0  0  0  0
    8.4036   -6.1053   27.3293 H   0  0  0  0  0  0  0  0  0  0  0  0
    8.3319   -4.3367   27.6345 H   0  0  0  0  0  0  0  0  0  0  0  0
    7.2551   -5.0801   26.4039 H   0  0  0  0  0  0  0  0  0  0  0  0
   10.0633   -6.7887   26.2728 H   0  0  0  0  0  0  0  0  0  0  0  0
   10.1613   -6.2767   24.5539 H   0  0  0  0  0  0  0  0  0  0  0  0
   11.2542   -5.5399   25.7743 H   0  0  0  0  0  0  0  0  0  0  0  0
    8.9995    0.8809   25.0099 H   0  0  0  0  0  0  0  0  0  0  0  0
    7.7720    1.2044   23.8156 H   0  0  0  0  0  0  0  0  0  0  0  0
   10.5616    0.2233   22.9565 H   0  0  0  0  0  0  0  0  0  0  0  0
    8.1515   -1.8050   21.3815 H   0  0  0  0  0  0  0  0  0  0  0  0
  1  2  1  0  0  0  0
  1  3  2  0  0  0  0
  2  6  2  0  0  0  0
  3  7  1  0  0  0  0
  4  5  1  0  0  0  0
  4 10  2  0  0  0  0
  5 11  2  0  0  0  0
  6 15  1  0  0  0  0
  7 15  2  0  0  0  0
  8 12  2  0  0  0  0
  8 16  1  0  0  0  0
  9 13  1  0  0  0  0
  9 16  2  0  0  0  0
 10 17  1  0  0  0  0
 11 18  1  0  0  0  0
 12 19  1  0  0  0  0
 13 19  2  0  0  0  0
 14 25  2  0  0  0  0
 14 26  1  0  0  0  0
 15 23  1  0  0  0  0
 16 24  1  0  0  0  0
 17 18  2  0  0  0  0
 17 25  1  0  0  0  0
 18 26  1  0  0  0  0
 19 28  1  0  0  0  0
 20 24  1  0  0  0  0
 20 27  1  0  0  0  0
 20 29  2  0  0  0  0
 21 28  1  0  0  0  0
 22 28  1  0  0  0  0
 23 24  1  6  0  0  0
 26 27  1  0  0  0  0
  1 30  1  0  0  0  0
  2 31  1  0  0  0  0
  3 32  1  0  0  0  0
  4 33  1  0  0  0  0
  5 34  1  0  0  0  0
  6 35  1  0  0  0  0
  7 36  1  0  0  0  0
  8 37  1  0  0  0  0
  9 38  1  0  0  0  0
 10 39  1  0  0  0  0
 11 40  1  0  0  0  0
 12 41  1  0  0  0  0
 13 42  1  0  0  0  0
 14 43  1  0  0  0  0
 21 44  1  0  0  0  0
 21 45  1  0  0  0  0
 21 46  1  0  0  0  0
 22 47  1  0  0  0  0
 22 48  1  0  0  0  0
 22 49  1  0  0  0  0
 23 50  1  0  0  0  0
 23 51  1  0  0  0  0
 24 52  1  0  0  0  0
 27 53  1  0  0  0  0
M  END
> <clash_score>
0

> <docking_score>
-10.806374549865723

> <overlap_score>
0.8708926439285278

$$$$
BENZO_195_2
  -OEChem-08232013493D

 57 61  0     1  0  0  0  0  0999 V2000
    4.0980    2.1130   19.5350 C   0  0  0  0  0  0  0  0  0  0  0  0
    4.2970    1.6690   20.8430 C   0  0  0  0  0  0  0  0  0  0  0  0
    8.3510   -1.5420   24.6110 C   0  0  0  0  0  0  0  0  0  0  0  0
   10.2760   -2.3270   23.4020 C   0  0  0  0  0  0  0  0  0  0  0  0
    4.9400    1.7060   18.5060 C   0  0  0  0  0  0  0  0  0  0  0  0
    5.3360    0.8000   21.1530 C   0  0  0  0  0  0  0  0  0  0  0  0
    8.3310   -2.7170   25.3430 C   0  0  0  0  0  0  0  0  0  0  0  0
   10.2570   -3.5000   24.1350 C   0  0  0  0  0  0  0  0  0  0  0  0
   10.8281    2.6090   23.0800 C   0  0  0  0  0  0  0  0  0  0  0  0
    9.0171    3.6855   23.7096 C   0  0  0  0  0  0  0  0  0  0  0  0
    9.3300   -1.3350   23.6390 C   0  0  0  0  0  0  0  0  0  0  0  0
    9.5300    2.4170   23.5897 C   0  0  0  0  0  0  0  0  0  0  0  0
    5.9810    0.8330   18.8060 C   0  0  0  0  0  0  0  0  0  0  0  0
    6.1600    0.3870   20.1140 C   0  0  0  0  0  0  0  0  0  0  0  0
    9.2850   -3.7090   25.1090 C   0  0  0  0  0  0  0  0  0  0  0  0
    8.9510    0.1280   21.6880 C   0  0  0  0  0  0  0  0  0  0  0  0
    8.7671   -4.9535   27.2147 C   0  0  0  0  0  0  0  0  0  0  0  0
    9.3066   -6.1865   25.1649 C   0  0  0  0  0  0  0  0  0  0  0  0
    7.3847   -5.5970   27.2000 C   0  0  0  0  0  0  0  0  0  0  0  0
    7.9070   -6.7999   25.2264 C   0  0  0  0  0  0  0  0  0  0  0  0
    9.9292    5.9676   23.2205 C   0  0  0  0  0  0  0  0  0  0  0  0
    8.8504    1.1108   23.9271 C   0  0  0  0  0  0  0  0  0  0  0  0
    9.4200   -0.0840   22.9530 C   0  0  2  0  0  0  0  0  0  0  0  0
   11.1217    3.8979   22.8890 N   0  0  0  0  0  0  0  0  0  0  0  0
    6.9440    0.2550   18.0100 N   0  0  0  0  0  0  0  0  0  0  0  0
    7.6830   -0.5170   18.7600 N   0  0  0  0  0  0  0  0  0  0  0  0
   10.0008    4.5274   23.2807 N   0  0  0  0  0  0  0  0  0  0  0  0
    7.2210   -0.4620   20.0350 N   0  0  0  0  0  0  0  0  0  0  0  0
    9.2641   -4.8845   25.8388 N   0  0  0  0  0  0  0  0  0  0  0  0
    8.0810   -0.9750   21.0820 N   0  0  0  0  0  0  0  0  0  0  0  0
    9.1870    1.1500   21.0630 O   0  0  0  0  0  0  0  0  0  0  0  0
    7.4533   -6.8877   26.5818 O   0  0  0  0  0  0  0  0  0  0  0  0
    3.2714    2.7876   19.3199 H   0  0  0  0  0  0  0  0  0  0  0  0
    3.6283    2.0091   21.6296 H   0  0  0  0  0  0  0  0  0  0  0  0
    7.5957   -0.7779   24.7973 H   0  0  0  0  0  0  0  0  0  0  0  0
   11.0384   -2.1852   22.6338 H   0  0  0  0  0  0  0  0  0  0  0  0
    4.7824    2.0670   17.4883 H   0  0  0  0  0  0  0  0  0  0  0  0
    5.4937    0.4574   22.1805 H   0  0  0  0  0  0  0  0  0  0  0  0
    7.5634   -2.8637   26.1037 H   0  0  0  0  0  0  0  0  0  0  0  0
   11.0139   -4.2645   23.9419 H   0  0  0  0  0  0  0  0  0  0  0  0
   11.5739    1.8650   22.8381 H   0  0  0  0  0  0  0  0  0  0  0  0
    8.0593    4.0517   24.0537 H   0  0  0  0  0  0  0  0  0  0  0  0
    8.7013   -3.9575   27.6574 H   0  0  0  0  0  0  0  0  0  0  0  0
    9.4480   -5.5636   27.8142 H   0  0  0  0  0  0  0  0  0  0  0  0
   10.0131   -6.8375   25.6814 H   0  0  0  0  0  0  0  0  0  0  0  0
    9.6116   -6.0794   24.1250 H   0  0  0  0  0  0  0  0  0  0  0  0
    7.0306   -5.7388   28.2232 H   0  0  0  0  0  0  0  0  0  0  0  0
    6.6546   -4.9740   26.6757 H   0  0  0  0  0  0  0  0  0  0  0  0
    7.1892   -6.2226   24.6319 H   0  0  0  0  0  0  0  0  0  0  0  0
    7.9315   -7.8151   24.8187 H   0  0  0  0  0  0  0  0  0  0  0  0
   10.2845    6.3631   24.1757 H   0  0  0  0  0  0  0  0  0  0  0  0
   10.5553    6.3294   22.4002 H   0  0  0  0  0  0  0  0  0  0  0  0
    8.8938    6.2708   23.0414 H   0  0  0  0  0  0  0  0  0  0  0  0
    8.9922    0.9231   25.0006 H   0  0  0  0  0  0  0  0  0  0  0  0
    7.7650    1.2154   23.7980 H   0  0  0  0  0  0  0  0  0  0  0  0
   10.5617    0.2354   22.9523 H   0  0  0  0  0  0  0  0  0  0  0  0
    8.1256   -1.8039   21.3539 H   0  0  0  0  0  0  0  0  0  0  0  0
  1  2  1  0  0  0  0
  1  5  2  0  0  0  0
  2  6  2  0  0  0  0
  3  7  2  0  0  0  0
  3 11  1  0  0  0  0
  4  8  1  0  0  0  0
  4 11  2  0  0  0  0
  5 13  1  0  0  0  0
  6 14  1  0  0  0  0
  7 15  1  0  0  0  0
  8 15  2  0  0  0  0
  9 12  1  0  0  0  0
  9 24  2  0  0  0  0
 10 12  2  0  0  0  0
 10 27  1  0  0  0  0
 11 23  1  0  0  0  0
 12 22  1  0  0  0  0
 13 14  2  0  0  0  0
 13 25  1  0  0  0  0
 14 28  1  0  0  0  0
 15 29  1  0  0  0  0
 16 23  1  0  0  0  0
 16 30  1  0  0  0  0
 16 31  2  0  0  0  0
 17 19  1  0  0  0  0
 17 29  1  0  0  0  0
 18 20  1  0  0  0  0
 18 29  1  0  0  0  0
 19 32  1  0  0  0  0
 20 32  1  0  0  0  0
 21 27  1  0  0  0  0
 22 23  1  6  0  0  0
 24 27  1  0  0  0  0
 25 26  2  0  0  0  0
 26 28  1  0  0  0  0
 28 30  1  0  0  0  0
  1 33  1  0  0  0  0
  2 34  1  0  0  0  0
  3 35  1  0  0  0  0
  4 36  1  0  0  0  0
  5 37  1  0  0  0  0
  6 38  1  0  0  0  0
  7 39  1  0  0  0  0
  8 40  1  0  0  0  0
  9 41  1  0  0  0  0
 10 42  1  0  0  0  0
 17 43  1  0  0  0  0
 17 44  1  0  0  0  0
 18 45  1  0  0  0  0
 18 46  1  0  0  0  0
 19 47  1  0  0  0  0
 19 48  1  0  0  0  0
 20 49  1  0  0  0  0
 20 50  1  0  0  0  0
 21 51  1  0  0  0  0
 21 52  1  0  0  0  0
 21 53  1  0  0  0  0
 22 54  1  0  0  0  0
 22 55  1  0  0  0  0
 23 56  1  0  0  0  0
 30 57  1  0  0  0  0
M  END
> <clash_score>
0

> <docking_score>
-9.391364097595215

> <overlap_score>
0.8769152760505676

$$$$
BENZO_196_2
  -OEChem-08232013493D

 50 53  0     1  0  0  0  0  0999 V2000
    4.0980    2.1130   19.5350 C   0  0  0  0  0  0  0  0  0  0  0  0
    4.2970    1.6690   20.8430 C   0  0  0  0  0  0  0  0  0  0  0  0
    8.3510   -1.5420   24.6110 C   0  0  0  0  0  0  0  0  0  0  0  0
   10.2760   -2.3270   23.4020 C   0  0  0  0  0  0  0  0  0  0  0  0
    4.9400    1.7060   18.5060 C   0  0  0  0  0  0  0  0  0  0  0  0
    5.3360    0.8000   21.1530 C   0  0  0  0  0  0  0  0  0  0  0  0
    8.3310   -2.7170   25.3430 C   0  0  0  0  0  0  0  0  0  0  0  0
   10.2570   -3.5000   24.1350 C   0  0  0  0  0  0  0  0  0  0  0  0
   10.8949    2.5334   23.2333 C   0  0  0  0  0  0  0  0  0  0  0  0
   11.2600    3.8452   23.0253 C   0  0  0  0  0  0  0  0  0  0  0  0
    8.9125    3.6403   23.7301 C   0  0  0  0  0  0  0  0  0  0  0  0
    7.6830   -0.5170   18.7600 C   0  0  0  0  0  0  0  0  0  0  0  0
    9.3300   -1.3350   23.6390 C   0  0  0  0  0  0  0  0  0  0  0  0
    9.5350    2.4145   23.6414 C   0  0  0  0  0  0  0  0  0  0  0  0
    5.9810    0.8330   18.8060 C   0  0  0  0  0  0  0  0  0  0  0  0
    6.1600    0.3870   20.1140 C   0  0  0  0  0  0  0  0  0  0  0  0
    9.2850   -3.7090   25.1090 C   0  0  0  0  0  0  0  0  0  0  0  0
    8.9510    0.1280   21.6880 C   0  0  0  0  0  0  0  0  0  0  0  0
    8.2528   -5.1193   26.8656 C   0  0  0  0  0  0  0  0  0  0  0  0
   10.2447   -5.9395   25.5976 C   0  0  0  0  0  0  0  0  0  0  0  0
    8.8577    1.0982   23.9421 C   0  0  0  0  0  0  0  0  0  0  0  0
    9.4200   -0.0840   22.9530 C   0  0  2  0  0  0  0  0  0  0  0  0
    6.9440    0.2550   18.0100 N   0  0  0  0  0  0  0  0  0  0  0  0
    7.2210   -0.4620   20.0350 N   0  0  0  0  0  0  0  0  0  0  0  0
    8.0810   -0.9750   21.0820 N   0  0  0  0  0  0  0  0  0  0  0  0
    9.2638   -4.9025   25.8500 N   0  0  0  0  0  0  0  0  0  0  0  0
    9.1870    1.1500   21.0630 O   0  0  0  0  0  0  0  0  0  0  0  0
    9.9661    4.9270   23.3220 S   0  0  0  0  0  0  0  0  0  0  0  0
    3.2711    2.7870   19.3201 H   0  0  0  0  0  0  0  0  0  0  0  0
    3.6262    2.0082   21.6284 H   0  0  0  0  0  0  0  0  0  0  0  0
    7.5957   -0.7779   24.7973 H   0  0  0  0  0  0  0  0  0  0  0  0
   11.0384   -2.1852   22.6338 H   0  0  0  0  0  0  0  0  0  0  0  0
    4.7816    2.0660   17.4901 H   0  0  0  0  0  0  0  0  0  0  0  0
    5.4934    0.4579   22.1787 H   0  0  0  0  0  0  0  0  0  0  0  0
    7.5634   -2.8637   26.1037 H   0  0  0  0  0  0  0  0  0  0  0  0
   11.0139   -4.2645   23.9419 H   0  0  0  0  0  0  0  0  0  0  0  0
   11.5746    1.7015   23.0982 H   0  0  0  0  0  0  0  0  0  0  0  0
   12.2247    4.2203   22.7141 H   0  0  0  0  0  0  0  0  0  0  0  0
    7.8902    3.8463   24.0157 H   0  0  0  0  0  0  0  0  0  0  0  0
    8.5166   -1.1054   18.4533 H   0  0  0  0  0  0  0  0  0  0  0  0
    8.4036   -6.1053   27.3293 H   0  0  0  0  0  0  0  0  0  0  0  0
    8.3319   -4.3367   27.6345 H   0  0  0  0  0  0  0  0  0  0  0  0
    7.2551   -5.0801   26.4039 H   0  0  0  0  0  0  0  0  0  0  0  0
   10.0633   -6.7887   26.2728 H   0  0  0  0  0  0  0  0  0  0  0  0
   10.1613   -6.2767   24.5539 H   0  0  0  0  0  0  0  0  0  0  0  0
   11.2542   -5.5399   25.7743 H   0  0  0  0  0  0  0  0  0  0  0  0
    8.9995    0.8809   25.0099 H   0  0  0  0  0  0  0  0  0  0  0  0
    7.7720    1.2044   23.8156 H   0  0  0  0  0  0  0  0  0  0  0  0
   10.5616    0.2233   22.9565 H   0  0  0  0  0  0  0  0  0  0  0  0
    8.1515   -1.8050   21.3815 H   0  0  0  0  0  0  0  0  0  0  0  0
  1  2  1  0  0  0  0
  1  5  2  0  0  0  0
  2  6  2  0  0  0  0
  3  7  2  0  0  0  0
  3 13  1  0  0  0  0
  4  8  1  0  0  0  0
  4 13  2  0  0  0  0
  5 15  1  0  0  0  0
  6 16  1  0  0  0  0
  7 17  1  0  0  0  0
  8 17  2  0  0  0  0
  9 10  2  0  0  0  0
  9 14  1  0  0  0  0
 10 28  1  0  0  0  0
 11 14  2  0  0  0  0
 11 28  1  0  0  0  0
 12 23  2  0  0  0  0
 12 24  1  0  0  0  0
 13 22  1  0  0  0  0
 14 21  1  0  0  0  0
 15 16  2  0  0  0  0
 15 23  1  0  0  0  0
 16 24  1  0  0  0  0
 17 26  1  0  0  0  0
 18 22  1  0  0  0  0
 18 25  1  0  0  0  0
 18 27  2  0  0  0  0
 19 26  1  0  0  0  0
 20 26  1  0  0  0  0
 21 22  1  6  0  0  0
 24 25  1  0  0  0  0
  1 29  1  0  0  0  0
  2 30  1  0  0  0  0
  3 31  1  0  0  0  0
  4 32  1  0  0  0  0
  5 33  1  0  0  0  0
  6 34  1  0  0  0  0
  7 35  1  0  0  0  0
  8 36  1  0  0  0  0
  9 37  1  0  0  0  0
 10 38  1  0  0  0  0
 11 39  1  0  0  0  0
 12 40  1  0  0  0  0
 19 41  1  0  0  0  0
 19 42  1  0  0  0  0
 19 43  1  0  0  0  0
 20 44  1  0  0  0  0
 20 45  1  0  0  0  0
 20 46  1  0  0  0  0
 21 47  1  0  0  0  0
 21 48  1  0  0  0  0
 22 49  1  0  0  0  0
 25 50  1  0  0  0  0
M  END
> <clash_score>
0

> <docking_score>
-10.547136306762695

> <overlap_score>
0.8674131035804749

$$$$
BENZO_194_2
  -OEChem-08232013493D

 57 61  0     1  0  0  0  0  0999 V2000
    4.0980    2.1130   19.5350 C   0  0  0  0  0  0  0  0  0  0  0  0
    4.2970    1.6690   20.8430 C   0  0  0  0  0  0  0  0  0  0  0  0
   10.2958    4.1874   23.4874 C   0  0  0  0  0  0  0  0  0  0  0  0
   10.1359    2.8021   23.5197 C   0  0  0  0  0  0  0  0  0  0  0  0
    8.3510   -1.5420   24.6110 C   0  0  0  0  0  0  0  0  0  0  0  0
   10.2760   -2.3270   23.4020 C   0  0  0  0  0  0  0  0  0  0  0  0
    4.9400    1.7060   18.5060 C   0  0  0  0  0  0  0  0  0  0  0  0
    5.3360    0.8000   21.1530 C   0  0  0  0  0  0  0  0  0  0  0  0
    8.3310   -2.7170   25.3430 C   0  0  0  0  0  0  0  0  0  0  0  0
   10.2570   -3.5000   24.1350 C   0  0  0  0  0  0  0  0  0  0  0  0
   11.4583    4.7430   22.9531 C   0  0  0  0  0  0  0  0  0  0  0  0
   12.3012    2.5280   22.4836 C   0  0  0  0  0  0  0  0  0  0  0  0
    9.3300   -1.3350   23.6390 C   0  0  0  0  0  0  0  0  0  0  0  0
   11.1386    1.9724   23.0179 C   0  0  0  0  0  0  0  0  0  0  0  0
    5.9810    0.8330   18.8060 C   0  0  0  0  0  0  0  0  0  0  0  0
    6.1600    0.3870   20.1140 C   0  0  0  0  0  0  0  0  0  0  0  0
    9.2850   -3.7090   25.1090 C   0  0  0  0  0  0  0  0  0  0  0  0
   12.4610    3.9133   22.4513 C   0  0  0  0  0  0  0  0  0  0  0  0
    8.9510    0.1280   21.6880 C   0  0  0  0  0  0  0  0  0  0  0  0
    8.7671   -4.9535   27.2147 C   0  0  0  0  0  0  0  0  0  0  0  0
    9.3066   -6.1865   25.1649 C   0  0  0  0  0  0  0  0  0  0  0  0
    7.3847   -5.5970   27.2000 C   0  0  0  0  0  0  0  0  0  0  0  0
    7.9070   -6.7999   25.2264 C   0  0  0  0  0  0  0  0  0  0  0  0
   10.9652    0.4722   23.0544 C   0  0  0  0  0  0  0  0  0  0  0  0
    9.4200   -0.0840   22.9530 C   0  0  2  0  0  0  0  0  0  0  0  0
    6.9440    0.2550   18.0100 N   0  0  0  0  0  0  0  0  0  0  0  0
    7.6830   -0.5170   18.7600 N   0  0  0  0  0  0  0  0  0  0  0  0
    7.2210   -0.4620   20.0350 N   0  0  0  0  0  0  0  0  0  0  0  0
    9.2641   -4.8845   25.8388 N   0  0  0  0  0  0  0  0  0  0  0  0
    8.0810   -0.9750   21.0820 N   0  0  0  0  0  0  0  0  0  0  0  0
    9.1870    1.1500   21.0630 O   0  0  0  0  0  0  0  0  0  0  0  0
    7.4533   -6.8877   26.5818 O   0  0  0  0  0  0  0  0  0  0  0  0
   13.8957    4.5993   21.7933 Cl  0  0  0  0  0  0  0  0  0  0  0  0
    3.2714    2.7876   19.3199 H   0  0  0  0  0  0  0  0  0  0  0  0
    3.6283    2.0091   21.6296 H   0  0  0  0  0  0  0  0  0  0  0  0
    9.5148    4.8331   23.8784 H   0  0  0  0  0  0  0  0  0  0  0  0
    9.2268    2.3779   23.9380 H   0  0  0  0  0  0  0  0  0  0  0  0
    7.5957   -0.7779   24.7973 H   0  0  0  0  0  0  0  0  0  0  0  0
   11.0384   -2.1852   22.6338 H   0  0  0  0  0  0  0  0  0  0  0  0
    4.7824    2.0670   17.4883 H   0  0  0  0  0  0  0  0  0  0  0  0
    5.4937    0.4574   22.1805 H   0  0  0  0  0  0  0  0  0  0  0  0
    7.5634   -2.8637   26.1037 H   0  0  0  0  0  0  0  0  0  0  0  0
   11.0139   -4.2645   23.9419 H   0  0  0  0  0  0  0  0  0  0  0  0
   11.5694    5.8244   22.9347 H   0  0  0  0  0  0  0  0  0  0  0  0
   13.0798    1.8768   22.0931 H   0  0  0  0  0  0  0  0  0  0  0  0
    8.7013   -3.9575   27.6574 H   0  0  0  0  0  0  0  0  0  0  0  0
    9.4480   -5.5636   27.8142 H   0  0  0  0  0  0  0  0  0  0  0  0
   10.0131   -6.8375   25.6814 H   0  0  0  0  0  0  0  0  0  0  0  0
    9.6116   -6.0794   24.1250 H   0  0  0  0  0  0  0  0  0  0  0  0
    7.0306   -5.7388   28.2232 H   0  0  0  0  0  0  0  0  0  0  0  0
    6.6546   -4.9740   26.6757 H   0  0  0  0  0  0  0  0  0  0  0  0
    7.1892   -6.2226   24.6319 H   0  0  0  0  0  0  0  0  0  0  0  0
    7.9315   -7.8151   24.8187 H   0  0  0  0  0  0  0  0  0  0  0  0
   11.5818    0.0409   22.2535 H   0  0  0  0  0  0  0  0  0  0  0  0
   11.3901    0.0742   23.9855 H   0  0  0  0  0  0  0  0  0  0  0  0
    8.9113    0.7342   23.6444 H   0  0  0  0  0  0  0  0  0  0  0  0
    8.1256   -1.8039   21.3539 H   0  0  0  0  0  0  0  0  0  0  0  0
  1  2  1  0  0  0  0
  1  7  2  0  0  0  0
  2  8  2  0  0  0  0
  3  4  2  0  0  0  0
  3 11  1  0  0  0  0
  4 14  1  0  0  0  0
  5  9  2  0  0  0  0
  5 13  1  0  0  0  0
  6 10  1  0  0  0  0
  6 13  2  0  0  0  0
  7 15  1  0  0  0  0
  8 16  1  0  0  0  0
  9 17  1  0  0  0  0
 10 17  2  0  0  0  0
 11 18  2  0  0  0  0
 12 14  2  0  0  0  0
 12 18  1  0  0  0  0
 13 25  1  0  0  0  0
 14 24  1  0  0  0  0
 15 16  2  0  0  0  0
 15 26  1  0  0  0  0
 16 28  1  0  0  0  0
 17 29  1  0  0  0  0
 18 33  1  0  0  0  0
 19 25  1  6  0  0  0
 19 30  1  0  0  0  0
 19 31  2  0  0  0  0
 20 22  1  0  0  0  0
 20 29  1  0  0  0  0
 21 23  1  0  0  0  0
 21 29  1  0  0  0  0
 22 32  1  0  0  0  0
 23 32  1  0  0  0  0
 24 25  1  0  0  0  0
 26 27  2  0  0  0  0
 27 28  1  0  0  0  0
 28 30  1  0  0  0  0
  1 34  1  0  0  0  0
  2 35  1  0  0  0  0
  3 36  1  0  0  0  0
  4 37  1  0  0  0  0
  5 38  1  0  0  0  0
  6 39  1  0  0  0  0
  7 40  1  0  0  0  0
  8 41  1  0  0  0  0
  9 42  1  0  0  0  0
 10 43  1  0  0  0  0
 11 44  1  0  0  0  0
 12 45  1  0  0  0  0
 20 46  1  0  0  0  0
 20 47  1  0  0  0  0
 21 48  1  0  0  0  0
 21 49  1  0  0  0  0
 22 50  1  0  0  0  0
 22 51  1  0  0  0  0
 23 52  1  0  0  0  0
 23 53  1  0  0  0  0
 24 54  1  0  0  0  0
 24 55  1  0  0  0  0
 25 56  1  0  0  0  0
 30 57  1  0  0  0  0
M  END
> <clash_score>
0

> <docking_score>
-11.081568717956543

> <overlap_score>
0.9454845786094666

$$$$
BENZO_195_1
  -OEChem-08232013493D

 57 61  0     1  0  0  0  0  0999 V2000
    4.0980    2.1130   19.5350 C   0  0  0  0  0  0  0  0  0  0  0  0
    4.2970    1.6690   20.8430 C   0  0  0  0  0  0  0  0  0  0  0  0
    8.3510   -1.5420   24.6110 C   0  0  0  0  0  0  0  0  0  0  0  0
   10.2760   -2.3270   23.4020 C   0  0  0  0  0  0  0  0  0  0  0  0
    4.9400    1.7060   18.5060 C   0  0  0  0  0  0  0  0  0  0  0  0
    5.3360    0.8000   21.1530 C   0  0  0  0  0  0  0  0  0  0  0  0
    8.3310   -2.7170   25.3430 C   0  0  0  0  0  0  0  0  0  0  0  0
   10.2570   -3.5000   24.1350 C   0  0  0  0  0  0  0  0  0  0  0  0
   10.2425    2.9569   23.4758 C   0  0  0  0  0  0  0  0  0  0  0  0
   12.2094    2.6821   22.5319 C   0  0  0  0  0  0  0  0  0  0  0  0
    9.3300   -1.3350   23.6390 C   0  0  0  0  0  0  0  0  0  0  0  0
   11.1386    1.9724   23.0179 C   0  0  0  0  0  0  0  0  0  0  0  0
    5.9810    0.8330   18.8060 C   0  0  0  0  0  0  0  0  0  0  0  0
    6.1600    0.3870   20.1140 C   0  0  0  0  0  0  0  0  0  0  0  0
    9.2850   -3.7090   25.1090 C   0  0  0  0  0  0  0  0  0  0  0  0
    8.9510    0.1280   21.6880 C   0  0  0  0  0  0  0  0  0  0  0  0
    8.7671   -4.9535   27.2147 C   0  0  0  0  0  0  0  0  0  0  0  0
    9.3066   -6.1865   25.1649 C   0  0  0  0  0  0  0  0  0  0  0  0
    7.3847   -5.5970   27.2000 C   0  0  0  0  0  0  0  0  0  0  0  0
    7.9070   -6.7999   25.2264 C   0  0  0  0  0  0  0  0  0  0  0  0
   12.7247    5.1287   22.3668 C   0  0  0  0  0  0  0  0  0  0  0  0
   10.9652    0.4722   23.0544 C   0  0  0  0  0  0  0  0  0  0  0  0
    9.4200   -0.0840   22.9530 C   0  0  1  0  0  0  0  0  0  0  0  0
   10.7039    4.1975   23.2968 N   0  0  0  0  0  0  0  0  0  0  0  0
    6.9440    0.2550   18.0100 N   0  0  0  0  0  0  0  0  0  0  0  0
    7.6830   -0.5170   18.7600 N   0  0  0  0  0  0  0  0  0  0  0  0
   11.9017    3.9973   22.7211 N   0  0  0  0  0  0  0  0  0  0  0  0
    7.2210   -0.4620   20.0350 N   0  0  0  0  0  0  0  0  0  0  0  0
    9.2641   -4.8845   25.8388 N   0  0  0  0  0  0  0  0  0  0  0  0
    8.0810   -0.9750   21.0820 N   0  0  0  0  0  0  0  0  0  0  0  0
    9.1870    1.1500   21.0630 O   0  0  0  0  0  0  0  0  0  0  0  0
    7.4533   -6.8877   26.5818 O   0  0  0  0  0  0  0  0  0  0  0  0
    3.2714    2.7876   19.3199 H   0  0  0  0  0  0  0  0  0  0  0  0
    3.6283    2.0091   21.6296 H   0  0  0  0  0  0  0  0  0  0  0  0
    7.5957   -0.7779   24.7973 H   0  0  0  0  0  0  0  0  0  0  0  0
   11.0384   -2.1852   22.6338 H   0  0  0  0  0  0  0  0  0  0  0  0
    4.7824    2.0670   17.4883 H   0  0  0  0  0  0  0  0  0  0  0  0
    5.4937    0.4574   22.1805 H   0  0  0  0  0  0  0  0  0  0  0  0
    7.5634   -2.8637   26.1037 H   0  0  0  0  0  0  0  0  0  0  0  0
   11.0139   -4.2645   23.9419 H   0  0  0  0  0  0  0  0  0  0  0  0
    9.2724    2.8245   23.9335 H   0  0  0  0  0  0  0  0  0  0  0  0
   13.1415    2.3710   22.0799 H   0  0  0  0  0  0  0  0  0  0  0  0
    8.7013   -3.9575   27.6574 H   0  0  0  0  0  0  0  0  0  0  0  0
    9.4480   -5.5636   27.8142 H   0  0  0  0  0  0  0  0  0  0  0  0
   10.0131   -6.8375   25.6814 H   0  0  0  0  0  0  0  0  0  0  0  0
    9.6116   -6.0794   24.1250 H   0  0  0  0  0  0  0  0  0  0  0  0
    7.0306   -5.7388   28.2232 H   0  0  0  0  0  0  0  0  0  0  0  0
    6.6546   -4.9740   26.6757 H   0  0  0  0  0  0  0  0  0  0  0  0
    7.1892   -6.2226   24.6319 H   0  0  0  0  0  0  0  0  0  0  0  0
    7.9315   -7.8151   24.8187 H   0  0  0  0  0  0  0  0  0  0  0  0
   12.4707    5.4238   21.3452 H   0  0  0  0  0  0  0  0  0  0  0  0
   12.5318    5.9510   23.0614 H   0  0  0  0  0  0  0  0  0  0  0  0
   13.7785    4.8439   22.4328 H   0  0  0  0  0  0  0  0  0  0  0  0
   11.5818    0.0409   22.2535 H   0  0  0  0  0  0  0  0  0  0  0  0
   11.3901    0.0742   23.9855 H   0  0  0  0  0  0  0  0  0  0  0  0
    8.9113    0.7342   23.6444 H   0  0  0  0  0  0  0  0  0  0  0  0
    8.1256   -1.8039   21.3539 H   0  0  0  0  0  0  0  0  0  0  0  0
  1  2  1  0  0  0  0
  1  5  2  0  0  0  0
  2  6  2  0  0  0  0
  3  7  2  0  0  0  0
  3 11  1  0  0  0  0
  4  8  1  0  0  0  0
  4 11  2  0  0  0  0
  5 13  1  0  0  0  0
  6 14  1  0  0  0  0
  7 15  1  0  0  0  0
  8 15  2  0  0  0  0
  9 12  1  0  0  0  0
  9 24  2  0  0  0  0
 10 12  2  0  0  0  0
 10 27  1  0  0  0  0
 11 23  1  0  0  0  0
 12 22  1  0  0  0  0
 13 14  2  0  0  0  0
 13 25  1  0  0  0  0
 14 28  1  0  0  0  0
 15 29  1  0  0  0  0
 16 23  1  0  0  0  0
 16 30  1  0  0  0  0
 16 31  2  0  0  0  0
 17 19  1  0  0  0  0
 17 29  1  0  0  0  0
 18 20  1  0  0  0  0
 18 29  1  0  0  0  0
 19 32  1  0  0  0  0
 20 32  1  0  0  0  0
 21 27  1  0  0  0  0
 22 23  1  1  0  0  0
 24 27  1  0  0  0  0
 25 26  2  0  0  0  0
 26 28  1  0  0  0  0
 28 30  1  0  0  0  0
  1 33  1  0  0  0  0
  2 34  1  0  0  0  0
  3 35  1  0  0  0  0
  4 36  1  0  0  0  0
  5 37  1  0  0  0  0
  6 38  1  0  0  0  0
  7 39  1  0  0  0  0
  8 40  1  0  0  0  0
  9 41  1  0  0  0  0
 10 42  1  0  0  0  0
 17 43  1  0  0  0  0
 17 44  1  0  0  0  0
 18 45  1  0  0  0  0
 18 46  1  0  0  0  0
 19 47  1  0  0  0  0
 19 48  1  0  0  0  0
 20 49  1  0  0  0  0
 20 50  1  0  0  0  0
 21 51  1  0  0  0  0
 21 52  1  0  0  0  0
 21 53  1  0  0  0  0
 22 54  1  0  0  0  0
 22 55  1  0  0  0  0
 23 56  1  0  0  0  0
 30 57  1  0  0  0  0
M  END
> <clash_score>
0

> <docking_score>
-10.686853408813477

> <overlap_score>
0.9400526285171509

$$$$
BENZO_198_1
  -OEChem-08232013493D

 53 56  0     1  0  0  0  0  0999 V2000
    4.0980    2.1130   19.5350 C   0  0  0  0  0  0  0  0  0  0  0  0
    4.2970    1.6690   20.8430 C   0  0  0  0  0  0  0  0  0  0  0  0
   10.3291    4.1758   23.5411 C   0  0  0  0  0  0  0  0  0  0  0  0
   10.1565    2.7918   23.5559 C   0  0  0  0  0  0  0  0  0  0  0  0
    8.3510   -1.5420   24.6110 C   0  0  0  0  0  0  0  0  0  0  0  0
   10.2760   -2.3270   23.4020 C   0  0  0  0  0  0  0  0  0  0  0  0
    4.9400    1.7060   18.5060 C   0  0  0  0  0  0  0  0  0  0  0  0
    5.3360    0.8000   21.1530 C   0  0  0  0  0  0  0  0  0  0  0  0
    8.3310   -2.7170   25.3430 C   0  0  0  0  0  0  0  0  0  0  0  0
   10.2570   -3.5000   24.1350 C   0  0  0  0  0  0  0  0  0  0  0  0
   11.4971    4.7274   23.0146 C   0  0  0  0  0  0  0  0  0  0  0  0
   12.3200    2.5108   22.5179 C   0  0  0  0  0  0  0  0  0  0  0  0
    7.6830   -0.5170   18.7600 C   0  0  0  0  0  0  0  0  0  0  0  0
    9.3300   -1.3350   23.6390 C   0  0  0  0  0  0  0  0  0  0  0  0
   11.1519    1.9593   23.0443 C   0  0  0  0  0  0  0  0  0  0  0  0
    5.9810    0.8330   18.8060 C   0  0  0  0  0  0  0  0  0  0  0  0
    6.1600    0.3870   20.1140 C   0  0  0  0  0  0  0  0  0  0  0  0
    9.2850   -3.7090   25.1090 C   0  0  0  0  0  0  0  0  0  0  0  0
   12.4925    3.8949   22.5030 C   0  0  0  0  0  0  0  0  0  0  0  0
    8.9510    0.1280   21.6880 C   0  0  0  0  0  0  0  0  0  0  0  0
    8.2528   -5.1193   26.8656 C   0  0  0  0  0  0  0  0  0  0  0  0
   10.2447   -5.9395   25.5976 C   0  0  0  0  0  0  0  0  0  0  0  0
   10.9648    0.4604   23.0619 C   0  0  0  0  0  0  0  0  0  0  0  0
    9.4200   -0.0840   22.9530 C   0  0  1  0  0  0  0  0  0  0  0  0
    6.9440    0.2550   18.0100 N   0  0  0  0  0  0  0  0  0  0  0  0
    7.2210   -0.4620   20.0350 N   0  0  0  0  0  0  0  0  0  0  0  0
    8.0810   -0.9750   21.0820 N   0  0  0  0  0  0  0  0  0  0  0  0
    9.2638   -4.9025   25.8500 N   0  0  0  0  0  0  0  0  0  0  0  0
    9.1870    1.1500   21.0630 O   0  0  0  0  0  0  0  0  0  0  0  0
   13.9339    4.5760   21.8546 Cl  0  0  0  0  0  0  0  0  0  0  0  0
    3.2711    2.7870   19.3201 H   0  0  0  0  0  0  0  0  0  0  0  0
    3.6262    2.0082   21.6284 H   0  0  0  0  0  0  0  0  0  0  0  0
    9.5538    4.8237   23.9397 H   0  0  0  0  0  0  0  0  0  0  0  0
    9.2432    2.3707   23.9682 H   0  0  0  0  0  0  0  0  0  0  0  0
    7.5957   -0.7779   24.7973 H   0  0  0  0  0  0  0  0  0  0  0  0
   11.0384   -2.1852   22.6338 H   0  0  0  0  0  0  0  0  0  0  0  0
    4.7816    2.0660   17.4901 H   0  0  0  0  0  0  0  0  0  0  0  0
    5.4934    0.4579   22.1787 H   0  0  0  0  0  0  0  0  0  0  0  0
    7.5634   -2.8637   26.1037 H   0  0  0  0  0  0  0  0  0  0  0  0
   11.0139   -4.2645   23.9419 H   0  0  0  0  0  0  0  0  0  0  0  0
   11.6181    5.8079   23.0098 H   0  0  0  0  0  0  0  0  0  0  0  0
   13.0929    1.8575   22.1197 H   0  0  0  0  0  0  0  0  0  0  0  0
    8.5166   -1.1054   18.4533 H   0  0  0  0  0  0  0  0  0  0  0  0
    8.4036   -6.1053   27.3293 H   0  0  0  0  0  0  0  0  0  0  0  0
    8.3319   -4.3367   27.6345 H   0  0  0  0  0  0  0  0  0  0  0  0
    7.2551   -5.0801   26.4039 H   0  0  0  0  0  0  0  0  0  0  0  0
   10.0633   -6.7887   26.2728 H   0  0  0  0  0  0  0  0  0  0  0  0
   10.1613   -6.2767   24.5539 H   0  0  0  0  0  0  0  0  0  0  0  0
   11.2542   -5.5399   25.7743 H   0  0  0  0  0  0  0  0  0  0  0  0
   11.5732    0.0341   22.2521 H   0  0  0  0  0  0  0  0  0  0  0  0
   11.3908    0.0462   23.9854 H   0  0  0  0  0  0  0  0  0  0  0  0
    8.9107    0.7231   23.6509 H   0  0  0  0  0  0  0  0  0  0  0  0
    8.1515   -1.8050   21.3815 H   0  0  0  0  0  0  0  0  0  0  0  0
  1  2  1  0  0  0  0
  1  7  2  0  0  0  0
  2  8  2  0  0  0  0
  3  4  2  0  0  0  0
  3 11  1  0  0  0  0
  4 15  1  0  0  0  0
  5  9  2  0  0  0  0
  5 14  1  0  0  0  0
  6 10  1  0  0  0  0
  6 14  2  0  0  0  0
  7 16  1  0  0  0  0
  8 17  1  0  0  0  0
  9 18  1  0  0  0  0
 10 18  2  0  0  0  0
 11 19  2  0  0  0  0
 12 15  2  0  0  0  0
 12 19  1  0  0  0  0
 13 25  2  0  0  0  0
 13 26  1  0  0  0  0
 14 24  1  0  0  0  0
 15 23  1  0  0  0  0
 16 17  2  0  0  0  0
 16 25  1  0  0  0  0
 17 26  1  0  0  0  0
 18 28  1  0  0  0  0
 19 30  1  0  0  0  0
 20 24  1  0  0  0  0
 20 27  1  0  0  0  0
 20 29  2  0  0  0  0
 21 28  1  0  0  0  0
 22 28  1  0  0  0  0
 23 24  1  1  0  0  0
 26 27  1  0  0  0  0
  1 31  1  0  0  0  0
  2 32  1  0  0  0  0
  3 33  1  0  0  0  0
  4 34  1  0  0  0  0
  5 35  1  0  0  0  0
  6 36  1  0  0  0  0
  7 37  1  0  0  0  0
  8 38  1  0  0  0  0
  9 39  1  0  0  0  0
 10 40  1  0  0  0  0
 11 41  1  0  0  0  0
 12 42  1  0  0  0  0
 13 43  1  0  0  0  0
 21 44  1  0  0  0  0
 21 45  1  0  0  0  0
 21 46  1  0  0  0  0
 22 47  1  0  0  0  0
 22 48  1  0  0  0  0
 22 49  1  0  0  0  0
 23 50  1  0  0  0  0
 23 51  1  0  0  0  0
 24 52  1  0  0  0  0
 27 53  1  0  0  0  0
M  END
> <clash_score>
0

> <docking_score>
-12.571611404418945

> <overlap_score>
0.933354914188385

$$$$
BENZO_199_1
  -OEChem-08232013493D

 53 56  0     1  0  0  0  0  0999 V2000
    4.0980    2.1130   19.5350 C   0  0  0  0  0  0  0  0  0  0  0  0
    4.2970    1.6690   20.8430 C   0  0  0  0  0  0  0  0  0  0  0  0
    8.3510   -1.5420   24.6110 C   0  0  0  0  0  0  0  0  0  0  0  0
   10.2760   -2.3270   23.4020 C   0  0  0  0  0  0  0  0  0  0  0  0
    4.9400    1.7060   18.5060 C   0  0  0  0  0  0  0  0  0  0  0  0
    5.3360    0.8000   21.1530 C   0  0  0  0  0  0  0  0  0  0  0  0
    8.3310   -2.7170   25.3430 C   0  0  0  0  0  0  0  0  0  0  0  0
   10.2570   -3.5000   24.1350 C   0  0  0  0  0  0  0  0  0  0  0  0
   10.2645    2.9461   23.5139 C   0  0  0  0  0  0  0  0  0  0  0  0
   12.2295    2.6651   22.5680 C   0  0  0  0  0  0  0  0  0  0  0  0
    7.6830   -0.5170   18.7600 C   0  0  0  0  0  0  0  0  0  0  0  0
    9.3300   -1.3350   23.6390 C   0  0  0  0  0  0  0  0  0  0  0  0
   11.1519    1.9593   23.0443 C   0  0  0  0  0  0  0  0  0  0  0  0
    5.9810    0.8330   18.8060 C   0  0  0  0  0  0  0  0  0  0  0  0
    6.1600    0.3870   20.1140 C   0  0  0  0  0  0  0  0  0  0  0  0
    9.2850   -3.7090   25.1090 C   0  0  0  0  0  0  0  0  0  0  0  0
    8.9510    0.1280   21.6880 C   0  0  0  0  0  0  0  0  0  0  0  0
   12.7674    5.1088   22.4339 C   0  0  0  0  0  0  0  0  0  0  0  0
    8.2528   -5.1193   26.8656 C   0  0  0  0  0  0  0  0  0  0  0  0
   10.2447   -5.9395   25.5976 C   0  0  0  0  0  0  0  0  0  0  0  0
   10.9648    0.4604   23.0619 C   0  0  0  0  0  0  0  0  0  0  0  0
    9.4200   -0.0840   22.9530 C   0  0  1  0  0  0  0  0  0  0  0  0
   10.7375    4.1845   23.3508 N   0  0  0  0  0  0  0  0  0  0  0  0
    6.9440    0.2550   18.0100 N   0  0  0  0  0  0  0  0  0  0  0  0
   11.9338    3.9806   22.7735 N   0  0  0  0  0  0  0  0  0  0  0  0
    7.2210   -0.4620   20.0350 N   0  0  0  0  0  0  0  0  0  0  0  0
    8.0810   -0.9750   21.0820 N   0  0  0  0  0  0  0  0  0  0  0  0
    9.2638   -4.9025   25.8500 N   0  0  0  0  0  0  0  0  0  0  0  0
    9.1870    1.1500   21.0630 O   0  0  0  0  0  0  0  0  0  0  0  0
    3.2711    2.7870   19.3201 H   0  0  0  0  0  0  0  0  0  0  0  0
    3.6262    2.0082   21.6284 H   0  0  0  0  0  0  0  0  0  0  0  0
    7.5957   -0.7779   24.7973 H   0  0  0  0  0  0  0  0  0  0  0  0
   11.0384   -2.1852   22.6338 H   0  0  0  0  0  0  0  0  0  0  0  0
    4.7816    2.0660   17.4901 H   0  0  0  0  0  0  0  0  0  0  0  0
    5.4934    0.4579   22.1787 H   0  0  0  0  0  0  0  0  0  0  0  0
    7.5634   -2.8637   26.1037 H   0  0  0  0  0  0  0  0  0  0  0  0
   11.0139   -4.2645   23.9419 H   0  0  0  0  0  0  0  0  0  0  0  0
    9.2929    2.8169   23.9694 H   0  0  0  0  0  0  0  0  0  0  0  0
   13.1591    2.3512   22.1127 H   0  0  0  0  0  0  0  0  0  0  0  0
    8.5166   -1.1054   18.4533 H   0  0  0  0  0  0  0  0  0  0  0  0
   12.5169    5.4190   21.4160 H   0  0  0  0  0  0  0  0  0  0  0  0
   12.5816    5.9241   23.1387 H   0  0  0  0  0  0  0  0  0  0  0  0
   13.8185    4.8135   22.4971 H   0  0  0  0  0  0  0  0  0  0  0  0
    8.4036   -6.1053   27.3293 H   0  0  0  0  0  0  0  0  0  0  0  0
    8.3319   -4.3367   27.6345 H   0  0  0  0  0  0  0  0  0  0  0  0
    7.2551   -5.0801   26.4039 H   0  0  0  0  0  0  0  0  0  0  0  0
   10.0633   -6.7887   26.2728 H   0  0  0  0  0  0  0  0  0  0  0  0
   10.1613   -6.2767   24.5539 H   0  0  0  0  0  0  0  0  0  0  0  0
   11.2542   -5.5399   25.7743 H   0  0  0  0  0  0  0  0  0  0  0  0
   11.5732    0.0341   22.2521 H   0  0  0  0  0  0  0  0  0  0  0  0
   11.3908    0.0462   23.9854 H   0  0  0  0  0  0  0  0  0  0  0  0
    8.9107    0.7231   23.6509 H   0  0  0  0  0  0  0  0  0  0  0  0
    8.1515   -1.8050   21.3815 H   0  0  0  0  0  0  0  0  0  0  0  0
  1  2  1  0  0  0  0
  1  5  2  0  0  0  0
  2  6  2  0  0  0  0
  3  7  2  0  0  0  0
  3 12  1  0  0  0  0
  4  8  1  0  0  0  0
  4 12  2  0  0  0  0
  5 14  1  0  0  0  0
  6 15  1  0  0  0  0
  7 16  1  0  0  0  0
  8 16  2  0  0  0  0
  9 13  1  0  0  0  0
  9 23  2  0  0  0  0
 10 13  2  0  0  0  0
 10 25  1  0  0  0  0
 11 24  2  0  0  0  0
 11 26  1  0  0  0  0
 12 22  1  0  0  0  0
 13 21  1  0  0  0  0
 14 15  2  0  0  0  0
 14 24  1  0  0  0  0
 15 26  1  0  0  0  0
 16 28  1  0  0  0  0
 17 22  1  0  0  0  0
 17 27  1  0  0  0  0
 17 29  2  0  0  0  0
 18 25  1  0  0  0  0
 19 28  1  0  0  0  0
 20 28  1  0  0  0  0
 21 22  1  1  0  0  0
 23 25  1  0  0  0  0
 26 27  1  0  0  0  0
  1 30  1  0  0  0  0
  2 31  1  0  0  0  0
  3 32  1  0  0  0  0
  4 33  1  0  0  0  0
  5 34  1  0  0  0  0
  6 35  1  0  0  0  0
  7 36  1  0  0  0  0
  8 37  1  0  0  0  0
  9 38  1  0  0  0  0
 10 39  1  0  0  0  0
 11 40  1  0  0  0  0
 18 41  1  0  0  0  0
 18 42  1  0  0  0  0
 18 43  1  0  0  0  0
 19 44  1  0  0  0  0
 19 45  1  0  0  0  0
 19 46  1  0  0  0  0
 20 47  1  0  0  0  0
 20 48  1  0  0  0  0
 20 49  1  0  0  0  0
 21 50  1  0  0  0  0
 21 51  1  0  0  0  0
 22 52  1  0  0  0  0
 27 53  1  0  0  0  0
M  END
> <clash_score>
0

> <docking_score>
-12.176749229431152

> <overlap_score>
0.9277172684669495

$$$$
BENZO_199_2
  -OEChem-08232013493D

 53 56  0     1  0  0  0  0  0999 V2000
    4.0980    2.1130   19.5350 C   0  0  0  0  0  0  0  0  0  0  0  0
    4.2970    1.6690   20.8430 C   0  0  0  0  0  0  0  0  0  0  0  0
    8.3510   -1.5420   24.6110 C   0  0  0  0  0  0  0  0  0  0  0  0
   10.2760   -2.3270   23.4020 C   0  0  0  0  0  0  0  0  0  0  0  0
    4.9400    1.7060   18.5060 C   0  0  0  0  0  0  0  0  0  0  0  0
    5.3360    0.8000   21.1530 C   0  0  0  0  0  0  0  0  0  0  0  0
    8.3310   -2.7170   25.3430 C   0  0  0  0  0  0  0  0  0  0  0  0
   10.2570   -3.5000   24.1350 C   0  0  0  0  0  0  0  0  0  0  0  0
   10.8351    2.6231   23.1433 C   0  0  0  0  0  0  0  0  0  0  0  0
    9.0177    3.6781   23.7909 C   0  0  0  0  0  0  0  0  0  0  0  0
    7.6830   -0.5170   18.7600 C   0  0  0  0  0  0  0  0  0  0  0  0
    9.3300   -1.3350   23.6390 C   0  0  0  0  0  0  0  0  0  0  0  0
    9.5350    2.4145   23.6414 C   0  0  0  0  0  0  0  0  0  0  0  0
    5.9810    0.8330   18.8060 C   0  0  0  0  0  0  0  0  0  0  0  0
    6.1600    0.3870   20.1140 C   0  0  0  0  0  0  0  0  0  0  0  0
    9.2850   -3.7090   25.1090 C   0  0  0  0  0  0  0  0  0  0  0  0
    8.9510    0.1280   21.6880 C   0  0  0  0  0  0  0  0  0  0  0  0
    9.9253    5.9744   23.3647 C   0  0  0  0  0  0  0  0  0  0  0  0
    8.2528   -5.1193   26.8656 C   0  0  0  0  0  0  0  0  0  0  0  0
   10.2447   -5.9395   25.5976 C   0  0  0  0  0  0  0  0  0  0  0  0
    8.8577    1.0982   23.9421 C   0  0  0  0  0  0  0  0  0  0  0  0
    9.4200   -0.0840   22.9530 C   0  0  2  0  0  0  0  0  0  0  0  0
   11.1257    3.9173   22.9866 N   0  0  0  0  0  0  0  0  0  0  0  0
    6.9440    0.2550   18.0100 N   0  0  0  0  0  0  0  0  0  0  0  0
   10.0010    4.5334   23.3885 N   0  0  0  0  0  0  0  0  0  0  0  0
    7.2210   -0.4620   20.0350 N   0  0  0  0  0  0  0  0  0  0  0  0
    8.0810   -0.9750   21.0820 N   0  0  0  0  0  0  0  0  0  0  0  0
    9.2638   -4.9025   25.8500 N   0  0  0  0  0  0  0  0  0  0  0  0
    9.1870    1.1500   21.0630 O   0  0  0  0  0  0  0  0  0  0  0  0
    3.2711    2.7870   19.3201 H   0  0  0  0  0  0  0  0  0  0  0  0
    3.6262    2.0082   21.6284 H   0  0  0  0  0  0  0  0  0  0  0  0
    7.5957   -0.7779   24.7973 H   0  0  0  0  0  0  0  0  0  0  0  0
   11.0384   -2.1852   22.6338 H   0  0  0  0  0  0  0  0  0  0  0  0
    4.7816    2.0660   17.4901 H   0  0  0  0  0  0  0  0  0  0  0  0
    5.4934    0.4579   22.1787 H   0  0  0  0  0  0  0  0  0  0  0  0
    7.5634   -2.8637   26.1037 H   0  0  0  0  0  0  0  0  0  0  0  0
   11.0139   -4.2645   23.9419 H   0  0  0  0  0  0  0  0  0  0  0  0
   11.5842    1.8876   22.8864 H   0  0  0  0  0  0  0  0  0  0  0  0
    8.0571    4.0326   24.1394 H   0  0  0  0  0  0  0  0  0  0  0  0
    8.5166   -1.1054   18.4533 H   0  0  0  0  0  0  0  0  0  0  0  0
   10.2748    6.3466   24.3314 H   0  0  0  0  0  0  0  0  0  0  0  0
   10.5545    6.3588   22.5570 H   0  0  0  0  0  0  0  0  0  0  0  0
    8.8900    6.2791   23.1881 H   0  0  0  0  0  0  0  0  0  0  0  0
    8.4036   -6.1053   27.3293 H   0  0  0  0  0  0  0  0  0  0  0  0
    8.3319   -4.3367   27.6345 H   0  0  0  0  0  0  0  0  0  0  0  0
    7.2551   -5.0801   26.4039 H   0  0  0  0  0  0  0  0  0  0  0  0
   10.0633   -6.7887   26.2728 H   0  0  0  0  0  0  0  0  0  0  0  0
   10.1613   -6.2767   24.5539 H   0  0  0  0  0  0  0  0  0  0  0  0
   11.2542   -5.5399   25.7743 H   0  0  0  0  0  0  0  0  0  0  0  0
    8.9995    0.8809   25.0099 H   0  0  0  0  0  0  0  0  0  0  0  0
    7.7720    1.2044   23.8156 H   0  0  0  0  0  0  0  0  0  0  0  0
   10.5616    0.2233   22.9565 H   0  0  0  0  0  0  0  0  0  0  0  0
    8.1515   -1.8050   21.3815 H   0  0  0  0  0  0  0  0  0  0  0  0
  1  2  1  0  0  0  0
  1  5  2  0  0  0  0
  2  6  2  0  0  0  0
  3  7  2  0  0  0  0
  3 12  1  0  0  0  0
  4  8  1  0  0  0  0
  4 12  2  0  0  0  0
  5 14  1  0  0  0  0
  6 15  1  0  0  0  0
  7 16  1  0  0  0  0
  8 16  2  0  0  0  0
  9 13  1  0  0  0  0
  9 23  2  0  0  0  0
 10 13  2  0  0  0  0
 10 25  1  0  0  0  0
 11 24  2  0  0  0  0
 11 26  1  0  0  0  0
 12 22  1  0  0  0  0
 13 21  1  0  0  0  0
 14 15  2  0  0  0  0
 14 24  1  0  0  0  0
 15 26  1  0  0  0  0
 16 28  1  0  0  0  0
 17 22  1  0  0  0  0
 17 27  1  0  0  0  0
 17 29  2  0  0  0  0
 18 25  1  0  0  0  0
 19 28  1  0  0  0  0
 20 28  1  0  0  0  0
 21 22  1  6  0  0  0
 23 25  1  0  0  0  0
 26 27  1  0  0  0  0
  1 30  1  0  0  0  0
  2 31  1  0  0  0  0
  3 32  1  0  0  0  0
  4 33  1  0  0  0  0
  5 34  1  0  0  0  0
  6 35  1  0  0  0  0
  7 36  1  0  0  0  0
  8 37  1  0  0  0  0
  9 38  1  0  0  0  0
 10 39  1  0  0  0  0
 11 40  1  0  0  0  0
 18 41  1  0  0  0  0
 18 42  1  0  0  0  0
 18 43  1  0  0  0  0
 19 44  1  0  0  0  0
 19 45  1  0  0  0  0
 19 46  1  0  0  0  0
 20 47  1  0  0  0  0
 20 48  1  0  0  0  0
 20 49  1  0  0  0  0
 21 50  1  0  0  0  0
 21 51  1  0  0  0  0
 22 52  1  0  0  0  0
 27 53  1  0  0  0  0
M  END
> <clash_score>
0

> <docking_score>
-10.97488021850586

> <overlap_score>
0.8622307181358337

$$$$
BENZO_198_2
  -OEChem-08232013493D

 53 56  0     1  0  0  0  0  0999 V2000
    4.0980    2.1130   19.5350 C   0  0  0  0  0  0  0  0  0  0  0  0
    4.2970    1.6690   20.8430 C   0  0  0  0  0  0  0  0  0  0  0  0
    9.4797    4.8290   23.5793 C   0  0  0  0  0  0  0  0  0  0  0  0
    8.8545    3.6132   23.8556 C   0  0  0  0  0  0  0  0  0  0  0  0
    8.3510   -1.5420   24.6110 C   0  0  0  0  0  0  0  0  0  0  0  0
   10.2760   -2.3270   23.4020 C   0  0  0  0  0  0  0  0  0  0  0  0
    4.9400    1.7060   18.5060 C   0  0  0  0  0  0  0  0  0  0  0  0
    5.3360    0.8000   21.1530 C   0  0  0  0  0  0  0  0  0  0  0  0
    8.3310   -2.7170   25.3430 C   0  0  0  0  0  0  0  0  0  0  0  0
   10.2570   -3.5000   24.1350 C   0  0  0  0  0  0  0  0  0  0  0  0
   10.7854    4.8463   23.0887 C   0  0  0  0  0  0  0  0  0  0  0  0
   10.8407    2.4317   23.1509 C   0  0  0  0  0  0  0  0  0  0  0  0
    7.6830   -0.5170   18.7600 C   0  0  0  0  0  0  0  0  0  0  0  0
    9.3300   -1.3350   23.6390 C   0  0  0  0  0  0  0  0  0  0  0  0
    9.5350    2.4145   23.6414 C   0  0  0  0  0  0  0  0  0  0  0  0
    5.9810    0.8330   18.8060 C   0  0  0  0  0  0  0  0  0  0  0  0
    6.1600    0.3870   20.1140 C   0  0  0  0  0  0  0  0  0  0  0  0
    9.2850   -3.7090   25.1090 C   0  0  0  0  0  0  0  0  0  0  0  0
   11.4659    3.6477   22.8746 C   0  0  0  0  0  0  0  0  0  0  0  0
    8.9510    0.1280   21.6880 C   0  0  0  0  0  0  0  0  0  0  0  0
    8.2528   -5.1193   26.8656 C   0  0  0  0  0  0  0  0  0  0  0  0
   10.2447   -5.9395   25.5976 C   0  0  0  0  0  0  0  0  0  0  0  0
    8.8577    1.0982   23.9421 C   0  0  0  0  0  0  0  0  0  0  0  0
    9.4200   -0.0840   22.9530 C   0  0  2  0  0  0  0  0  0  0  0  0
    6.9440    0.2550   18.0100 N   0  0  0  0  0  0  0  0  0  0  0  0
    7.2210   -0.4620   20.0350 N   0  0  0  0  0  0  0  0  0  0  0  0
    8.0810   -0.9750   21.0820 N   0  0  0  0  0  0  0  0  0  0  0  0
    9.2638   -4.9025   25.8500 N   0  0  0  0  0  0  0  0  0  0  0  0
    9.1870    1.1500   21.0630 O   0  0  0  0  0  0  0  0  0  0  0  0
   13.0772    3.6696   22.2705 Cl  0  0  0  0  0  0  0  0  0  0  0  0
    3.2711    2.7870   19.3201 H   0  0  0  0  0  0  0  0  0  0  0  0
    3.6262    2.0082   21.6284 H   0  0  0  0  0  0  0  0  0  0  0  0
    8.9496    5.7622   23.7463 H   0  0  0  0  0  0  0  0  0  0  0  0
    7.8370    3.6092   24.2377 H   0  0  0  0  0  0  0  0  0  0  0  0
    7.5957   -0.7779   24.7973 H   0  0  0  0  0  0  0  0  0  0  0  0
   11.0384   -2.1852   22.6338 H   0  0  0  0  0  0  0  0  0  0  0  0
    4.7816    2.0660   17.4901 H   0  0  0  0  0  0  0  0  0  0  0  0
    5.4934    0.4579   22.1787 H   0  0  0  0  0  0  0  0  0  0  0  0
    7.5634   -2.8637   26.1037 H   0  0  0  0  0  0  0  0  0  0  0  0
   11.0139   -4.2645   23.9419 H   0  0  0  0  0  0  0  0  0  0  0  0
   11.2603    5.8014   22.8781 H   0  0  0  0  0  0  0  0  0  0  0  0
   11.3668    1.4944   22.9852 H   0  0  0  0  0  0  0  0  0  0  0  0
    8.5166   -1.1054   18.4533 H   0  0  0  0  0  0  0  0  0  0  0  0
    8.4036   -6.1053   27.3293 H   0  0  0  0  0  0  0  0  0  0  0  0
    8.3319   -4.3367   27.6345 H   0  0  0  0  0  0  0  0  0  0  0  0
    7.2551   -5.0801   26.4039 H   0  0  0  0  0  0  0  0  0  0  0  0
   10.0633   -6.7887   26.2728 H   0  0  0  0  0  0  0  0  0  0  0  0
   10.1613   -6.2767   24.5539 H   0  0  0  0  0  0  0  0  0  0  0  0
   11.2542   -5.5399   25.7743 H   0  0  0  0  0  0  0  0  0  0  0  0
    8.9995    0.8809   25.0099 H   0  0  0  0  0  0  0  0  0  0  0  0
    7.7720    1.2044   23.8156 H   0  0  0  0  0  0  0  0  0  0  0  0
   10.5616    0.2233   22.9565 H   0  0  0  0  0  0  0  0  0  0  0  0
    8.1515   -1.8050   21.3815 H   0  0  0  0  0  0  0  0  0  0  0  0
  1  2  1  0  0  0  0
  1  7  2  0  0  0  0
  2  8  2  0  0  0  0
  3  4  2  0  0  0  0
  3 11  1  0  0  0  0
  4 15  1  0  0  0  0
  5  9  2  0  0  0  0
  5 14  1  0  0  0  0
  6 10  1  0  0  0  0
  6 14  2  0  0  0  0
  7 16  1  0  0  0  0
  8 17  1  0  0  0  0
  9 18  1  0  0  0  0
 10 18  2  0  0  0  0
 11 19  2  0  0  0  0
 12 15  2  0  0  0  0
 12 19  1  0  0  0  0
 13 25  2  0  0  0  0
 13 26  1  0  0  0  0
 14 24  1  0  0  0  0
 15 23  1  0  0  0  0
 16 17  2  0  0  0  0
 16 25  1  0  0  0  0
 17 26  1  0  0  0  0
 18 28  1  0  0  0  0
 19 30  1  0  0  0  0
 20 24  1  0  0  0  0
 20 27  1  0  0  0  0
 20 29  2  0  0  0  0
 21 28  1  0  0  0  0
 22 28  1  0  0  0  0
 23 24  1  6  0  0  0
 26 27  1  0  0  0  0
  1 31  1  0  0  0  0
  2 32  1  0  0  0  0
  3 33  1  0  0  0  0
  4 34  1  0  0  0  0
  5 35  1  0  0  0  0
  6 36  1  0  0  0  0
  7 37  1  0  0  0  0
  8 38  1  0  0  0  0
  9 39  1  0  0  0  0
 10 40  1  0  0  0  0
 11 41  1  0  0  0  0
 12 42  1  0  0  0  0
 13 43  1  0  0  0  0
 21 44  1  0  0  0  0
 21 45  1  0  0  0  0
 21 46  1  0  0  0  0
 22 47  1  0  0  0  0
 22 48  1  0  0  0  0
 22 49  1  0  0  0  0
 23 50  1  0  0  0  0
 23 51  1  0  0  0  0
 24 52  1  0  0  0  0
 27 53  1  0  0  0  0
M  END
> <clash_score>
0

> <docking_score>
-11.492681503295898

> <overlap_score>
0.8823869228363037

$$$$
BENZO_201_2
  -OEChem-08232013493D

 55 58  0     1  0  0  0  0  0999 V2000
   10.7871    4.8449   23.0864 C   0  0  0  0  0  0  0  0  0  0  0  0
    9.4814    4.8291   23.5768 C   0  0  0  0  0  0  0  0  0  0  0  0
   11.4667    3.6455   22.8734 C   0  0  0  0  0  0  0  0  0  0  0  0
    4.0980    2.1130   19.5350 C   0  0  0  0  0  0  0  0  0  0  0  0
    4.2970    1.6690   20.8430 C   0  0  0  0  0  0  0  0  0  0  0  0
    8.8554    3.6139   23.8543 C   0  0  0  0  0  0  0  0  0  0  0  0
   10.8407    2.4304   23.1510 C   0  0  0  0  0  0  0  0  0  0  0  0
    8.3510   -1.5420   24.6110 C   0  0  0  0  0  0  0  0  0  0  0  0
   10.2760   -2.3270   23.4020 C   0  0  0  0  0  0  0  0  0  0  0  0
    4.9400    1.7060   18.5060 C   0  0  0  0  0  0  0  0  0  0  0  0
    5.3360    0.8000   21.1530 C   0  0  0  0  0  0  0  0  0  0  0  0
    8.3310   -2.7170   25.3430 C   0  0  0  0  0  0  0  0  0  0  0  0
   10.2570   -3.5000   24.1350 C   0  0  0  0  0  0  0  0  0  0  0  0
    7.6830   -0.5170   18.7600 C   0  0  0  0  0  0  0  0  0  0  0  0
    9.5350    2.4145   23.6414 C   0  0  0  0  0  0  0  0  0  0  0  0
    9.3300   -1.3350   23.6390 C   0  0  0  0  0  0  0  0  0  0  0  0
    5.9810    0.8330   18.8060 C   0  0  0  0  0  0  0  0  0  0  0  0
    6.1600    0.3870   20.1140 C   0  0  0  0  0  0  0  0  0  0  0  0
    9.2850   -3.7090   25.1090 C   0  0  0  0  0  0  0  0  0  0  0  0
    8.3641   -5.2686   26.8513 C   0  0  0  0  0  0  0  0  0  0  0  0
    8.9510    0.1280   21.6880 C   0  0  0  0  0  0  0  0  0  0  0  0
    7.9632   -7.7606   26.6654 C   0  0  0  0  0  0  0  0  0  0  0  0
    8.8577    1.0982   23.9421 C   0  0  0  0  0  0  0  0  0  0  0  0
    8.6975   -6.6500   27.3948 C   0  0  0  0  0  0  0  0  0  0  0  0
    9.4200   -0.0840   22.9530 C   0  0  2  0  0  0  0  0  0  0  0  0
    6.9440    0.2550   18.0100 N   0  0  0  0  0  0  0  0  0  0  0  0
    7.2210   -0.4620   20.0350 N   0  0  0  0  0  0  0  0  0  0  0  0
    9.2630   -4.8903   25.8409 N   0  0  0  0  0  0  0  0  0  0  0  0
    8.0810   -0.9750   21.0820 N   0  0  0  0  0  0  0  0  0  0  0  0
    7.4192   -4.6126   27.2772 O   0  0  0  0  0  0  0  0  0  0  0  0
    9.1870    1.1500   21.0630 O   0  0  0  0  0  0  0  0  0  0  0  0
   11.2739    5.7912   22.8690 H   0  0  0  0  0  0  0  0  0  0  0  0
    8.9517    5.7628   23.7416 H   0  0  0  0  0  0  0  0  0  0  0  0
   12.4829    3.6575   22.4905 H   0  0  0  0  0  0  0  0  0  0  0  0
    3.2711    2.7870   19.3201 H   0  0  0  0  0  0  0  0  0  0  0  0
    3.6262    2.0082   21.6284 H   0  0  0  0  0  0  0  0  0  0  0  0
    7.8379    3.6112   24.2364 H   0  0  0  0  0  0  0  0  0  0  0  0
   11.3780    1.5009   22.9821 H   0  0  0  0  0  0  0  0  0  0  0  0
    7.5948   -0.7783   24.7966 H   0  0  0  0  0  0  0  0  0  0  0  0
   11.0389   -2.1844   22.6342 H   0  0  0  0  0  0  0  0  0  0  0  0
    4.7816    2.0660   17.4901 H   0  0  0  0  0  0  0  0  0  0  0  0
    5.4934    0.4579   22.1787 H   0  0  0  0  0  0  0  0  0  0  0  0
    7.5642   -2.8624   26.1050 H   0  0  0  0  0  0  0  0  0  0  0  0
   11.0137   -4.2649   23.9418 H   0  0  0  0  0  0  0  0  0  0  0  0
    8.5166   -1.1054   18.4533 H   0  0  0  0  0  0  0  0  0  0  0  0
    6.8786   -7.6289   26.7381 H   0  0  0  0  0  0  0  0  0  0  0  0
    8.2191   -8.7336   27.0960 H   0  0  0  0  0  0  0  0  0  0  0  0
    8.2289   -7.7761   25.6032 H   0  0  0  0  0  0  0  0  0  0  0  0
    8.9995    0.8809   25.0099 H   0  0  0  0  0  0  0  0  0  0  0  0
    7.7720    1.2044   23.8156 H   0  0  0  0  0  0  0  0  0  0  0  0
    9.7786   -6.8068   27.3058 H   0  0  0  0  0  0  0  0  0  0  0  0
    8.4370   -6.6770   28.4592 H   0  0  0  0  0  0  0  0  0  0  0  0
   10.5616    0.2233   22.9565 H   0  0  0  0  0  0  0  0  0  0  0  0
    9.9927   -5.5775   25.6188 H   0  0  0  0  0  0  0  0  0  0  0  0
    8.1515   -1.8050   21.3815 H   0  0  0  0  0  0  0  0  0  0  0  0
  1  2  1  0  0  0  0
  1  3  2  0  0  0  0
  2  6  2  0  0  0  0
  3  7  1  0  0  0  0
  4  5  1  0  0  0  0
  4 10  2  0  0  0  0
  5 11  2  0  0  0  0
  6 15  1  0  0  0  0
  7 15  2  0  0  0  0
  8 12  2  0  0  0  0
  8 16  1  0  0  0  0
  9 13  1  0  0  0  0
  9 16  2  0  0  0  0
 10 17  1  0  0  0  0
 11 18  1  0  0  0  0
 12 19  1  0  0  0  0
 13 19  2  0  0  0  0
 14 26  2  0  0  0  0
 14 27  1  0  0  0  0
 15 23  1  0  0  0  0
 16 25  1  0  0  0  0
 17 18  2  0  0  0  0
 17 26  1  0  0  0  0
 18 27  1  0  0  0  0
 19 28  1  0  0  0  0
 20 24  1  0  0  0  0
 20 28  1  0  0  0  0
 20 30  2  0  0  0  0
 21 25  1  0  0  0  0
 21 29  1  0  0  0  0
 21 31  2  0  0  0  0
 22 24  1  0  0  0  0
 23 25  1  6  0  0  0
 27 29  1  0  0  0  0
  1 32  1  0  0  0  0
  2 33  1  0  0  0  0
  3 34  1  0  0  0  0
  4 35  1  0  0  0  0
  5 36  1  0  0  0  0
  6 37  1  0  0  0  0
  7 38  1  0  0  0  0
  8 39  1  0  0  0  0
  9 40  1  0  0  0  0
 10 41  1  0  0  0  0
 11 42  1  0  0  0  0
 12 43  1  0  0  0  0
 13 44  1  0  0  0  0
 14 45  1  0  0  0  0
 22 46  1  0  0  0  0
 22 47  1  0  0  0  0
 22 48  1  0  0  0  0
 23 49  1  0  0  0  0
 23 50  1  0  0  0  0
 24 51  1  0  0  0  0
 24 52  1  0  0  0  0
 25 53  1  0  0  0  0
 28 54  1  0  0  0  0
 29 55  1  0  0  0  0
M  END
> <clash_score>
0.7804584097171869

> <docking_score>
-8.638219833374023

> <overlap_score>
0.8782182931900024

$$$$
BENZO_201_1
  -OEChem-08232013493D

 55 58  0     1  0  0  0  0  0999 V2000
   11.4961    4.7275   23.0120 C   0  0  0  0  0  0  0  0  0  0  0  0
   12.4919    3.8949   22.5015 C   0  0  0  0  0  0  0  0  0  0  0  0
   10.3281    4.1760   23.5388 C   0  0  0  0  0  0  0  0  0  0  0  0
    4.0980    2.1130   19.5350 C   0  0  0  0  0  0  0  0  0  0  0  0
    4.2970    1.6690   20.8430 C   0  0  0  0  0  0  0  0  0  0  0  0
   12.3199    2.5108   22.5177 C   0  0  0  0  0  0  0  0  0  0  0  0
   10.1560    2.7919   23.5549 C   0  0  0  0  0  0  0  0  0  0  0  0
    8.3510   -1.5420   24.6110 C   0  0  0  0  0  0  0  0  0  0  0  0
   10.2760   -2.3270   23.4020 C   0  0  0  0  0  0  0  0  0  0  0  0
    4.9400    1.7060   18.5060 C   0  0  0  0  0  0  0  0  0  0  0  0
    5.3360    0.8000   21.1530 C   0  0  0  0  0  0  0  0  0  0  0  0
    8.3310   -2.7170   25.3430 C   0  0  0  0  0  0  0  0  0  0  0  0
   10.2570   -3.5000   24.1350 C   0  0  0  0  0  0  0  0  0  0  0  0
    7.6830   -0.5170   18.7600 C   0  0  0  0  0  0  0  0  0  0  0  0
   11.1519    1.9593   23.0443 C   0  0  0  0  0  0  0  0  0  0  0  0
    9.3300   -1.3350   23.6390 C   0  0  0  0  0  0  0  0  0  0  0  0
    5.9810    0.8330   18.8060 C   0  0  0  0  0  0  0  0  0  0  0  0
    6.1600    0.3870   20.1140 C   0  0  0  0  0  0  0  0  0  0  0  0
    9.2850   -3.7090   25.1090 C   0  0  0  0  0  0  0  0  0  0  0  0
    8.1529   -5.5454   26.3982 C   0  0  0  0  0  0  0  0  0  0  0  0
    8.9510    0.1280   21.6880 C   0  0  0  0  0  0  0  0  0  0  0  0
    9.2288   -7.8280   26.2038 C   0  0  0  0  0  0  0  0  0  0  0  0
   10.9648    0.4604   23.0619 C   0  0  0  0  0  0  0  0  0  0  0  0
    8.5713   -6.8154   27.1241 C   0  0  0  0  0  0  0  0  0  0  0  0
    9.4200   -0.0840   22.9530 C   0  0  1  0  0  0  0  0  0  0  0  0
    6.9440    0.2550   18.0100 N   0  0  0  0  0  0  0  0  0  0  0  0
    7.2210   -0.4620   20.0350 N   0  0  0  0  0  0  0  0  0  0  0  0
    9.2630   -4.8903   25.8409 N   0  0  0  0  0  0  0  0  0  0  0  0
    8.0810   -0.9750   21.0820 N   0  0  0  0  0  0  0  0  0  0  0  0
    6.9816   -5.1865   26.3378 O   0  0  0  0  0  0  0  0  0  0  0  0
    9.1870    1.1500   21.0630 O   0  0  0  0  0  0  0  0  0  0  0  0
   11.6308    5.8052   23.0007 H   0  0  0  0  0  0  0  0  0  0  0  0
   13.4019    4.3242   22.0924 H   0  0  0  0  0  0  0  0  0  0  0  0
    9.5530    4.8238   23.9373 H   0  0  0  0  0  0  0  0  0  0  0  0
    3.2711    2.7870   19.3201 H   0  0  0  0  0  0  0  0  0  0  0  0
    3.6262    2.0082   21.6284 H   0  0  0  0  0  0  0  0  0  0  0  0
   13.1011    1.8699   22.1175 H   0  0  0  0  0  0  0  0  0  0  0  0
    9.2427    2.3711   23.9671 H   0  0  0  0  0  0  0  0  0  0  0  0
    7.5948   -0.7783   24.7966 H   0  0  0  0  0  0  0  0  0  0  0  0
   11.0389   -2.1844   22.6342 H   0  0  0  0  0  0  0  0  0  0  0  0
    4.7816    2.0660   17.4901 H   0  0  0  0  0  0  0  0  0  0  0  0
    5.4934    0.4579   22.1787 H   0  0  0  0  0  0  0  0  0  0  0  0
    7.5642   -2.8624   26.1050 H   0  0  0  0  0  0  0  0  0  0  0  0
   11.0137   -4.2649   23.9418 H   0  0  0  0  0  0  0  0  0  0  0  0
    8.5166   -1.1054   18.4533 H   0  0  0  0  0  0  0  0  0  0  0  0
    8.5538   -8.1177   25.3917 H   0  0  0  0  0  0  0  0  0  0  0  0
    9.4999   -8.7299   26.7612 H   0  0  0  0  0  0  0  0  0  0  0  0
   10.1387   -7.4176   25.7537 H   0  0  0  0  0  0  0  0  0  0  0  0
   11.5732    0.0341   22.2521 H   0  0  0  0  0  0  0  0  0  0  0  0
   11.3908    0.0462   23.9854 H   0  0  0  0  0  0  0  0  0  0  0  0
    9.2678   -6.5440   27.9258 H   0  0  0  0  0  0  0  0  0  0  0  0
    7.6821   -7.2621   27.5836 H   0  0  0  0  0  0  0  0  0  0  0  0
    8.9107    0.7231   23.6509 H   0  0  0  0  0  0  0  0  0  0  0  0
   10.1693   -5.3469   25.9962 H   0  0  0  0  0  0  0  0  0  0  0  0
    8.1515   -1.8050   21.3815 H   0  0  0  0  0  0  0  0  0  0  0  0
  1  2  1  0  0  0  0
  1  3  2  0  0  0  0
  2  6  2  0  0  0  0
  3  7  1  0  0  0  0
  4  5  1  0  0  0  0
  4 10  2  0  0  0  0
  5 11  2  0  0  0  0
  6 15  1  0  0  0  0
  7 15  2  0  0  0  0
  8 12  2  0  0  0  0
  8 16  1  0  0  0  0
  9 13  1  0  0  0  0
  9 16  2  0  0  0  0
 10 17  1  0  0  0  0
 11 18  1  0  0  0  0
 12 19  1  0  0  0  0
 13 19  2  0  0  0  0
 14 26  2  0  0  0  0
 14 27  1  0  0  0  0
 15 23  1  0  0  0  0
 16 25  1  0  0  0  0
 17 18  2  0  0  0  0
 17 26  1  0  0  0  0
 18 27  1  0  0  0  0
 19 28  1  0  0  0  0
 20 24  1  0  0  0  0
 20 28  1  0  0  0  0
 20 30  2  0  0  0  0
 21 25  1  0  0  0  0
 21 29  1  0  0  0  0
 21 31  2  0  0  0  0
 22 24  1  0  0  0  0
 23 25  1  1  0  0  0
 27 29  1  0  0  0  0
  1 32  1  0  0  0  0
  2 33  1  0  0  0  0
  3 34  1  0  0  0  0
  4 35  1  0  0  0  0
  5 36  1  0  0  0  0
  6 37  1  0  0  0  0
  7 38  1  0  0  0  0
  8 39  1  0  0  0  0
  9 40  1  0  0  0  0
 10 41  1  0  0  0  0
 11 42  1  0  0  0  0
 12 43  1  0  0  0  0
 13 44  1  0  0  0  0
 14 45  1  0  0  0  0
 22 46  1  0  0  0  0
 22 47  1  0  0  0  0
 22 48  1  0  0  0  0
 23 49  1  0  0  0  0
 23 50  1  0  0  0  0
 24 51  1  0  0  0  0
 24 52  1  0  0  0  0
 25 53  1  0  0  0  0
 28 54  1  0  0  0  0
 29 55  1  0  0  0  0
M  END
> <clash_score>
1.235860544468684

> <docking_score>
-10.34317398071289

> <overlap_score>
0.9384835958480835

$$$$
BENZO_200_2
  -OEChem-08232013493D

 52 55  0     1  0  0  0  0  0999 V2000
    4.0980    2.1130   19.5350 C   0  0  0  0  0  0  0  0  0  0  0  0
    4.2970    1.6690   20.8430 C   0  0  0  0  0  0  0  0  0  0  0  0
    8.3510   -1.5420   24.6110 C   0  0  0  0  0  0  0  0  0  0  0  0
   10.2760   -2.3270   23.4020 C   0  0  0  0  0  0  0  0  0  0  0  0
    4.9400    1.7060   18.5060 C   0  0  0  0  0  0  0  0  0  0  0  0
    5.3360    0.8000   21.1530 C   0  0  0  0  0  0  0  0  0  0  0  0
    8.3310   -2.7170   25.3430 C   0  0  0  0  0  0  0  0  0  0  0  0
   10.2570   -3.5000   24.1350 C   0  0  0  0  0  0  0  0  0  0  0  0
   10.8949    2.5334   23.2333 C   0  0  0  0  0  0  0  0  0  0  0  0
   11.2600    3.8452   23.0253 C   0  0  0  0  0  0  0  0  0  0  0  0
    8.9125    3.6403   23.7301 C   0  0  0  0  0  0  0  0  0  0  0  0
    7.6830   -0.5170   18.7600 C   0  0  0  0  0  0  0  0  0  0  0  0
    9.3300   -1.3350   23.6390 C   0  0  0  0  0  0  0  0  0  0  0  0
    9.5350    2.4145   23.6414 C   0  0  0  0  0  0  0  0  0  0  0  0
    5.9810    0.8330   18.8060 C   0  0  0  0  0  0  0  0  0  0  0  0
    6.1600    0.3870   20.1140 C   0  0  0  0  0  0  0  0  0  0  0  0
    9.2850   -3.7090   25.1090 C   0  0  0  0  0  0  0  0  0  0  0  0
    8.1529   -5.5454   26.3982 C   0  0  0  0  0  0  0  0  0  0  0  0
    8.9510    0.1280   21.6880 C   0  0  0  0  0  0  0  0  0  0  0  0
    9.2288   -7.8280   26.2038 C   0  0  0  0  0  0  0  0  0  0  0  0
    8.8577    1.0982   23.9421 C   0  0  0  0  0  0  0  0  0  0  0  0
    8.5713   -6.8154   27.1241 C   0  0  0  0  0  0  0  0  0  0  0  0
    9.4200   -0.0840   22.9530 C   0  0  2  0  0  0  0  0  0  0  0  0
    6.9440    0.2550   18.0100 N   0  0  0  0  0  0  0  0  0  0  0  0
    7.2210   -0.4620   20.0350 N   0  0  0  0  0  0  0  0  0  0  0  0
    9.2630   -4.8903   25.8409 N   0  0  0  0  0  0  0  0  0  0  0  0
    8.0810   -0.9750   21.0820 N   0  0  0  0  0  0  0  0  0  0  0  0
    6.9816   -5.1865   26.3378 O   0  0  0  0  0  0  0  0  0  0  0  0
    9.1870    1.1500   21.0630 O   0  0  0  0  0  0  0  0  0  0  0  0
    9.9661    4.9270   23.3220 S   0  0  0  0  0  0  0  0  0  0  0  0
    3.2711    2.7870   19.3201 H   0  0  0  0  0  0  0  0  0  0  0  0
    3.6262    2.0082   21.6284 H   0  0  0  0  0  0  0  0  0  0  0  0
    7.5948   -0.7783   24.7966 H   0  0  0  0  0  0  0  0  0  0  0  0
   11.0389   -2.1844   22.6342 H   0  0  0  0  0  0  0  0  0  0  0  0
    4.7816    2.0660   17.4901 H   0  0  0  0  0  0  0  0  0  0  0  0
    5.4934    0.4579   22.1787 H   0  0  0  0  0  0  0  0  0  0  0  0
    7.5642   -2.8624   26.1050 H   0  0  0  0  0  0  0  0  0  0  0  0
   11.0137   -4.2649   23.9418 H   0  0  0  0  0  0  0  0  0  0  0  0
   11.5746    1.7015   23.0982 H   0  0  0  0  0  0  0  0  0  0  0  0
   12.2247    4.2203   22.7141 H   0  0  0  0  0  0  0  0  0  0  0  0
    7.8902    3.8463   24.0157 H   0  0  0  0  0  0  0  0  0  0  0  0
    8.5166   -1.1054   18.4533 H   0  0  0  0  0  0  0  0  0  0  0  0
    8.5538   -8.1177   25.3917 H   0  0  0  0  0  0  0  0  0  0  0  0
    9.4999   -8.7299   26.7612 H   0  0  0  0  0  0  0  0  0  0  0  0
   10.1387   -7.4176   25.7537 H   0  0  0  0  0  0  0  0  0  0  0  0
    8.9995    0.8809   25.0099 H   0  0  0  0  0  0  0  0  0  0  0  0
    7.7720    1.2044   23.8156 H   0  0  0  0  0  0  0  0  0  0  0  0
    9.2678   -6.5440   27.9258 H   0  0  0  0  0  0  0  0  0  0  0  0
    7.6821   -7.2621   27.5836 H   0  0  0  0  0  0  0  0  0  0  0  0
   10.5616    0.2233   22.9565 H   0  0  0  0  0  0  0  0  0  0  0  0
   10.1693   -5.3469   25.9962 H   0  0  0  0  0  0  0  0  0  0  0  0
    8.1515   -1.8050   21.3815 H   0  0  0  0  0  0  0  0  0  0  0  0
  1  2  1  0  0  0  0
  1  5  2  0  0  0  0
  2  6  2  0  0  0  0
  3  7  2  0  0  0  0
  3 13  1  0  0  0  0
  4  8  1  0  0  0  0
  4 13  2  0  0  0  0
  5 15  1  0  0  0  0
  6 16  1  0  0  0  0
  7 17  1  0  0  0  0
  8 17  2  0  0  0  0
  9 10  2  0  0  0  0
  9 14  1  0  0  0  0
 10 30  1  0  0  0  0
 11 14  2  0  0  0  0
 11 30  1  0  0  0  0
 12 24  2  0  0  0  0
 12 25  1  0  0  0  0
 13 23  1  0  0  0  0
 14 21  1  0  0  0  0
 15 16  2  0  0  0  0
 15 24  1  0  0  0  0
 16 25  1  0  0  0  0
 17 26  1  0  0  0  0
 18 22  1  0  0  0  0
 18 26  1  0  0  0  0
 18 28  2  0  0  0  0
 19 23  1  0  0  0  0
 19 27  1  0  0  0  0
 19 29  2  0  0  0  0
 20 22  1  0  0  0  0
 21 23  1  6  0  0  0
 25 27  1  0  0  0  0
  1 31  1  0  0  0  0
  2 32  1  0  0  0  0
  3 33  1  0  0  0  0
  4 34  1  0  0  0  0
  5 35  1  0  0  0  0
  6 36  1  0  0  0  0
  7 37  1  0  0  0  0
  8 38  1  0  0  0  0
  9 39  1  0  0  0  0
 10 40  1  0  0  0  0
 11 41  1  0  0  0  0
 12 42  1  0  0  0  0
 20 43  1  0  0  0  0
 20 44  1  0  0  0  0
 20 45  1  0  0  0  0
 21 46  1  0  0  0  0
 21 47  1  0  0  0  0
 22 48  1  0  0  0  0
 22 49  1  0  0  0  0
 23 50  1  0  0  0  0
 26 51  1  0  0  0  0
 27 52  1  0  0  0  0
M  END
> <clash_score>
1.235860544468684

> <docking_score>
-8.646308898925781

> <overlap_score>
0.8734006285667419

$$$$
BENZO_200_1
  -OEChem-08232013493D

 52 55  0     1  0  0  0  0  0999 V2000
    4.0980    2.1130   19.5350 C   0  0  0  0  0  0  0  0  0  0  0  0
    4.2970    1.6690   20.8430 C   0  0  0  0  0  0  0  0  0  0  0  0
    8.3510   -1.5420   24.6110 C   0  0  0  0  0  0  0  0  0  0  0  0
   10.2760   -2.3270   23.4020 C   0  0  0  0  0  0  0  0  0  0  0  0
    4.9400    1.7060   18.5060 C   0  0  0  0  0  0  0  0  0  0  0  0
    5.3360    0.8000   21.1530 C   0  0  0  0  0  0  0  0  0  0  0  0
    8.3310   -2.7170   25.3430 C   0  0  0  0  0  0  0  0  0  0  0  0
   10.2570   -3.5000   24.1350 C   0  0  0  0  0  0  0  0  0  0  0  0
   11.9859    2.6451   22.1146 C   0  0  0  0  0  0  0  0  0  0  0  0
   11.9778    4.0073   22.3192 C   0  0  0  0  0  0  0  0  0  0  0  0
   10.5383    2.8236   23.9243 C   0  0  0  0  0  0  0  0  0  0  0  0
    7.6830   -0.5170   18.7600 C   0  0  0  0  0  0  0  0  0  0  0  0
    9.3300   -1.3350   23.6390 C   0  0  0  0  0  0  0  0  0  0  0  0
   11.1519    1.9593   23.0443 C   0  0  0  0  0  0  0  0  0  0  0  0
    5.9810    0.8330   18.8060 C   0  0  0  0  0  0  0  0  0  0  0  0
    6.1600    0.3870   20.1140 C   0  0  0  0  0  0  0  0  0  0  0  0
    9.2850   -3.7090   25.1090 C   0  0  0  0  0  0  0  0  0  0  0  0
    8.1529   -5.5454   26.3982 C   0  0  0  0  0  0  0  0  0  0  0  0
    8.9510    0.1280   21.6880 C   0  0  0  0  0  0  0  0  0  0  0  0
    9.2288   -7.8280   26.2038 C   0  0  0  0  0  0  0  0  0  0  0  0
   10.9648    0.4604   23.0619 C   0  0  0  0  0  0  0  0  0  0  0  0
    8.5713   -6.8154   27.1241 C   0  0  0  0  0  0  0  0  0  0  0  0
    9.4200   -0.0840   22.9530 C   0  0  1  0  0  0  0  0  0  0  0  0
    6.9440    0.2550   18.0100 N   0  0  0  0  0  0  0  0  0  0  0  0
    7.2210   -0.4620   20.0350 N   0  0  0  0  0  0  0  0  0  0  0  0
    9.2630   -4.8903   25.8409 N   0  0  0  0  0  0  0  0  0  0  0  0
    8.0810   -0.9750   21.0820 N   0  0  0  0  0  0  0  0  0  0  0  0
    6.9816   -5.1865   26.3378 O   0  0  0  0  0  0  0  0  0  0  0  0
    9.1870    1.1500   21.0630 O   0  0  0  0  0  0  0  0  0  0  0  0
   10.9679    4.4545   23.6278 S   0  0  0  0  0  0  0  0  0  0  0  0
    3.2711    2.7870   19.3201 H   0  0  0  0  0  0  0  0  0  0  0  0
    3.6262    2.0082   21.6284 H   0  0  0  0  0  0  0  0  0  0  0  0
    7.5948   -0.7783   24.7966 H   0  0  0  0  0  0  0  0  0  0  0  0
   11.0389   -2.1844   22.6342 H   0  0  0  0  0  0  0  0  0  0  0  0
    4.7816    2.0660   17.4901 H   0  0  0  0  0  0  0  0  0  0  0  0
    5.4934    0.4579   22.1787 H   0  0  0  0  0  0  0  0  0  0  0  0
    7.5642   -2.8624   26.1050 H   0  0  0  0  0  0  0  0  0  0  0  0
   11.0137   -4.2649   23.9418 H   0  0  0  0  0  0  0  0  0  0  0  0
   12.5644    2.1673   21.3341 H   0  0  0  0  0  0  0  0  0  0  0  0
   12.5171    4.7612   21.7634 H   0  0  0  0  0  0  0  0  0  0  0  0
    9.8588    2.5795   24.7291 H   0  0  0  0  0  0  0  0  0  0  0  0
    8.5166   -1.1054   18.4533 H   0  0  0  0  0  0  0  0  0  0  0  0
    8.5538   -8.1177   25.3917 H   0  0  0  0  0  0  0  0  0  0  0  0
    9.4999   -8.7299   26.7612 H   0  0  0  0  0  0  0  0  0  0  0  0
   10.1387   -7.4176   25.7537 H   0  0  0  0  0  0  0  0  0  0  0  0
   11.5732    0.0341   22.2521 H   0  0  0  0  0  0  0  0  0  0  0  0
   11.3908    0.0462   23.9854 H   0  0  0  0  0  0  0  0  0  0  0  0
    9.2678   -6.5440   27.9258 H   0  0  0  0  0  0  0  0  0  0  0  0
    7.6821   -7.2621   27.5836 H   0  0  0  0  0  0  0  0  0  0  0  0
    8.9107    0.7231   23.6509 H   0  0  0  0  0  0  0  0  0  0  0  0
   10.1693   -5.3469   25.9962 H   0  0  0  0  0  0  0  0  0  0  0  0
    8.1515   -1.8050   21.3815 H   0  0  0  0  0  0  0  0  0  0  0  0
  1  2  1  0  0  0  0
  1  5  2  0  0  0  0
  2  6  2  0  0  0  0
  3  7  2  0  0  0  0
  3 13  1  0  0  0  0
  4  8  1  0  0  0  0
  4 13  2  0  0  0  0
  5 15  1  0  0  0  0
  6 16  1  0  0  0  0
  7 17  1  0  0  0  0
  8 17  2  0  0  0  0
  9 10  2  0  0  0  0
  9 14  1  0  0  0  0
 10 30  1  0  0  0  0
 11 14  2  0  0  0  0
 11 30  1  0  0  0  0
 12 24  2  0  0  0  0
 12 25  1  0  0  0  0
 13 23  1  0  0  0  0
 14 21  1  0  0  0  0
 15 16  2  0  0  0  0
 15 24  1  0  0  0  0
 16 25  1  0  0  0  0
 17 26  1  0  0  0  0
 18 22  1  0  0  0  0
 18 26  1  0  0  0  0
 18 28  2  0  0  0  0
 19 23  1  0  0  0  0
 19 27  1  0  0  0  0
 19 29  2  0  0  0  0
 20 22  1  0  0  0  0
 21 23  1  1  0  0  0
 25 27  1  0  0  0  0
  1 31  1  0  0  0  0
  2 32  1  0  0  0  0
  3 33  1  0  0  0  0
  4 34  1  0  0  0  0
  5 35  1  0  0  0  0
  6 36  1  0  0  0  0
  7 37  1  0  0  0  0
  8 38  1  0  0  0  0
  9 39  1  0  0  0  0
 10 40  1  0  0  0  0
 11 41  1  0  0  0  0
 12 42  1  0  0  0  0
 20 43  1  0  0  0  0
 20 44  1  0  0  0  0
 20 45  1  0  0  0  0
 21 46  1  0  0  0  0
 21 47  1  0  0  0  0
 22 48  1  0  0  0  0
 22 49  1  0  0  0  0
 23 50  1  0  0  0  0
 26 51  1  0  0  0  0
 27 52  1  0  0  0  0
M  END
> <clash_score>
1.235860544468684

> <docking_score>
-9.16645622253418

> <overlap_score>
0.9284101128578186

$$$$
BENZO_202_2
  -OEChem-08232013493D

 55 58  0     1  0  0  0  0  0999 V2000
    4.0980    2.1130   19.5350 C   0  0  0  0  0  0  0  0  0  0  0  0
    4.2970    1.6690   20.8430 C   0  0  0  0  0  0  0  0  0  0  0  0
    9.4797    4.8290   23.5793 C   0  0  0  0  0  0  0  0  0  0  0  0
    8.8545    3.6132   23.8556 C   0  0  0  0  0  0  0  0  0  0  0  0
    8.3510   -1.5420   24.6110 C   0  0  0  0  0  0  0  0  0  0  0  0
   10.2760   -2.3270   23.4020 C   0  0  0  0  0  0  0  0  0  0  0  0
    4.9400    1.7060   18.5060 C   0  0  0  0  0  0  0  0  0  0  0  0
    5.3360    0.8000   21.1530 C   0  0  0  0  0  0  0  0  0  0  0  0
    8.3310   -2.7170   25.3430 C   0  0  0  0  0  0  0  0  0  0  0  0
   10.2570   -3.5000   24.1350 C   0  0  0  0  0  0  0  0  0  0  0  0
   10.7854    4.8463   23.0887 C   0  0  0  0  0  0  0  0  0  0  0  0
   10.8407    2.4317   23.1509 C   0  0  0  0  0  0  0  0  0  0  0  0
    7.6830   -0.5170   18.7600 C   0  0  0  0  0  0  0  0  0  0  0  0
    9.3300   -1.3350   23.6390 C   0  0  0  0  0  0  0  0  0  0  0  0
    9.5350    2.4145   23.6414 C   0  0  0  0  0  0  0  0  0  0  0  0
    5.9810    0.8330   18.8060 C   0  0  0  0  0  0  0  0  0  0  0  0
    6.1600    0.3870   20.1140 C   0  0  0  0  0  0  0  0  0  0  0  0
    9.2850   -3.7090   25.1090 C   0  0  0  0  0  0  0  0  0  0  0  0
   11.4659    3.6477   22.8746 C   0  0  0  0  0  0  0  0  0  0  0  0
    8.3641   -5.2686   26.8513 C   0  0  0  0  0  0  0  0  0  0  0  0
    8.9510    0.1280   21.6880 C   0  0  0  0  0  0  0  0  0  0  0  0
    7.7670   -7.0804   28.5146 C   0  0  0  0  0  0  0  0  0  0  0  0
    8.8577    1.0982   23.9421 C   0  0  0  0  0  0  0  0  0  0  0  0
    8.6975   -6.6500   27.3948 C   0  0  0  0  0  0  0  0  0  0  0  0
    9.4200   -0.0840   22.9530 C   0  0  2  0  0  0  0  0  0  0  0  0
    6.9440    0.2550   18.0100 N   0  0  0  0  0  0  0  0  0  0  0  0
    7.2210   -0.4620   20.0350 N   0  0  0  0  0  0  0  0  0  0  0  0
    9.2630   -4.8903   25.8409 N   0  0  0  0  0  0  0  0  0  0  0  0
    8.0810   -0.9750   21.0820 N   0  0  0  0  0  0  0  0  0  0  0  0
    7.4192   -4.6126   27.2772 O   0  0  0  0  0  0  0  0  0  0  0  0
    9.1870    1.1500   21.0630 O   0  0  0  0  0  0  0  0  0  0  0  0
   13.0772    3.6696   22.2705 Cl  0  0  0  0  0  0  0  0  0  0  0  0
    3.2711    2.7870   19.3201 H   0  0  0  0  0  0  0  0  0  0  0  0
    3.6262    2.0082   21.6284 H   0  0  0  0  0  0  0  0  0  0  0  0
    8.9496    5.7622   23.7463 H   0  0  0  0  0  0  0  0  0  0  0  0
    7.8370    3.6092   24.2377 H   0  0  0  0  0  0  0  0  0  0  0  0
    7.5948   -0.7783   24.7966 H   0  0  0  0  0  0  0  0  0  0  0  0
   11.0389   -2.1844   22.6342 H   0  0  0  0  0  0  0  0  0  0  0  0
    4.7816    2.0660   17.4901 H   0  0  0  0  0  0  0  0  0  0  0  0
    5.4934    0.4579   22.1787 H   0  0  0  0  0  0  0  0  0  0  0  0
    7.5642   -2.8624   26.1050 H   0  0  0  0  0  0  0  0  0  0  0  0
   11.0137   -4.2649   23.9418 H   0  0  0  0  0  0  0  0  0  0  0  0
   11.2603    5.8014   22.8781 H   0  0  0  0  0  0  0  0  0  0  0  0
   11.3668    1.4944   22.9852 H   0  0  0  0  0  0  0  0  0  0  0  0
    8.5166   -1.1054   18.4533 H   0  0  0  0  0  0  0  0  0  0  0  0
    7.8076   -6.3763   29.3521 H   0  0  0  0  0  0  0  0  0  0  0  0
    8.0501   -8.0702   28.8860 H   0  0  0  0  0  0  0  0  0  0  0  0
    6.7298   -7.1292   28.1670 H   0  0  0  0  0  0  0  0  0  0  0  0
    8.9995    0.8809   25.0099 H   0  0  0  0  0  0  0  0  0  0  0  0
    7.7720    1.2044   23.8156 H   0  0  0  0  0  0  0  0  0  0  0  0
    8.6367   -7.3712   26.5717 H   0  0  0  0  0  0  0  0  0  0  0  0
    9.7304   -6.6393   27.7615 H   0  0  0  0  0  0  0  0  0  0  0  0
   10.5616    0.2233   22.9565 H   0  0  0  0  0  0  0  0  0  0  0  0
    9.9927   -5.5775   25.6188 H   0  0  0  0  0  0  0  0  0  0  0  0
    8.1515   -1.8050   21.3815 H   0  0  0  0  0  0  0  0  0  0  0  0
  1  2  1  0  0  0  0
  1  7  2  0  0  0  0
  2  8  2  0  0  0  0
  3  4  2  0  0  0  0
  3 11  1  0  0  0  0
  4 15  1  0  0  0  0
  5  9  2  0  0  0  0
  5 14  1  0  0  0  0
  6 10  1  0  0  0  0
  6 14  2  0  0  0  0
  7 16  1  0  0  0  0
  8 17  1  0  0  0  0
  9 18  1  0  0  0  0
 10 18  2  0  0  0  0
 11 19  2  0  0  0  0
 12 15  2  0  0  0  0
 12 19  1  0  0  0  0
 13 26  2  0  0  0  0
 13 27  1  0  0  0  0
 14 25  1  0  0  0  0
 15 23  1  0  0  0  0
 16 17  2  0  0  0  0
 16 26  1  0  0  0  0
 17 27  1  0  0  0  0
 18 28  1  0  0  0  0
 19 32  1  0  0  0  0
 20 24  1  0  0  0  0
 20 28  1  0  0  0  0
 20 30  2  0  0  0  0
 21 25  1  0  0  0  0
 21 29  1  0  0  0  0
 21 31  2  0  0  0  0
 22 24  1  0  0  0  0
 23 25  1  6  0  0  0
 27 29  1  0  0  0  0
  1 33  1  0  0  0  0
  2 34  1  0  0  0  0
  3 35  1  0  0  0  0
  4 36  1  0  0  0  0
  5 37  1  0  0  0  0
  6 38  1  0  0  0  0
  7 39  1  0  0  0  0
  8 40  1  0  0  0  0
  9 41  1  0  0  0  0
 10 42  1  0  0  0  0
 11 43  1  0  0  0  0
 12 44  1  0  0  0  0
 13 45  1  0  0  0  0
 22 46  1  0  0  0  0
 22 47  1  0  0  0  0
 22 48  1  0  0  0  0
 23 49  1  0  0  0  0
 23 50  1  0  0  0  0
 24 51  1  0  0  0  0
 24 52  1  0  0  0  0
 25 53  1  0  0  0  0
 28 54  1  0  0  0  0
 29 55  1  0  0  0  0
M  END
> <clash_score>
0

> <docking_score>
-9.320686340332031

> <overlap_score>
0.8891793489456177

$$$$
BENZO_202_1
  -OEChem-08232013493D

 55 58  0     1  0  0  0  0  0999 V2000
    4.0980    2.1130   19.5350 C   0  0  0  0  0  0  0  0  0  0  0  0
    4.2970    1.6690   20.8430 C   0  0  0  0  0  0  0  0  0  0  0  0
   10.3291    4.1758   23.5411 C   0  0  0  0  0  0  0  0  0  0  0  0
   10.1565    2.7918   23.5559 C   0  0  0  0  0  0  0  0  0  0  0  0
    8.3510   -1.5420   24.6110 C   0  0  0  0  0  0  0  0  0  0  0  0
   10.2760   -2.3270   23.4020 C   0  0  0  0  0  0  0  0  0  0  0  0
    4.9400    1.7060   18.5060 C   0  0  0  0  0  0  0  0  0  0  0  0
    5.3360    0.8000   21.1530 C   0  0  0  0  0  0  0  0  0  0  0  0
    8.3310   -2.7170   25.3430 C   0  0  0  0  0  0  0  0  0  0  0  0
   10.2570   -3.5000   24.1350 C   0  0  0  0  0  0  0  0  0  0  0  0
   11.4971    4.7274   23.0146 C   0  0  0  0  0  0  0  0  0  0  0  0
   12.3200    2.5108   22.5179 C   0  0  0  0  0  0  0  0  0  0  0  0
    7.6830   -0.5170   18.7600 C   0  0  0  0  0  0  0  0  0  0  0  0
    9.3300   -1.3350   23.6390 C   0  0  0  0  0  0  0  0  0  0  0  0
   11.1519    1.9593   23.0443 C   0  0  0  0  0  0  0  0  0  0  0  0
    5.9810    0.8330   18.8060 C   0  0  0  0  0  0  0  0  0  0  0  0
    6.1600    0.3870   20.1140 C   0  0  0  0  0  0  0  0  0  0  0  0
    9.2850   -3.7090   25.1090 C   0  0  0  0  0  0  0  0  0  0  0  0
   12.4925    3.8949   22.5030 C   0  0  0  0  0  0  0  0  0  0  0  0
    8.3641   -5.2686   26.8513 C   0  0  0  0  0  0  0  0  0  0  0  0
    8.9510    0.1280   21.6880 C   0  0  0  0  0  0  0  0  0  0  0  0
    7.9632   -7.7606   26.6654 C   0  0  0  0  0  0  0  0  0  0  0  0
   10.9648    0.4604   23.0619 C   0  0  0  0  0  0  0  0  0  0  0  0
    8.6975   -6.6500   27.3948 C   0  0  0  0  0  0  0  0  0  0  0  0
    9.4200   -0.0840   22.9530 C   0  0  1  0  0  0  0  0  0  0  0  0
    6.9440    0.2550   18.0100 N   0  0  0  0  0  0  0  0  0  0  0  0
    7.2210   -0.4620   20.0350 N   0  0  0  0  0  0  0  0  0  0  0  0
    9.2630   -4.8903   25.8409 N   0  0  0  0  0  0  0  0  0  0  0  0
    8.0810   -0.9750   21.0820 N   0  0  0  0  0  0  0  0  0  0  0  0
    7.4192   -4.6126   27.2772 O   0  0  0  0  0  0  0  0  0  0  0  0
    9.1870    1.1500   21.0630 O   0  0  0  0  0  0  0  0  0  0  0  0
   13.9339    4.5760   21.8546 Cl  0  0  0  0  0  0  0  0  0  0  0  0
    3.2711    2.7870   19.3201 H   0  0  0  0  0  0  0  0  0  0  0  0
    3.6262    2.0082   21.6284 H   0  0  0  0  0  0  0  0  0  0  0  0
    9.5538    4.8237   23.9397 H   0  0  0  0  0  0  0  0  0  0  0  0
    9.2432    2.3707   23.9682 H   0  0  0  0  0  0  0  0  0  0  0  0
    7.5948   -0.7783   24.7966 H   0  0  0  0  0  0  0  0  0  0  0  0
   11.0389   -2.1844   22.6342 H   0  0  0  0  0  0  0  0  0  0  0  0
    4.7816    2.0660   17.4901 H   0  0  0  0  0  0  0  0  0  0  0  0
    5.4934    0.4579   22.1787 H   0  0  0  0  0  0  0  0  0  0  0  0
    7.5642   -2.8624   26.1050 H   0  0  0  0  0  0  0  0  0  0  0  0
   11.0137   -4.2649   23.9418 H   0  0  0  0  0  0  0  0  0  0  0  0
   11.6181    5.8079   23.0098 H   0  0  0  0  0  0  0  0  0  0  0  0
   13.0929    1.8575   22.1197 H   0  0  0  0  0  0  0  0  0  0  0  0
    8.5166   -1.1054   18.4533 H   0  0  0  0  0  0  0  0  0  0  0  0
    6.8786   -7.6289   26.7381 H   0  0  0  0  0  0  0  0  0  0  0  0
    8.2191   -8.7336   27.0960 H   0  0  0  0  0  0  0  0  0  0  0  0
    8.2289   -7.7761   25.6032 H   0  0  0  0  0  0  0  0  0  0  0  0
   11.5732    0.0341   22.2521 H   0  0  0  0  0  0  0  0  0  0  0  0
   11.3908    0.0462   23.9854 H   0  0  0  0  0  0  0  0  0  0  0  0
    9.7786   -6.8068   27.3058 H   0  0  0  0  0  0  0  0  0  0  0  0
    8.4370   -6.6770   28.4592 H   0  0  0  0  0  0  0  0  0  0  0  0
    8.9107    0.7231   23.6509 H   0  0  0  0  0  0  0  0  0  0  0  0
    9.9927   -5.5775   25.6188 H   0  0  0  0  0  0  0  0  0  0  0  0
    8.1515   -1.8050   21.3815 H   0  0  0  0  0  0  0  0  0  0  0  0
  1  2  1  0  0  0  0
  1  7  2  0  0  0  0
  2  8  2  0  0  0  0
  3  4  2  0  0  0  0
  3 11  1  0  0  0  0
  4 15  1  0  0  0  0
  5  9  2  0  0  0  0
  5 14  1  0  0  0  0
  6 10  1  0  0  0  0
  6 14  2  0  0  0  0
  7 16  1  0  0  0  0
  8 17  1  0  0  0  0
  9 18  1  0  0  0  0
 10 18  2  0  0  0  0
 11 19  2  0  0  0  0
 12 15  2  0  0  0  0
 12 19  1  0  0  0  0
 13 26  2  0  0  0  0
 13 27  1  0  0  0  0
 14 25  1  0  0  0  0
 15 23  1  0  0  0  0
 16 17  2  0  0  0  0
 16 26  1  0  0  0  0
 17 27  1  0  0  0  0
 18 28  1  0  0  0  0
 19 32  1  0  0  0  0
 20 24  1  0  0  0  0
 20 28  1  0  0  0  0
 20 30  2  0  0  0  0
 21 25  1  0  0  0  0
 21 29  1  0  0  0  0
 21 31  2  0  0  0  0
 22 24  1  0  0  0  0
 23 25  1  1  0  0  0
 27 29  1  0  0  0  0
  1 33  1  0  0  0  0
  2 34  1  0  0  0  0
  3 35  1  0  0  0  0
  4 36  1  0  0  0  0
  5 37  1  0  0  0  0
  6 38  1  0  0  0  0
  7 39  1  0  0  0  0
  8 40  1  0  0  0  0
  9 41  1  0  0  0  0
 10 42  1  0  0  0  0
 11 43  1  0  0  0  0
 12 44  1  0  0  0  0
 13 45  1  0  0  0  0
 22 46  1  0  0  0  0
 22 47  1  0  0  0  0
 22 48  1  0  0  0  0
 23 49  1  0  0  0  0
 23 50  1  0  0  0  0
 24 51  1  0  0  0  0
 24 52  1  0  0  0  0
 25 53  1  0  0  0  0
 28 54  1  0  0  0  0
 29 55  1  0  0  0  0
M  END
> <clash_score>
0.7804584097171869

> <docking_score>
-10.40345573425293

> <overlap_score>
0.9404563307762146

$$$$
BENZO_203_2
  -OEChem-08232013493D

 55 58  0     1  0  0  0  0  0999 V2000
    4.0980    2.1130   19.5350 C   0  0  0  0  0  0  0  0  0  0  0  0
    4.2970    1.6690   20.8430 C   0  0  0  0  0  0  0  0  0  0  0  0
    8.3510   -1.5420   24.6110 C   0  0  0  0  0  0  0  0  0  0  0  0
   10.2760   -2.3270   23.4020 C   0  0  0  0  0  0  0  0  0  0  0  0
    4.9400    1.7060   18.5060 C   0  0  0  0  0  0  0  0  0  0  0  0
    5.3360    0.8000   21.1530 C   0  0  0  0  0  0  0  0  0  0  0  0
    8.3310   -2.7170   25.3430 C   0  0  0  0  0  0  0  0  0  0  0  0
   10.2570   -3.5000   24.1350 C   0  0  0  0  0  0  0  0  0  0  0  0
   10.8351    2.6231   23.1433 C   0  0  0  0  0  0  0  0  0  0  0  0
    9.0177    3.6781   23.7909 C   0  0  0  0  0  0  0  0  0  0  0  0
    7.6830   -0.5170   18.7600 C   0  0  0  0  0  0  0  0  0  0  0  0
    9.3300   -1.3350   23.6390 C   0  0  0  0  0  0  0  0  0  0  0  0
    9.5350    2.4145   23.6414 C   0  0  0  0  0  0  0  0  0  0  0  0
    5.9810    0.8330   18.8060 C   0  0  0  0  0  0  0  0  0  0  0  0
    6.1600    0.3870   20.1140 C   0  0  0  0  0  0  0  0  0  0  0  0
    9.2850   -3.7090   25.1090 C   0  0  0  0  0  0  0  0  0  0  0  0
    8.1529   -5.5454   26.3982 C   0  0  0  0  0  0  0  0  0  0  0  0
    8.9510    0.1280   21.6880 C   0  0  0  0  0  0  0  0  0  0  0  0
    9.2288   -7.8280   26.2038 C   0  0  0  0  0  0  0  0  0  0  0  0
    9.9253    5.9744   23.3647 C   0  0  0  0  0  0  0  0  0  0  0  0
    8.8577    1.0982   23.9421 C   0  0  0  0  0  0  0  0  0  0  0  0
    8.5713   -6.8154   27.1241 C   0  0  0  0  0  0  0  0  0  0  0  0
    9.4200   -0.0840   22.9530 C   0  0  2  0  0  0  0  0  0  0  0  0
   11.1257    3.9173   22.9866 N   0  0  0  0  0  0  0  0  0  0  0  0
    6.9440    0.2550   18.0100 N   0  0  0  0  0  0  0  0  0  0  0  0
   10.0010    4.5334   23.3885 N   0  0  0  0  0  0  0  0  0  0  0  0
    7.2210   -0.4620   20.0350 N   0  0  0  0  0  0  0  0  0  0  0  0
    9.2630   -4.8903   25.8409 N   0  0  0  0  0  0  0  0  0  0  0  0
    8.0810   -0.9750   21.0820 N   0  0  0  0  0  0  0  0  0  0  0  0
    6.9816   -5.1865   26.3378 O   0  0  0  0  0  0  0  0  0  0  0  0
    9.1870    1.1500   21.0630 O   0  0  0  0  0  0  0  0  0  0  0  0
    3.2711    2.7870   19.3201 H   0  0  0  0  0  0  0  0  0  0  0  0
    3.6262    2.0082   21.6284 H   0  0  0  0  0  0  0  0  0  0  0  0
    7.5948   -0.7783   24.7966 H   0  0  0  0  0  0  0  0  0  0  0  0
   11.0389   -2.1844   22.6342 H   0  0  0  0  0  0  0  0  0  0  0  0
    4.7816    2.0660   17.4901 H   0  0  0  0  0  0  0  0  0  0  0  0
    5.4934    0.4579   22.1787 H   0  0  0  0  0  0  0  0  0  0  0  0
    7.5642   -2.8624   26.1050 H   0  0  0  0  0  0  0  0  0  0  0  0
   11.0137   -4.2649   23.9418 H   0  0  0  0  0  0  0  0  0  0  0  0
   11.5842    1.8876   22.8864 H   0  0  0  0  0  0  0  0  0  0  0  0
    8.0571    4.0326   24.1394 H   0  0  0  0  0  0  0  0  0  0  0  0
    8.5166   -1.1054   18.4533 H   0  0  0  0  0  0  0  0  0  0  0  0
    8.5538   -8.1177   25.3917 H   0  0  0  0  0  0  0  0  0  0  0  0
    9.4999   -8.7299   26.7612 H   0  0  0  0  0  0  0  0  0  0  0  0
   10.1387   -7.4176   25.7537 H   0  0  0  0  0  0  0  0  0  0  0  0
   10.2748    6.3466   24.3314 H   0  0  0  0  0  0  0  0  0  0  0  0
   10.5545    6.3588   22.5570 H   0  0  0  0  0  0  0  0  0  0  0  0
    8.8900    6.2791   23.1881 H   0  0  0  0  0  0  0  0  0  0  0  0
    8.9995    0.8809   25.0099 H   0  0  0  0  0  0  0  0  0  0  0  0
    7.7720    1.2044   23.8156 H   0  0  0  0  0  0  0  0  0  0  0  0
    9.2678   -6.5440   27.9258 H   0  0  0  0  0  0  0  0  0  0  0  0
    7.6821   -7.2621   27.5836 H   0  0  0  0  0  0  0  0  0  0  0  0
   10.5616    0.2233   22.9565 H   0  0  0  0  0  0  0  0  0  0  0  0
   10.1693   -5.3469   25.9962 H   0  0  0  0  0  0  0  0  0  0  0  0
    8.1515   -1.8050   21.3815 H   0  0  0  0  0  0  0  0  0  0  0  0
  1  2  1  0  0  0  0
  1  5  2  0  0  0  0
  2  6  2  0  0  0  0
  3  7  2  0  0  0  0
  3 12  1  0  0  0  0
  4  8  1  0  0  0  0
  4 12  2  0  0  0  0
  5 14  1  0  0  0  0
  6 15  1  0  0  0  0
  7 16  1  0  0  0  0
  8 16  2  0  0  0  0
  9 13  1  0  0  0  0
  9 24  2  0  0  0  0
 10 13  2  0  0  0  0
 10 26  1  0  0  0  0
 11 25  2  0  0  0  0
 11 27  1  0  0  0  0
 12 23  1  0  0  0  0
 13 21  1  0  0  0  0
 14 15  2  0  0  0  0
 14 25  1  0  0  0  0
 15 27  1  0  0  0  0
 16 28  1  0  0  0  0
 17 22  1  0  0  0  0
 17 28  1  0  0  0  0
 17 30  2  0  0  0  0
 18 23  1  0  0  0  0
 18 29  1  0  0  0  0
 18 31  2  0  0  0  0
 19 22  1  0  0  0  0
 20 26  1  0  0  0  0
 21 23  1  6  0  0  0
 24 26  1  0  0  0  0
 27 29  1  0  0  0  0
  1 32  1  0  0  0  0
  2 33  1  0  0  0  0
  3 34  1  0  0  0  0
  4 35  1  0  0  0  0
  5 36  1  0  0  0  0
  6 37  1  0  0  0  0
  7 38  1  0  0  0  0
  8 39  1  0  0  0  0
  9 40  1  0  0  0  0
 10 41  1  0  0  0  0
 11 42  1  0  0  0  0
 19 43  1  0  0  0  0
 19 44  1  0  0  0  0
 19 45  1  0  0  0  0
 20 46  1  0  0  0  0
 20 47  1  0  0  0  0
 20 48  1  0  0  0  0
 21 49  1  0  0  0  0
 21 50  1  0  0  0  0
 22 51  1  0  0  0  0
 22 52  1  0  0  0  0
 23 53  1  0  0  0  0
 28 54  1  0  0  0  0
 29 55  1  0  0  0  0
M  END
> <clash_score>
1.235860544468684

> <docking_score>
-9.074051856994629

> <overlap_score>
0.8682196140289307

$$$$
BENZO_205_1
  -OEChem-08232013493D

 60 64  0     1  0  0  0  0  0999 V2000
   10.7843    4.8294   22.9654 C   0  0  0  0  0  0  0  0  0  0  0  0
   11.3381    3.9837   23.9264 C   0  0  0  0  0  0  0  0  0  0  0  0
    9.6033    4.4690   22.3166 C   0  0  0  0  0  0  0  0  0  0  0  0
    4.0980    2.1130   19.5350 C   0  0  0  0  0  0  0  0  0  0  0  0
    4.2970    1.6690   20.8430 C   0  0  0  0  0  0  0  0  0  0  0  0
   10.7110    2.7775   24.2386 C   0  0  0  0  0  0  0  0  0  0  0  0
    8.9762    3.2628   22.6287 C   0  0  0  0  0  0  0  0  0  0  0  0
    8.3510   -1.5420   24.6110 C   0  0  0  0  0  0  0  0  0  0  0  0
   10.2760   -2.3270   23.4020 C   0  0  0  0  0  0  0  0  0  0  0  0
    4.9400    1.7060   18.5060 C   0  0  0  0  0  0  0  0  0  0  0  0
    5.3360    0.8000   21.1530 C   0  0  0  0  0  0  0  0  0  0  0  0
    8.3310   -2.7170   25.3430 C   0  0  0  0  0  0  0  0  0  0  0  0
   10.2570   -3.5000   24.1350 C   0  0  0  0  0  0  0  0  0  0  0  0
    7.6830   -0.5170   18.7600 C   0  0  0  0  0  0  0  0  0  0  0  0
    9.5300    2.4170   23.5897 C   0  0  0  0  0  0  0  0  0  0  0  0
    9.3300   -1.3350   23.6390 C   0  0  0  0  0  0  0  0  0  0  0  0
    5.9810    0.8330   18.8060 C   0  0  0  0  0  0  0  0  0  0  0  0
    6.1600    0.3870   20.1140 C   0  0  0  0  0  0  0  0  0  0  0  0
    9.2850   -3.7090   25.1090 C   0  0  0  0  0  0  0  0  0  0  0  0
    8.9510    0.1280   21.6880 C   0  0  0  0  0  0  0  0  0  0  0  0
    7.3211   -6.8875   26.5227 C   0  0  0  0  0  0  0  0  0  0  0  0
    7.3523   -5.5278   27.2244 C   0  0  0  0  0  0  0  0  0  0  0  0
    7.9422   -6.8107   25.1261 C   0  0  0  0  0  0  0  0  0  0  0  0
    8.7641   -4.9418   27.2163 C   0  0  0  0  0  0  0  0  0  0  0  0
    9.3411   -6.1879   25.1670 C   0  0  0  0  0  0  0  0  0  0  0  0
    8.8505    1.1108   23.9271 C   0  0  0  0  0  0  0  0  0  0  0  0
    9.4200   -0.0840   22.9530 C   0  0  1  0  0  0  0  0  0  0  0  0
    6.9440    0.2550   18.0100 N   0  0  0  0  0  0  0  0  0  0  0  0
    7.2210   -0.4620   20.0350 N   0  0  0  0  0  0  0  0  0  0  0  0
    9.2641   -4.8861   25.8398 N   0  0  0  0  0  0  0  0  0  0  0  0
    8.0810   -0.9750   21.0820 N   0  0  0  0  0  0  0  0  0  0  0  0
    9.1870    1.1500   21.0630 O   0  0  0  0  0  0  0  0  0  0  0  0
   11.2720    5.7692   22.7234 H   0  0  0  0  0  0  0  0  0  0  0  0
   12.2571    4.2647   24.4325 H   0  0  0  0  0  0  0  0  0  0  0  0
    9.1712    5.1277   21.5691 H   0  0  0  0  0  0  0  0  0  0  0  0
    3.2711    2.7870   19.3201 H   0  0  0  0  0  0  0  0  0  0  0  0
    3.6263    2.0082   21.6285 H   0  0  0  0  0  0  0  0  0  0  0  0
   11.1499    2.1247   24.9886 H   0  0  0  0  0  0  0  0  0  0  0  0
    8.0564    2.9902   22.1180 H   0  0  0  0  0  0  0  0  0  0  0  0
    7.5957   -0.7779   24.7973 H   0  0  0  0  0  0  0  0  0  0  0  0
   11.0384   -2.1852   22.6338 H   0  0  0  0  0  0  0  0  0  0  0  0
    4.7816    2.0660   17.4901 H   0  0  0  0  0  0  0  0  0  0  0  0
    5.4934    0.4579   22.1787 H   0  0  0  0  0  0  0  0  0  0  0  0
    7.5634   -2.8637   26.1037 H   0  0  0  0  0  0  0  0  0  0  0  0
   11.0139   -4.2645   23.9419 H   0  0  0  0  0  0  0  0  0  0  0  0
    8.5166   -1.1054   18.4533 H   0  0  0  0  0  0  0  0  0  0  0  0
    7.8644   -7.6283   27.1289 H   0  0  0  0  0  0  0  0  0  0  0  0
    6.2830   -7.2423   26.4478 H   0  0  0  0  0  0  0  0  0  0  0  0
    6.6663   -4.8405   26.7221 H   0  0  0  0  0  0  0  0  0  0  0  0
    7.0062   -5.6400   28.2540 H   0  0  0  0  0  0  0  0  0  0  0  0
    8.0018   -7.8160   24.6962 H   0  0  0  0  0  0  0  0  0  0  0  0
    7.2963   -6.2182   24.4678 H   0  0  0  0  0  0  0  0  0  0  0  0
    8.7322   -3.9404   27.6532 H   0  0  0  0  0  0  0  0  0  0  0  0
    9.4260   -5.5610   27.8283 H   0  0  0  0  0  0  0  0  0  0  0  0
   10.0249   -6.8474   25.7028 H   0  0  0  0  0  0  0  0  0  0  0  0
    9.7015   -6.0700   24.1446 H   0  0  0  0  0  0  0  0  0  0  0  0
    8.9922    0.9231   25.0006 H   0  0  0  0  0  0  0  0  0  0  0  0
    7.7650    1.2154   23.7980 H   0  0  0  0  0  0  0  0  0  0  0  0
   10.5617    0.2354   22.9523 H   0  0  0  0  0  0  0  0  0  0  0  0
    8.1256   -1.8039   21.3539 H   0  0  0  0  0  0  0  0  0  0  0  0
  1  2  1  0  0  0  0
  1  3  2  0  0  0  0
  2  6  2  0  0  0  0
  3  7  1  0  0  0  0
  4  5  1  0  0  0  0
  4 10  2  0  0  0  0
  5 11  2  0  0  0  0
  6 15  1  0  0  0  0
  7 15  2  0  0  0  0
  8 12  2  0  0  0  0
  8 16  1  0  0  0  0
  9 13  1  0  0  0  0
  9 16  2  0  0  0  0
 10 17  1  0  0  0  0
 11 18  1  0  0  0  0
 12 19  1  0  0  0  0
 13 19  2  0  0  0  0
 14 28  2  0  0  0  0
 14 29  1  0  0  0  0
 15 26  1  0  0  0  0
 16 27  1  0  0  0  0
 17 18  2  0  0  0  0
 17 28  1  0  0  0  0
 18 29  1  0  0  0  0
 19 30  1  0  0  0  0
 20 27  1  1  0  0  0
 20 31  1  0  0  0  0
 20 32  2  0  0  0  0
 21 22  1  0  0  0  0
 21 23  1  0  0  0  0
 22 24  1  0  0  0  0
 23 25  1  0  0  0  0
 24 30  1  0  0  0  0
 25 30  1  0  0  0  0
 26 27  1  0  0  0  0
 29 31  1  0  0  0  0
  1 33  1  0  0  0  0
  2 34  1  0  0  0  0
  3 35  1  0  0  0  0
  4 36  1  0  0  0  0
  5 37  1  0  0  0  0
  6 38  1  0  0  0  0
  7 39  1  0  0  0  0
  8 40  1  0  0  0  0
  9 41  1  0  0  0  0
 10 42  1  0  0  0  0
 11 43  1  0  0  0  0
 12 44  1  0  0  0  0
 13 45  1  0  0  0  0
 14 46  1  0  0  0  0
 21 47  1  0  0  0  0
 21 48  1  0  0  0  0
 22 49  1  0  0  0  0
 22 50  1  0  0  0  0
 23 51  1  0  0  0  0
 23 52  1  0  0  0  0
 24 53  1  0  0  0  0
 24 54  1  0  0  0  0
 25 55  1  0  0  0  0
 25 56  1  0  0  0  0
 26 57  1  0  0  0  0
 26 58  1  0  0  0  0
 27 59  1  0  0  0  0
 31 60  1  0  0  0  0
M  END
> <clash_score>
0

> <docking_score>
-7.444151401519775

> <overlap_score>
0.8661469221115112

$$$$
BENZO_204_1
  -OEChem-08232013493D

 57 61  0     1  0  0  0  0  0999 V2000
    4.0980    2.1130   19.5350 C   0  0  0  0  0  0  0  0  0  0  0  0
    4.2970    1.6690   20.8430 C   0  0  0  0  0  0  0  0  0  0  0  0
    8.3510   -1.5420   24.6110 C   0  0  0  0  0  0  0  0  0  0  0  0
   10.2760   -2.3270   23.4020 C   0  0  0  0  0  0  0  0  0  0  0  0
    4.9400    1.7060   18.5060 C   0  0  0  0  0  0  0  0  0  0  0  0
    5.3360    0.8000   21.1530 C   0  0  0  0  0  0  0  0  0  0  0  0
    8.3310   -2.7170   25.3430 C   0  0  0  0  0  0  0  0  0  0  0  0
   10.2570   -3.5000   24.1350 C   0  0  0  0  0  0  0  0  0  0  0  0
    8.8849    3.6862   23.6465 C   0  0  0  0  0  0  0  0  0  0  0  0
    9.7305    4.7130   23.2887 C   0  0  0  0  0  0  0  0  0  0  0  0
   10.8444    2.5222   23.1905 C   0  0  0  0  0  0  0  0  0  0  0  0
    7.6830   -0.5170   18.7600 C   0  0  0  0  0  0  0  0  0  0  0  0
    9.3300   -1.3350   23.6390 C   0  0  0  0  0  0  0  0  0  0  0  0
    9.5300    2.4170   23.5897 C   0  0  0  0  0  0  0  0  0  0  0  0
    5.9810    0.8330   18.8060 C   0  0  0  0  0  0  0  0  0  0  0  0
    6.1600    0.3870   20.1140 C   0  0  0  0  0  0  0  0  0  0  0  0
    9.2850   -3.7090   25.1090 C   0  0  0  0  0  0  0  0  0  0  0  0
    8.9510    0.1280   21.6880 C   0  0  0  0  0  0  0  0  0  0  0  0
    7.3211   -6.8875   26.5227 C   0  0  0  0  0  0  0  0  0  0  0  0
    7.3523   -5.5278   27.2244 C   0  0  0  0  0  0  0  0  0  0  0  0
    7.9422   -6.8107   25.1261 C   0  0  0  0  0  0  0  0  0  0  0  0
    8.7641   -4.9418   27.2163 C   0  0  0  0  0  0  0  0  0  0  0  0
    9.3411   -6.1879   25.1670 C   0  0  0  0  0  0  0  0  0  0  0  0
    8.8504    1.1108   23.9271 C   0  0  0  0  0  0  0  0  0  0  0  0
    9.4200   -0.0840   22.9530 C   0  0  1  0  0  0  0  0  0  0  0  0
    6.9440    0.2550   18.0100 N   0  0  0  0  0  0  0  0  0  0  0  0
    7.2210   -0.4620   20.0350 N   0  0  0  0  0  0  0  0  0  0  0  0
    9.2641   -4.8861   25.8398 N   0  0  0  0  0  0  0  0  0  0  0  0
    8.0810   -0.9750   21.0820 N   0  0  0  0  0  0  0  0  0  0  0  0
    9.1870    1.1500   21.0630 O   0  0  0  0  0  0  0  0  0  0  0  0
   11.2955    4.1459   22.8865 S   0  0  0  0  0  0  0  0  0  0  0  0
    3.2711    2.7870   19.3201 H   0  0  0  0  0  0  0  0  0  0  0  0
    3.6263    2.0082   21.6285 H   0  0  0  0  0  0  0  0  0  0  0  0
    7.5957   -0.7779   24.7973 H   0  0  0  0  0  0  0  0  0  0  0  0
   11.0384   -2.1852   22.6338 H   0  0  0  0  0  0  0  0  0  0  0  0
    4.7816    2.0660   17.4901 H   0  0  0  0  0  0  0  0  0  0  0  0
    5.4934    0.4579   22.1787 H   0  0  0  0  0  0  0  0  0  0  0  0
    7.5634   -2.8637   26.1037 H   0  0  0  0  0  0  0  0  0  0  0  0
   11.0139   -4.2645   23.9419 H   0  0  0  0  0  0  0  0  0  0  0  0
    7.8528    3.8425   23.9342 H   0  0  0  0  0  0  0  0  0  0  0  0
    9.5042    5.7689   23.2436 H   0  0  0  0  0  0  0  0  0  0  0  0
   11.5641    1.7260   23.0605 H   0  0  0  0  0  0  0  0  0  0  0  0
    8.5166   -1.1054   18.4533 H   0  0  0  0  0  0  0  0  0  0  0  0
    7.8644   -7.6283   27.1289 H   0  0  0  0  0  0  0  0  0  0  0  0
    6.2830   -7.2423   26.4478 H   0  0  0  0  0  0  0  0  0  0  0  0
    6.6663   -4.8405   26.7221 H   0  0  0  0  0  0  0  0  0  0  0  0
    7.0062   -5.6400   28.2540 H   0  0  0  0  0  0  0  0  0  0  0  0
    8.0018   -7.8160   24.6962 H   0  0  0  0  0  0  0  0  0  0  0  0
    7.2963   -6.2182   24.4678 H   0  0  0  0  0  0  0  0  0  0  0  0
    8.7322   -3.9404   27.6532 H   0  0  0  0  0  0  0  0  0  0  0  0
    9.4260   -5.5610   27.8283 H   0  0  0  0  0  0  0  0  0  0  0  0
   10.0249   -6.8474   25.7028 H   0  0  0  0  0  0  0  0  0  0  0  0
    9.7015   -6.0700   24.1446 H   0  0  0  0  0  0  0  0  0  0  0  0
    8.9922    0.9231   25.0006 H   0  0  0  0  0  0  0  0  0  0  0  0
    7.7650    1.2154   23.7980 H   0  0  0  0  0  0  0  0  0  0  0  0
   10.5617    0.2354   22.9523 H   0  0  0  0  0  0  0  0  0  0  0  0
    8.1256   -1.8039   21.3539 H   0  0  0  0  0  0  0  0  0  0  0  0
  1  2  1  0  0  0  0
  1  5  2  0  0  0  0
  2  6  2  0  0  0  0
  3  7  2  0  0  0  0
  3 13  1  0  0  0  0
  4  8  1  0  0  0  0
  4 13  2  0  0  0  0
  5 15  1  0  0  0  0
  6 16  1  0  0  0  0
  7 17  1  0  0  0  0
  8 17  2  0  0  0  0
  9 10  2  0  0  0  0
  9 14  1  0  0  0  0
 10 31  1  0  0  0  0
 11 14  2  0  0  0  0
 11 31  1  0  0  0  0
 12 26  2  0  0  0  0
 12 27  1  0  0  0  0
 13 25  1  0  0  0  0
 14 24  1  0  0  0  0
 15 16  2  0  0  0  0
 15 26  1  0  0  0  0
 16 27  1  0  0  0  0
 17 28  1  0  0  0  0
 18 25  1  1  0  0  0
 18 29  1  0  0  0  0
 18 30  2  0  0  0  0
 19 20  1  0  0  0  0
 19 21  1  0  0  0  0
 20 22  1  0  0  0  0
 21 23  1  0  0  0  0
 22 28  1  0  0  0  0
 23 28  1  0  0  0  0
 24 25  1  0  0  0  0
 27 29  1  0  0  0  0
  1 32  1  0  0  0  0
  2 33  1  0  0  0  0
  3 34  1  0  0  0  0
  4 35  1  0  0  0  0
  5 36  1  0  0  0  0
  6 37  1  0  0  0  0
  7 38  1  0  0  0  0
  8 39  1  0  0  0  0
  9 40  1  0  0  0  0
 10 41  1  0  0  0  0
 11 42  1  0  0  0  0
 12 43  1  0  0  0  0
 19 44  1  0  0  0  0
 19 45  1  0  0  0  0
 20 46  1  0  0  0  0
 20 47  1  0  0  0  0
 21 48  1  0  0  0  0
 21 49  1  0  0  0  0
 22 50  1  0  0  0  0
 22 51  1  0  0  0  0
 23 52  1  0  0  0  0
 23 53  1  0  0  0  0
 24 54  1  0  0  0  0
 24 55  1  0  0  0  0
 25 56  1  0  0  0  0
 29 57  1  0  0  0  0
M  END
> <clash_score>
0

> <docking_score>
-9.054795265197754

> <overlap_score>
0.8779449462890625

$$$$
BENZO_205_2
  -OEChem-08232013493D

 60 64  0     1  0  0  0  0  0999 V2000
   11.4573    4.7431   22.9506 C   0  0  0  0  0  0  0  0  0  0  0  0
   12.4604    3.9133   22.4498 C   0  0  0  0  0  0  0  0  0  0  0  0
   10.2948    4.1875   23.4851 C   0  0  0  0  0  0  0  0  0  0  0  0
    4.0980    2.1130   19.5350 C   0  0  0  0  0  0  0  0  0  0  0  0
    4.2970    1.6690   20.8430 C   0  0  0  0  0  0  0  0  0  0  0  0
   12.3011    2.5280   22.4834 C   0  0  0  0  0  0  0  0  0  0  0  0
   10.1354    2.8022   23.5187 C   0  0  0  0  0  0  0  0  0  0  0  0
    8.3510   -1.5420   24.6110 C   0  0  0  0  0  0  0  0  0  0  0  0
   10.2760   -2.3270   23.4020 C   0  0  0  0  0  0  0  0  0  0  0  0
    4.9400    1.7060   18.5060 C   0  0  0  0  0  0  0  0  0  0  0  0
    5.3360    0.8000   21.1530 C   0  0  0  0  0  0  0  0  0  0  0  0
    8.3310   -2.7170   25.3430 C   0  0  0  0  0  0  0  0  0  0  0  0
   10.2570   -3.5000   24.1350 C   0  0  0  0  0  0  0  0  0  0  0  0
    7.6830   -0.5170   18.7600 C   0  0  0  0  0  0  0  0  0  0  0  0
   11.1386    1.9724   23.0179 C   0  0  0  0  0  0  0  0  0  0  0  0
    9.3300   -1.3350   23.6390 C   0  0  0  0  0  0  0  0  0  0  0  0
    5.9810    0.8330   18.8060 C   0  0  0  0  0  0  0  0  0  0  0  0
    6.1600    0.3870   20.1140 C   0  0  0  0  0  0  0  0  0  0  0  0
    9.2850   -3.7090   25.1090 C   0  0  0  0  0  0  0  0  0  0  0  0
    8.9510    0.1280   21.6880 C   0  0  0  0  0  0  0  0  0  0  0  0
    7.3211   -6.8875   26.5227 C   0  0  0  0  0  0  0  0  0  0  0  0
    7.3523   -5.5278   27.2244 C   0  0  0  0  0  0  0  0  0  0  0  0
    7.9422   -6.8107   25.1261 C   0  0  0  0  0  0  0  0  0  0  0  0
    8.7641   -4.9418   27.2163 C   0  0  0  0  0  0  0  0  0  0  0  0
    9.3411   -6.1879   25.1670 C   0  0  0  0  0  0  0  0  0  0  0  0
   10.9652    0.4722   23.0544 C   0  0  0  0  0  0  0  0  0  0  0  0
    9.4200   -0.0840   22.9530 C   0  0  2  0  0  0  0  0  0  0  0  0
    6.9440    0.2550   18.0100 N   0  0  0  0  0  0  0  0  0  0  0  0
    7.2210   -0.4620   20.0350 N   0  0  0  0  0  0  0  0  0  0  0  0
    9.2641   -4.8861   25.8398 N   0  0  0  0  0  0  0  0  0  0  0  0
    8.0810   -0.9750   21.0820 N   0  0  0  0  0  0  0  0  0  0  0  0
    9.1870    1.1500   21.0630 O   0  0  0  0  0  0  0  0  0  0  0  0
   11.5821    5.8217   22.9256 H   0  0  0  0  0  0  0  0  0  0  0  0
   13.3661    4.3457   22.0346 H   0  0  0  0  0  0  0  0  0  0  0  0
    9.5141    4.8332   23.8761 H   0  0  0  0  0  0  0  0  0  0  0  0
    3.2711    2.7870   19.3201 H   0  0  0  0  0  0  0  0  0  0  0  0
    3.6263    2.0082   21.6284 H   0  0  0  0  0  0  0  0  0  0  0  0
   13.0879    1.8893   22.0908 H   0  0  0  0  0  0  0  0  0  0  0  0
    9.2263    2.3782   23.9369 H   0  0  0  0  0  0  0  0  0  0  0  0
    7.5957   -0.7779   24.7973 H   0  0  0  0  0  0  0  0  0  0  0  0
   11.0384   -2.1852   22.6338 H   0  0  0  0  0  0  0  0  0  0  0  0
    4.7816    2.0660   17.4901 H   0  0  0  0  0  0  0  0  0  0  0  0
    5.4934    0.4579   22.1787 H   0  0  0  0  0  0  0  0  0  0  0  0
    7.5634   -2.8637   26.1037 H   0  0  0  0  0  0  0  0  0  0  0  0
   11.0139   -4.2645   23.9419 H   0  0  0  0  0  0  0  0  0  0  0  0
    8.5166   -1.1054   18.4533 H   0  0  0  0  0  0  0  0  0  0  0  0
    7.8644   -7.6283   27.1289 H   0  0  0  0  0  0  0  0  0  0  0  0
    6.2830   -7.2423   26.4478 H   0  0  0  0  0  0  0  0  0  0  0  0
    6.6663   -4.8405   26.7221 H   0  0  0  0  0  0  0  0  0  0  0  0
    7.0062   -5.6400   28.2540 H   0  0  0  0  0  0  0  0  0  0  0  0
    8.0018   -7.8160   24.6962 H   0  0  0  0  0  0  0  0  0  0  0  0
    7.2963   -6.2182   24.4678 H   0  0  0  0  0  0  0  0  0  0  0  0
    8.7322   -3.9404   27.6532 H   0  0  0  0  0  0  0  0  0  0  0  0
    9.4260   -5.5610   27.8283 H   0  0  0  0  0  0  0  0  0  0  0  0
   10.0249   -6.8474   25.7028 H   0  0  0  0  0  0  0  0  0  0  0  0
    9.7015   -6.0700   24.1446 H   0  0  0  0  0  0  0  0  0  0  0  0
   11.5818    0.0409   22.2535 H   0  0  0  0  0  0  0  0  0  0  0  0
   11.3901    0.0742   23.9855 H   0  0  0  0  0  0  0  0  0  0  0  0
    8.9113    0.7342   23.6444 H   0  0  0  0  0  0  0  0  0  0  0  0
    8.1256   -1.8039   21.3539 H   0  0  0  0  0  0  0  0  0  0  0  0
  1  2  1  0  0  0  0
  1  3  2  0  0  0  0
  2  6  2  0  0  0  0
  3  7  1  0  0  0  0
  4  5  1  0  0  0  0
  4 10  2  0  0  0  0
  5 11  2  0  0  0  0
  6 15  1  0  0  0  0
  7 15  2  0  0  0  0
  8 12  2  0  0  0  0
  8 16  1  0  0  0  0
  9 13  1  0  0  0  0
  9 16  2  0  0  0  0
 10 17  1  0  0  0  0
 11 18  1  0  0  0  0
 12 19  1  0  0  0  0
 13 19  2  0  0  0  0
 14 28  2  0  0  0  0
 14 29  1  0  0  0  0
 15 26  1  0  0  0  0
 16 27  1  0  0  0  0
 17 18  2  0  0  0  0
 17 28  1  0  0  0  0
 18 29  1  0  0  0  0
 19 30  1  0  0  0  0
 20 27  1  6  0  0  0
 20 31  1  0  0  0  0
 20 32  2  0  0  0  0
 21 22  1  0  0  0  0
 21 23  1  0  0  0  0
 22 24  1  0  0  0  0
 23 25  1  0  0  0  0
 24 30  1  0  0  0  0
 25 30  1  0  0  0  0
 26 27  1  0  0  0  0
 29 31  1  0  0  0  0
  1 33  1  0  0  0  0
  2 34  1  0  0  0  0
  3 35  1  0  0  0  0
  4 36  1  0  0  0  0
  5 37  1  0  0  0  0
  6 38  1  0  0  0  0
  7 39  1  0  0  0  0
  8 40  1  0  0  0  0
  9 41  1  0  0  0  0
 10 42  1  0  0  0  0
 11 43  1  0  0  0  0
 12 44  1  0  0  0  0
 13 45  1  0  0  0  0
 14 46  1  0  0  0  0
 21 47  1  0  0  0  0
 21 48  1  0  0  0  0
 22 49  1  0  0  0  0
 22 50  1  0  0  0  0
 23 51  1  0  0  0  0
 23 52  1  0  0  0  0
 24 53  1  0  0  0  0
 24 54  1  0  0  0  0
 25 55  1  0  0  0  0
 25 56  1  0  0  0  0
 26 57  1  0  0  0  0
 26 58  1  0  0  0  0
 27 59  1  0  0  0  0
 31 60  1  0  0  0  0
M  END
> <clash_score>
0

> <docking_score>
-10.780142784118652

> <overlap_score>
0.9440480470657349

$$$$
BENZO_204_2
  -OEChem-08232013493D

 57 61  0     1  0  0  0  0  0999 V2000
    4.0980    2.1130   19.5350 C   0  0  0  0  0  0  0  0  0  0  0  0
    4.2970    1.6690   20.8430 C   0  0  0  0  0  0  0  0  0  0  0  0
    8.3510   -1.5420   24.6110 C   0  0  0  0  0  0  0  0  0  0  0  0
   10.2760   -2.3270   23.4020 C   0  0  0  0  0  0  0  0  0  0  0  0
    4.9400    1.7060   18.5060 C   0  0  0  0  0  0  0  0  0  0  0  0
    5.3360    0.8000   21.1530 C   0  0  0  0  0  0  0  0  0  0  0  0
    8.3310   -2.7170   25.3430 C   0  0  0  0  0  0  0  0  0  0  0  0
   10.2570   -3.5000   24.1350 C   0  0  0  0  0  0  0  0  0  0  0  0
   11.9711    2.6536   22.0835 C   0  0  0  0  0  0  0  0  0  0  0  0
   11.9493    4.0182   22.2699 C   0  0  0  0  0  0  0  0  0  0  0  0
   10.5124    2.8426   23.8831 C   0  0  0  0  0  0  0  0  0  0  0  0
    7.6830   -0.5170   18.7600 C   0  0  0  0  0  0  0  0  0  0  0  0
    9.3300   -1.3350   23.6390 C   0  0  0  0  0  0  0  0  0  0  0  0
   11.1386    1.9724   23.0179 C   0  0  0  0  0  0  0  0  0  0  0  0
    5.9810    0.8330   18.8060 C   0  0  0  0  0  0  0  0  0  0  0  0
    6.1600    0.3870   20.1140 C   0  0  0  0  0  0  0  0  0  0  0  0
    9.2850   -3.7090   25.1090 C   0  0  0  0  0  0  0  0  0  0  0  0
    8.9510    0.1280   21.6880 C   0  0  0  0  0  0  0  0  0  0  0  0
    7.3211   -6.8875   26.5227 C   0  0  0  0  0  0  0  0  0  0  0  0
    7.3523   -5.5278   27.2244 C   0  0  0  0  0  0  0  0  0  0  0  0
    7.9422   -6.8107   25.1261 C   0  0  0  0  0  0  0  0  0  0  0  0
    8.7641   -4.9418   27.2163 C   0  0  0  0  0  0  0  0  0  0  0  0
    9.3411   -6.1879   25.1670 C   0  0  0  0  0  0  0  0  0  0  0  0
   10.9652    0.4722   23.0544 C   0  0  0  0  0  0  0  0  0  0  0  0
    9.4200   -0.0840   22.9530 C   0  0  2  0  0  0  0  0  0  0  0  0
    6.9440    0.2550   18.0100 N   0  0  0  0  0  0  0  0  0  0  0  0
    7.2210   -0.4620   20.0350 N   0  0  0  0  0  0  0  0  0  0  0  0
    9.2641   -4.8861   25.8398 N   0  0  0  0  0  0  0  0  0  0  0  0
    8.0810   -0.9750   21.0820 N   0  0  0  0  0  0  0  0  0  0  0  0
    9.1870    1.1500   21.0630 O   0  0  0  0  0  0  0  0  0  0  0  0
   10.9284    4.4733   23.5672 S   0  0  0  0  0  0  0  0  0  0  0  0
    3.2711    2.7870   19.3201 H   0  0  0  0  0  0  0  0  0  0  0  0
    3.6263    2.0082   21.6284 H   0  0  0  0  0  0  0  0  0  0  0  0
    7.5957   -0.7779   24.7973 H   0  0  0  0  0  0  0  0  0  0  0  0
   11.0384   -2.1852   22.6338 H   0  0  0  0  0  0  0  0  0  0  0  0
    4.7816    2.0660   17.4901 H   0  0  0  0  0  0  0  0  0  0  0  0
    5.4934    0.4579   22.1787 H   0  0  0  0  0  0  0  0  0  0  0  0
    7.5634   -2.8637   26.1037 H   0  0  0  0  0  0  0  0  0  0  0  0
   11.0139   -4.2645   23.9419 H   0  0  0  0  0  0  0  0  0  0  0  0
   12.5581    2.1709   21.3123 H   0  0  0  0  0  0  0  0  0  0  0  0
   12.4846    4.7697   21.7069 H   0  0  0  0  0  0  0  0  0  0  0  0
    9.8309    2.6028   24.6876 H   0  0  0  0  0  0  0  0  0  0  0  0
    8.5166   -1.1054   18.4533 H   0  0  0  0  0  0  0  0  0  0  0  0
    7.8644   -7.6283   27.1289 H   0  0  0  0  0  0  0  0  0  0  0  0
    6.2830   -7.2423   26.4478 H   0  0  0  0  0  0  0  0  0  0  0  0
    6.6663   -4.8405   26.7221 H   0  0  0  0  0  0  0  0  0  0  0  0
    7.0062   -5.6400   28.2540 H   0  0  0  0  0  0  0  0  0  0  0  0
    8.0018   -7.8160   24.6962 H   0  0  0  0  0  0  0  0  0  0  0  0
    7.2963   -6.2182   24.4678 H   0  0  0  0  0  0  0  0  0  0  0  0
    8.7322   -3.9404   27.6532 H   0  0  0  0  0  0  0  0  0  0  0  0
    9.4260   -5.5610   27.8283 H   0  0  0  0  0  0  0  0  0  0  0  0
   10.0249   -6.8474   25.7028 H   0  0  0  0  0  0  0  0  0  0  0  0
    9.7015   -6.0700   24.1446 H   0  0  0  0  0  0  0  0  0  0  0  0
   11.5818    0.0409   22.2535 H   0  0  0  0  0  0  0  0  0  0  0  0
   11.3901    0.0742   23.9855 H   0  0  0  0  0  0  0  0  0  0  0  0
    8.9113    0.7342   23.6444 H   0  0  0  0  0  0  0  0  0  0  0  0
    8.1256   -1.8039   21.3539 H   0  0  0  0  0  0  0  0  0  0  0  0
  1  2  1  0  0  0  0
  1  5  2  0  0  0  0
  2  6  2  0  0  0  0
  3  7  2  0  0  0  0
  3 13  1  0  0  0  0
  4  8  1  0  0  0  0
  4 13  2  0  0  0  0
  5 15  1  0  0  0  0
  6 16  1  0  0  0  0
  7 17  1  0  0  0  0
  8 17  2  0  0  0  0
  9 10  2  0  0  0  0
  9 14  1  0  0  0  0
 10 31  1  0  0  0  0
 11 14  2  0  0  0  0
 11 31  1  0  0  0  0
 12 26  2  0  0  0  0
 12 27  1  0  0  0  0
 13 25  1  0  0  0  0
 14 24  1  0  0  0  0
 15 16  2  0  0  0  0
 15 26  1  0  0  0  0
 16 27  1  0  0  0  0
 17 28  1  0  0  0  0
 18 25  1  6  0  0  0
 18 29  1  0  0  0  0
 18 30  2  0  0  0  0
 19 20  1  0  0  0  0
 19 21  1  0  0  0  0
 20 22  1  0  0  0  0
 21 23  1  0  0  0  0
 22 28  1  0  0  0  0
 23 28  1  0  0  0  0
 24 25  1  0  0  0  0
 27 29  1  0  0  0  0
  1 32  1  0  0  0  0
  2 33  1  0  0  0  0
  3 34  1  0  0  0  0
  4 35  1  0  0  0  0
  5 36  1  0  0  0  0
  6 37  1  0  0  0  0
  7 38  1  0  0  0  0
  8 39  1  0  0  0  0
  9 40  1  0  0  0  0
 10 41  1  0  0  0  0
 11 42  1  0  0  0  0
 12 43  1  0  0  0  0
 19 44  1  0  0  0  0
 19 45  1  0  0  0  0
 20 46  1  0  0  0  0
 20 47  1  0  0  0  0
 21 48  1  0  0  0  0
 21 49  1  0  0  0  0
 22 50  1  0  0  0  0
 22 51  1  0  0  0  0
 23 52  1  0  0  0  0
 23 53  1  0  0  0  0
 24 54  1  0  0  0  0
 24 55  1  0  0  0  0
 25 56  1  0  0  0  0
 29 57  1  0  0  0  0
M  END
> <clash_score>
0

> <docking_score>
-9.707823753356934

> <overlap_score>
0.934128999710083

$$$$
BENZO_203_1
  -OEChem-08232013493D

 55 58  0     1  0  0  0  0  0999 V2000
    4.0980    2.1130   19.5350 C   0  0  0  0  0  0  0  0  0  0  0  0
    4.2970    1.6690   20.8430 C   0  0  0  0  0  0  0  0  0  0  0  0
    8.3510   -1.5420   24.6110 C   0  0  0  0  0  0  0  0  0  0  0  0
   10.2760   -2.3270   23.4020 C   0  0  0  0  0  0  0  0  0  0  0  0
    4.9400    1.7060   18.5060 C   0  0  0  0  0  0  0  0  0  0  0  0
    5.3360    0.8000   21.1530 C   0  0  0  0  0  0  0  0  0  0  0  0
    8.3310   -2.7170   25.3430 C   0  0  0  0  0  0  0  0  0  0  0  0
   10.2570   -3.5000   24.1350 C   0  0  0  0  0  0  0  0  0  0  0  0
   10.2645    2.9461   23.5139 C   0  0  0  0  0  0  0  0  0  0  0  0
   12.2295    2.6651   22.5680 C   0  0  0  0  0  0  0  0  0  0  0  0
    7.6830   -0.5170   18.7600 C   0  0  0  0  0  0  0  0  0  0  0  0
    9.3300   -1.3350   23.6390 C   0  0  0  0  0  0  0  0  0  0  0  0
   11.1519    1.9593   23.0443 C   0  0  0  0  0  0  0  0  0  0  0  0
    5.9810    0.8330   18.8060 C   0  0  0  0  0  0  0  0  0  0  0  0
    6.1600    0.3870   20.1140 C   0  0  0  0  0  0  0  0  0  0  0  0
    9.2850   -3.7090   25.1090 C   0  0  0  0  0  0  0  0  0  0  0  0
    8.1529   -5.5454   26.3982 C   0  0  0  0  0  0  0  0  0  0  0  0
    8.9510    0.1280   21.6880 C   0  0  0  0  0  0  0  0  0  0  0  0
    9.2288   -7.8280   26.2038 C   0  0  0  0  0  0  0  0  0  0  0  0
   12.7674    5.1088   22.4339 C   0  0  0  0  0  0  0  0  0  0  0  0
   10.9648    0.4604   23.0619 C   0  0  0  0  0  0  0  0  0  0  0  0
    8.5713   -6.8154   27.1241 C   0  0  0  0  0  0  0  0  0  0  0  0
    9.4200   -0.0840   22.9530 C   0  0  1  0  0  0  0  0  0  0  0  0
   10.7375    4.1845   23.3508 N   0  0  0  0  0  0  0  0  0  0  0  0
    6.9440    0.2550   18.0100 N   0  0  0  0  0  0  0  0  0  0  0  0
   11.9338    3.9806   22.7735 N   0  0  0  0  0  0  0  0  0  0  0  0
    7.2210   -0.4620   20.0350 N   0  0  0  0  0  0  0  0  0  0  0  0
    9.2630   -4.8903   25.8409 N   0  0  0  0  0  0  0  0  0  0  0  0
    8.0810   -0.9750   21.0820 N   0  0  0  0  0  0  0  0  0  0  0  0
    6.9816   -5.1865   26.3378 O   0  0  0  0  0  0  0  0  0  0  0  0
    9.1870    1.1500   21.0630 O   0  0  0  0  0  0  0  0  0  0  0  0
    3.2711    2.7870   19.3201 H   0  0  0  0  0  0  0  0  0  0  0  0
    3.6262    2.0082   21.6284 H   0  0  0  0  0  0  0  0  0  0  0  0
    7.5948   -0.7783   24.7966 H   0  0  0  0  0  0  0  0  0  0  0  0
   11.0389   -2.1844   22.6342 H   0  0  0  0  0  0  0  0  0  0  0  0
    4.7816    2.0660   17.4901 H   0  0  0  0  0  0  0  0  0  0  0  0
    5.4934    0.4579   22.1787 H   0  0  0  0  0  0  0  0  0  0  0  0
    7.5642   -2.8624   26.1050 H   0  0  0  0  0  0  0  0  0  0  0  0
   11.0137   -4.2649   23.9418 H   0  0  0  0  0  0  0  0  0  0  0  0
    9.2929    2.8169   23.9694 H   0  0  0  0  0  0  0  0  0  0  0  0
   13.1591    2.3512   22.1127 H   0  0  0  0  0  0  0  0  0  0  0  0
    8.5166   -1.1054   18.4533 H   0  0  0  0  0  0  0  0  0  0  0  0
    8.5538   -8.1177   25.3917 H   0  0  0  0  0  0  0  0  0  0  0  0
    9.4999   -8.7299   26.7612 H   0  0  0  0  0  0  0  0  0  0  0  0
   10.1387   -7.4176   25.7537 H   0  0  0  0  0  0  0  0  0  0  0  0
   12.5169    5.4190   21.4160 H   0  0  0  0  0  0  0  0  0  0  0  0
   12.5816    5.9241   23.1387 H   0  0  0  0  0  0  0  0  0  0  0  0
   13.8185    4.8135   22.4971 H   0  0  0  0  0  0  0  0  0  0  0  0
   11.5732    0.0341   22.2521 H   0  0  0  0  0  0  0  0  0  0  0  0
   11.3908    0.0462   23.9854 H   0  0  0  0  0  0  0  0  0  0  0  0
    9.2678   -6.5440   27.9258 H   0  0  0  0  0  0  0  0  0  0  0  0
    7.6821   -7.2621   27.5836 H   0  0  0  0  0  0  0  0  0  0  0  0
    8.9107    0.7231   23.6509 H   0  0  0  0  0  0  0  0  0  0  0  0
   10.1693   -5.3469   25.9962 H   0  0  0  0  0  0  0  0  0  0  0  0
    8.1515   -1.8050   21.3815 H   0  0  0  0  0  0  0  0  0  0  0  0
  1  2  1  0  0  0  0
  1  5  2  0  0  0  0
  2  6  2  0  0  0  0
  3  7  2  0  0  0  0
  3 12  1  0  0  0  0
  4  8  1  0  0  0  0
  4 12  2  0  0  0  0
  5 14  1  0  0  0  0
  6 15  1  0  0  0  0
  7 16  1  0  0  0  0
  8 16  2  0  0  0  0
  9 13  1  0  0  0  0
  9 24  2  0  0  0  0
 10 13  2  0  0  0  0
 10 26  1  0  0  0  0
 11 25  2  0  0  0  0
 11 27  1  0  0  0  0
 12 23  1  0  0  0  0
 13 21  1  0  0  0  0
 14 15  2  0  0  0  0
 14 25  1  0  0  0  0
 15 27  1  0  0  0  0
 16 28  1  0  0  0  0
 17 22  1  0  0  0  0
 17 28  1  0  0  0  0
 17 30  2  0  0  0  0
 18 23  1  0  0  0  0
 18 29  1  0  0  0  0
 18 31  2  0  0  0  0
 19 22  1  0  0  0  0
 20 26  1  0  0  0  0
 21 23  1  1  0  0  0
 24 26  1  0  0  0  0
 27 29  1  0  0  0  0
  1 32  1  0  0  0  0
  2 33  1  0  0  0  0
  3 34  1  0  0  0  0
  4 35  1  0  0  0  0
  5 36  1  0  0  0  0
  6 37  1  0  0  0  0
  7 38  1  0  0  0  0
  8 39  1  0  0  0  0
  9 40  1  0  0  0  0
 10 41  1  0  0  0  0
 11 42  1  0  0  0  0
 19 43  1  0  0  0  0
 19 44  1  0  0  0  0
 19 45  1  0  0  0  0
 20 46  1  0  0  0  0
 20 47  1  0  0  0  0
 20 48  1  0  0  0  0
 21 49  1  0  0  0  0
 21 50  1  0  0  0  0
 22 51  1  0  0  0  0
 22 52  1  0  0  0  0
 23 53  1  0  0  0  0
 28 54  1  0  0  0  0
 29 55  1  0  0  0  0
M  END
> <clash_score>
1.235860544468684

> <docking_score>
-10.275920867919922

> <overlap_score>
0.9334820508956909

$$$$
BENZO_209_1
  -OEChem-08232013493D

 48 51  0     1  0  0  0  0  0999 V2000
   11.4961    4.7275   23.0120 C   0  0  0  0  0  0  0  0  0  0  0  0
   12.4919    3.8949   22.5015 C   0  0  0  0  0  0  0  0  0  0  0  0
   10.3281    4.1760   23.5388 C   0  0  0  0  0  0  0  0  0  0  0  0
    4.0980    2.1130   19.5350 C   0  0  0  0  0  0  0  0  0  0  0  0
    4.2970    1.6690   20.8430 C   0  0  0  0  0  0  0  0  0  0  0  0
   12.3199    2.5108   22.5177 C   0  0  0  0  0  0  0  0  0  0  0  0
   10.1560    2.7919   23.5549 C   0  0  0  0  0  0  0  0  0  0  0  0
    8.3310   -2.7170   25.3430 C   0  0  0  0  0  0  0  0  0  0  0  0
   10.2570   -3.5000   24.1350 C   0  0  0  0  0  0  0  0  0  0  0  0
    8.3510   -1.5420   24.6110 C   0  0  0  0  0  0  0  0  0  0  0  0
   10.2760   -2.3270   23.4020 C   0  0  0  0  0  0  0  0  0  0  0  0
    4.9400    1.7060   18.5060 C   0  0  0  0  0  0  0  0  0  0  0  0
    5.3360    0.8000   21.1530 C   0  0  0  0  0  0  0  0  0  0  0  0
    7.6830   -0.5170   18.7600 C   0  0  0  0  0  0  0  0  0  0  0  0
    9.2850   -3.7090   25.1090 C   0  0  0  0  0  0  0  0  0  0  0  0
   11.1519    1.9593   23.0443 C   0  0  0  0  0  0  0  0  0  0  0  0
    9.3300   -1.3350   23.6390 C   0  0  0  0  0  0  0  0  0  0  0  0
    5.9810    0.8330   18.8060 C   0  0  0  0  0  0  0  0  0  0  0  0
    6.1600    0.3870   20.1140 C   0  0  0  0  0  0  0  0  0  0  0  0
    8.9510    0.1280   21.6880 C   0  0  0  0  0  0  0  0  0  0  0  0
    9.2618   -4.9724   25.8910 C   0  0  0  0  0  0  0  0  0  0  0  0
   10.9648    0.4604   23.0619 C   0  0  0  0  0  0  0  0  0  0  0  0
    9.4200   -0.0840   22.9530 C   0  0  1  0  0  0  0  0  0  0  0  0
    6.9440    0.2550   18.0100 N   0  0  0  0  0  0  0  0  0  0  0  0
    7.2210   -0.4620   20.0350 N   0  0  0  0  0  0  0  0  0  0  0  0
    8.0810   -0.9750   21.0820 N   0  0  0  0  0  0  0  0  0  0  0  0
    9.1870    1.1500   21.0630 O   0  0  0  0  0  0  0  0  0  0  0  0
   11.6308    5.8052   23.0007 H   0  0  0  0  0  0  0  0  0  0  0  0
   13.4019    4.3242   22.0924 H   0  0  0  0  0  0  0  0  0  0  0  0
    9.5530    4.8238   23.9373 H   0  0  0  0  0  0  0  0  0  0  0  0
    3.2711    2.7870   19.3201 H   0  0  0  0  0  0  0  0  0  0  0  0
    3.6262    2.0082   21.6284 H   0  0  0  0  0  0  0  0  0  0  0  0
   13.1011    1.8699   22.1175 H   0  0  0  0  0  0  0  0  0  0  0  0
    9.2427    2.3711   23.9671 H   0  0  0  0  0  0  0  0  0  0  0  0
    7.5655   -2.8644   26.1055 H   0  0  0  0  0  0  0  0  0  0  0  0
   11.0125   -4.2662   23.9435 H   0  0  0  0  0  0  0  0  0  0  0  0
    7.5953   -0.7782   24.7971 H   0  0  0  0  0  0  0  0  0  0  0  0
   11.0394   -2.1837   22.6349 H   0  0  0  0  0  0  0  0  0  0  0  0
    4.7816    2.0660   17.4901 H   0  0  0  0  0  0  0  0  0  0  0  0
    5.4934    0.4579   22.1787 H   0  0  0  0  0  0  0  0  0  0  0  0
    8.5166   -1.1054   18.4533 H   0  0  0  0  0  0  0  0  0  0  0  0
    8.6408   -5.7227   25.3864 H   0  0  0  0  0  0  0  0  0  0  0  0
   10.2726   -5.3829   26.0135 H   0  0  0  0  0  0  0  0  0  0  0  0
    8.8606   -4.8102   26.9000 H   0  0  0  0  0  0  0  0  0  0  0  0
   11.5732    0.0341   22.2521 H   0  0  0  0  0  0  0  0  0  0  0  0
   11.3908    0.0462   23.9854 H   0  0  0  0  0  0  0  0  0  0  0  0
    8.9107    0.7231   23.6509 H   0  0  0  0  0  0  0  0  0  0  0  0
    8.1515   -1.8050   21.3815 H   0  0  0  0  0  0  0  0  0  0  0  0
  1  2  1  0  0  0  0
  1  3  2  0  0  0  0
  2  6  2  0  0  0  0
  3  7  1  0  0  0  0
  4  5  1  0  0  0  0
  4 12  2  0  0  0  0
  5 13  2  0  0  0  0
  6 16  1  0  0  0  0
  7 16  2  0  0  0  0
  8 10  2  0  0  0  0
  8 15  1  0  0  0  0
  9 11  1  0  0  0  0
  9 15  2  0  0  0  0
 10 17  1  0  0  0  0
 11 17  2  0  0  0  0
 12 18  1  0  0  0  0
 13 19  1  0  0  0  0
 14 24  2  0  0  0  0
 14 25  1  0  0  0  0
 15 21  1  0  0  0  0
 16 22  1  0  0  0  0
 17 23  1  0  0  0  0
 18 19  2  0  0  0  0
 18 24  1  0  0  0  0
 19 25  1  0  0  0  0
 20 23  1  0  0  0  0
 20 26  1  0  0  0  0
 20 27  2  0  0  0  0
 22 23  1  1  0  0  0
 25 26  1  0  0  0  0
  1 28  1  0  0  0  0
  2 29  1  0  0  0  0
  3 30  1  0  0  0  0
  4 31  1  0  0  0  0
  5 32  1  0  0  0  0
  6 33  1  0  0  0  0
  7 34  1  0  0  0  0
  8 35  1  0  0  0  0
  9 36  1  0  0  0  0
 10 37  1  0  0  0  0
 11 38  1  0  0  0  0
 12 39  1  0  0  0  0
 13 40  1  0  0  0  0
 14 41  1  0  0  0  0
 21 42  1  0  0  0  0
 21 43  1  0  0  0  0
 21 44  1  0  0  0  0
 22 45  1  0  0  0  0
 22 46  1  0  0  0  0
 23 47  1  0  0  0  0
 26 48  1  0  0  0  0
M  END
> <clash_score>
0

> <docking_score>
-11.914361000061035

> <overlap_score>
0.9011747241020203

$$$$
BENZO_209_2
  -OEChem-08232013493D

 48 51  0     1  0  0  0  0  0999 V2000
   10.7871    4.8449   23.0864 C   0  0  0  0  0  0  0  0  0  0  0  0
    9.4814    4.8291   23.5768 C   0  0  0  0  0  0  0  0  0  0  0  0
   11.4667    3.6455   22.8734 C   0  0  0  0  0  0  0  0  0  0  0  0
    4.0980    2.1130   19.5350 C   0  0  0  0  0  0  0  0  0  0  0  0
    4.2970    1.6690   20.8430 C   0  0  0  0  0  0  0  0  0  0  0  0
    8.8554    3.6139   23.8543 C   0  0  0  0  0  0  0  0  0  0  0  0
   10.8407    2.4304   23.1510 C   0  0  0  0  0  0  0  0  0  0  0  0
    8.3310   -2.7170   25.3430 C   0  0  0  0  0  0  0  0  0  0  0  0
   10.2570   -3.5000   24.1350 C   0  0  0  0  0  0  0  0  0  0  0  0
    8.3510   -1.5420   24.6110 C   0  0  0  0  0  0  0  0  0  0  0  0
   10.2760   -2.3270   23.4020 C   0  0  0  0  0  0  0  0  0  0  0  0
    4.9400    1.7060   18.5060 C   0  0  0  0  0  0  0  0  0  0  0  0
    5.3360    0.8000   21.1530 C   0  0  0  0  0  0  0  0  0  0  0  0
    7.6830   -0.5170   18.7600 C   0  0  0  0  0  0  0  0  0  0  0  0
    9.2850   -3.7090   25.1090 C   0  0  0  0  0  0  0  0  0  0  0  0
    9.5350    2.4145   23.6414 C   0  0  0  0  0  0  0  0  0  0  0  0
    9.3300   -1.3350   23.6390 C   0  0  0  0  0  0  0  0  0  0  0  0
    5.9810    0.8330   18.8060 C   0  0  0  0  0  0  0  0  0  0  0  0
    6.1600    0.3870   20.1140 C   0  0  0  0  0  0  0  0  0  0  0  0
    8.9510    0.1280   21.6880 C   0  0  0  0  0  0  0  0  0  0  0  0
    9.2618   -4.9724   25.8910 C   0  0  0  0  0  0  0  0  0  0  0  0
    8.8577    1.0982   23.9421 C   0  0  0  0  0  0  0  0  0  0  0  0
    9.4200   -0.0840   22.9530 C   0  0  2  0  0  0  0  0  0  0  0  0
    6.9440    0.2550   18.0100 N   0  0  0  0  0  0  0  0  0  0  0  0
    7.2210   -0.4620   20.0350 N   0  0  0  0  0  0  0  0  0  0  0  0
    8.0810   -0.9750   21.0820 N   0  0  0  0  0  0  0  0  0  0  0  0
    9.1870    1.1500   21.0630 O   0  0  0  0  0  0  0  0  0  0  0  0
   11.2739    5.7912   22.8690 H   0  0  0  0  0  0  0  0  0  0  0  0
    8.9517    5.7628   23.7416 H   0  0  0  0  0  0  0  0  0  0  0  0
   12.4829    3.6575   22.4905 H   0  0  0  0  0  0  0  0  0  0  0  0
    3.2711    2.7870   19.3201 H   0  0  0  0  0  0  0  0  0  0  0  0
    3.6262    2.0082   21.6284 H   0  0  0  0  0  0  0  0  0  0  0  0
    7.8379    3.6112   24.2364 H   0  0  0  0  0  0  0  0  0  0  0  0
   11.3780    1.5009   22.9821 H   0  0  0  0  0  0  0  0  0  0  0  0
    7.5655   -2.8644   26.1055 H   0  0  0  0  0  0  0  0  0  0  0  0
   11.0125   -4.2662   23.9435 H   0  0  0  0  0  0  0  0  0  0  0  0
    7.5953   -0.7782   24.7971 H   0  0  0  0  0  0  0  0  0  0  0  0
   11.0394   -2.1837   22.6349 H   0  0  0  0  0  0  0  0  0  0  0  0
    4.7816    2.0660   17.4901 H   0  0  0  0  0  0  0  0  0  0  0  0
    5.4934    0.4579   22.1787 H   0  0  0  0  0  0  0  0  0  0  0  0
    8.5166   -1.1054   18.4533 H   0  0  0  0  0  0  0  0  0  0  0  0
    8.6408   -5.7227   25.3864 H   0  0  0  0  0  0  0  0  0  0  0  0
   10.2726   -5.3829   26.0135 H   0  0  0  0  0  0  0  0  0  0  0  0
    8.8606   -4.8102   26.9000 H   0  0  0  0  0  0  0  0  0  0  0  0
    8.9995    0.8809   25.0099 H   0  0  0  0  0  0  0  0  0  0  0  0
    7.7720    1.2044   23.8156 H   0  0  0  0  0  0  0  0  0  0  0  0
   10.5616    0.2233   22.9565 H   0  0  0  0  0  0  0  0  0  0  0  0
    8.1515   -1.8050   21.3815 H   0  0  0  0  0  0  0  0  0  0  0  0
  1  2  1  0  0  0  0
  1  3  2  0  0  0  0
  2  6  2  0  0  0  0
  3  7  1  0  0  0  0
  4  5  1  0  0  0  0
  4 12  2  0  0  0  0
  5 13  2  0  0  0  0
  6 16  1  0  0  0  0
  7 16  2  0  0  0  0
  8 10  2  0  0  0  0
  8 15  1  0  0  0  0
  9 11  1  0  0  0  0
  9 15  2  0  0  0  0
 10 17  1  0  0  0  0
 11 17  2  0  0  0  0
 12 18  1  0  0  0  0
 13 19  1  0  0  0  0
 14 24  2  0  0  0  0
 14 25  1  0  0  0  0
 15 21  1  0  0  0  0
 16 22  1  0  0  0  0
 17 23  1  0  0  0  0
 18 19  2  0  0  0  0
 18 24  1  0  0  0  0
 19 25  1  0  0  0  0
 20 23  1  0  0  0  0
 20 26  1  0  0  0  0
 20 27  2  0  0  0  0
 22 23  1  6  0  0  0
 25 26  1  0  0  0  0
  1 28  1  0  0  0  0
  2 29  1  0  0  0  0
  3 30  1  0  0  0  0
  4 31  1  0  0  0  0
  5 32  1  0  0  0  0
  6 33  1  0  0  0  0
  7 34  1  0  0  0  0
  8 35  1  0  0  0  0
  9 36  1  0  0  0  0
 10 37  1  0  0  0  0
 11 38  1  0  0  0  0
 12 39  1  0  0  0  0
 13 40  1  0  0  0  0
 14 41  1  0  0  0  0
 21 42  1  0  0  0  0
 21 43  1  0  0  0  0
 21 44  1  0  0  0  0
 22 45  1  0  0  0  0
 22 46  1  0  0  0  0
 23 47  1  0  0  0  0
 26 48  1  0  0  0  0
M  END
> <clash_score>
0

> <docking_score>
-10.476737022399902

> <overlap_score>
0.8391150236129761

$$$$
BENZO_208_1
  -OEChem-08232013493D

 45 48  0     1  0  0  0  0  0999 V2000
    4.0980    2.1130   19.5350 C   0  0  0  0  0  0  0  0  0  0  0  0
    4.2970    1.6690   20.8430 C   0  0  0  0  0  0  0  0  0  0  0  0
    8.3310   -2.7170   25.3430 C   0  0  0  0  0  0  0  0  0  0  0  0
   10.2570   -3.5000   24.1350 C   0  0  0  0  0  0  0  0  0  0  0  0
    8.3510   -1.5420   24.6110 C   0  0  0  0  0  0  0  0  0  0  0  0
   10.2760   -2.3270   23.4020 C   0  0  0  0  0  0  0  0  0  0  0  0
    4.9400    1.7060   18.5060 C   0  0  0  0  0  0  0  0  0  0  0  0
    5.3360    0.8000   21.1530 C   0  0  0  0  0  0  0  0  0  0  0  0
   11.9859    2.6451   22.1146 C   0  0  0  0  0  0  0  0  0  0  0  0
   11.9778    4.0073   22.3192 C   0  0  0  0  0  0  0  0  0  0  0  0
   10.5383    2.8236   23.9243 C   0  0  0  0  0  0  0  0  0  0  0  0
    7.6830   -0.5170   18.7600 C   0  0  0  0  0  0  0  0  0  0  0  0
    9.2850   -3.7090   25.1090 C   0  0  0  0  0  0  0  0  0  0  0  0
    9.3300   -1.3350   23.6390 C   0  0  0  0  0  0  0  0  0  0  0  0
   11.1519    1.9593   23.0443 C   0  0  0  0  0  0  0  0  0  0  0  0
    5.9810    0.8330   18.8060 C   0  0  0  0  0  0  0  0  0  0  0  0
    6.1600    0.3870   20.1140 C   0  0  0  0  0  0  0  0  0  0  0  0
    8.9510    0.1280   21.6880 C   0  0  0  0  0  0  0  0  0  0  0  0
    9.2618   -4.9724   25.8910 C   0  0  0  0  0  0  0  0  0  0  0  0
   10.9648    0.4604   23.0619 C   0  0  0  0  0  0  0  0  0  0  0  0
    9.4200   -0.0840   22.9530 C   0  0  1  0  0  0  0  0  0  0  0  0
    6.9440    0.2550   18.0100 N   0  0  0  0  0  0  0  0  0  0  0  0
    7.2210   -0.4620   20.0350 N   0  0  0  0  0  0  0  0  0  0  0  0
    8.0810   -0.9750   21.0820 N   0  0  0  0  0  0  0  0  0  0  0  0
    9.1870    1.1500   21.0630 O   0  0  0  0  0  0  0  0  0  0  0  0
   10.9679    4.4545   23.6278 S   0  0  0  0  0  0  0  0  0  0  0  0
    3.2711    2.7870   19.3201 H   0  0  0  0  0  0  0  0  0  0  0  0
    3.6262    2.0082   21.6284 H   0  0  0  0  0  0  0  0  0  0  0  0
    7.5655   -2.8644   26.1055 H   0  0  0  0  0  0  0  0  0  0  0  0
   11.0125   -4.2662   23.9435 H   0  0  0  0  0  0  0  0  0  0  0  0
    7.5953   -0.7782   24.7971 H   0  0  0  0  0  0  0  0  0  0  0  0
   11.0394   -2.1837   22.6349 H   0  0  0  0  0  0  0  0  0  0  0  0
    4.7816    2.0660   17.4901 H   0  0  0  0  0  0  0  0  0  0  0  0
    5.4934    0.4579   22.1787 H   0  0  0  0  0  0  0  0  0  0  0  0
   12.5644    2.1673   21.3341 H   0  0  0  0  0  0  0  0  0  0  0  0
   12.5171    4.7612   21.7634 H   0  0  0  0  0  0  0  0  0  0  0  0
    9.8588    2.5795   24.7291 H   0  0  0  0  0  0  0  0  0  0  0  0
    8.5166   -1.1054   18.4533 H   0  0  0  0  0  0  0  0  0  0  0  0
    8.6408   -5.7227   25.3864 H   0  0  0  0  0  0  0  0  0  0  0  0
   10.2726   -5.3829   26.0135 H   0  0  0  0  0  0  0  0  0  0  0  0
    8.8606   -4.8102   26.9000 H   0  0  0  0  0  0  0  0  0  0  0  0
   11.5732    0.0341   22.2521 H   0  0  0  0  0  0  0  0  0  0  0  0
   11.3908    0.0462   23.9854 H   0  0  0  0  0  0  0  0  0  0  0  0
    8.9107    0.7231   23.6509 H   0  0  0  0  0  0  0  0  0  0  0  0
    8.1515   -1.8050   21.3815 H   0  0  0  0  0  0  0  0  0  0  0  0
  1  2  1  0  0  0  0
  1  7  2  0  0  0  0
  2  8  2  0  0  0  0
  3  5  2  0  0  0  0
  3 13  1  0  0  0  0
  4  6  1  0  0  0  0
  4 13  2  0  0  0  0
  5 14  1  0  0  0  0
  6 14  2  0  0  0  0
  7 16  1  0  0  0  0
  8 17  1  0  0  0  0
  9 10  2  0  0  0  0
  9 15  1  0  0  0  0
 10 26  1  0  0  0  0
 11 15  2  0  0  0  0
 11 26  1  0  0  0  0
 12 22  2  0  0  0  0
 12 23  1  0  0  0  0
 13 19  1  0  0  0  0
 14 21  1  0  0  0  0
 15 20  1  0  0  0  0
 16 17  2  0  0  0  0
 16 22  1  0  0  0  0
 17 23  1  0  0  0  0
 18 21  1  0  0  0  0
 18 24  1  0  0  0  0
 18 25  2  0  0  0  0
 20 21  1  1  0  0  0
 23 24  1  0  0  0  0
  1 27  1  0  0  0  0
  2 28  1  0  0  0  0
  3 29  1  0  0  0  0
  4 30  1  0  0  0  0
  5 31  1  0  0  0  0
  6 32  1  0  0  0  0
  7 33  1  0  0  0  0
  8 34  1  0  0  0  0
  9 35  1  0  0  0  0
 10 36  1  0  0  0  0
 11 37  1  0  0  0  0
 12 38  1  0  0  0  0
 19 39  1  0  0  0  0
 19 40  1  0  0  0  0
 19 41  1  0  0  0  0
 20 42  1  0  0  0  0
 20 43  1  0  0  0  0
 21 44  1  0  0  0  0
 24 45  1  0  0  0  0
M  END
> <clash_score>
0

> <docking_score>
-10.73764419555664

> <overlap_score>
0.8909391760826111

$$$$
BENZO_206_1
  -OEChem-08232013493D

 60 64  0     1  0  0  0  0  0999 V2000
    4.0980    2.1130   19.5350 C   0  0  0  0  0  0  0  0  0  0  0  0
    4.2970    1.6690   20.8430 C   0  0  0  0  0  0  0  0  0  0  0  0
   11.3400    3.9813   23.9268 C   0  0  0  0  0  0  0  0  0  0  0  0
   10.7114    2.7759   24.2387 C   0  0  0  0  0  0  0  0  0  0  0  0
    8.3510   -1.5420   24.6110 C   0  0  0  0  0  0  0  0  0  0  0  0
   10.2760   -2.3270   23.4020 C   0  0  0  0  0  0  0  0  0  0  0  0
    4.9400    1.7060   18.5060 C   0  0  0  0  0  0  0  0  0  0  0  0
    5.3360    0.8000   21.1530 C   0  0  0  0  0  0  0  0  0  0  0  0
    8.3310   -2.7170   25.3430 C   0  0  0  0  0  0  0  0  0  0  0  0
   10.2570   -3.5000   24.1350 C   0  0  0  0  0  0  0  0  0  0  0  0
   10.7872    4.8281   22.9660 C   0  0  0  0  0  0  0  0  0  0  0  0
    8.9772    3.2637   22.6289 C   0  0  0  0  0  0  0  0  0  0  0  0
    7.6830   -0.5170   18.7600 C   0  0  0  0  0  0  0  0  0  0  0  0
    9.3300   -1.3350   23.6390 C   0  0  0  0  0  0  0  0  0  0  0  0
    9.5300    2.4170   23.5897 C   0  0  0  0  0  0  0  0  0  0  0  0
    5.9810    0.8330   18.8060 C   0  0  0  0  0  0  0  0  0  0  0  0
    6.1600    0.3870   20.1140 C   0  0  0  0  0  0  0  0  0  0  0  0
    9.2850   -3.7090   25.1090 C   0  0  0  0  0  0  0  0  0  0  0  0
    9.6058    4.4692   22.3170 C   0  0  0  0  0  0  0  0  0  0  0  0
    8.9510    0.1280   21.6880 C   0  0  0  0  0  0  0  0  0  0  0  0
    7.3211   -6.8875   26.5227 C   0  0  0  0  0  0  0  0  0  0  0  0
    7.3523   -5.5278   27.2244 C   0  0  0  0  0  0  0  0  0  0  0  0
    7.9422   -6.8107   25.1261 C   0  0  0  0  0  0  0  0  0  0  0  0
    8.7641   -4.9418   27.2163 C   0  0  0  0  0  0  0  0  0  0  0  0
    9.3411   -6.1879   25.1670 C   0  0  0  0  0  0  0  0  0  0  0  0
    8.8504    1.1108   23.9271 C   0  0  0  0  0  0  0  0  0  0  0  0
    9.4200   -0.0840   22.9530 C   0  0  1  0  0  0  0  0  0  0  0  0
    6.9440    0.2550   18.0100 N   0  0  0  0  0  0  0  0  0  0  0  0
    7.2210   -0.4620   20.0350 N   0  0  0  0  0  0  0  0  0  0  0  0
    9.2641   -4.8861   25.8398 N   0  0  0  0  0  0  0  0  0  0  0  0
    8.0810   -0.9750   21.0820 N   0  0  0  0  0  0  0  0  0  0  0  0
    9.1870    1.1500   21.0630 O   0  0  0  0  0  0  0  0  0  0  0  0
    8.9248    5.5138   21.1309 Cl  0  0  0  0  0  0  0  0  0  0  0  0
    3.2711    2.7870   19.3201 H   0  0  0  0  0  0  0  0  0  0  0  0
    3.6263    2.0082   21.6285 H   0  0  0  0  0  0  0  0  0  0  0  0
   12.2600    4.2603   24.4323 H   0  0  0  0  0  0  0  0  0  0  0  0
   11.1493    2.1222   24.9886 H   0  0  0  0  0  0  0  0  0  0  0  0
    7.5957   -0.7779   24.7973 H   0  0  0  0  0  0  0  0  0  0  0  0
   11.0384   -2.1852   22.6338 H   0  0  0  0  0  0  0  0  0  0  0  0
    4.7816    2.0660   17.4901 H   0  0  0  0  0  0  0  0  0  0  0  0
    5.4934    0.4579   22.1787 H   0  0  0  0  0  0  0  0  0  0  0  0
    7.5634   -2.8637   26.1037 H   0  0  0  0  0  0  0  0  0  0  0  0
   11.0139   -4.2645   23.9419 H   0  0  0  0  0  0  0  0  0  0  0  0
   11.2882    5.7644   22.7329 H   0  0  0  0  0  0  0  0  0  0  0  0
    8.0556    2.9797   22.1261 H   0  0  0  0  0  0  0  0  0  0  0  0
    8.5166   -1.1054   18.4533 H   0  0  0  0  0  0  0  0  0  0  0  0
    7.8644   -7.6283   27.1289 H   0  0  0  0  0  0  0  0  0  0  0  0
    6.2830   -7.2423   26.4478 H   0  0  0  0  0  0  0  0  0  0  0  0
    6.6663   -4.8405   26.7221 H   0  0  0  0  0  0  0  0  0  0  0  0
    7.0062   -5.6400   28.2540 H   0  0  0  0  0  0  0  0  0  0  0  0
    8.0018   -7.8160   24.6962 H   0  0  0  0  0  0  0  0  0  0  0  0
    7.2963   -6.2182   24.4678 H   0  0  0  0  0  0  0  0  0  0  0  0
    8.7322   -3.9404   27.6532 H   0  0  0  0  0  0  0  0  0  0  0  0
    9.4260   -5.5610   27.8283 H   0  0  0  0  0  0  0  0  0  0  0  0
   10.0249   -6.8474   25.7028 H   0  0  0  0  0  0  0  0  0  0  0  0
    9.7015   -6.0700   24.1446 H   0  0  0  0  0  0  0  0  0  0  0  0
    8.9922    0.9231   25.0006 H   0  0  0  0  0  0  0  0  0  0  0  0
    7.7650    1.2154   23.7980 H   0  0  0  0  0  0  0  0  0  0  0  0
   10.5617    0.2354   22.9523 H   0  0  0  0  0  0  0  0  0  0  0  0
    8.1256   -1.8039   21.3539 H   0  0  0  0  0  0  0  0  0  0  0  0
  1  2  1  0  0  0  0
  1  7  2  0  0  0  0
  2  8  2  0  0  0  0
  3  4  2  0  0  0  0
  3 11  1  0  0  0  0
  4 15  1  0  0  0  0
  5  9  2  0  0  0  0
  5 14  1  0  0  0  0
  6 10  1  0  0  0  0
  6 14  2  0  0  0  0
  7 16  1  0  0  0  0
  8 17  1  0  0  0  0
  9 18  1  0  0  0  0
 10 18  2  0  0  0  0
 11 19  2  0  0  0  0
 12 15  2  0  0  0  0
 12 19  1  0  0  0  0
 13 28  2  0  0  0  0
 13 29  1  0  0  0  0
 14 27  1  0  0  0  0
 15 26  1  0  0  0  0
 16 17  2  0  0  0  0
 16 28  1  0  0  0  0
 17 29  1  0  0  0  0
 18 30  1  0  0  0  0
 19 33  1  0  0  0  0
 20 27  1  1  0  0  0
 20 31  1  0  0  0  0
 20 32  2  0  0  0  0
 21 22  1  0  0  0  0
 21 23  1  0  0  0  0
 22 24  1  0  0  0  0
 23 25  1  0  0  0  0
 24 30  1  0  0  0  0
 25 30  1  0  0  0  0
 26 27  1  0  0  0  0
 29 31  1  0  0  0  0
  1 34  1  0  0  0  0
  2 35  1  0  0  0  0
  3 36  1  0  0  0  0
  4 37  1  0  0  0  0
  5 38  1  0  0  0  0
  6 39  1  0  0  0  0
  7 40  1  0  0  0  0
  8 41  1  0  0  0  0
  9 42  1  0  0  0  0
 10 43  1  0  0  0  0
 11 44  1  0  0  0  0
 12 45  1  0  0  0  0
 13 46  1  0  0  0  0
 21 47  1  0  0  0  0
 21 48  1  0  0  0  0
 22 49  1  0  0  0  0
 22 50  1  0  0  0  0
 23 51  1  0  0  0  0
 23 52  1  0  0  0  0
 24 53  1  0  0  0  0
 24 54  1  0  0  0  0
 25 55  1  0  0  0  0
 25 56  1  0  0  0  0
 26 57  1  0  0  0  0
 26 58  1  0  0  0  0
 27 59  1  0  0  0  0
 31 60  1  0  0  0  0
M  END
> <clash_score>
0.6943726714606115

> <docking_score>
-6.646024227142334

> <overlap_score>
0.8649634718894958

$$$$
BENZO_208_2
  -OEChem-08232013493D

 45 48  0     1  0  0  0  0  0999 V2000
    4.0980    2.1130   19.5350 C   0  0  0  0  0  0  0  0  0  0  0  0
    4.2970    1.6690   20.8430 C   0  0  0  0  0  0  0  0  0  0  0  0
    8.3310   -2.7170   25.3430 C   0  0  0  0  0  0  0  0  0  0  0  0
   10.2570   -3.5000   24.1350 C   0  0  0  0  0  0  0  0  0  0  0  0
    8.3510   -1.5420   24.6110 C   0  0  0  0  0  0  0  0  0  0  0  0
   10.2760   -2.3270   23.4020 C   0  0  0  0  0  0  0  0  0  0  0  0
    4.9400    1.7060   18.5060 C   0  0  0  0  0  0  0  0  0  0  0  0
    5.3360    0.8000   21.1530 C   0  0  0  0  0  0  0  0  0  0  0  0
   10.8949    2.5334   23.2333 C   0  0  0  0  0  0  0  0  0  0  0  0
   11.2600    3.8452   23.0253 C   0  0  0  0  0  0  0  0  0  0  0  0
    8.9125    3.6403   23.7301 C   0  0  0  0  0  0  0  0  0  0  0  0
    7.6830   -0.5170   18.7600 C   0  0  0  0  0  0  0  0  0  0  0  0
    9.2850   -3.7090   25.1090 C   0  0  0  0  0  0  0  0  0  0  0  0
    9.3300   -1.3350   23.6390 C   0  0  0  0  0  0  0  0  0  0  0  0
    9.5350    2.4145   23.6414 C   0  0  0  0  0  0  0  0  0  0  0  0
    5.9810    0.8330   18.8060 C   0  0  0  0  0  0  0  0  0  0  0  0
    6.1600    0.3870   20.1140 C   0  0  0  0  0  0  0  0  0  0  0  0
    8.9510    0.1280   21.6880 C   0  0  0  0  0  0  0  0  0  0  0  0
    9.2618   -4.9724   25.8910 C   0  0  0  0  0  0  0  0  0  0  0  0
    8.8577    1.0982   23.9421 C   0  0  0  0  0  0  0  0  0  0  0  0
    9.4200   -0.0840   22.9530 C   0  0  2  0  0  0  0  0  0  0  0  0
    6.9440    0.2550   18.0100 N   0  0  0  0  0  0  0  0  0  0  0  0
    7.2210   -0.4620   20.0350 N   0  0  0  0  0  0  0  0  0  0  0  0
    8.0810   -0.9750   21.0820 N   0  0  0  0  0  0  0  0  0  0  0  0
    9.1870    1.1500   21.0630 O   0  0  0  0  0  0  0  0  0  0  0  0
    9.9661    4.9270   23.3220 S   0  0  0  0  0  0  0  0  0  0  0  0
    3.2711    2.7870   19.3201 H   0  0  0  0  0  0  0  0  0  0  0  0
    3.6262    2.0082   21.6284 H   0  0  0  0  0  0  0  0  0  0  0  0
    7.5655   -2.8644   26.1055 H   0  0  0  0  0  0  0  0  0  0  0  0
   11.0125   -4.2662   23.9435 H   0  0  0  0  0  0  0  0  0  0  0  0
    7.5953   -0.7782   24.7971 H   0  0  0  0  0  0  0  0  0  0  0  0
   11.0394   -2.1837   22.6349 H   0  0  0  0  0  0  0  0  0  0  0  0
    4.7816    2.0660   17.4901 H   0  0  0  0  0  0  0  0  0  0  0  0
    5.4934    0.4579   22.1787 H   0  0  0  0  0  0  0  0  0  0  0  0
   11.5746    1.7015   23.0982 H   0  0  0  0  0  0  0  0  0  0  0  0
   12.2247    4.2203   22.7141 H   0  0  0  0  0  0  0  0  0  0  0  0
    7.8902    3.8463   24.0157 H   0  0  0  0  0  0  0  0  0  0  0  0
    8.5166   -1.1054   18.4533 H   0  0  0  0  0  0  0  0  0  0  0  0
    8.6408   -5.7227   25.3864 H   0  0  0  0  0  0  0  0  0  0  0  0
   10.2726   -5.3829   26.0135 H   0  0  0  0  0  0  0  0  0  0  0  0
    8.8606   -4.8102   26.9000 H   0  0  0  0  0  0  0  0  0  0  0  0
    8.9995    0.8809   25.0099 H   0  0  0  0  0  0  0  0  0  0  0  0
    7.7720    1.2044   23.8156 H   0  0  0  0  0  0  0  0  0  0  0  0
   10.5616    0.2233   22.9565 H   0  0  0  0  0  0  0  0  0  0  0  0
    8.1515   -1.8050   21.3815 H   0  0  0  0  0  0  0  0  0  0  0  0
  1  2  1  0  0  0  0
  1  7  2  0  0  0  0
  2  8  2  0  0  0  0
  3  5  2  0  0  0  0
  3 13  1  0  0  0  0
  4  6  1  0  0  0  0
  4 13  2  0  0  0  0
  5 14  1  0  0  0  0
  6 14  2  0  0  0  0
  7 16  1  0  0  0  0
  8 17  1  0  0  0  0
  9 10  2  0  0  0  0
  9 15  1  0  0  0  0
 10 26  1  0  0  0  0
 11 15  2  0  0  0  0
 11 26  1  0  0  0  0
 12 22  2  0  0  0  0
 12 23  1  0  0  0  0
 13 19  1  0  0  0  0
 14 21  1  0  0  0  0
 15 20  1  0  0  0  0
 16 17  2  0  0  0  0
 16 22  1  0  0  0  0
 17 23  1  0  0  0  0
 18 21  1  0  0  0  0
 18 24  1  0  0  0  0
 18 25  2  0  0  0  0
 20 21  1  6  0  0  0
 23 24  1  0  0  0  0
  1 27  1  0  0  0  0
  2 28  1  0  0  0  0
  3 29  1  0  0  0  0
  4 30  1  0  0  0  0
  5 31  1  0  0  0  0
  6 32  1  0  0  0  0
  7 33  1  0  0  0  0
  8 34  1  0  0  0  0
  9 35  1  0  0  0  0
 10 36  1  0  0  0  0
 11 37  1  0  0  0  0
 12 38  1  0  0  0  0
 19 39  1  0  0  0  0
 19 40  1  0  0  0  0
 19 41  1  0  0  0  0
 20 42  1  0  0  0  0
 20 43  1  0  0  0  0
 21 44  1  0  0  0  0
 24 45  1  0  0  0  0
M  END
> <clash_score>
0

> <docking_score>
-10.217497825622559

> <overlap_score>
0.8355455994606018

$$$$
BENZO_207_2
  -OEChem-08232013493D

 60 64  0     1  0  0  0  0  0999 V2000
    4.0980    2.1130   19.5350 C   0  0  0  0  0  0  0  0  0  0  0  0
    4.2970    1.6690   20.8430 C   0  0  0  0  0  0  0  0  0  0  0  0
    8.3510   -1.5420   24.6110 C   0  0  0  0  0  0  0  0  0  0  0  0
   10.2760   -2.3270   23.4020 C   0  0  0  0  0  0  0  0  0  0  0  0
    4.9400    1.7060   18.5060 C   0  0  0  0  0  0  0  0  0  0  0  0
    5.3360    0.8000   21.1530 C   0  0  0  0  0  0  0  0  0  0  0  0
    8.3310   -2.7170   25.3430 C   0  0  0  0  0  0  0  0  0  0  0  0
   10.2570   -3.5000   24.1350 C   0  0  0  0  0  0  0  0  0  0  0  0
   10.8281    2.6090   23.0800 C   0  0  0  0  0  0  0  0  0  0  0  0
    9.0171    3.6855   23.7096 C   0  0  0  0  0  0  0  0  0  0  0  0
    7.6830   -0.5170   18.7600 C   0  0  0  0  0  0  0  0  0  0  0  0
    9.3300   -1.3350   23.6390 C   0  0  0  0  0  0  0  0  0  0  0  0
    9.5300    2.4170   23.5897 C   0  0  0  0  0  0  0  0  0  0  0  0
    5.9810    0.8330   18.8060 C   0  0  0  0  0  0  0  0  0  0  0  0
    6.1600    0.3870   20.1140 C   0  0  0  0  0  0  0  0  0  0  0  0
    9.2850   -3.7090   25.1090 C   0  0  0  0  0  0  0  0  0  0  0  0
    8.9510    0.1280   21.6880 C   0  0  0  0  0  0  0  0  0  0  0  0
    7.3211   -6.8875   26.5227 C   0  0  0  0  0  0  0  0  0  0  0  0
    7.3523   -5.5278   27.2244 C   0  0  0  0  0  0  0  0  0  0  0  0
    7.9422   -6.8107   25.1261 C   0  0  0  0  0  0  0  0  0  0  0  0
    8.7641   -4.9418   27.2163 C   0  0  0  0  0  0  0  0  0  0  0  0
    9.3411   -6.1879   25.1670 C   0  0  0  0  0  0  0  0  0  0  0  0
    9.9292    5.9676   23.2205 C   0  0  0  0  0  0  0  0  0  0  0  0
    8.8505    1.1108   23.9271 C   0  0  0  0  0  0  0  0  0  0  0  0
    9.4200   -0.0840   22.9530 C   0  0  2  0  0  0  0  0  0  0  0  0
   11.1217    3.8979   22.8890 N   0  0  0  0  0  0  0  0  0  0  0  0
    6.9440    0.2550   18.0100 N   0  0  0  0  0  0  0  0  0  0  0  0
   10.0008    4.5274   23.2807 N   0  0  0  0  0  0  0  0  0  0  0  0
    7.2210   -0.4620   20.0350 N   0  0  0  0  0  0  0  0  0  0  0  0
    9.2641   -4.8861   25.8398 N   0  0  0  0  0  0  0  0  0  0  0  0
    8.0810   -0.9750   21.0820 N   0  0  0  0  0  0  0  0  0  0  0  0
    9.1870    1.1500   21.0630 O   0  0  0  0  0  0  0  0  0  0  0  0
    3.2711    2.7870   19.3201 H   0  0  0  0  0  0  0  0  0  0  0  0
    3.6263    2.0082   21.6285 H   0  0  0  0  0  0  0  0  0  0  0  0
    7.5957   -0.7779   24.7973 H   0  0  0  0  0  0  0  0  0  0  0  0
   11.0384   -2.1852   22.6338 H   0  0  0  0  0  0  0  0  0  0  0  0
    4.7816    2.0660   17.4901 H   0  0  0  0  0  0  0  0  0  0  0  0
    5.4934    0.4579   22.1787 H   0  0  0  0  0  0  0  0  0  0  0  0
    7.5634   -2.8637   26.1037 H   0  0  0  0  0  0  0  0  0  0  0  0
   11.0139   -4.2645   23.9419 H   0  0  0  0  0  0  0  0  0  0  0  0
   11.5739    1.8650   22.8381 H   0  0  0  0  0  0  0  0  0  0  0  0
    8.0593    4.0517   24.0537 H   0  0  0  0  0  0  0  0  0  0  0  0
    8.5166   -1.1054   18.4533 H   0  0  0  0  0  0  0  0  0  0  0  0
    7.8644   -7.6283   27.1289 H   0  0  0  0  0  0  0  0  0  0  0  0
    6.2830   -7.2423   26.4478 H   0  0  0  0  0  0  0  0  0  0  0  0
    6.6663   -4.8405   26.7221 H   0  0  0  0  0  0  0  0  0  0  0  0
    7.0062   -5.6400   28.2540 H   0  0  0  0  0  0  0  0  0  0  0  0
    8.0018   -7.8160   24.6962 H   0  0  0  0  0  0  0  0  0  0  0  0
    7.2963   -6.2182   24.4678 H   0  0  0  0  0  0  0  0  0  0  0  0
    8.7322   -3.9404   27.6532 H   0  0  0  0  0  0  0  0  0  0  0  0
    9.4260   -5.5610   27.8283 H   0  0  0  0  0  0  0  0  0  0  0  0
   10.0249   -6.8474   25.7028 H   0  0  0  0  0  0  0  0  0  0  0  0
    9.7015   -6.0700   24.1446 H   0  0  0  0  0  0  0  0  0  0  0  0
   10.2845    6.3631   24.1757 H   0  0  0  0  0  0  0  0  0  0  0  0
   10.5553    6.3294   22.4002 H   0  0  0  0  0  0  0  0  0  0  0  0
    8.8938    6.2708   23.0414 H   0  0  0  0  0  0  0  0  0  0  0  0
    8.9922    0.9231   25.0006 H   0  0  0  0  0  0  0  0  0  0  0  0
    7.7650    1.2154   23.7980 H   0  0  0  0  0  0  0  0  0  0  0  0
   10.5617    0.2354   22.9523 H   0  0  0  0  0  0  0  0  0  0  0  0
    8.1256   -1.8039   21.3539 H   0  0  0  0  0  0  0  0  0  0  0  0
  1  2  1  0  0  0  0
  1  5  2  0  0  0  0
  2  6  2  0  0  0  0
  3  7  2  0  0  0  0
  3 12  1  0  0  0  0
  4  8  1  0  0  0  0
  4 12  2  0  0  0  0
  5 14  1  0  0  0  0
  6 15  1  0  0  0  0
  7 16  1  0  0  0  0
  8 16  2  0  0  0  0
  9 13  1  0  0  0  0
  9 26  2  0  0  0  0
 10 13  2  0  0  0  0
 10 28  1  0  0  0  0
 11 27  2  0  0  0  0
 11 29  1  0  0  0  0
 12 25  1  0  0  0  0
 13 24  1  0  0  0  0
 14 15  2  0  0  0  0
 14 27  1  0  0  0  0
 15 29  1  0  0  0  0
 16 30  1  0  0  0  0
 17 25  1  0  0  0  0
 17 31  1  0  0  0  0
 17 32  2  0  0  0  0
 18 19  1  0  0  0  0
 18 20  1  0  0  0  0
 19 21  1  0  0  0  0
 20 22  1  0  0  0  0
 21 30  1  0  0  0  0
 22 30  1  0  0  0  0
 23 28  1  0  0  0  0
 24 25  1  6  0  0  0
 26 28  1  0  0  0  0
 29 31  1  0  0  0  0
  1 33  1  0  0  0  0
  2 34  1  0  0  0  0
  3 35  1  0  0  0  0
  4 36  1  0  0  0  0
  5 37  1  0  0  0  0
  6 38  1  0  0  0  0
  7 39  1  0  0  0  0
  8 40  1  0  0  0  0
  9 41  1  0  0  0  0
 10 42  1  0  0  0  0
 11 43  1  0  0  0  0
 18 44  1  0  0  0  0
 18 45  1  0  0  0  0
 19 46  1  0  0  0  0
 19 47  1  0  0  0  0
 20 48  1  0  0  0  0
 20 49  1  0  0  0  0
 21 50  1  0  0  0  0
 21 51  1  0  0  0  0
 22 52  1  0  0  0  0
 22 53  1  0  0  0  0
 23 54  1  0  0  0  0
 23 55  1  0  0  0  0
 23 56  1  0  0  0  0
 24 57  1  0  0  0  0
 24 58  1  0  0  0  0
 25 59  1  0  0  0  0
 31 60  1  0  0  0  0
M  END
> <clash_score>
0

> <docking_score>
-9.441701889038086

> <overlap_score>
0.8759509325027466

$$$$
BENZO_206_2
  -OEChem-08232013493D

 60 64  0     1  0  0  0  0  0999 V2000
    4.0980    2.1130   19.5350 C   0  0  0  0  0  0  0  0  0  0  0  0
    4.2970    1.6690   20.8430 C   0  0  0  0  0  0  0  0  0  0  0  0
   10.2958    4.1874   23.4874 C   0  0  0  0  0  0  0  0  0  0  0  0
   10.1359    2.8021   23.5197 C   0  0  0  0  0  0  0  0  0  0  0  0
    8.3510   -1.5420   24.6110 C   0  0  0  0  0  0  0  0  0  0  0  0
   10.2760   -2.3270   23.4020 C   0  0  0  0  0  0  0  0  0  0  0  0
    4.9400    1.7060   18.5060 C   0  0  0  0  0  0  0  0  0  0  0  0
    5.3360    0.8000   21.1530 C   0  0  0  0  0  0  0  0  0  0  0  0
    8.3310   -2.7170   25.3430 C   0  0  0  0  0  0  0  0  0  0  0  0
   10.2570   -3.5000   24.1350 C   0  0  0  0  0  0  0  0  0  0  0  0
   11.4583    4.7430   22.9531 C   0  0  0  0  0  0  0  0  0  0  0  0
   12.3012    2.5280   22.4836 C   0  0  0  0  0  0  0  0  0  0  0  0
    7.6830   -0.5170   18.7600 C   0  0  0  0  0  0  0  0  0  0  0  0
    9.3300   -1.3350   23.6390 C   0  0  0  0  0  0  0  0  0  0  0  0
   11.1386    1.9724   23.0179 C   0  0  0  0  0  0  0  0  0  0  0  0
    5.9810    0.8330   18.8060 C   0  0  0  0  0  0  0  0  0  0  0  0
    6.1600    0.3870   20.1140 C   0  0  0  0  0  0  0  0  0  0  0  0
    9.2850   -3.7090   25.1090 C   0  0  0  0  0  0  0  0  0  0  0  0
   12.4610    3.9133   22.4513 C   0  0  0  0  0  0  0  0  0  0  0  0
    8.9510    0.1280   21.6880 C   0  0  0  0  0  0  0  0  0  0  0  0
    7.3211   -6.8875   26.5227 C   0  0  0  0  0  0  0  0  0  0  0  0
    7.3523   -5.5278   27.2244 C   0  0  0  0  0  0  0  0  0  0  0  0
    7.9422   -6.8107   25.1261 C   0  0  0  0  0  0  0  0  0  0  0  0
    8.7641   -4.9418   27.2163 C   0  0  0  0  0  0  0  0  0  0  0  0
    9.3411   -6.1879   25.1670 C   0  0  0  0  0  0  0  0  0  0  0  0
   10.9652    0.4722   23.0544 C   0  0  0  0  0  0  0  0  0  0  0  0
    9.4200   -0.0840   22.9530 C   0  0  2  0  0  0  0  0  0  0  0  0
    6.9440    0.2550   18.0100 N   0  0  0  0  0  0  0  0  0  0  0  0
    7.2210   -0.4620   20.0350 N   0  0  0  0  0  0  0  0  0  0  0  0
    9.2641   -4.8861   25.8398 N   0  0  0  0  0  0  0  0  0  0  0  0
    8.0810   -0.9750   21.0820 N   0  0  0  0  0  0  0  0  0  0  0  0
    9.1870    1.1500   21.0630 O   0  0  0  0  0  0  0  0  0  0  0  0
   13.8956    4.5993   21.7932 Cl  0  0  0  0  0  0  0  0  0  0  0  0
    3.2711    2.7870   19.3201 H   0  0  0  0  0  0  0  0  0  0  0  0
    3.6263    2.0082   21.6284 H   0  0  0  0  0  0  0  0  0  0  0  0
    9.5148    4.8331   23.8784 H   0  0  0  0  0  0  0  0  0  0  0  0
    9.2268    2.3779   23.9380 H   0  0  0  0  0  0  0  0  0  0  0  0
    7.5957   -0.7779   24.7973 H   0  0  0  0  0  0  0  0  0  0  0  0
   11.0384   -2.1852   22.6338 H   0  0  0  0  0  0  0  0  0  0  0  0
    4.7816    2.0660   17.4901 H   0  0  0  0  0  0  0  0  0  0  0  0
    5.4934    0.4579   22.1787 H   0  0  0  0  0  0  0  0  0  0  0  0
    7.5634   -2.8637   26.1037 H   0  0  0  0  0  0  0  0  0  0  0  0
   11.0139   -4.2645   23.9419 H   0  0  0  0  0  0  0  0  0  0  0  0
   11.5694    5.8244   22.9347 H   0  0  0  0  0  0  0  0  0  0  0  0
   13.0798    1.8768   22.0931 H   0  0  0  0  0  0  0  0  0  0  0  0
    8.5166   -1.1054   18.4533 H   0  0  0  0  0  0  0  0  0  0  0  0
    7.8644   -7.6283   27.1289 H   0  0  0  0  0  0  0  0  0  0  0  0
    6.2830   -7.2423   26.4478 H   0  0  0  0  0  0  0  0  0  0  0  0
    6.6663   -4.8405   26.7221 H   0  0  0  0  0  0  0  0  0  0  0  0
    7.0062   -5.6400   28.2540 H   0  0  0  0  0  0  0  0  0  0  0  0
    8.0018   -7.8160   24.6962 H   0  0  0  0  0  0  0  0  0  0  0  0
    7.2963   -6.2182   24.4678 H   0  0  0  0  0  0  0  0  0  0  0  0
    8.7322   -3.9404   27.6532 H   0  0  0  0  0  0  0  0  0  0  0  0
    9.4260   -5.5610   27.8283 H   0  0  0  0  0  0  0  0  0  0  0  0
   10.0249   -6.8474   25.7028 H   0  0  0  0  0  0  0  0  0  0  0  0
    9.7015   -6.0700   24.1446 H   0  0  0  0  0  0  0  0  0  0  0  0
   11.5818    0.0409   22.2535 H   0  0  0  0  0  0  0  0  0  0  0  0
   11.3901    0.0742   23.9855 H   0  0  0  0  0  0  0  0  0  0  0  0
    8.9113    0.7342   23.6444 H   0  0  0  0  0  0  0  0  0  0  0  0
    8.1256   -1.8039   21.3539 H   0  0  0  0  0  0  0  0  0  0  0  0
  1  2  1  0  0  0  0
  1  7  2  0  0  0  0
  2  8  2  0  0  0  0
  3  4  2  0  0  0  0
  3 11  1  0  0  0  0
  4 15  1  0  0  0  0
  5  9  2  0  0  0  0
  5 14  1  0  0  0  0
  6 10  1  0  0  0  0
  6 14  2  0  0  0  0
  7 16  1  0  0  0  0
  8 17  1  0  0  0  0
  9 18  1  0  0  0  0
 10 18  2  0  0  0  0
 11 19  2  0  0  0  0
 12 15  2  0  0  0  0
 12 19  1  0  0  0  0
 13 28  2  0  0  0  0
 13 29  1  0  0  0  0
 14 27  1  0  0  0  0
 15 26  1  0  0  0  0
 16 17  2  0  0  0  0
 16 28  1  0  0  0  0
 17 29  1  0  0  0  0
 18 30  1  0  0  0  0
 19 33  1  0  0  0  0
 20 27  1  6  0  0  0
 20 31  1  0  0  0  0
 20 32  2  0  0  0  0
 21 22  1  0  0  0  0
 21 23  1  0  0  0  0
 22 24  1  0  0  0  0
 23 25  1  0  0  0  0
 24 30  1  0  0  0  0
 25 30  1  0  0  0  0
 26 27  1  0  0  0  0
 29 31  1  0  0  0  0
  1 34  1  0  0  0  0
  2 35  1  0  0  0  0
  3 36  1  0  0  0  0
  4 37  1  0  0  0  0
  5 38  1  0  0  0  0
  6 39  1  0  0  0  0
  7 40  1  0  0  0  0
  8 41  1  0  0  0  0
  9 42  1  0  0  0  0
 10 43  1  0  0  0  0
 11 44  1  0  0  0  0
 12 45  1  0  0  0  0
 13 46  1  0  0  0  0
 21 47  1  0  0  0  0
 21 48  1  0  0  0  0
 22 49  1  0  0  0  0
 22 50  1  0  0  0  0
 23 51  1  0  0  0  0
 23 52  1  0  0  0  0
 24 53  1  0  0  0  0
 24 54  1  0  0  0  0
 25 55  1  0  0  0  0
 25 56  1  0  0  0  0
 26 57  1  0  0  0  0
 26 58  1  0  0  0  0
 27 59  1  0  0  0  0
 31 60  1  0  0  0  0
M  END
> <clash_score>
0

> <docking_score>
-11.13188362121582

> <overlap_score>
0.9445412158966064

$$$$
BENZO_207_1
  -OEChem-08232013493D

 60 64  0     1  0  0  0  0  0999 V2000
    4.0980    2.1130   19.5350 C   0  0  0  0  0  0  0  0  0  0  0  0
    4.2970    1.6690   20.8430 C   0  0  0  0  0  0  0  0  0  0  0  0
    8.3510   -1.5420   24.6110 C   0  0  0  0  0  0  0  0  0  0  0  0
   10.2760   -2.3270   23.4020 C   0  0  0  0  0  0  0  0  0  0  0  0
    4.9400    1.7060   18.5060 C   0  0  0  0  0  0  0  0  0  0  0  0
    5.3360    0.8000   21.1530 C   0  0  0  0  0  0  0  0  0  0  0  0
    8.3310   -2.7170   25.3430 C   0  0  0  0  0  0  0  0  0  0  0  0
   10.2570   -3.5000   24.1350 C   0  0  0  0  0  0  0  0  0  0  0  0
   10.2425    2.9569   23.4758 C   0  0  0  0  0  0  0  0  0  0  0  0
   12.2094    2.6821   22.5319 C   0  0  0  0  0  0  0  0  0  0  0  0
    7.6830   -0.5170   18.7600 C   0  0  0  0  0  0  0  0  0  0  0  0
    9.3300   -1.3350   23.6390 C   0  0  0  0  0  0  0  0  0  0  0  0
   11.1386    1.9724   23.0179 C   0  0  0  0  0  0  0  0  0  0  0  0
    5.9810    0.8330   18.8060 C   0  0  0  0  0  0  0  0  0  0  0  0
    6.1600    0.3870   20.1140 C   0  0  0  0  0  0  0  0  0  0  0  0
    9.2850   -3.7090   25.1090 C   0  0  0  0  0  0  0  0  0  0  0  0
    8.9510    0.1280   21.6880 C   0  0  0  0  0  0  0  0  0  0  0  0
    7.3211   -6.8875   26.5227 C   0  0  0  0  0  0  0  0  0  0  0  0
    7.3523   -5.5278   27.2244 C   0  0  0  0  0  0  0  0  0  0  0  0
    7.9422   -6.8107   25.1261 C   0  0  0  0  0  0  0  0  0  0  0  0
    8.7641   -4.9418   27.2163 C   0  0  0  0  0  0  0  0  0  0  0  0
    9.3411   -6.1879   25.1670 C   0  0  0  0  0  0  0  0  0  0  0  0
   12.7247    5.1287   22.3668 C   0  0  0  0  0  0  0  0  0  0  0  0
   10.9652    0.4722   23.0544 C   0  0  0  0  0  0  0  0  0  0  0  0
    9.4200   -0.0840   22.9530 C   0  0  1  0  0  0  0  0  0  0  0  0
   10.7039    4.1975   23.2968 N   0  0  0  0  0  0  0  0  0  0  0  0
    6.9440    0.2550   18.0100 N   0  0  0  0  0  0  0  0  0  0  0  0
   11.9017    3.9973   22.7211 N   0  0  0  0  0  0  0  0  0  0  0  0
    7.2210   -0.4620   20.0350 N   0  0  0  0  0  0  0  0  0  0  0  0
    9.2641   -4.8861   25.8398 N   0  0  0  0  0  0  0  0  0  0  0  0
    8.0810   -0.9750   21.0820 N   0  0  0  0  0  0  0  0  0  0  0  0
    9.1870    1.1500   21.0630 O   0  0  0  0  0  0  0  0  0  0  0  0
    3.2711    2.7870   19.3201 H   0  0  0  0  0  0  0  0  0  0  0  0
    3.6263    2.0082   21.6284 H   0  0  0  0  0  0  0  0  0  0  0  0
    7.5957   -0.7779   24.7973 H   0  0  0  0  0  0  0  0  0  0  0  0
   11.0384   -2.1852   22.6338 H   0  0  0  0  0  0  0  0  0  0  0  0
    4.7816    2.0660   17.4901 H   0  0  0  0  0  0  0  0  0  0  0  0
    5.4934    0.4579   22.1787 H   0  0  0  0  0  0  0  0  0  0  0  0
    7.5634   -2.8637   26.1037 H   0  0  0  0  0  0  0  0  0  0  0  0
   11.0139   -4.2645   23.9419 H   0  0  0  0  0  0  0  0  0  0  0  0
    9.2724    2.8245   23.9335 H   0  0  0  0  0  0  0  0  0  0  0  0
   13.1415    2.3710   22.0799 H   0  0  0  0  0  0  0  0  0  0  0  0
    8.5166   -1.1054   18.4533 H   0  0  0  0  0  0  0  0  0  0  0  0
    7.8644   -7.6283   27.1289 H   0  0  0  0  0  0  0  0  0  0  0  0
    6.2830   -7.2423   26.4478 H   0  0  0  0  0  0  0  0  0  0  0  0
    6.6663   -4.8405   26.7221 H   0  0  0  0  0  0  0  0  0  0  0  0
    7.0062   -5.6400   28.2540 H   0  0  0  0  0  0  0  0  0  0  0  0
    8.0018   -7.8160   24.6962 H   0  0  0  0  0  0  0  0  0  0  0  0
    7.2963   -6.2182   24.4678 H   0  0  0  0  0  0  0  0  0  0  0  0
    8.7322   -3.9404   27.6532 H   0  0  0  0  0  0  0  0  0  0  0  0
    9.4260   -5.5610   27.8283 H   0  0  0  0  0  0  0  0  0  0  0  0
   10.0249   -6.8474   25.7028 H   0  0  0  0  0  0  0  0  0  0  0  0
    9.7015   -6.0700   24.1446 H   0  0  0  0  0  0  0  0  0  0  0  0
   12.4707    5.4238   21.3453 H   0  0  0  0  0  0  0  0  0  0  0  0
   12.5318    5.9510   23.0614 H   0  0  0  0  0  0  0  0  0  0  0  0
   13.7785    4.8438   22.4328 H   0  0  0  0  0  0  0  0  0  0  0  0
   11.5818    0.0409   22.2535 H   0  0  0  0  0  0  0  0  0  0  0  0
   11.3901    0.0742   23.9855 H   0  0  0  0  0  0  0  0  0  0  0  0
    8.9113    0.7342   23.6444 H   0  0  0  0  0  0  0  0  0  0  0  0
    8.1256   -1.8039   21.3539 H   0  0  0  0  0  0  0  0  0  0  0  0
  1  2  1  0  0  0  0
  1  5  2  0  0  0  0
  2  6  2  0  0  0  0
  3  7  2  0  0  0  0
  3 12  1  0  0  0  0
  4  8  1  0  0  0  0
  4 12  2  0  0  0  0
  5 14  1  0  0  0  0
  6 15  1  0  0  0  0
  7 16  1  0  0  0  0
  8 16  2  0  0  0  0
  9 13  1  0  0  0  0
  9 26  2  0  0  0  0
 10 13  2  0  0  0  0
 10 28  1  0  0  0  0
 11 27  2  0  0  0  0
 11 29  1  0  0  0  0
 12 25  1  0  0  0  0
 13 24  1  0  0  0  0
 14 15  2  0  0  0  0
 14 27  1  0  0  0  0
 15 29  1  0  0  0  0
 16 30  1  0  0  0  0
 17 25  1  0  0  0  0
 17 31  1  0  0  0  0
 17 32  2  0  0  0  0
 18 19  1  0  0  0  0
 18 20  1  0  0  0  0
 19 21  1  0  0  0  0
 20 22  1  0  0  0  0
 21 30  1  0  0  0  0
 22 30  1  0  0  0  0
 23 28  1  0  0  0  0
 24 25  1  1  0  0  0
 26 28  1  0  0  0  0
 29 31  1  0  0  0  0
  1 33  1  0  0  0  0
  2 34  1  0  0  0  0
  3 35  1  0  0  0  0
  4 36  1  0  0  0  0
  5 37  1  0  0  0  0
  6 38  1  0  0  0  0
  7 39  1  0  0  0  0
  8 40  1  0  0  0  0
  9 41  1  0  0  0  0
 10 42  1  0  0  0  0
 11 43  1  0  0  0  0
 18 44  1  0  0  0  0
 18 45  1  0  0  0  0
 19 46  1  0  0  0  0
 19 47  1  0  0  0  0
 20 48  1  0  0  0  0
 20 49  1  0  0  0  0
 21 50  1  0  0  0  0
 21 51  1  0  0  0  0
 22 52  1  0  0  0  0
 22 53  1  0  0  0  0
 23 54  1  0  0  0  0
 23 55  1  0  0  0  0
 23 56  1  0  0  0  0
 24 57  1  0  0  0  0
 24 58  1  0  0  0  0
 25 59  1  0  0  0  0
 31 60  1  0  0  0  0
M  END
> <clash_score>
0

> <docking_score>
-10.73719310760498

> <overlap_score>
0.9391068816184998

$$$$
BENZO_211_1
  -OEChem-08232013493D

 48 51  0     1  0  0  0  0  0999 V2000
    4.0980    2.1130   19.5350 C   0  0  0  0  0  0  0  0  0  0  0  0
    4.2970    1.6690   20.8430 C   0  0  0  0  0  0  0  0  0  0  0  0
    8.3310   -2.7170   25.3430 C   0  0  0  0  0  0  0  0  0  0  0  0
   10.2570   -3.5000   24.1350 C   0  0  0  0  0  0  0  0  0  0  0  0
    8.3510   -1.5420   24.6110 C   0  0  0  0  0  0  0  0  0  0  0  0
   10.2760   -2.3270   23.4020 C   0  0  0  0  0  0  0  0  0  0  0  0
    4.9400    1.7060   18.5060 C   0  0  0  0  0  0  0  0  0  0  0  0
    5.3360    0.8000   21.1530 C   0  0  0  0  0  0  0  0  0  0  0  0
   10.2645    2.9461   23.5139 C   0  0  0  0  0  0  0  0  0  0  0  0
   12.2295    2.6651   22.5680 C   0  0  0  0  0  0  0  0  0  0  0  0
    7.6830   -0.5170   18.7600 C   0  0  0  0  0  0  0  0  0  0  0  0
    9.2850   -3.7090   25.1090 C   0  0  0  0  0  0  0  0  0  0  0  0
    9.3300   -1.3350   23.6390 C   0  0  0  0  0  0  0  0  0  0  0  0
   11.1519    1.9593   23.0443 C   0  0  0  0  0  0  0  0  0  0  0  0
    5.9810    0.8330   18.8060 C   0  0  0  0  0  0  0  0  0  0  0  0
    6.1600    0.3870   20.1140 C   0  0  0  0  0  0  0  0  0  0  0  0
    8.9510    0.1280   21.6880 C   0  0  0  0  0  0  0  0  0  0  0  0
    9.2618   -4.9724   25.8910 C   0  0  0  0  0  0  0  0  0  0  0  0
   12.7674    5.1088   22.4339 C   0  0  0  0  0  0  0  0  0  0  0  0
   10.9648    0.4604   23.0619 C   0  0  0  0  0  0  0  0  0  0  0  0
    9.4200   -0.0840   22.9530 C   0  0  1  0  0  0  0  0  0  0  0  0
   10.7375    4.1845   23.3508 N   0  0  0  0  0  0  0  0  0  0  0  0
    6.9440    0.2550   18.0100 N   0  0  0  0  0  0  0  0  0  0  0  0
   11.9338    3.9806   22.7735 N   0  0  0  0  0  0  0  0  0  0  0  0
    7.2210   -0.4620   20.0350 N   0  0  0  0  0  0  0  0  0  0  0  0
    8.0810   -0.9750   21.0820 N   0  0  0  0  0  0  0  0  0  0  0  0
    9.1870    1.1500   21.0630 O   0  0  0  0  0  0  0  0  0  0  0  0
    3.2711    2.7870   19.3201 H   0  0  0  0  0  0  0  0  0  0  0  0
    3.6262    2.0082   21.6284 H   0  0  0  0  0  0  0  0  0  0  0  0
    7.5655   -2.8644   26.1055 H   0  0  0  0  0  0  0  0  0  0  0  0
   11.0125   -4.2662   23.9435 H   0  0  0  0  0  0  0  0  0  0  0  0
    7.5953   -0.7782   24.7971 H   0  0  0  0  0  0  0  0  0  0  0  0
   11.0394   -2.1837   22.6349 H   0  0  0  0  0  0  0  0  0  0  0  0
    4.7816    2.0660   17.4901 H   0  0  0  0  0  0  0  0  0  0  0  0
    5.4934    0.4579   22.1787 H   0  0  0  0  0  0  0  0  0  0  0  0
    9.2929    2.8169   23.9694 H   0  0  0  0  0  0  0  0  0  0  0  0
   13.1591    2.3512   22.1127 H   0  0  0  0  0  0  0  0  0  0  0  0
    8.5166   -1.1054   18.4533 H   0  0  0  0  0  0  0  0  0  0  0  0
    8.6408   -5.7227   25.3864 H   0  0  0  0  0  0  0  0  0  0  0  0
   10.2726   -5.3829   26.0135 H   0  0  0  0  0  0  0  0  0  0  0  0
    8.8606   -4.8102   26.9000 H   0  0  0  0  0  0  0  0  0  0  0  0
   12.5169    5.4190   21.4160 H   0  0  0  0  0  0  0  0  0  0  0  0
   12.5816    5.9241   23.1387 H   0  0  0  0  0  0  0  0  0  0  0  0
   13.8185    4.8135   22.4971 H   0  0  0  0  0  0  0  0  0  0  0  0
   11.5732    0.0341   22.2521 H   0  0  0  0  0  0  0  0  0  0  0  0
   11.3908    0.0462   23.9854 H   0  0  0  0  0  0  0  0  0  0  0  0
    8.9107    0.7231   23.6509 H   0  0  0  0  0  0  0  0  0  0  0  0
    8.1515   -1.8050   21.3815 H   0  0  0  0  0  0  0  0  0  0  0  0
  1  2  1  0  0  0  0
  1  7  2  0  0  0  0
  2  8  2  0  0  0  0
  3  5  2  0  0  0  0
  3 12  1  0  0  0  0
  4  6  1  0  0  0  0
  4 12  2  0  0  0  0
  5 13  1  0  0  0  0
  6 13  2  0  0  0  0
  7 15  1  0  0  0  0
  8 16  1  0  0  0  0
  9 14  1  0  0  0  0
  9 22  2  0  0  0  0
 10 14  2  0  0  0  0
 10 24  1  0  0  0  0
 11 23  2  0  0  0  0
 11 25  1  0  0  0  0
 12 18  1  0  0  0  0
 13 21  1  0  0  0  0
 14 20  1  0  0  0  0
 15 16  2  0  0  0  0
 15 23  1  0  0  0  0
 16 25  1  0  0  0  0
 17 21  1  0  0  0  0
 17 26  1  0  0  0  0
 17 27  2  0  0  0  0
 19 24  1  0  0  0  0
 20 21  1  1  0  0  0
 22 24  1  0  0  0  0
 25 26  1  0  0  0  0
  1 28  1  0  0  0  0
  2 29  1  0  0  0  0
  3 30  1  0  0  0  0
  4 31  1  0  0  0  0
  5 32  1  0  0  0  0
  6 33  1  0  0  0  0
  7 34  1  0  0  0  0
  8 35  1  0  0  0  0
  9 36  1  0  0  0  0
 10 37  1  0  0  0  0
 11 38  1  0  0  0  0
 18 39  1  0  0  0  0
 18 40  1  0  0  0  0
 18 41  1  0  0  0  0
 19 42  1  0  0  0  0
 19 43  1  0  0  0  0
 19 44  1  0  0  0  0
 20 45  1  0  0  0  0
 20 46  1  0  0  0  0
 21 47  1  0  0  0  0
 26 48  1  0  0  0  0
M  END
> <clash_score>
0

> <docking_score>
-11.847111701965332

> <overlap_score>
0.8961501121520996

$$$$
BENZO_211_2
  -OEChem-08232013493D

 48 51  0     1  0  0  0  0  0999 V2000
    4.0980    2.1130   19.5350 C   0  0  0  0  0  0  0  0  0  0  0  0
    4.2970    1.6690   20.8430 C   0  0  0  0  0  0  0  0  0  0  0  0
    8.3310   -2.7170   25.3430 C   0  0  0  0  0  0  0  0  0  0  0  0
   10.2570   -3.5000   24.1350 C   0  0  0  0  0  0  0  0  0  0  0  0
    8.3510   -1.5420   24.6110 C   0  0  0  0  0  0  0  0  0  0  0  0
   10.2760   -2.3270   23.4020 C   0  0  0  0  0  0  0  0  0  0  0  0
    4.9400    1.7060   18.5060 C   0  0  0  0  0  0  0  0  0  0  0  0
    5.3360    0.8000   21.1530 C   0  0  0  0  0  0  0  0  0  0  0  0
   10.8351    2.6231   23.1433 C   0  0  0  0  0  0  0  0  0  0  0  0
    9.0177    3.6781   23.7909 C   0  0  0  0  0  0  0  0  0  0  0  0
    7.6830   -0.5170   18.7600 C   0  0  0  0  0  0  0  0  0  0  0  0
    9.2850   -3.7090   25.1090 C   0  0  0  0  0  0  0  0  0  0  0  0
    9.3300   -1.3350   23.6390 C   0  0  0  0  0  0  0  0  0  0  0  0
    9.5350    2.4145   23.6414 C   0  0  0  0  0  0  0  0  0  0  0  0
    5.9810    0.8330   18.8060 C   0  0  0  0  0  0  0  0  0  0  0  0
    6.1600    0.3870   20.1140 C   0  0  0  0  0  0  0  0  0  0  0  0
    8.9510    0.1280   21.6880 C   0  0  0  0  0  0  0  0  0  0  0  0
    9.2618   -4.9724   25.8910 C   0  0  0  0  0  0  0  0  0  0  0  0
    9.9253    5.9744   23.3647 C   0  0  0  0  0  0  0  0  0  0  0  0
    8.8577    1.0982   23.9421 C   0  0  0  0  0  0  0  0  0  0  0  0
    9.4200   -0.0840   22.9530 C   0  0  2  0  0  0  0  0  0  0  0  0
   11.1257    3.9173   22.9866 N   0  0  0  0  0  0  0  0  0  0  0  0
    6.9440    0.2550   18.0100 N   0  0  0  0  0  0  0  0  0  0  0  0
   10.0010    4.5334   23.3885 N   0  0  0  0  0  0  0  0  0  0  0  0
    7.2210   -0.4620   20.0350 N   0  0  0  0  0  0  0  0  0  0  0  0
    8.0810   -0.9750   21.0820 N   0  0  0  0  0  0  0  0  0  0  0  0
    9.1870    1.1500   21.0630 O   0  0  0  0  0  0  0  0  0  0  0  0
    3.2711    2.7870   19.3201 H   0  0  0  0  0  0  0  0  0  0  0  0
    3.6262    2.0082   21.6284 H   0  0  0  0  0  0  0  0  0  0  0  0
    7.5655   -2.8644   26.1055 H   0  0  0  0  0  0  0  0  0  0  0  0
   11.0125   -4.2662   23.9435 H   0  0  0  0  0  0  0  0  0  0  0  0
    7.5953   -0.7782   24.7971 H   0  0  0  0  0  0  0  0  0  0  0  0
   11.0394   -2.1837   22.6349 H   0  0  0  0  0  0  0  0  0  0  0  0
    4.7816    2.0660   17.4901 H   0  0  0  0  0  0  0  0  0  0  0  0
    5.4934    0.4579   22.1787 H   0  0  0  0  0  0  0  0  0  0  0  0
   11.5842    1.8876   22.8864 H   0  0  0  0  0  0  0  0  0  0  0  0
    8.0571    4.0326   24.1394 H   0  0  0  0  0  0  0  0  0  0  0  0
    8.5166   -1.1054   18.4533 H   0  0  0  0  0  0  0  0  0  0  0  0
    8.6408   -5.7227   25.3864 H   0  0  0  0  0  0  0  0  0  0  0  0
   10.2726   -5.3829   26.0135 H   0  0  0  0  0  0  0  0  0  0  0  0
    8.8606   -4.8102   26.9000 H   0  0  0  0  0  0  0  0  0  0  0  0
   10.2748    6.3466   24.3314 H   0  0  0  0  0  0  0  0  0  0  0  0
   10.5545    6.3588   22.5570 H   0  0  0  0  0  0  0  0  0  0  0  0
    8.8900    6.2791   23.1881 H   0  0  0  0  0  0  0  0  0  0  0  0
    8.9995    0.8809   25.0099 H   0  0  0  0  0  0  0  0  0  0  0  0
    7.7720    1.2044   23.8156 H   0  0  0  0  0  0  0  0  0  0  0  0
   10.5616    0.2233   22.9565 H   0  0  0  0  0  0  0  0  0  0  0  0
    8.1515   -1.8050   21.3815 H   0  0  0  0  0  0  0  0  0  0  0  0
  1  2  1  0  0  0  0
  1  7  2  0  0  0  0
  2  8  2  0  0  0  0
  3  5  2  0  0  0  0
  3 12  1  0  0  0  0
  4  6  1  0  0  0  0
  4 12  2  0  0  0  0
  5 13  1  0  0  0  0
  6 13  2  0  0  0  0
  7 15  1  0  0  0  0
  8 16  1  0  0  0  0
  9 14  1  0  0  0  0
  9 22  2  0  0  0  0
 10 14  2  0  0  0  0
 10 24  1  0  0  0  0
 11 23  2  0  0  0  0
 11 25  1  0  0  0  0
 12 18  1  0  0  0  0
 13 21  1  0  0  0  0
 14 20  1  0  0  0  0
 15 16  2  0  0  0  0
 15 23  1  0  0  0  0
 16 25  1  0  0  0  0
 17 21  1  0  0  0  0
 17 26  1  0  0  0  0
 17 27  2  0  0  0  0
 19 24  1  0  0  0  0
 20 21  1  6  0  0  0
 22 24  1  0  0  0  0
 25 26  1  0  0  0  0
  1 28  1  0  0  0  0
  2 29  1  0  0  0  0
  3 30  1  0  0  0  0
  4 31  1  0  0  0  0
  5 32  1  0  0  0  0
  6 33  1  0  0  0  0
  7 34  1  0  0  0  0
  8 35  1  0  0  0  0
  9 36  1  0  0  0  0
 10 37  1  0  0  0  0
 11 38  1  0  0  0  0
 18 39  1  0  0  0  0
 18 40  1  0  0  0  0
 18 41  1  0  0  0  0
 19 42  1  0  0  0  0
 19 43  1  0  0  0  0
 19 44  1  0  0  0  0
 20 45  1  0  0  0  0
 20 46  1  0  0  0  0
 21 47  1  0  0  0  0
 26 48  1  0  0  0  0
M  END
> <clash_score>
0

> <docking_score>
-10.64523983001709

> <overlap_score>
0.8304323554039001

$$$$
BENZO_210_1
  -OEChem-08232013493D

 48 51  0     1  0  0  0  0  0999 V2000
    4.0980    2.1130   19.5350 C   0  0  0  0  0  0  0  0  0  0  0  0
    4.2970    1.6690   20.8430 C   0  0  0  0  0  0  0  0  0  0  0  0
   10.3291    4.1758   23.5411 C   0  0  0  0  0  0  0  0  0  0  0  0
   10.1565    2.7918   23.5559 C   0  0  0  0  0  0  0  0  0  0  0  0
    8.3310   -2.7170   25.3430 C   0  0  0  0  0  0  0  0  0  0  0  0
   10.2570   -3.5000   24.1350 C   0  0  0  0  0  0  0  0  0  0  0  0
    8.3510   -1.5420   24.6110 C   0  0  0  0  0  0  0  0  0  0  0  0
   10.2760   -2.3270   23.4020 C   0  0  0  0  0  0  0  0  0  0  0  0
    4.9400    1.7060   18.5060 C   0  0  0  0  0  0  0  0  0  0  0  0
    5.3360    0.8000   21.1530 C   0  0  0  0  0  0  0  0  0  0  0  0
   11.4971    4.7274   23.0146 C   0  0  0  0  0  0  0  0  0  0  0  0
   12.3200    2.5108   22.5179 C   0  0  0  0  0  0  0  0  0  0  0  0
    7.6830   -0.5170   18.7600 C   0  0  0  0  0  0  0  0  0  0  0  0
    9.2850   -3.7090   25.1090 C   0  0  0  0  0  0  0  0  0  0  0  0
    9.3300   -1.3350   23.6390 C   0  0  0  0  0  0  0  0  0  0  0  0
   11.1519    1.9593   23.0443 C   0  0  0  0  0  0  0  0  0  0  0  0
    5.9810    0.8330   18.8060 C   0  0  0  0  0  0  0  0  0  0  0  0
    6.1600    0.3870   20.1140 C   0  0  0  0  0  0  0  0  0  0  0  0
   12.4925    3.8949   22.5030 C   0  0  0  0  0  0  0  0  0  0  0  0
    8.9510    0.1280   21.6880 C   0  0  0  0  0  0  0  0  0  0  0  0
    9.2618   -4.9724   25.8910 C   0  0  0  0  0  0  0  0  0  0  0  0
   10.9648    0.4604   23.0619 C   0  0  0  0  0  0  0  0  0  0  0  0
    9.4200   -0.0840   22.9530 C   0  0  1  0  0  0  0  0  0  0  0  0
    6.9440    0.2550   18.0100 N   0  0  0  0  0  0  0  0  0  0  0  0
    7.2210   -0.4620   20.0350 N   0  0  0  0  0  0  0  0  0  0  0  0
    8.0810   -0.9750   21.0820 N   0  0  0  0  0  0  0  0  0  0  0  0
    9.1870    1.1500   21.0630 O   0  0  0  0  0  0  0  0  0  0  0  0
   13.9339    4.5760   21.8546 Cl  0  0  0  0  0  0  0  0  0  0  0  0
    3.2711    2.7870   19.3201 H   0  0  0  0  0  0  0  0  0  0  0  0
    3.6262    2.0082   21.6284 H   0  0  0  0  0  0  0  0  0  0  0  0
    9.5538    4.8237   23.9397 H   0  0  0  0  0  0  0  0  0  0  0  0
    9.2432    2.3707   23.9682 H   0  0  0  0  0  0  0  0  0  0  0  0
    7.5655   -2.8644   26.1055 H   0  0  0  0  0  0  0  0  0  0  0  0
   11.0125   -4.2662   23.9435 H   0  0  0  0  0  0  0  0  0  0  0  0
    7.5953   -0.7782   24.7971 H   0  0  0  0  0  0  0  0  0  0  0  0
   11.0394   -2.1837   22.6349 H   0  0  0  0  0  0  0  0  0  0  0  0
    4.7816    2.0660   17.4901 H   0  0  0  0  0  0  0  0  0  0  0  0
    5.4934    0.4579   22.1787 H   0  0  0  0  0  0  0  0  0  0  0  0
   11.6181    5.8079   23.0098 H   0  0  0  0  0  0  0  0  0  0  0  0
   13.0929    1.8575   22.1197 H   0  0  0  0  0  0  0  0  0  0  0  0
    8.5166   -1.1054   18.4533 H   0  0  0  0  0  0  0  0  0  0  0  0
    8.6408   -5.7227   25.3864 H   0  0  0  0  0  0  0  0  0  0  0  0
   10.2726   -5.3829   26.0135 H   0  0  0  0  0  0  0  0  0  0  0  0
    8.8606   -4.8102   26.9000 H   0  0  0  0  0  0  0  0  0  0  0  0
   11.5732    0.0341   22.2521 H   0  0  0  0  0  0  0  0  0  0  0  0
   11.3908    0.0462   23.9854 H   0  0  0  0  0  0  0  0  0  0  0  0
    8.9107    0.7231   23.6509 H   0  0  0  0  0  0  0  0  0  0  0  0
    8.1515   -1.8050   21.3815 H   0  0  0  0  0  0  0  0  0  0  0  0
  1  2  1  0  0  0  0
  1  9  2  0  0  0  0
  2 10  2  0  0  0  0
  3  4  2  0  0  0  0
  3 11  1  0  0  0  0
  4 16  1  0  0  0  0
  5  7  2  0  0  0  0
  5 14  1  0  0  0  0
  6  8  1  0  0  0  0
  6 14  2  0  0  0  0
  7 15  1  0  0  0  0
  8 15  2  0  0  0  0
  9 17  1  0  0  0  0
 10 18  1  0  0  0  0
 11 19  2  0  0  0  0
 12 16  2  0  0  0  0
 12 19  1  0  0  0  0
 13 24  2  0  0  0  0
 13 25  1  0  0  0  0
 14 21  1  0  0  0  0
 15 23  1  0  0  0  0
 16 22  1  0  0  0  0
 17 18  2  0  0  0  0
 17 24  1  0  0  0  0
 18 25  1  0  0  0  0
 19 28  1  0  0  0  0
 20 23  1  0  0  0  0
 20 26  1  0  0  0  0
 20 27  2  0  0  0  0
 22 23  1  1  0  0  0
 25 26  1  0  0  0  0
  1 29  1  0  0  0  0
  2 30  1  0  0  0  0
  3 31  1  0  0  0  0
  4 32  1  0  0  0  0
  5 33  1  0  0  0  0
  6 34  1  0  0  0  0
  7 35  1  0  0  0  0
  8 36  1  0  0  0  0
  9 37  1  0  0  0  0
 10 38  1  0  0  0  0
 11 39  1  0  0  0  0
 12 40  1  0  0  0  0
 13 41  1  0  0  0  0
 21 42  1  0  0  0  0
 21 43  1  0  0  0  0
 21 44  1  0  0  0  0
 22 45  1  0  0  0  0
 22 46  1  0  0  0  0
 23 47  1  0  0  0  0
 26 48  1  0  0  0  0
M  END
> <clash_score>
0

> <docking_score>
-12.241974830627441

> <overlap_score>
0.9018428921699524

$$$$
BENZO_210_2
  -OEChem-08232013493D

 48 51  0     1  0  0  0  0  0999 V2000
    4.0980    2.1130   19.5350 C   0  0  0  0  0  0  0  0  0  0  0  0
    4.2970    1.6690   20.8430 C   0  0  0  0  0  0  0  0  0  0  0  0
    9.4797    4.8290   23.5793 C   0  0  0  0  0  0  0  0  0  0  0  0
    8.8545    3.6132   23.8556 C   0  0  0  0  0  0  0  0  0  0  0  0
    8.3310   -2.7170   25.3430 C   0  0  0  0  0  0  0  0  0  0  0  0
   10.2570   -3.5000   24.1350 C   0  0  0  0  0  0  0  0  0  0  0  0
    8.3510   -1.5420   24.6110 C   0  0  0  0  0  0  0  0  0  0  0  0
   10.2760   -2.3270   23.4020 C   0  0  0  0  0  0  0  0  0  0  0  0
    4.9400    1.7060   18.5060 C   0  0  0  0  0  0  0  0  0  0  0  0
    5.3360    0.8000   21.1530 C   0  0  0  0  0  0  0  0  0  0  0  0
   10.7854    4.8463   23.0887 C   0  0  0  0  0  0  0  0  0  0  0  0
   10.8407    2.4317   23.1509 C   0  0  0  0  0  0  0  0  0  0  0  0
    7.6830   -0.5170   18.7600 C   0  0  0  0  0  0  0  0  0  0  0  0
    9.2850   -3.7090   25.1090 C   0  0  0  0  0  0  0  0  0  0  0  0
    9.3300   -1.3350   23.6390 C   0  0  0  0  0  0  0  0  0  0  0  0
    9.5350    2.4145   23.6414 C   0  0  0  0  0  0  0  0  0  0  0  0
    5.9810    0.8330   18.8060 C   0  0  0  0  0  0  0  0  0  0  0  0
    6.1600    0.3870   20.1140 C   0  0  0  0  0  0  0  0  0  0  0  0
   11.4659    3.6477   22.8746 C   0  0  0  0  0  0  0  0  0  0  0  0
    8.9510    0.1280   21.6880 C   0  0  0  0  0  0  0  0  0  0  0  0
    9.2618   -4.9724   25.8910 C   0  0  0  0  0  0  0  0  0  0  0  0
    8.8577    1.0982   23.9421 C   0  0  0  0  0  0  0  0  0  0  0  0
    9.4200   -0.0840   22.9530 C   0  0  2  0  0  0  0  0  0  0  0  0
    6.9440    0.2550   18.0100 N   0  0  0  0  0  0  0  0  0  0  0  0
    7.2210   -0.4620   20.0350 N   0  0  0  0  0  0  0  0  0  0  0  0
    8.0810   -0.9750   21.0820 N   0  0  0  0  0  0  0  0  0  0  0  0
    9.1870    1.1500   21.0630 O   0  0  0  0  0  0  0  0  0  0  0  0
   13.0772    3.6696   22.2705 Cl  0  0  0  0  0  0  0  0  0  0  0  0
    3.2711    2.7870   19.3201 H   0  0  0  0  0  0  0  0  0  0  0  0
    3.6262    2.0082   21.6284 H   0  0  0  0  0  0  0  0  0  0  0  0
    8.9496    5.7622   23.7463 H   0  0  0  0  0  0  0  0  0  0  0  0
    7.8370    3.6092   24.2377 H   0  0  0  0  0  0  0  0  0  0  0  0
    7.5655   -2.8644   26.1055 H   0  0  0  0  0  0  0  0  0  0  0  0
   11.0125   -4.2662   23.9435 H   0  0  0  0  0  0  0  0  0  0  0  0
    7.5953   -0.7782   24.7971 H   0  0  0  0  0  0  0  0  0  0  0  0
   11.0394   -2.1837   22.6349 H   0  0  0  0  0  0  0  0  0  0  0  0
    4.7816    2.0660   17.4901 H   0  0  0  0  0  0  0  0  0  0  0  0
    5.4934    0.4579   22.1787 H   0  0  0  0  0  0  0  0  0  0  0  0
   11.2603    5.8014   22.8781 H   0  0  0  0  0  0  0  0  0  0  0  0
   11.3668    1.4944   22.9852 H   0  0  0  0  0  0  0  0  0  0  0  0
    8.5166   -1.1054   18.4533 H   0  0  0  0  0  0  0  0  0  0  0  0
    8.6408   -5.7227   25.3864 H   0  0  0  0  0  0  0  0  0  0  0  0
   10.2726   -5.3829   26.0135 H   0  0  0  0  0  0  0  0  0  0  0  0
    8.8606   -4.8102   26.9000 H   0  0  0  0  0  0  0  0  0  0  0  0
    8.9995    0.8809   25.0099 H   0  0  0  0  0  0  0  0  0  0  0  0
    7.7720    1.2044   23.8156 H   0  0  0  0  0  0  0  0  0  0  0  0
   10.5616    0.2233   22.9565 H   0  0  0  0  0  0  0  0  0  0  0  0
    8.1515   -1.8050   21.3815 H   0  0  0  0  0  0  0  0  0  0  0  0
  1  2  1  0  0  0  0
  1  9  2  0  0  0  0
  2 10  2  0  0  0  0
  3  4  2  0  0  0  0
  3 11  1  0  0  0  0
  4 16  1  0  0  0  0
  5  7  2  0  0  0  0
  5 14  1  0  0  0  0
  6  8  1  0  0  0  0
  6 14  2  0  0  0  0
  7 15  1  0  0  0  0
  8 15  2  0  0  0  0
  9 17  1  0  0  0  0
 10 18  1  0  0  0  0
 11 19  2  0  0  0  0
 12 16  2  0  0  0  0
 12 19  1  0  0  0  0
 13 24  2  0  0  0  0
 13 25  1  0  0  0  0
 14 21  1  0  0  0  0
 15 23  1  0  0  0  0
 16 22  1  0  0  0  0
 17 18  2  0  0  0  0
 17 24  1  0  0  0  0
 18 25  1  0  0  0  0
 19 28  1  0  0  0  0
 20 23  1  0  0  0  0
 20 26  1  0  0  0  0
 20 27  2  0  0  0  0
 22 23  1  6  0  0  0
 25 26  1  0  0  0  0
  1 29  1  0  0  0  0
  2 30  1  0  0  0  0
  3 31  1  0  0  0  0
  4 32  1  0  0  0  0
  5 33  1  0  0  0  0
  6 34  1  0  0  0  0
  7 35  1  0  0  0  0
  8 36  1  0  0  0  0
  9 37  1  0  0  0  0
 10 38  1  0  0  0  0
 11 39  1  0  0  0  0
 12 40  1  0  0  0  0
 13 41  1  0  0  0  0
 21 42  1  0  0  0  0
 21 43  1  0  0  0  0
 21 44  1  0  0  0  0
 22 45  1  0  0  0  0
 22 46  1  0  0  0  0
 23 47  1  0  0  0  0
 26 48  1  0  0  0  0
M  END
> <clash_score>
0

> <docking_score>
-11.163043022155762

> <overlap_score>
0.8506957292556763

$$$$
BENZO_212_1
  -OEChem-08232013493D

 46 49  0     1  0  0  0  0  0999 V2000
    4.0980    2.1130   19.5350 C   0  0  0  0  0  0  0  0  0  0  0  0
    4.2970    1.6690   20.8430 C   0  0  0  0  0  0  0  0  0  0  0  0
    8.3510   -1.5420   24.6110 C   0  0  0  0  0  0  0  0  0  0  0  0
   10.2760   -2.3270   23.4020 C   0  0  0  0  0  0  0  0  0  0  0  0
    4.9400    1.7060   18.5060 C   0  0  0  0  0  0  0  0  0  0  0  0
    5.3360    0.8000   21.1530 C   0  0  0  0  0  0  0  0  0  0  0  0
    8.3310   -2.7170   25.3430 C   0  0  0  0  0  0  0  0  0  0  0  0
   10.2570   -3.5000   24.1350 C   0  0  0  0  0  0  0  0  0  0  0  0
   11.9859    2.6451   22.1146 C   0  0  0  0  0  0  0  0  0  0  0  0
   11.9778    4.0073   22.3192 C   0  0  0  0  0  0  0  0  0  0  0  0
   10.5383    2.8236   23.9243 C   0  0  0  0  0  0  0  0  0  0  0  0
    7.6830   -0.5170   18.7600 C   0  0  0  0  0  0  0  0  0  0  0  0
    9.3300   -1.3350   23.6390 C   0  0  0  0  0  0  0  0  0  0  0  0
   11.1519    1.9593   23.0443 C   0  0  0  0  0  0  0  0  0  0  0  0
    5.9810    0.8330   18.8060 C   0  0  0  0  0  0  0  0  0  0  0  0
    6.1600    0.3870   20.1140 C   0  0  0  0  0  0  0  0  0  0  0  0
    9.2850   -3.7090   25.1090 C   0  0  0  0  0  0  0  0  0  0  0  0
    8.9510    0.1280   21.6880 C   0  0  0  0  0  0  0  0  0  0  0  0
    8.2359   -4.9962   26.8043 C   0  0  0  0  0  0  0  0  0  0  0  0
   10.9648    0.4604   23.0619 C   0  0  0  0  0  0  0  0  0  0  0  0
    9.4200   -0.0840   22.9530 C   0  0  1  0  0  0  0  0  0  0  0  0
    6.9440    0.2550   18.0100 N   0  0  0  0  0  0  0  0  0  0  0  0
    7.2210   -0.4620   20.0350 N   0  0  0  0  0  0  0  0  0  0  0  0
    8.0810   -0.9750   21.0820 N   0  0  0  0  0  0  0  0  0  0  0  0
    9.1870    1.1500   21.0630 O   0  0  0  0  0  0  0  0  0  0  0  0
    9.2637   -4.8607   25.8240 O   0  0  0  0  0  0  0  0  0  0  0  0
   10.9679    4.4545   23.6278 S   0  0  0  0  0  0  0  0  0  0  0  0
    3.2711    2.7870   19.3201 H   0  0  0  0  0  0  0  0  0  0  0  0
    3.6262    2.0082   21.6284 H   0  0  0  0  0  0  0  0  0  0  0  0
    7.5962   -0.7776   24.7980 H   0  0  0  0  0  0  0  0  0  0  0  0
   11.0395   -2.1844   22.6346 H   0  0  0  0  0  0  0  0  0  0  0  0
    4.7816    2.0660   17.4901 H   0  0  0  0  0  0  0  0  0  0  0  0
    5.4934    0.4579   22.1787 H   0  0  0  0  0  0  0  0  0  0  0  0
    7.5664   -2.8672   26.1058 H   0  0  0  0  0  0  0  0  0  0  0  0
   11.0120   -4.2666   23.9463 H   0  0  0  0  0  0  0  0  0  0  0  0
   12.5644    2.1673   21.3341 H   0  0  0  0  0  0  0  0  0  0  0  0
   12.5171    4.7612   21.7634 H   0  0  0  0  0  0  0  0  0  0  0  0
    9.8588    2.5795   24.7291 H   0  0  0  0  0  0  0  0  0  0  0  0
    8.5166   -1.1054   18.4533 H   0  0  0  0  0  0  0  0  0  0  0  0
    8.3326   -5.9635   27.3034 H   0  0  0  0  0  0  0  0  0  0  0  0
    7.2583   -4.9194   26.3216 H   0  0  0  0  0  0  0  0  0  0  0  0
    8.3399   -4.1965   27.5413 H   0  0  0  0  0  0  0  0  0  0  0  0
   11.5732    0.0341   22.2521 H   0  0  0  0  0  0  0  0  0  0  0  0
   11.3908    0.0462   23.9854 H   0  0  0  0  0  0  0  0  0  0  0  0
    8.9107    0.7231   23.6509 H   0  0  0  0  0  0  0  0  0  0  0  0
    8.1515   -1.8050   21.3815 H   0  0  0  0  0  0  0  0  0  0  0  0
  1  2  1  0  0  0  0
  1  5  2  0  0  0  0
  2  6  2  0  0  0  0
  3  7  2  0  0  0  0
  3 13  1  0  0  0  0
  4  8  1  0  0  0  0
  4 13  2  0  0  0  0
  5 15  1  0  0  0  0
  6 16  1  0  0  0  0
  7 17  1  0  0  0  0
  8 17  2  0  0  0  0
  9 10  2  0  0  0  0
  9 14  1  0  0  0  0
 10 27  1  0  0  0  0
 11 14  2  0  0  0  0
 11 27  1  0  0  0  0
 12 22  2  0  0  0  0
 12 23  1  0  0  0  0
 13 21  1  0  0  0  0
 14 20  1  0  0  0  0
 15 16  2  0  0  0  0
 15 22  1  0  0  0  0
 16 23  1  0  0  0  0
 17 26  1  0  0  0  0
 18 21  1  0  0  0  0
 18 24  1  0  0  0  0
 18 25  2  0  0  0  0
 19 26  1  0  0  0  0
 20 21  1  1  0  0  0
 23 24  1  0  0  0  0
  1 28  1  0  0  0  0
  2 29  1  0  0  0  0
  3 30  1  0  0  0  0
  4 31  1  0  0  0  0
  5 32  1  0  0  0  0
  6 33  1  0  0  0  0
  7 34  1  0  0  0  0
  8 35  1  0  0  0  0
  9 36  1  0  0  0  0
 10 37  1  0  0  0  0
 11 38  1  0  0  0  0
 12 39  1  0  0  0  0
 19 40  1  0  0  0  0
 19 41  1  0  0  0  0
 19 42  1  0  0  0  0
 20 43  1  0  0  0  0
 20 44  1  0  0  0  0
 21 45  1  0  0  0  0
 24 46  1  0  0  0  0
M  END
> <clash_score>
0

> <docking_score>
-10.445953369140625

> <overlap_score>
0.9150314331054688

$$$$
BENZO_212_2
  -OEChem-08232013493D

 46 49  0     1  0  0  0  0  0999 V2000
    4.0980    2.1130   19.5350 C   0  0  0  0  0  0  0  0  0  0  0  0
    4.2970    1.6690   20.8430 C   0  0  0  0  0  0  0  0  0  0  0  0
    8.3510   -1.5420   24.6110 C   0  0  0  0  0  0  0  0  0  0  0  0
   10.2760   -2.3270   23.4020 C   0  0  0  0  0  0  0  0  0  0  0  0
    4.9400    1.7060   18.5060 C   0  0  0  0  0  0  0  0  0  0  0  0
    5.3360    0.8000   21.1530 C   0  0  0  0  0  0  0  0  0  0  0  0
    8.3310   -2.7170   25.3430 C   0  0  0  0  0  0  0  0  0  0  0  0
   10.2570   -3.5000   24.1350 C   0  0  0  0  0  0  0  0  0  0  0  0
   10.8949    2.5334   23.2333 C   0  0  0  0  0  0  0  0  0  0  0  0
   11.2600    3.8452   23.0253 C   0  0  0  0  0  0  0  0  0  0  0  0
    8.9125    3.6403   23.7301 C   0  0  0  0  0  0  0  0  0  0  0  0
    7.6830   -0.5170   18.7600 C   0  0  0  0  0  0  0  0  0  0  0  0
    9.3300   -1.3350   23.6390 C   0  0  0  0  0  0  0  0  0  0  0  0
    9.5350    2.4145   23.6414 C   0  0  0  0  0  0  0  0  0  0  0  0
    5.9810    0.8330   18.8060 C   0  0  0  0  0  0  0  0  0  0  0  0
    6.1600    0.3870   20.1140 C   0  0  0  0  0  0  0  0  0  0  0  0
    9.2850   -3.7090   25.1090 C   0  0  0  0  0  0  0  0  0  0  0  0
    8.9510    0.1280   21.6880 C   0  0  0  0  0  0  0  0  0  0  0  0
    8.2359   -4.9962   26.8043 C   0  0  0  0  0  0  0  0  0  0  0  0
    8.8577    1.0982   23.9421 C   0  0  0  0  0  0  0  0  0  0  0  0
    9.4200   -0.0840   22.9530 C   0  0  2  0  0  0  0  0  0  0  0  0
    6.9440    0.2550   18.0100 N   0  0  0  0  0  0  0  0  0  0  0  0
    7.2210   -0.4620   20.0350 N   0  0  0  0  0  0  0  0  0  0  0  0
    8.0810   -0.9750   21.0820 N   0  0  0  0  0  0  0  0  0  0  0  0
    9.1870    1.1500   21.0630 O   0  0  0  0  0  0  0  0  0  0  0  0
    9.2637   -4.8607   25.8240 O   0  0  0  0  0  0  0  0  0  0  0  0
    9.9661    4.9270   23.3220 S   0  0  0  0  0  0  0  0  0  0  0  0
    3.2711    2.7870   19.3201 H   0  0  0  0  0  0  0  0  0  0  0  0
    3.6262    2.0082   21.6284 H   0  0  0  0  0  0  0  0  0  0  0  0
    7.5962   -0.7776   24.7980 H   0  0  0  0  0  0  0  0  0  0  0  0
   11.0395   -2.1844   22.6346 H   0  0  0  0  0  0  0  0  0  0  0  0
    4.7816    2.0660   17.4901 H   0  0  0  0  0  0  0  0  0  0  0  0
    5.4934    0.4579   22.1787 H   0  0  0  0  0  0  0  0  0  0  0  0
    7.5664   -2.8672   26.1058 H   0  0  0  0  0  0  0  0  0  0  0  0
   11.0120   -4.2666   23.9463 H   0  0  0  0  0  0  0  0  0  0  0  0
   11.5746    1.7015   23.0982 H   0  0  0  0  0  0  0  0  0  0  0  0
   12.2247    4.2203   22.7141 H   0  0  0  0  0  0  0  0  0  0  0  0
    7.8902    3.8463   24.0157 H   0  0  0  0  0  0  0  0  0  0  0  0
    8.5166   -1.1054   18.4533 H   0  0  0  0  0  0  0  0  0  0  0  0
    8.3326   -5.9635   27.3034 H   0  0  0  0  0  0  0  0  0  0  0  0
    7.2583   -4.9194   26.3216 H   0  0  0  0  0  0  0  0  0  0  0  0
    8.3399   -4.1965   27.5413 H   0  0  0  0  0  0  0  0  0  0  0  0
    8.9995    0.8809   25.0099 H   0  0  0  0  0  0  0  0  0  0  0  0
    7.7720    1.2044   23.8156 H   0  0  0  0  0  0  0  0  0  0  0  0
   10.5616    0.2233   22.9565 H   0  0  0  0  0  0  0  0  0  0  0  0
    8.1515   -1.8050   21.3815 H   0  0  0  0  0  0  0  0  0  0  0  0
  1  2  1  0  0  0  0
  1  5  2  0  0  0  0
  2  6  2  0  0  0  0
  3  7  2  0  0  0  0
  3 13  1  0  0  0  0
  4  8  1  0  0  0  0
  4 13  2  0  0  0  0
  5 15  1  0  0  0  0
  6 16  1  0  0  0  0
  7 17  1  0  0  0  0
  8 17  2  0  0  0  0
  9 10  2  0  0  0  0
  9 14  1  0  0  0  0
 10 27  1  0  0  0  0
 11 14  2  0  0  0  0
 11 27  1  0  0  0  0
 12 22  2  0  0  0  0
 12 23  1  0  0  0  0
 13 21  1  0  0  0  0
 14 20  1  0  0  0  0
 15 16  2  0  0  0  0
 15 22  1  0  0  0  0
 16 23  1  0  0  0  0
 17 26  1  0  0  0  0
 18 21  1  0  0  0  0
 18 24  1  0  0  0  0
 18 25  2  0  0  0  0
 19 26  1  0  0  0  0
 20 21  1  6  0  0  0
 23 24  1  0  0  0  0
  1 28  1  0  0  0  0
  2 29  1  0  0  0  0
  3 30  1  0  0  0  0
  4 31  1  0  0  0  0
  5 32  1  0  0  0  0
  6 33  1  0  0  0  0
  7 34  1  0  0  0  0
  8 35  1  0  0  0  0
  9 36  1  0  0  0  0
 10 37  1  0  0  0  0
 11 38  1  0  0  0  0
 12 39  1  0  0  0  0
 19 40  1  0  0  0  0
 19 41  1  0  0  0  0
 19 42  1  0  0  0  0
 20 43  1  0  0  0  0
 20 44  1  0  0  0  0
 21 45  1  0  0  0  0
 24 46  1  0  0  0  0
M  END
> <clash_score>
0

> <docking_score>
-9.92580509185791

> <overlap_score>
0.8597419261932373

$$$$
BENZO_213_1
  -OEChem-08232013493D

 49 52  0     1  0  0  0  0  0999 V2000
   11.4961    4.7275   23.0120 C   0  0  0  0  0  0  0  0  0  0  0  0
   12.4919    3.8949   22.5015 C   0  0  0  0  0  0  0  0  0  0  0  0
   10.3281    4.1760   23.5388 C   0  0  0  0  0  0  0  0  0  0  0  0
    4.0980    2.1130   19.5350 C   0  0  0  0  0  0  0  0  0  0  0  0
    4.2970    1.6690   20.8430 C   0  0  0  0  0  0  0  0  0  0  0  0
   12.3199    2.5108   22.5177 C   0  0  0  0  0  0  0  0  0  0  0  0
   10.1560    2.7919   23.5549 C   0  0  0  0  0  0  0  0  0  0  0  0
    8.3510   -1.5420   24.6110 C   0  0  0  0  0  0  0  0  0  0  0  0
   10.2760   -2.3270   23.4020 C   0  0  0  0  0  0  0  0  0  0  0  0
    4.9400    1.7060   18.5060 C   0  0  0  0  0  0  0  0  0  0  0  0
    5.3360    0.8000   21.1530 C   0  0  0  0  0  0  0  0  0  0  0  0
    8.3310   -2.7170   25.3430 C   0  0  0  0  0  0  0  0  0  0  0  0
   10.2570   -3.5000   24.1350 C   0  0  0  0  0  0  0  0  0  0  0  0
    7.6830   -0.5170   18.7600 C   0  0  0  0  0  0  0  0  0  0  0  0
   11.1519    1.9593   23.0443 C   0  0  0  0  0  0  0  0  0  0  0  0
    9.3300   -1.3350   23.6390 C   0  0  0  0  0  0  0  0  0  0  0  0
    5.9810    0.8330   18.8060 C   0  0  0  0  0  0  0  0  0  0  0  0
    6.1600    0.3870   20.1140 C   0  0  0  0  0  0  0  0  0  0  0  0
    9.2850   -3.7090   25.1090 C   0  0  0  0  0  0  0  0  0  0  0  0
    8.9510    0.1280   21.6880 C   0  0  0  0  0  0  0  0  0  0  0  0
    8.2359   -4.9962   26.8043 C   0  0  0  0  0  0  0  0  0  0  0  0
   10.9648    0.4604   23.0619 C   0  0  0  0  0  0  0  0  0  0  0  0
    9.4200   -0.0840   22.9530 C   0  0  1  0  0  0  0  0  0  0  0  0
    6.9440    0.2550   18.0100 N   0  0  0  0  0  0  0  0  0  0  0  0
    7.2210   -0.4620   20.0350 N   0  0  0  0  0  0  0  0  0  0  0  0
    8.0810   -0.9750   21.0820 N   0  0  0  0  0  0  0  0  0  0  0  0
    9.1870    1.1500   21.0630 O   0  0  0  0  0  0  0  0  0  0  0  0
    9.2637   -4.8607   25.8240 O   0  0  0  0  0  0  0  0  0  0  0  0
   11.6308    5.8052   23.0007 H   0  0  0  0  0  0  0  0  0  0  0  0
   13.4019    4.3242   22.0924 H   0  0  0  0  0  0  0  0  0  0  0  0
    9.5530    4.8238   23.9373 H   0  0  0  0  0  0  0  0  0  0  0  0
    3.2711    2.7870   19.3201 H   0  0  0  0  0  0  0  0  0  0  0  0
    3.6262    2.0082   21.6284 H   0  0  0  0  0  0  0  0  0  0  0  0
   13.1011    1.8699   22.1175 H   0  0  0  0  0  0  0  0  0  0  0  0
    9.2427    2.3711   23.9671 H   0  0  0  0  0  0  0  0  0  0  0  0
    7.5962   -0.7776   24.7980 H   0  0  0  0  0  0  0  0  0  0  0  0
   11.0395   -2.1844   22.6346 H   0  0  0  0  0  0  0  0  0  0  0  0
    4.7816    2.0660   17.4901 H   0  0  0  0  0  0  0  0  0  0  0  0
    5.4934    0.4579   22.1787 H   0  0  0  0  0  0  0  0  0  0  0  0
    7.5664   -2.8672   26.1058 H   0  0  0  0  0  0  0  0  0  0  0  0
   11.0120   -4.2666   23.9463 H   0  0  0  0  0  0  0  0  0  0  0  0
    8.5166   -1.1054   18.4533 H   0  0  0  0  0  0  0  0  0  0  0  0
    8.3326   -5.9635   27.3034 H   0  0  0  0  0  0  0  0  0  0  0  0
    7.2583   -4.9194   26.3216 H   0  0  0  0  0  0  0  0  0  0  0  0
    8.3399   -4.1965   27.5413 H   0  0  0  0  0  0  0  0  0  0  0  0
   11.5732    0.0341   22.2521 H   0  0  0  0  0  0  0  0  0  0  0  0
   11.3908    0.0462   23.9854 H   0  0  0  0  0  0  0  0  0  0  0  0
    8.9107    0.7231   23.6509 H   0  0  0  0  0  0  0  0  0  0  0  0
    8.1515   -1.8050   21.3815 H   0  0  0  0  0  0  0  0  0  0  0  0
  1  2  1  0  0  0  0
  1  3  2  0  0  0  0
  2  6  2  0  0  0  0
  3  7  1  0  0  0  0
  4  5  1  0  0  0  0
  4 10  2  0  0  0  0
  5 11  2  0  0  0  0
  6 15  1  0  0  0  0
  7 15  2  0  0  0  0
  8 12  2  0  0  0  0
  8 16  1  0  0  0  0
  9 13  1  0  0  0  0
  9 16  2  0  0  0  0
 10 17  1  0  0  0  0
 11 18  1  0  0  0  0
 12 19  1  0  0  0  0
 13 19  2  0  0  0  0
 14 24  2  0  0  0  0
 14 25  1  0  0  0  0
 15 22  1  0  0  0  0
 16 23  1  0  0  0  0
 17 18  2  0  0  0  0
 17 24  1  0  0  0  0
 18 25  1  0  0  0  0
 19 28  1  0  0  0  0
 20 23  1  0  0  0  0
 20 26  1  0  0  0  0
 20 27  2  0  0  0  0
 21 28  1  0  0  0  0
 22 23  1  1  0  0  0
 25 26  1  0  0  0  0
  1 29  1  0  0  0  0
  2 30  1  0  0  0  0
  3 31  1  0  0  0  0
  4 32  1  0  0  0  0
  5 33  1  0  0  0  0
  6 34  1  0  0  0  0
  7 35  1  0  0  0  0
  8 36  1  0  0  0  0
  9 37  1  0  0  0  0
 10 38  1  0  0  0  0
 11 39  1  0  0  0  0
 12 40  1  0  0  0  0
 13 41  1  0  0  0  0
 14 42  1  0  0  0  0
 21 43  1  0  0  0  0
 21 44  1  0  0  0  0
 21 45  1  0  0  0  0
 22 46  1  0  0  0  0
 22 47  1  0  0  0  0
 23 48  1  0  0  0  0
 26 49  1  0  0  0  0
M  END
> <clash_score>
0

> <docking_score>
-11.62267017364502

> <overlap_score>
0.9251888990402222

$$$$
BENZO_213_2
  -OEChem-08232013493D

 49 52  0     1  0  0  0  0  0999 V2000
   10.7871    4.8449   23.0864 C   0  0  0  0  0  0  0  0  0  0  0  0
    9.4814    4.8291   23.5768 C   0  0  0  0  0  0  0  0  0  0  0  0
   11.4667    3.6455   22.8734 C   0  0  0  0  0  0  0  0  0  0  0  0
    4.0980    2.1130   19.5350 C   0  0  0  0  0  0  0  0  0  0  0  0
    4.2970    1.6690   20.8430 C   0  0  0  0  0  0  0  0  0  0  0  0
    8.8554    3.6139   23.8543 C   0  0  0  0  0  0  0  0  0  0  0  0
   10.8407    2.4304   23.1510 C   0  0  0  0  0  0  0  0  0  0  0  0
    8.3510   -1.5420   24.6110 C   0  0  0  0  0  0  0  0  0  0  0  0
   10.2760   -2.3270   23.4020 C   0  0  0  0  0  0  0  0  0  0  0  0
    4.9400    1.7060   18.5060 C   0  0  0  0  0  0  0  0  0  0  0  0
    5.3360    0.8000   21.1530 C   0  0  0  0  0  0  0  0  0  0  0  0
    8.3310   -2.7170   25.3430 C   0  0  0  0  0  0  0  0  0  0  0  0
   10.2570   -3.5000   24.1350 C   0  0  0  0  0  0  0  0  0  0  0  0
    7.6830   -0.5170   18.7600 C   0  0  0  0  0  0  0  0  0  0  0  0
    9.5350    2.4145   23.6414 C   0  0  0  0  0  0  0  0  0  0  0  0
    9.3300   -1.3350   23.6390 C   0  0  0  0  0  0  0  0  0  0  0  0
    5.9810    0.8330   18.8060 C   0  0  0  0  0  0  0  0  0  0  0  0
    6.1600    0.3870   20.1140 C   0  0  0  0  0  0  0  0  0  0  0  0
    9.2850   -3.7090   25.1090 C   0  0  0  0  0  0  0  0  0  0  0  0
    8.9510    0.1280   21.6880 C   0  0  0  0  0  0  0  0  0  0  0  0
    8.2359   -4.9962   26.8043 C   0  0  0  0  0  0  0  0  0  0  0  0
    8.8577    1.0982   23.9421 C   0  0  0  0  0  0  0  0  0  0  0  0
    9.4200   -0.0840   22.9530 C   0  0  2  0  0  0  0  0  0  0  0  0
    6.9440    0.2550   18.0100 N   0  0  0  0  0  0  0  0  0  0  0  0
    7.2210   -0.4620   20.0350 N   0  0  0  0  0  0  0  0  0  0  0  0
    8.0810   -0.9750   21.0820 N   0  0  0  0  0  0  0  0  0  0  0  0
    9.1870    1.1500   21.0630 O   0  0  0  0  0  0  0  0  0  0  0  0
    9.2637   -4.8607   25.8240 O   0  0  0  0  0  0  0  0  0  0  0  0
   11.2739    5.7912   22.8690 H   0  0  0  0  0  0  0  0  0  0  0  0
    8.9517    5.7628   23.7416 H   0  0  0  0  0  0  0  0  0  0  0  0
   12.4829    3.6575   22.4905 H   0  0  0  0  0  0  0  0  0  0  0  0
    3.2711    2.7870   19.3201 H   0  0  0  0  0  0  0  0  0  0  0  0
    3.6262    2.0082   21.6284 H   0  0  0  0  0  0  0  0  0  0  0  0
    7.8379    3.6112   24.2364 H   0  0  0  0  0  0  0  0  0  0  0  0
   11.3780    1.5009   22.9821 H   0  0  0  0  0  0  0  0  0  0  0  0
    7.5962   -0.7776   24.7980 H   0  0  0  0  0  0  0  0  0  0  0  0
   11.0395   -2.1844   22.6346 H   0  0  0  0  0  0  0  0  0  0  0  0
    4.7816    2.0660   17.4901 H   0  0  0  0  0  0  0  0  0  0  0  0
    5.4934    0.4579   22.1787 H   0  0  0  0  0  0  0  0  0  0  0  0
    7.5664   -2.8672   26.1058 H   0  0  0  0  0  0  0  0  0  0  0  0
   11.0120   -4.2666   23.9463 H   0  0  0  0  0  0  0  0  0  0  0  0
    8.5166   -1.1054   18.4533 H   0  0  0  0  0  0  0  0  0  0  0  0
    8.3326   -5.9635   27.3034 H   0  0  0  0  0  0  0  0  0  0  0  0
    7.2583   -4.9194   26.3216 H   0  0  0  0  0  0  0  0  0  0  0  0
    8.3399   -4.1965   27.5413 H   0  0  0  0  0  0  0  0  0  0  0  0
    8.9995    0.8809   25.0099 H   0  0  0  0  0  0  0  0  0  0  0  0
    7.7720    1.2044   23.8156 H   0  0  0  0  0  0  0  0  0  0  0  0
   10.5616    0.2233   22.9565 H   0  0  0  0  0  0  0  0  0  0  0  0
    8.1515   -1.8050   21.3815 H   0  0  0  0  0  0  0  0  0  0  0  0
  1  2  1  0  0  0  0
  1  3  2  0  0  0  0
  2  6  2  0  0  0  0
  3  7  1  0  0  0  0
  4  5  1  0  0  0  0
  4 10  2  0  0  0  0
  5 11  2  0  0  0  0
  6 15  1  0  0  0  0
  7 15  2  0  0  0  0
  8 12  2  0  0  0  0
  8 16  1  0  0  0  0
  9 13  1  0  0  0  0
  9 16  2  0  0  0  0
 10 17  1  0  0  0  0
 11 18  1  0  0  0  0
 12 19  1  0  0  0  0
 13 19  2  0  0  0  0
 14 24  2  0  0  0  0
 14 25  1  0  0  0  0
 15 22  1  0  0  0  0
 16 23  1  0  0  0  0
 17 18  2  0  0  0  0
 17 24  1  0  0  0  0
 18 25  1  0  0  0  0
 19 28  1  0  0  0  0
 20 23  1  0  0  0  0
 20 26  1  0  0  0  0
 20 27  2  0  0  0  0
 21 28  1  0  0  0  0
 22 23  1  6  0  0  0
 25 26  1  0  0  0  0
  1 29  1  0  0  0  0
  2 30  1  0  0  0  0
  3 31  1  0  0  0  0
  4 32  1  0  0  0  0
  5 33  1  0  0  0  0
  6 34  1  0  0  0  0
  7 35  1  0  0  0  0
  8 36  1  0  0  0  0
  9 37  1  0  0  0  0
 10 38  1  0  0  0  0
 11 39  1  0  0  0  0
 12 40  1  0  0  0  0
 13 41  1  0  0  0  0
 14 42  1  0  0  0  0
 21 43  1  0  0  0  0
 21 44  1  0  0  0  0
 21 45  1  0  0  0  0
 22 46  1  0  0  0  0
 22 47  1  0  0  0  0
 23 48  1  0  0  0  0
 26 49  1  0  0  0  0
M  END
> <clash_score>
0

> <docking_score>
-10.185046195983887

> <overlap_score>
0.8632457852363586

$$$$
BENZO_214_1
  -OEChem-08232013493D

 49 52  0     1  0  0  0  0  0999 V2000
    4.0980    2.1130   19.5350 C   0  0  0  0  0  0  0  0  0  0  0  0
    4.2970    1.6690   20.8430 C   0  0  0  0  0  0  0  0  0  0  0  0
   10.3291    4.1758   23.5411 C   0  0  0  0  0  0  0  0  0  0  0  0
   10.1565    2.7918   23.5559 C   0  0  0  0  0  0  0  0  0  0  0  0
    8.3510   -1.5420   24.6110 C   0  0  0  0  0  0  0  0  0  0  0  0
   10.2760   -2.3270   23.4020 C   0  0  0  0  0  0  0  0  0  0  0  0
    4.9400    1.7060   18.5060 C   0  0  0  0  0  0  0  0  0  0  0  0
    5.3360    0.8000   21.1530 C   0  0  0  0  0  0  0  0  0  0  0  0
    8.3310   -2.7170   25.3430 C   0  0  0  0  0  0  0  0  0  0  0  0
   10.2570   -3.5000   24.1350 C   0  0  0  0  0  0  0  0  0  0  0  0
   11.4971    4.7274   23.0146 C   0  0  0  0  0  0  0  0  0  0  0  0
   12.3200    2.5108   22.5179 C   0  0  0  0  0  0  0  0  0  0  0  0
    7.6830   -0.5170   18.7600 C   0  0  0  0  0  0  0  0  0  0  0  0
    9.3300   -1.3350   23.6390 C   0  0  0  0  0  0  0  0  0  0  0  0
   11.1519    1.9593   23.0443 C   0  0  0  0  0  0  0  0  0  0  0  0
    5.9810    0.8330   18.8060 C   0  0  0  0  0  0  0  0  0  0  0  0
    6.1600    0.3870   20.1140 C   0  0  0  0  0  0  0  0  0  0  0  0
    9.2850   -3.7090   25.1090 C   0  0  0  0  0  0  0  0  0  0  0  0
   12.4925    3.8949   22.5030 C   0  0  0  0  0  0  0  0  0  0  0  0
    8.9510    0.1280   21.6880 C   0  0  0  0  0  0  0  0  0  0  0  0
    8.2359   -4.9962   26.8043 C   0  0  0  0  0  0  0  0  0  0  0  0
   10.9648    0.4604   23.0619 C   0  0  0  0  0  0  0  0  0  0  0  0
    9.4200   -0.0840   22.9530 C   0  0  1  0  0  0  0  0  0  0  0  0
    6.9440    0.2550   18.0100 N   0  0  0  0  0  0  0  0  0  0  0  0
    7.2210   -0.4620   20.0350 N   0  0  0  0  0  0  0  0  0  0  0  0
    8.0810   -0.9750   21.0820 N   0  0  0  0  0  0  0  0  0  0  0  0
    9.1870    1.1500   21.0630 O   0  0  0  0  0  0  0  0  0  0  0  0
    9.2637   -4.8607   25.8240 O   0  0  0  0  0  0  0  0  0  0  0  0
   13.9339    4.5760   21.8546 Cl  0  0  0  0  0  0  0  0  0  0  0  0
    3.2711    2.7870   19.3201 H   0  0  0  0  0  0  0  0  0  0  0  0
    3.6262    2.0082   21.6284 H   0  0  0  0  0  0  0  0  0  0  0  0
    9.5538    4.8237   23.9397 H   0  0  0  0  0  0  0  0  0  0  0  0
    9.2432    2.3707   23.9682 H   0  0  0  0  0  0  0  0  0  0  0  0
    7.5962   -0.7776   24.7980 H   0  0  0  0  0  0  0  0  0  0  0  0
   11.0395   -2.1844   22.6346 H   0  0  0  0  0  0  0  0  0  0  0  0
    4.7816    2.0660   17.4901 H   0  0  0  0  0  0  0  0  0  0  0  0
    5.4934    0.4579   22.1787 H   0  0  0  0  0  0  0  0  0  0  0  0
    7.5664   -2.8672   26.1058 H   0  0  0  0  0  0  0  0  0  0  0  0
   11.0120   -4.2666   23.9463 H   0  0  0  0  0  0  0  0  0  0  0  0
   11.6181    5.8079   23.0098 H   0  0  0  0  0  0  0  0  0  0  0  0
   13.0929    1.8575   22.1197 H   0  0  0  0  0  0  0  0  0  0  0  0
    8.5166   -1.1054   18.4533 H   0  0  0  0  0  0  0  0  0  0  0  0
    8.3326   -5.9635   27.3034 H   0  0  0  0  0  0  0  0  0  0  0  0
    7.2583   -4.9194   26.3216 H   0  0  0  0  0  0  0  0  0  0  0  0
    8.3399   -4.1965   27.5413 H   0  0  0  0  0  0  0  0  0  0  0  0
   11.5732    0.0341   22.2521 H   0  0  0  0  0  0  0  0  0  0  0  0
   11.3908    0.0462   23.9854 H   0  0  0  0  0  0  0  0  0  0  0  0
    8.9107    0.7231   23.6509 H   0  0  0  0  0  0  0  0  0  0  0  0
    8.1515   -1.8050   21.3815 H   0  0  0  0  0  0  0  0  0  0  0  0
  1  2  1  0  0  0  0
  1  7  2  0  0  0  0
  2  8  2  0  0  0  0
  3  4  2  0  0  0  0
  3 11  1  0  0  0  0
  4 15  1  0  0  0  0
  5  9  2  0  0  0  0
  5 14  1  0  0  0  0
  6 10  1  0  0  0  0
  6 14  2  0  0  0  0
  7 16  1  0  0  0  0
  8 17  1  0  0  0  0
  9 18  1  0  0  0  0
 10 18  2  0  0  0  0
 11 19  2  0  0  0  0
 12 15  2  0  0  0  0
 12 19  1  0  0  0  0
 13 24  2  0  0  0  0
 13 25  1  0  0  0  0
 14 23  1  0  0  0  0
 15 22  1  0  0  0  0
 16 17  2  0  0  0  0
 16 24  1  0  0  0  0
 17 25  1  0  0  0  0
 18 28  1  0  0  0  0
 19 29  1  0  0  0  0
 20 23  1  0  0  0  0
 20 26  1  0  0  0  0
 20 27  2  0  0  0  0
 21 28  1  0  0  0  0
 22 23  1  1  0  0  0
 25 26  1  0  0  0  0
  1 30  1  0  0  0  0
  2 31  1  0  0  0  0
  3 32  1  0  0  0  0
  4 33  1  0  0  0  0
  5 34  1  0  0  0  0
  6 35  1  0  0  0  0
  7 36  1  0  0  0  0
  8 37  1  0  0  0  0
  9 38  1  0  0  0  0
 10 39  1  0  0  0  0
 11 40  1  0  0  0  0
 12 41  1  0  0  0  0
 13 42  1  0  0  0  0
 21 43  1  0  0  0  0
 21 44  1  0  0  0  0
 21 45  1  0  0  0  0
 22 46  1  0  0  0  0
 22 47  1  0  0  0  0
 23 48  1  0  0  0  0
 26 49  1  0  0  0  0
M  END
> <clash_score>
0

> <docking_score>
-11.950282096862793

> <overlap_score>
0.9258213639259338

$$$$
BENZO_215_1
  -OEChem-08232013493D

 49 52  0     1  0  0  0  0  0999 V2000
    4.0980    2.1130   19.5350 C   0  0  0  0  0  0  0  0  0  0  0  0
    4.2970    1.6690   20.8430 C   0  0  0  0  0  0  0  0  0  0  0  0
    8.3510   -1.5420   24.6110 C   0  0  0  0  0  0  0  0  0  0  0  0
   10.2760   -2.3270   23.4020 C   0  0  0  0  0  0  0  0  0  0  0  0
    4.9400    1.7060   18.5060 C   0  0  0  0  0  0  0  0  0  0  0  0
    5.3360    0.8000   21.1530 C   0  0  0  0  0  0  0  0  0  0  0  0
    8.3310   -2.7170   25.3430 C   0  0  0  0  0  0  0  0  0  0  0  0
   10.2570   -3.5000   24.1350 C   0  0  0  0  0  0  0  0  0  0  0  0
   10.2645    2.9461   23.5139 C   0  0  0  0  0  0  0  0  0  0  0  0
   12.2295    2.6651   22.5680 C   0  0  0  0  0  0  0  0  0  0  0  0
    7.6830   -0.5170   18.7600 C   0  0  0  0  0  0  0  0  0  0  0  0
    9.3300   -1.3350   23.6390 C   0  0  0  0  0  0  0  0  0  0  0  0
   11.1519    1.9593   23.0443 C   0  0  0  0  0  0  0  0  0  0  0  0
    5.9810    0.8330   18.8060 C   0  0  0  0  0  0  0  0  0  0  0  0
    6.1600    0.3870   20.1140 C   0  0  0  0  0  0  0  0  0  0  0  0
    9.2850   -3.7090   25.1090 C   0  0  0  0  0  0  0  0  0  0  0  0
    8.9510    0.1280   21.6880 C   0  0  0  0  0  0  0  0  0  0  0  0
   12.7674    5.1088   22.4339 C   0  0  0  0  0  0  0  0  0  0  0  0
    8.2359   -4.9962   26.8043 C   0  0  0  0  0  0  0  0  0  0  0  0
   10.9648    0.4604   23.0619 C   0  0  0  0  0  0  0  0  0  0  0  0
    9.4200   -0.0840   22.9530 C   0  0  1  0  0  0  0  0  0  0  0  0
   10.7375    4.1845   23.3508 N   0  0  0  0  0  0  0  0  0  0  0  0
    6.9440    0.2550   18.0100 N   0  0  0  0  0  0  0  0  0  0  0  0
   11.9338    3.9806   22.7735 N   0  0  0  0  0  0  0  0  0  0  0  0
    7.2210   -0.4620   20.0350 N   0  0  0  0  0  0  0  0  0  0  0  0
    8.0810   -0.9750   21.0820 N   0  0  0  0  0  0  0  0  0  0  0  0
    9.1870    1.1500   21.0630 O   0  0  0  0  0  0  0  0  0  0  0  0
    9.2637   -4.8607   25.8240 O   0  0  0  0  0  0  0  0  0  0  0  0
    3.2711    2.7870   19.3201 H   0  0  0  0  0  0  0  0  0  0  0  0
    3.6262    2.0082   21.6284 H   0  0  0  0  0  0  0  0  0  0  0  0
    7.5962   -0.7776   24.7980 H   0  0  0  0  0  0  0  0  0  0  0  0
   11.0395   -2.1844   22.6346 H   0  0  0  0  0  0  0  0  0  0  0  0
    4.7816    2.0660   17.4901 H   0  0  0  0  0  0  0  0  0  0  0  0
    5.4934    0.4579   22.1787 H   0  0  0  0  0  0  0  0  0  0  0  0
    7.5664   -2.8672   26.1058 H   0  0  0  0  0  0  0  0  0  0  0  0
   11.0120   -4.2666   23.9463 H   0  0  0  0  0  0  0  0  0  0  0  0
    9.2929    2.8169   23.9694 H   0  0  0  0  0  0  0  0  0  0  0  0
   13.1591    2.3512   22.1127 H   0  0  0  0  0  0  0  0  0  0  0  0
    8.5166   -1.1054   18.4533 H   0  0  0  0  0  0  0  0  0  0  0  0
   12.5169    5.4190   21.4160 H   0  0  0  0  0  0  0  0  0  0  0  0
   12.5816    5.9241   23.1387 H   0  0  0  0  0  0  0  0  0  0  0  0
   13.8185    4.8135   22.4971 H   0  0  0  0  0  0  0  0  0  0  0  0
    8.3326   -5.9635   27.3034 H   0  0  0  0  0  0  0  0  0  0  0  0
    7.2583   -4.9194   26.3216 H   0  0  0  0  0  0  0  0  0  0  0  0
    8.3399   -4.1965   27.5413 H   0  0  0  0  0  0  0  0  0  0  0  0
   11.5732    0.0341   22.2521 H   0  0  0  0  0  0  0  0  0  0  0  0
   11.3908    0.0462   23.9854 H   0  0  0  0  0  0  0  0  0  0  0  0
    8.9107    0.7231   23.6509 H   0  0  0  0  0  0  0  0  0  0  0  0
    8.1515   -1.8050   21.3815 H   0  0  0  0  0  0  0  0  0  0  0  0
  1  2  1  0  0  0  0
  1  5  2  0  0  0  0
  2  6  2  0  0  0  0
  3  7  2  0  0  0  0
  3 12  1  0  0  0  0
  4  8  1  0  0  0  0
  4 12  2  0  0  0  0
  5 14  1  0  0  0  0
  6 15  1  0  0  0  0
  7 16  1  0  0  0  0
  8 16  2  0  0  0  0
  9 13  1  0  0  0  0
  9 22  2  0  0  0  0
 10 13  2  0  0  0  0
 10 24  1  0  0  0  0
 11 23  2  0  0  0  0
 11 25  1  0  0  0  0
 12 21  1  0  0  0  0
 13 20  1  0  0  0  0
 14 15  2  0  0  0  0
 14 23  1  0  0  0  0
 15 25  1  0  0  0  0
 16 28  1  0  0  0  0
 17 21  1  0  0  0  0
 17 26  1  0  0  0  0
 17 27  2  0  0  0  0
 18 24  1  0  0  0  0
 19 28  1  0  0  0  0
 20 21  1  1  0  0  0
 22 24  1  0  0  0  0
 25 26  1  0  0  0  0
  1 29  1  0  0  0  0
  2 30  1  0  0  0  0
  3 31  1  0  0  0  0
  4 32  1  0  0  0  0
  5 33  1  0  0  0  0
  6 34  1  0  0  0  0
  7 35  1  0  0  0  0
  8 36  1  0  0  0  0
  9 37  1  0  0  0  0
 10 38  1  0  0  0  0
 11 39  1  0  0  0  0
 18 40  1  0  0  0  0
 18 41  1  0  0  0  0
 18 42  1  0  0  0  0
 19 43  1  0  0  0  0
 19 44  1  0  0  0  0
 19 45  1  0  0  0  0
 20 46  1  0  0  0  0
 20 47  1  0  0  0  0
 21 48  1  0  0  0  0
 26 49  1  0  0  0  0
M  END
> <clash_score>
0

> <docking_score>
-11.55541706085205

> <overlap_score>
0.920166015625

$$$$
BENZO_215_2
  -OEChem-08232013493D

 49 52  0     1  0  0  0  0  0999 V2000
    4.0980    2.1130   19.5350 C   0  0  0  0  0  0  0  0  0  0  0  0
    4.2970    1.6690   20.8430 C   0  0  0  0  0  0  0  0  0  0  0  0
    8.3510   -1.5420   24.6110 C   0  0  0  0  0  0  0  0  0  0  0  0
   10.2760   -2.3270   23.4020 C   0  0  0  0  0  0  0  0  0  0  0  0
    4.9400    1.7060   18.5060 C   0  0  0  0  0  0  0  0  0  0  0  0
    5.3360    0.8000   21.1530 C   0  0  0  0  0  0  0  0  0  0  0  0
    8.3310   -2.7170   25.3430 C   0  0  0  0  0  0  0  0  0  0  0  0
   10.2570   -3.5000   24.1350 C   0  0  0  0  0  0  0  0  0  0  0  0
   10.8351    2.6231   23.1433 C   0  0  0  0  0  0  0  0  0  0  0  0
    9.0177    3.6781   23.7909 C   0  0  0  0  0  0  0  0  0  0  0  0
    7.6830   -0.5170   18.7600 C   0  0  0  0  0  0  0  0  0  0  0  0
    9.3300   -1.3350   23.6390 C   0  0  0  0  0  0  0  0  0  0  0  0
    9.5350    2.4145   23.6414 C   0  0  0  0  0  0  0  0  0  0  0  0
    5.9810    0.8330   18.8060 C   0  0  0  0  0  0  0  0  0  0  0  0
    6.1600    0.3870   20.1140 C   0  0  0  0  0  0  0  0  0  0  0  0
    9.2850   -3.7090   25.1090 C   0  0  0  0  0  0  0  0  0  0  0  0
    8.9510    0.1280   21.6880 C   0  0  0  0  0  0  0  0  0  0  0  0
    9.9253    5.9744   23.3647 C   0  0  0  0  0  0  0  0  0  0  0  0
    8.2359   -4.9962   26.8043 C   0  0  0  0  0  0  0  0  0  0  0  0
    8.8577    1.0982   23.9421 C   0  0  0  0  0  0  0  0  0  0  0  0
    9.4200   -0.0840   22.9530 C   0  0  2  0  0  0  0  0  0  0  0  0
   11.1257    3.9173   22.9866 N   0  0  0  0  0  0  0  0  0  0  0  0
    6.9440    0.2550   18.0100 N   0  0  0  0  0  0  0  0  0  0  0  0
   10.0010    4.5334   23.3885 N   0  0  0  0  0  0  0  0  0  0  0  0
    7.2210   -0.4620   20.0350 N   0  0  0  0  0  0  0  0  0  0  0  0
    8.0810   -0.9750   21.0820 N   0  0  0  0  0  0  0  0  0  0  0  0
    9.1870    1.1500   21.0630 O   0  0  0  0  0  0  0  0  0  0  0  0
    9.2637   -4.8607   25.8240 O   0  0  0  0  0  0  0  0  0  0  0  0
    3.2711    2.7870   19.3201 H   0  0  0  0  0  0  0  0  0  0  0  0
    3.6262    2.0082   21.6284 H   0  0  0  0  0  0  0  0  0  0  0  0
    7.5962   -0.7776   24.7980 H   0  0  0  0  0  0  0  0  0  0  0  0
   11.0395   -2.1844   22.6346 H   0  0  0  0  0  0  0  0  0  0  0  0
    4.7816    2.0660   17.4901 H   0  0  0  0  0  0  0  0  0  0  0  0
    5.4934    0.4579   22.1787 H   0  0  0  0  0  0  0  0  0  0  0  0
    7.5664   -2.8672   26.1058 H   0  0  0  0  0  0  0  0  0  0  0  0
   11.0120   -4.2666   23.9463 H   0  0  0  0  0  0  0  0  0  0  0  0
   11.5842    1.8876   22.8864 H   0  0  0  0  0  0  0  0  0  0  0  0
    8.0571    4.0326   24.1394 H   0  0  0  0  0  0  0  0  0  0  0  0
    8.5166   -1.1054   18.4533 H   0  0  0  0  0  0  0  0  0  0  0  0
   10.2748    6.3466   24.3314 H   0  0  0  0  0  0  0  0  0  0  0  0
   10.5545    6.3588   22.5570 H   0  0  0  0  0  0  0  0  0  0  0  0
    8.8900    6.2791   23.1881 H   0  0  0  0  0  0  0  0  0  0  0  0
    8.3326   -5.9635   27.3034 H   0  0  0  0  0  0  0  0  0  0  0  0
    7.2583   -4.9194   26.3216 H   0  0  0  0  0  0  0  0  0  0  0  0
    8.3399   -4.1965   27.5413 H   0  0  0  0  0  0  0  0  0  0  0  0
    8.9995    0.8809   25.0099 H   0  0  0  0  0  0  0  0  0  0  0  0
    7.7720    1.2044   23.8156 H   0  0  0  0  0  0  0  0  0  0  0  0
   10.5616    0.2233   22.9565 H   0  0  0  0  0  0  0  0  0  0  0  0
    8.1515   -1.8050   21.3815 H   0  0  0  0  0  0  0  0  0  0  0  0
  1  2  1  0  0  0  0
  1  5  2  0  0  0  0
  2  6  2  0  0  0  0
  3  7  2  0  0  0  0
  3 12  1  0  0  0  0
  4  8  1  0  0  0  0
  4 12  2  0  0  0  0
  5 14  1  0  0  0  0
  6 15  1  0  0  0  0
  7 16  1  0  0  0  0
  8 16  2  0  0  0  0
  9 13  1  0  0  0  0
  9 22  2  0  0  0  0
 10 13  2  0  0  0  0
 10 24  1  0  0  0  0
 11 23  2  0  0  0  0
 11 25  1  0  0  0  0
 12 21  1  0  0  0  0
 13 20  1  0  0  0  0
 14 15  2  0  0  0  0
 14 23  1  0  0  0  0
 15 25  1  0  0  0  0
 16 28  1  0  0  0  0
 17 21  1  0  0  0  0
 17 26  1  0  0  0  0
 17 27  2  0  0  0  0
 18 24  1  0  0  0  0
 19 28  1  0  0  0  0
 20 21  1  6  0  0  0
 22 24  1  0  0  0  0
 25 26  1  0  0  0  0
  1 29  1  0  0  0  0
  2 30  1  0  0  0  0
  3 31  1  0  0  0  0
  4 32  1  0  0  0  0
  5 33  1  0  0  0  0
  6 34  1  0  0  0  0
  7 35  1  0  0  0  0
  8 36  1  0  0  0  0
  9 37  1  0  0  0  0
 10 38  1  0  0  0  0
 11 39  1  0  0  0  0
 18 40  1  0  0  0  0
 18 41  1  0  0  0  0
 18 42  1  0  0  0  0
 19 43  1  0  0  0  0
 19 44  1  0  0  0  0
 19 45  1  0  0  0  0
 20 46  1  0  0  0  0
 20 47  1  0  0  0  0
 21 48  1  0  0  0  0
 26 49  1  0  0  0  0
M  END
> <clash_score>
0

> <docking_score>
-10.353549003601074

> <overlap_score>
0.8545721173286438

$$$$
BENZO_214_2
  -OEChem-08232013493D

 49 52  0     1  0  0  0  0  0999 V2000
    4.0980    2.1130   19.5350 C   0  0  0  0  0  0  0  0  0  0  0  0
    4.2970    1.6690   20.8430 C   0  0  0  0  0  0  0  0  0  0  0  0
    9.4797    4.8290   23.5793 C   0  0  0  0  0  0  0  0  0  0  0  0
    8.8545    3.6132   23.8556 C   0  0  0  0  0  0  0  0  0  0  0  0
    8.3510   -1.5420   24.6110 C   0  0  0  0  0  0  0  0  0  0  0  0
   10.2760   -2.3270   23.4020 C   0  0  0  0  0  0  0  0  0  0  0  0
    4.9400    1.7060   18.5060 C   0  0  0  0  0  0  0  0  0  0  0  0
    5.3360    0.8000   21.1530 C   0  0  0  0  0  0  0  0  0  0  0  0
    8.3310   -2.7170   25.3430 C   0  0  0  0  0  0  0  0  0  0  0  0
   10.2570   -3.5000   24.1350 C   0  0  0  0  0  0  0  0  0  0  0  0
   10.7854    4.8463   23.0887 C   0  0  0  0  0  0  0  0  0  0  0  0
   10.8407    2.4317   23.1509 C   0  0  0  0  0  0  0  0  0  0  0  0
    7.6830   -0.5170   18.7600 C   0  0  0  0  0  0  0  0  0  0  0  0
    9.3300   -1.3350   23.6390 C   0  0  0  0  0  0  0  0  0  0  0  0
    9.5350    2.4145   23.6414 C   0  0  0  0  0  0  0  0  0  0  0  0
    5.9810    0.8330   18.8060 C   0  0  0  0  0  0  0  0  0  0  0  0
    6.1600    0.3870   20.1140 C   0  0  0  0  0  0  0  0  0  0  0  0
    9.2850   -3.7090   25.1090 C   0  0  0  0  0  0  0  0  0  0  0  0
   11.4659    3.6477   22.8746 C   0  0  0  0  0  0  0  0  0  0  0  0
    8.9510    0.1280   21.6880 C   0  0  0  0  0  0  0  0  0  0  0  0
    8.2359   -4.9962   26.8043 C   0  0  0  0  0  0  0  0  0  0  0  0
    8.8577    1.0982   23.9421 C   0  0  0  0  0  0  0  0  0  0  0  0
    9.4200   -0.0840   22.9530 C   0  0  2  0  0  0  0  0  0  0  0  0
    6.9440    0.2550   18.0100 N   0  0  0  0  0  0  0  0  0  0  0  0
    7.2210   -0.4620   20.0350 N   0  0  0  0  0  0  0  0  0  0  0  0
    8.0810   -0.9750   21.0820 N   0  0  0  0  0  0  0  0  0  0  0  0
    9.1870    1.1500   21.0630 O   0  0  0  0  0  0  0  0  0  0  0  0
    9.2637   -4.8607   25.8240 O   0  0  0  0  0  0  0  0  0  0  0  0
   13.0772    3.6696   22.2705 Cl  0  0  0  0  0  0  0  0  0  0  0  0
    3.2711    2.7870   19.3201 H   0  0  0  0  0  0  0  0  0  0  0  0
    3.6262    2.0082   21.6284 H   0  0  0  0  0  0  0  0  0  0  0  0
    8.9496    5.7622   23.7463 H   0  0  0  0  0  0  0  0  0  0  0  0
    7.8370    3.6092   24.2377 H   0  0  0  0  0  0  0  0  0  0  0  0
    7.5962   -0.7776   24.7980 H   0  0  0  0  0  0  0  0  0  0  0  0
   11.0395   -2.1844   22.6346 H   0  0  0  0  0  0  0  0  0  0  0  0
    4.7816    2.0660   17.4901 H   0  0  0  0  0  0  0  0  0  0  0  0
    5.4934    0.4579   22.1787 H   0  0  0  0  0  0  0  0  0  0  0  0
    7.5664   -2.8672   26.1058 H   0  0  0  0  0  0  0  0  0  0  0  0
   11.0120   -4.2666   23.9463 H   0  0  0  0  0  0  0  0  0  0  0  0
   11.2603    5.8014   22.8781 H   0  0  0  0  0  0  0  0  0  0  0  0
   11.3668    1.4944   22.9852 H   0  0  0  0  0  0  0  0  0  0  0  0
    8.5166   -1.1054   18.4533 H   0  0  0  0  0  0  0  0  0  0  0  0
    8.3326   -5.9635   27.3034 H   0  0  0  0  0  0  0  0  0  0  0  0
    7.2583   -4.9194   26.3216 H   0  0  0  0  0  0  0  0  0  0  0  0
    8.3399   -4.1965   27.5413 H   0  0  0  0  0  0  0  0  0  0  0  0
    8.9995    0.8809   25.0099 H   0  0  0  0  0  0  0  0  0  0  0  0
    7.7720    1.2044   23.8156 H   0  0  0  0  0  0  0  0  0  0  0  0
   10.5616    0.2233   22.9565 H   0  0  0  0  0  0  0  0  0  0  0  0
    8.1515   -1.8050   21.3815 H   0  0  0  0  0  0  0  0  0  0  0  0
  1  2  1  0  0  0  0
  1  7  2  0  0  0  0
  2  8  2  0  0  0  0
  3  4  2  0  0  0  0
  3 11  1  0  0  0  0
  4 15  1  0  0  0  0
  5  9  2  0  0  0  0
  5 14  1  0  0  0  0
  6 10  1  0  0  0  0
  6 14  2  0  0  0  0
  7 16  1  0  0  0  0
  8 17  1  0  0  0  0
  9 18  1  0  0  0  0
 10 18  2  0  0  0  0
 11 19  2  0  0  0  0
 12 15  2  0  0  0  0
 12 19  1  0  0  0  0
 13 24  2  0  0  0  0
 13 25  1  0  0  0  0
 14 23  1  0  0  0  0
 15 22  1  0  0  0  0
 16 17  2  0  0  0  0
 16 24  1  0  0  0  0
 17 25  1  0  0  0  0
 18 28  1  0  0  0  0
 19 29  1  0  0  0  0
 20 23  1  0  0  0  0
 20 26  1  0  0  0  0
 20 27  2  0  0  0  0
 21 28  1  0  0  0  0
 22 23  1  6  0  0  0
 25 26  1  0  0  0  0
  1 30  1  0  0  0  0
  2 31  1  0  0  0  0
  3 32  1  0  0  0  0
  4 33  1  0  0  0  0
  5 34  1  0  0  0  0
  6 35  1  0  0  0  0
  7 36  1  0  0  0  0
  8 37  1  0  0  0  0
  9 38  1  0  0  0  0
 10 39  1  0  0  0  0
 11 40  1  0  0  0  0
 12 41  1  0  0  0  0
 13 42  1  0  0  0  0
 21 43  1  0  0  0  0
 21 44  1  0  0  0  0
 21 45  1  0  0  0  0
 22 46  1  0  0  0  0
 22 47  1  0  0  0  0
 23 48  1  0  0  0  0
 26 49  1  0  0  0  0
M  END
> <clash_score>
0

> <docking_score>
-10.871350288391113

> <overlap_score>
0.8747698664665222

$$$$
BENZO_217_1
  -OEChem-08232013493D

 59 63  0     1  0  0  0  0  0999 V2000
   10.7843    4.8295   22.9656 C   0  0  0  0  0  0  0  0  0  0  0  0
   11.3381    3.9837   23.9266 C   0  0  0  0  0  0  0  0  0  0  0  0
    9.6033    4.4691   22.3167 C   0  0  0  0  0  0  0  0  0  0  0  0
    4.0980    2.1130   19.5350 C   0  0  0  0  0  0  0  0  0  0  0  0
    4.2970    1.6690   20.8430 C   0  0  0  0  0  0  0  0  0  0  0  0
   10.7110    2.7775   24.2387 C   0  0  0  0  0  0  0  0  0  0  0  0
    8.9762    3.2629   22.6288 C   0  0  0  0  0  0  0  0  0  0  0  0
    8.3510   -1.5420   24.6110 C   0  0  0  0  0  0  0  0  0  0  0  0
   10.2760   -2.3270   23.4020 C   0  0  0  0  0  0  0  0  0  0  0  0
    4.9400    1.7060   18.5060 C   0  0  0  0  0  0  0  0  0  0  0  0
    5.3360    0.8000   21.1530 C   0  0  0  0  0  0  0  0  0  0  0  0
    8.3310   -2.7170   25.3430 C   0  0  0  0  0  0  0  0  0  0  0  0
   10.2570   -3.5000   24.1350 C   0  0  0  0  0  0  0  0  0  0  0  0
    7.6830   -0.5170   18.7600 C   0  0  0  0  0  0  0  0  0  0  0  0
    9.5300    2.4170   23.5898 C   0  0  0  0  0  0  0  0  0  0  0  0
    9.3300   -1.3350   23.6390 C   0  0  0  0  0  0  0  0  0  0  0  0
    5.9810    0.8330   18.8060 C   0  0  0  0  0  0  0  0  0  0  0  0
    6.1600    0.3870   20.1140 C   0  0  0  0  0  0  0  0  0  0  0  0
    9.2850   -3.7090   25.1090 C   0  0  0  0  0  0  0  0  0  0  0  0
    8.0643   -5.4721   26.3672 C   0  0  0  0  0  0  0  0  0  0  0  0
    8.9510    0.1280   21.6880 C   0  0  0  0  0  0  0  0  0  0  0  0
    8.2649   -6.7591   27.1477 C   0  0  0  0  0  0  0  0  0  0  0  0
    9.4073   -6.6157   28.1377 C   0  0  0  0  0  0  0  0  0  0  0  0
   10.6967   -6.1489   27.4694 C   0  0  0  0  0  0  0  0  0  0  0  0
   10.4950   -5.7059   26.0212 C   0  0  0  0  0  0  0  0  0  0  0  0
    8.8505    1.1108   23.9272 C   0  0  0  0  0  0  0  0  0  0  0  0
    9.4200   -0.0840   22.9530 C   0  0  1  0  0  0  0  0  0  0  0  0
    6.9440    0.2550   18.0100 N   0  0  0  0  0  0  0  0  0  0  0  0
    7.2210   -0.4620   20.0350 N   0  0  0  0  0  0  0  0  0  0  0  0
    9.2624   -4.9267   25.8634 N   0  0  0  0  0  0  0  0  0  0  0  0
    8.0810   -0.9750   21.0820 N   0  0  0  0  0  0  0  0  0  0  0  0
    6.9247   -5.0497   26.1749 O   0  0  0  0  0  0  0  0  0  0  0  0
    9.1870    1.1500   21.0630 O   0  0  0  0  0  0  0  0  0  0  0  0
   11.2720    5.7693   22.7237 H   0  0  0  0  0  0  0  0  0  0  0  0
   12.2571    4.2647   24.4327 H   0  0  0  0  0  0  0  0  0  0  0  0
    9.1712    5.1278   21.5693 H   0  0  0  0  0  0  0  0  0  0  0  0
    3.2711    2.7870   19.3201 H   0  0  0  0  0  0  0  0  0  0  0  0
    3.6262    2.0082   21.6284 H   0  0  0  0  0  0  0  0  0  0  0  0
   11.1499    2.1247   24.9887 H   0  0  0  0  0  0  0  0  0  0  0  0
    8.0564    2.9902   22.1181 H   0  0  0  0  0  0  0  0  0  0  0  0
    7.5948   -0.7783   24.7966 H   0  0  0  0  0  0  0  0  0  0  0  0
   11.0389   -2.1844   22.6342 H   0  0  0  0  0  0  0  0  0  0  0  0
    4.7816    2.0660   17.4901 H   0  0  0  0  0  0  0  0  0  0  0  0
    5.4934    0.4579   22.1787 H   0  0  0  0  0  0  0  0  0  0  0  0
    7.5642   -2.8624   26.1050 H   0  0  0  0  0  0  0  0  0  0  0  0
   11.0137   -4.2649   23.9418 H   0  0  0  0  0  0  0  0  0  0  0  0
    8.5166   -1.1054   18.4533 H   0  0  0  0  0  0  0  0  0  0  0  0
    7.3543   -6.9829   27.6818 H   0  0  0  0  0  0  0  0  0  0  0  0
    8.4783   -7.5436   26.4372 H   0  0  0  0  0  0  0  0  0  0  0  0
    9.1257   -5.9021   28.9399 H   0  0  0  0  0  0  0  0  0  0  0  0
    9.5814   -7.5840   28.6486 H   0  0  0  0  0  0  0  0  0  0  0  0
   11.1319   -5.3094   28.0513 H   0  0  0  0  0  0  0  0  0  0  0  0
   11.4591   -6.9570   27.5118 H   0  0  0  0  0  0  0  0  0  0  0  0
   11.3214   -5.0711   25.7158 H   0  0  0  0  0  0  0  0  0  0  0  0
   10.4496   -6.5786   25.3788 H   0  0  0  0  0  0  0  0  0  0  0  0
    8.9923    0.9231   25.0006 H   0  0  0  0  0  0  0  0  0  0  0  0
    7.7650    1.2154   23.7981 H   0  0  0  0  0  0  0  0  0  0  0  0
   10.5617    0.2354   22.9523 H   0  0  0  0  0  0  0  0  0  0  0  0
    8.1256   -1.8039   21.3539 H   0  0  0  0  0  0  0  0  0  0  0  0
  1  2  1  0  0  0  0
  1  3  2  0  0  0  0
  2  6  2  0  0  0  0
  3  7  1  0  0  0  0
  4  5  1  0  0  0  0
  4 10  2  0  0  0  0
  5 11  2  0  0  0  0
  6 15  1  0  0  0  0
  7 15  2  0  0  0  0
  8 12  2  0  0  0  0
  8 16  1  0  0  0  0
  9 13  1  0  0  0  0
  9 16  2  0  0  0  0
 10 17  1  0  0  0  0
 11 18  1  0  0  0  0
 12 19  1  0  0  0  0
 13 19  2  0  0  0  0
 14 28  2  0  0  0  0
 14 29  1  0  0  0  0
 15 26  1  0  0  0  0
 16 27  1  0  0  0  0
 17 18  2  0  0  0  0
 17 28  1  0  0  0  0
 18 29  1  0  0  0  0
 19 30  1  0  0  0  0
 20 22  1  0  0  0  0
 20 30  1  0  0  0  0
 20 32  2  0  0  0  0
 21 27  1  1  0  0  0
 21 31  1  0  0  0  0
 21 33  2  0  0  0  0
 22 23  1  0  0  0  0
 23 24  1  0  0  0  0
 24 25  1  0  0  0  0
 25 30  1  0  0  0  0
 26 27  1  0  0  0  0
 29 31  1  0  0  0  0
  1 34  1  0  0  0  0
  2 35  1  0  0  0  0
  3 36  1  0  0  0  0
  4 37  1  0  0  0  0
  5 38  1  0  0  0  0
  6 39  1  0  0  0  0
  7 40  1  0  0  0  0
  8 41  1  0  0  0  0
  9 42  1  0  0  0  0
 10 43  1  0  0  0  0
 11 44  1  0  0  0  0
 12 45  1  0  0  0  0
 13 46  1  0  0  0  0
 14 47  1  0  0  0  0
 22 48  1  0  0  0  0
 22 49  1  0  0  0  0
 23 50  1  0  0  0  0
 23 51  1  0  0  0  0
 24 52  1  0  0  0  0
 24 53  1  0  0  0  0
 25 54  1  0  0  0  0
 25 55  1  0  0  0  0
 26 56  1  0  0  0  0
 26 57  1  0  0  0  0
 27 58  1  0  0  0  0
 31 59  1  0  0  0  0
M  END
> <clash_score>
1.2728248649063287

> <docking_score>
-6.6033830642700195

> <overlap_score>
0.8668079972267151

$$$$
BENZO_217_2
  -OEChem-08232013493D

 59 63  0     1  0  0  0  0  0999 V2000
   11.4573    4.7430   22.9507 C   0  0  0  0  0  0  0  0  0  0  0  0
   12.4605    3.9133   22.4499 C   0  0  0  0  0  0  0  0  0  0  0  0
   10.2948    4.1875   23.4852 C   0  0  0  0  0  0  0  0  0  0  0  0
    4.0980    2.1130   19.5350 C   0  0  0  0  0  0  0  0  0  0  0  0
    4.2970    1.6690   20.8430 C   0  0  0  0  0  0  0  0  0  0  0  0
   12.3011    2.5280   22.4835 C   0  0  0  0  0  0  0  0  0  0  0  0
   10.1355    2.8022   23.5188 C   0  0  0  0  0  0  0  0  0  0  0  0
    8.3510   -1.5420   24.6110 C   0  0  0  0  0  0  0  0  0  0  0  0
   10.2760   -2.3270   23.4020 C   0  0  0  0  0  0  0  0  0  0  0  0
    4.9400    1.7060   18.5060 C   0  0  0  0  0  0  0  0  0  0  0  0
    5.3360    0.8000   21.1530 C   0  0  0  0  0  0  0  0  0  0  0  0
    8.3310   -2.7170   25.3430 C   0  0  0  0  0  0  0  0  0  0  0  0
   10.2570   -3.5000   24.1350 C   0  0  0  0  0  0  0  0  0  0  0  0
    7.6830   -0.5170   18.7600 C   0  0  0  0  0  0  0  0  0  0  0  0
   11.1386    1.9724   23.0179 C   0  0  0  0  0  0  0  0  0  0  0  0
    9.3300   -1.3350   23.6390 C   0  0  0  0  0  0  0  0  0  0  0  0
    5.9810    0.8330   18.8060 C   0  0  0  0  0  0  0  0  0  0  0  0
    6.1600    0.3870   20.1140 C   0  0  0  0  0  0  0  0  0  0  0  0
    9.2850   -3.7090   25.1090 C   0  0  0  0  0  0  0  0  0  0  0  0
    8.0643   -5.4721   26.3672 C   0  0  0  0  0  0  0  0  0  0  0  0
    8.9510    0.1280   21.6880 C   0  0  0  0  0  0  0  0  0  0  0  0
    8.2649   -6.7591   27.1477 C   0  0  0  0  0  0  0  0  0  0  0  0
    9.4073   -6.6157   28.1377 C   0  0  0  0  0  0  0  0  0  0  0  0
   10.6967   -6.1489   27.4694 C   0  0  0  0  0  0  0  0  0  0  0  0
   10.4950   -5.7059   26.0212 C   0  0  0  0  0  0  0  0  0  0  0  0
   10.9652    0.4722   23.0544 C   0  0  0  0  0  0  0  0  0  0  0  0
    9.4200   -0.0840   22.9530 C   0  0  2  0  0  0  0  0  0  0  0  0
    6.9440    0.2550   18.0100 N   0  0  0  0  0  0  0  0  0  0  0  0
    7.2210   -0.4620   20.0350 N   0  0  0  0  0  0  0  0  0  0  0  0
    9.2624   -4.9267   25.8634 N   0  0  0  0  0  0  0  0  0  0  0  0
    8.0810   -0.9750   21.0820 N   0  0  0  0  0  0  0  0  0  0  0  0
    6.9247   -5.0497   26.1749 O   0  0  0  0  0  0  0  0  0  0  0  0
    9.1870    1.1500   21.0630 O   0  0  0  0  0  0  0  0  0  0  0  0
   11.5822    5.8217   22.9257 H   0  0  0  0  0  0  0  0  0  0  0  0
   13.3662    4.3457   22.0347 H   0  0  0  0  0  0  0  0  0  0  0  0
    9.5141    4.8332   23.8762 H   0  0  0  0  0  0  0  0  0  0  0  0
    3.2711    2.7870   19.3201 H   0  0  0  0  0  0  0  0  0  0  0  0
    3.6262    2.0082   21.6285 H   0  0  0  0  0  0  0  0  0  0  0  0
   13.0879    1.8892   22.0908 H   0  0  0  0  0  0  0  0  0  0  0  0
    9.2263    2.3782   23.9370 H   0  0  0  0  0  0  0  0  0  0  0  0
    7.5948   -0.7783   24.7966 H   0  0  0  0  0  0  0  0  0  0  0  0
   11.0389   -2.1844   22.6342 H   0  0  0  0  0  0  0  0  0  0  0  0
    4.7816    2.0660   17.4901 H   0  0  0  0  0  0  0  0  0  0  0  0
    5.4934    0.4579   22.1787 H   0  0  0  0  0  0  0  0  0  0  0  0
    7.5642   -2.8624   26.1050 H   0  0  0  0  0  0  0  0  0  0  0  0
   11.0137   -4.2649   23.9418 H   0  0  0  0  0  0  0  0  0  0  0  0
    8.5166   -1.1054   18.4533 H   0  0  0  0  0  0  0  0  0  0  0  0
    7.3543   -6.9829   27.6818 H   0  0  0  0  0  0  0  0  0  0  0  0
    8.4783   -7.5436   26.4372 H   0  0  0  0  0  0  0  0  0  0  0  0
    9.1257   -5.9021   28.9399 H   0  0  0  0  0  0  0  0  0  0  0  0
    9.5814   -7.5840   28.6486 H   0  0  0  0  0  0  0  0  0  0  0  0
   11.1319   -5.3094   28.0513 H   0  0  0  0  0  0  0  0  0  0  0  0
   11.4591   -6.9570   27.5118 H   0  0  0  0  0  0  0  0  0  0  0  0
   11.3214   -5.0711   25.7158 H   0  0  0  0  0  0  0  0  0  0  0  0
   10.4496   -6.5786   25.3788 H   0  0  0  0  0  0  0  0  0  0  0  0
   11.5818    0.0409   22.2535 H   0  0  0  0  0  0  0  0  0  0  0  0
   11.3901    0.0742   23.9855 H   0  0  0  0  0  0  0  0  0  0  0  0
    8.9113    0.7342   23.6444 H   0  0  0  0  0  0  0  0  0  0  0  0
    8.1256   -1.8039   21.3539 H   0  0  0  0  0  0  0  0  0  0  0  0
  1  2  1  0  0  0  0
  1  3  2  0  0  0  0
  2  6  2  0  0  0  0
  3  7  1  0  0  0  0
  4  5  1  0  0  0  0
  4 10  2  0  0  0  0
  5 11  2  0  0  0  0
  6 15  1  0  0  0  0
  7 15  2  0  0  0  0
  8 12  2  0  0  0  0
  8 16  1  0  0  0  0
  9 13  1  0  0  0  0
  9 16  2  0  0  0  0
 10 17  1  0  0  0  0
 11 18  1  0  0  0  0
 12 19  1  0  0  0  0
 13 19  2  0  0  0  0
 14 28  2  0  0  0  0
 14 29  1  0  0  0  0
 15 26  1  0  0  0  0
 16 27  1  0  0  0  0
 17 18  2  0  0  0  0
 17 28  1  0  0  0  0
 18 29  1  0  0  0  0
 19 30  1  0  0  0  0
 20 22  1  0  0  0  0
 20 30  1  0  0  0  0
 20 32  2  0  0  0  0
 21 27  1  6  0  0  0
 21 31  1  0  0  0  0
 21 33  2  0  0  0  0
 22 23  1  0  0  0  0
 23 24  1  0  0  0  0
 24 25  1  0  0  0  0
 25 30  1  0  0  0  0
 26 27  1  0  0  0  0
 29 31  1  0  0  0  0
  1 34  1  0  0  0  0
  2 35  1  0  0  0  0
  3 36  1  0  0  0  0
  4 37  1  0  0  0  0
  5 38  1  0  0  0  0
  6 39  1  0  0  0  0
  7 40  1  0  0  0  0
  8 41  1  0  0  0  0
  9 42  1  0  0  0  0
 10 43  1  0  0  0  0
 11 44  1  0  0  0  0
 12 45  1  0  0  0  0
 13 46  1  0  0  0  0
 14 47  1  0  0  0  0
 22 48  1  0  0  0  0
 22 49  1  0  0  0  0
 23 50  1  0  0  0  0
 23 51  1  0  0  0  0
 24 52  1  0  0  0  0
 24 53  1  0  0  0  0
 25 54  1  0  0  0  0
 25 55  1  0  0  0  0
 26 56  1  0  0  0  0
 26 57  1  0  0  0  0
 27 58  1  0  0  0  0
 31 59  1  0  0  0  0
M  END
> <clash_score>
1.2728248649063287

> <docking_score>
-9.939604759216309

> <overlap_score>
0.9445502758026123

$$$$
BENZO_216_1
  -OEChem-08232013493D

 56 60  0     1  0  0  0  0  0999 V2000
    4.0980    2.1130   19.5350 C   0  0  0  0  0  0  0  0  0  0  0  0
    4.2970    1.6690   20.8430 C   0  0  0  0  0  0  0  0  0  0  0  0
    8.3510   -1.5420   24.6110 C   0  0  0  0  0  0  0  0  0  0  0  0
   10.2760   -2.3270   23.4020 C   0  0  0  0  0  0  0  0  0  0  0  0
    4.9400    1.7060   18.5060 C   0  0  0  0  0  0  0  0  0  0  0  0
    5.3360    0.8000   21.1530 C   0  0  0  0  0  0  0  0  0  0  0  0
    8.3310   -2.7170   25.3430 C   0  0  0  0  0  0  0  0  0  0  0  0
   10.2570   -3.5000   24.1350 C   0  0  0  0  0  0  0  0  0  0  0  0
    8.8849    3.6862   23.6466 C   0  0  0  0  0  0  0  0  0  0  0  0
    9.7306    4.7130   23.2889 C   0  0  0  0  0  0  0  0  0  0  0  0
   10.8444    2.5223   23.1906 C   0  0  0  0  0  0  0  0  0  0  0  0
    7.6830   -0.5170   18.7600 C   0  0  0  0  0  0  0  0  0  0  0  0
    9.3300   -1.3350   23.6390 C   0  0  0  0  0  0  0  0  0  0  0  0
    9.5300    2.4170   23.5898 C   0  0  0  0  0  0  0  0  0  0  0  0
    5.9810    0.8330   18.8060 C   0  0  0  0  0  0  0  0  0  0  0  0
    6.1600    0.3870   20.1140 C   0  0  0  0  0  0  0  0  0  0  0  0
    9.2850   -3.7090   25.1090 C   0  0  0  0  0  0  0  0  0  0  0  0
    8.0643   -5.4721   26.3672 C   0  0  0  0  0  0  0  0  0  0  0  0
    8.9510    0.1280   21.6880 C   0  0  0  0  0  0  0  0  0  0  0  0
    8.2649   -6.7591   27.1477 C   0  0  0  0  0  0  0  0  0  0  0  0
    9.4073   -6.6157   28.1377 C   0  0  0  0  0  0  0  0  0  0  0  0
   10.6967   -6.1489   27.4694 C   0  0  0  0  0  0  0  0  0  0  0  0
   10.4950   -5.7059   26.0212 C   0  0  0  0  0  0  0  0  0  0  0  0
    8.8505    1.1108   23.9272 C   0  0  0  0  0  0  0  0  0  0  0  0
    9.4200   -0.0840   22.9530 C   0  0  1  0  0  0  0  0  0  0  0  0
    6.9440    0.2550   18.0100 N   0  0  0  0  0  0  0  0  0  0  0  0
    7.2210   -0.4620   20.0350 N   0  0  0  0  0  0  0  0  0  0  0  0
    9.2624   -4.9267   25.8634 N   0  0  0  0  0  0  0  0  0  0  0  0
    8.0810   -0.9750   21.0820 N   0  0  0  0  0  0  0  0  0  0  0  0
    6.9247   -5.0497   26.1749 O   0  0  0  0  0  0  0  0  0  0  0  0
    9.1870    1.1500   21.0630 O   0  0  0  0  0  0  0  0  0  0  0  0
   11.2955    4.1459   22.8866 S   0  0  0  0  0  0  0  0  0  0  0  0
    3.2711    2.7870   19.3201 H   0  0  0  0  0  0  0  0  0  0  0  0
    3.6262    2.0082   21.6284 H   0  0  0  0  0  0  0  0  0  0  0  0
    7.5948   -0.7783   24.7966 H   0  0  0  0  0  0  0  0  0  0  0  0
   11.0389   -2.1844   22.6342 H   0  0  0  0  0  0  0  0  0  0  0  0
    4.7816    2.0660   17.4901 H   0  0  0  0  0  0  0  0  0  0  0  0
    5.4934    0.4579   22.1787 H   0  0  0  0  0  0  0  0  0  0  0  0
    7.5642   -2.8624   26.1050 H   0  0  0  0  0  0  0  0  0  0  0  0
   11.0137   -4.2649   23.9418 H   0  0  0  0  0  0  0  0  0  0  0  0
    7.8528    3.8425   23.9343 H   0  0  0  0  0  0  0  0  0  0  0  0
    9.5042    5.7689   23.2439 H   0  0  0  0  0  0  0  0  0  0  0  0
   11.5641    1.7260   23.0605 H   0  0  0  0  0  0  0  0  0  0  0  0
    8.5166   -1.1054   18.4533 H   0  0  0  0  0  0  0  0  0  0  0  0
    7.3543   -6.9829   27.6818 H   0  0  0  0  0  0  0  0  0  0  0  0
    8.4783   -7.5436   26.4372 H   0  0  0  0  0  0  0  0  0  0  0  0
    9.1257   -5.9021   28.9399 H   0  0  0  0  0  0  0  0  0  0  0  0
    9.5814   -7.5840   28.6486 H   0  0  0  0  0  0  0  0  0  0  0  0
   11.1319   -5.3094   28.0513 H   0  0  0  0  0  0  0  0  0  0  0  0
   11.4591   -6.9570   27.5118 H   0  0  0  0  0  0  0  0  0  0  0  0
   11.3214   -5.0711   25.7158 H   0  0  0  0  0  0  0  0  0  0  0  0
   10.4496   -6.5786   25.3788 H   0  0  0  0  0  0  0  0  0  0  0  0
    8.9923    0.9231   25.0006 H   0  0  0  0  0  0  0  0  0  0  0  0
    7.7650    1.2154   23.7981 H   0  0  0  0  0  0  0  0  0  0  0  0
   10.5617    0.2354   22.9523 H   0  0  0  0  0  0  0  0  0  0  0  0
    8.1256   -1.8039   21.3539 H   0  0  0  0  0  0  0  0  0  0  0  0
  1  2  1  0  0  0  0
  1  5  2  0  0  0  0
  2  6  2  0  0  0  0
  3  7  2  0  0  0  0
  3 13  1  0  0  0  0
  4  8  1  0  0  0  0
  4 13  2  0  0  0  0
  5 15  1  0  0  0  0
  6 16  1  0  0  0  0
  7 17  1  0  0  0  0
  8 17  2  0  0  0  0
  9 10  2  0  0  0  0
  9 14  1  0  0  0  0
 10 32  1  0  0  0  0
 11 14  2  0  0  0  0
 11 32  1  0  0  0  0
 12 26  2  0  0  0  0
 12 27  1  0  0  0  0
 13 25  1  0  0  0  0
 14 24  1  0  0  0  0
 15 16  2  0  0  0  0
 15 26  1  0  0  0  0
 16 27  1  0  0  0  0
 17 28  1  0  0  0  0
 18 20  1  0  0  0  0
 18 28  1  0  0  0  0
 18 30  2  0  0  0  0
 19 25  1  1  0  0  0
 19 29  1  0  0  0  0
 19 31  2  0  0  0  0
 20 21  1  0  0  0  0
 21 22  1  0  0  0  0
 22 23  1  0  0  0  0
 23 28  1  0  0  0  0
 24 25  1  0  0  0  0
 27 29  1  0  0  0  0
  1 33  1  0  0  0  0
  2 34  1  0  0  0  0
  3 35  1  0  0  0  0
  4 36  1  0  0  0  0
  5 37  1  0  0  0  0
  6 38  1  0  0  0  0
  7 39  1  0  0  0  0
  8 40  1  0  0  0  0
  9 41  1  0  0  0  0
 10 42  1  0  0  0  0
 11 43  1  0  0  0  0
 12 44  1  0  0  0  0
 20 45  1  0  0  0  0
 20 46  1  0  0  0  0
 21 47  1  0  0  0  0
 21 48  1  0  0  0  0
 22 49  1  0  0  0  0
 22 50  1  0  0  0  0
 23 51  1  0  0  0  0
 23 52  1  0  0  0  0
 24 53  1  0  0  0  0
 24 54  1  0  0  0  0
 25 55  1  0  0  0  0
 29 56  1  0  0  0  0
M  END
> <clash_score>
1.2728248649063287

> <docking_score>
-8.21426010131836

> <overlap_score>
0.8785838484764099

$$$$
BENZO_216_2
  -OEChem-08232013493D

 56 60  0     1  0  0  0  0  0999 V2000
    4.0980    2.1130   19.5350 C   0  0  0  0  0  0  0  0  0  0  0  0
    4.2970    1.6690   20.8430 C   0  0  0  0  0  0  0  0  0  0  0  0
    8.3510   -1.5420   24.6110 C   0  0  0  0  0  0  0  0  0  0  0  0
   10.2760   -2.3270   23.4020 C   0  0  0  0  0  0  0  0  0  0  0  0
    4.9400    1.7060   18.5060 C   0  0  0  0  0  0  0  0  0  0  0  0
    5.3360    0.8000   21.1530 C   0  0  0  0  0  0  0  0  0  0  0  0
    8.3310   -2.7170   25.3430 C   0  0  0  0  0  0  0  0  0  0  0  0
   10.2570   -3.5000   24.1350 C   0  0  0  0  0  0  0  0  0  0  0  0
   11.9711    2.6535   22.0835 C   0  0  0  0  0  0  0  0  0  0  0  0
   11.9494    4.0182   22.2699 C   0  0  0  0  0  0  0  0  0  0  0  0
   10.5124    2.8425   23.8832 C   0  0  0  0  0  0  0  0  0  0  0  0
    7.6830   -0.5170   18.7600 C   0  0  0  0  0  0  0  0  0  0  0  0
    9.3300   -1.3350   23.6390 C   0  0  0  0  0  0  0  0  0  0  0  0
   11.1386    1.9724   23.0179 C   0  0  0  0  0  0  0  0  0  0  0  0
    5.9810    0.8330   18.8060 C   0  0  0  0  0  0  0  0  0  0  0  0
    6.1600    0.3870   20.1140 C   0  0  0  0  0  0  0  0  0  0  0  0
    9.2850   -3.7090   25.1090 C   0  0  0  0  0  0  0  0  0  0  0  0
    8.0643   -5.4721   26.3672 C   0  0  0  0  0  0  0  0  0  0  0  0
    8.9510    0.1280   21.6880 C   0  0  0  0  0  0  0  0  0  0  0  0
    8.2649   -6.7591   27.1477 C   0  0  0  0  0  0  0  0  0  0  0  0
    9.4073   -6.6157   28.1377 C   0  0  0  0  0  0  0  0  0  0  0  0
   10.6967   -6.1489   27.4694 C   0  0  0  0  0  0  0  0  0  0  0  0
   10.4950   -5.7059   26.0212 C   0  0  0  0  0  0  0  0  0  0  0  0
   10.9652    0.4722   23.0544 C   0  0  0  0  0  0  0  0  0  0  0  0
    9.4200   -0.0840   22.9530 C   0  0  2  0  0  0  0  0  0  0  0  0
    6.9440    0.2550   18.0100 N   0  0  0  0  0  0  0  0  0  0  0  0
    7.2210   -0.4620   20.0350 N   0  0  0  0  0  0  0  0  0  0  0  0
    9.2624   -4.9267   25.8634 N   0  0  0  0  0  0  0  0  0  0  0  0
    8.0810   -0.9750   21.0820 N   0  0  0  0  0  0  0  0  0  0  0  0
    6.9247   -5.0497   26.1749 O   0  0  0  0  0  0  0  0  0  0  0  0
    9.1870    1.1500   21.0630 O   0  0  0  0  0  0  0  0  0  0  0  0
   10.9285    4.4733   23.5673 S   0  0  0  0  0  0  0  0  0  0  0  0
    3.2711    2.7870   19.3201 H   0  0  0  0  0  0  0  0  0  0  0  0
    3.6262    2.0082   21.6285 H   0  0  0  0  0  0  0  0  0  0  0  0
    7.5948   -0.7783   24.7966 H   0  0  0  0  0  0  0  0  0  0  0  0
   11.0389   -2.1844   22.6342 H   0  0  0  0  0  0  0  0  0  0  0  0
    4.7816    2.0660   17.4901 H   0  0  0  0  0  0  0  0  0  0  0  0
    5.4934    0.4579   22.1787 H   0  0  0  0  0  0  0  0  0  0  0  0
    7.5642   -2.8624   26.1050 H   0  0  0  0  0  0  0  0  0  0  0  0
   11.0137   -4.2649   23.9418 H   0  0  0  0  0  0  0  0  0  0  0  0
   12.5582    2.1709   21.3124 H   0  0  0  0  0  0  0  0  0  0  0  0
   12.4846    4.7697   21.7069 H   0  0  0  0  0  0  0  0  0  0  0  0
    9.8309    2.6028   24.6876 H   0  0  0  0  0  0  0  0  0  0  0  0
    8.5166   -1.1054   18.4533 H   0  0  0  0  0  0  0  0  0  0  0  0
    7.3543   -6.9829   27.6818 H   0  0  0  0  0  0  0  0  0  0  0  0
    8.4783   -7.5436   26.4372 H   0  0  0  0  0  0  0  0  0  0  0  0
    9.1257   -5.9021   28.9399 H   0  0  0  0  0  0  0  0  0  0  0  0
    9.5814   -7.5840   28.6486 H   0  0  0  0  0  0  0  0  0  0  0  0
   11.1319   -5.3094   28.0513 H   0  0  0  0  0  0  0  0  0  0  0  0
   11.4591   -6.9570   27.5118 H   0  0  0  0  0  0  0  0  0  0  0  0
   11.3214   -5.0711   25.7158 H   0  0  0  0  0  0  0  0  0  0  0  0
   10.4496   -6.5786   25.3788 H   0  0  0  0  0  0  0  0  0  0  0  0
   11.5818    0.0409   22.2535 H   0  0  0  0  0  0  0  0  0  0  0  0
   11.3901    0.0742   23.9855 H   0  0  0  0  0  0  0  0  0  0  0  0
    8.9113    0.7342   23.6444 H   0  0  0  0  0  0  0  0  0  0  0  0
    8.1256   -1.8039   21.3539 H   0  0  0  0  0  0  0  0  0  0  0  0
  1  2  1  0  0  0  0
  1  5  2  0  0  0  0
  2  6  2  0  0  0  0
  3  7  2  0  0  0  0
  3 13  1  0  0  0  0
  4  8  1  0  0  0  0
  4 13  2  0  0  0  0
  5 15  1  0  0  0  0
  6 16  1  0  0  0  0
  7 17  1  0  0  0  0
  8 17  2  0  0  0  0
  9 10  2  0  0  0  0
  9 14  1  0  0  0  0
 10 32  1  0  0  0  0
 11 14  2  0  0  0  0
 11 32  1  0  0  0  0
 12 26  2  0  0  0  0
 12 27  1  0  0  0  0
 13 25  1  0  0  0  0
 14 24  1  0  0  0  0
 15 16  2  0  0  0  0
 15 26  1  0  0  0  0
 16 27  1  0  0  0  0
 17 28  1  0  0  0  0
 18 20  1  0  0  0  0
 18 28  1  0  0  0  0
 18 30  2  0  0  0  0
 19 25  1  6  0  0  0
 19 29  1  0  0  0  0
 19 31  2  0  0  0  0
 20 21  1  0  0  0  0
 21 22  1  0  0  0  0
 22 23  1  0  0  0  0
 23 28  1  0  0  0  0
 24 25  1  0  0  0  0
 27 29  1  0  0  0  0
  1 33  1  0  0  0  0
  2 34  1  0  0  0  0
  3 35  1  0  0  0  0
  4 36  1  0  0  0  0
  5 37  1  0  0  0  0
  6 38  1  0  0  0  0
  7 39  1  0  0  0  0
  8 40  1  0  0  0  0
  9 41  1  0  0  0  0
 10 42  1  0  0  0  0
 11 43  1  0  0  0  0
 12 44  1  0  0  0  0
 20 45  1  0  0  0  0
 20 46  1  0  0  0  0
 21 47  1  0  0  0  0
 21 48  1  0  0  0  0
 22 49  1  0  0  0  0
 22 50  1  0  0  0  0
 23 51  1  0  0  0  0
 23 52  1  0  0  0  0
 24 53  1  0  0  0  0
 24 54  1  0  0  0  0
 25 55  1  0  0  0  0
 29 56  1  0  0  0  0
M  END
> <clash_score>
1.2728248649063287

> <docking_score>
-8.867073059082031

> <overlap_score>
0.9346531629562378

$$$$
BENZO_218_1
  -OEChem-08232013493D

 59 63  0     1  0  0  0  0  0999 V2000
    4.0980    2.1130   19.5350 C   0  0  0  0  0  0  0  0  0  0  0  0
    4.2970    1.6690   20.8430 C   0  0  0  0  0  0  0  0  0  0  0  0
   11.3400    3.9813   23.9270 C   0  0  0  0  0  0  0  0  0  0  0  0
   10.7114    2.7759   24.2388 C   0  0  0  0  0  0  0  0  0  0  0  0
    8.3510   -1.5420   24.6110 C   0  0  0  0  0  0  0  0  0  0  0  0
   10.2760   -2.3270   23.4020 C   0  0  0  0  0  0  0  0  0  0  0  0
    4.9400    1.7060   18.5060 C   0  0  0  0  0  0  0  0  0  0  0  0
    5.3360    0.8000   21.1530 C   0  0  0  0  0  0  0  0  0  0  0  0
    8.3310   -2.7170   25.3430 C   0  0  0  0  0  0  0  0  0  0  0  0
   10.2570   -3.5000   24.1350 C   0  0  0  0  0  0  0  0  0  0  0  0
   10.7872    4.8281   22.9662 C   0  0  0  0  0  0  0  0  0  0  0  0
    8.9772    3.2638   22.6290 C   0  0  0  0  0  0  0  0  0  0  0  0
    7.6830   -0.5170   18.7600 C   0  0  0  0  0  0  0  0  0  0  0  0
    9.3300   -1.3350   23.6390 C   0  0  0  0  0  0  0  0  0  0  0  0
    9.5300    2.4170   23.5898 C   0  0  0  0  0  0  0  0  0  0  0  0
    5.9810    0.8330   18.8060 C   0  0  0  0  0  0  0  0  0  0  0  0
    6.1600    0.3870   20.1140 C   0  0  0  0  0  0  0  0  0  0  0  0
    9.2850   -3.7090   25.1090 C   0  0  0  0  0  0  0  0  0  0  0  0
    9.6058    4.4693   22.3172 C   0  0  0  0  0  0  0  0  0  0  0  0
    8.2936   -5.1727   26.8573 C   0  0  0  0  0  0  0  0  0  0  0  0
    8.9510    0.1280   21.6880 C   0  0  0  0  0  0  0  0  0  0  0  0
    8.4570   -6.5172   27.5438 C   0  0  0  0  0  0  0  0  0  0  0  0
    9.9041   -6.7452   27.9437 C   0  0  0  0  0  0  0  0  0  0  0  0
   10.8613   -6.5876   26.7664 C   0  0  0  0  0  0  0  0  0  0  0  0
   10.1902   -6.0099   25.5212 C   0  0  0  0  0  0  0  0  0  0  0  0
    8.8505    1.1108   23.9272 C   0  0  0  0  0  0  0  0  0  0  0  0
    9.4200   -0.0840   22.9530 C   0  0  1  0  0  0  0  0  0  0  0  0
    6.9440    0.2550   18.0100 N   0  0  0  0  0  0  0  0  0  0  0  0
    7.2210   -0.4620   20.0350 N   0  0  0  0  0  0  0  0  0  0  0  0
    9.2624   -4.9267   25.8634 N   0  0  0  0  0  0  0  0  0  0  0  0
    8.0810   -0.9750   21.0820 N   0  0  0  0  0  0  0  0  0  0  0  0
    7.3372   -4.4549   27.1472 O   0  0  0  0  0  0  0  0  0  0  0  0
    9.1870    1.1500   21.0630 O   0  0  0  0  0  0  0  0  0  0  0  0
    8.9248    5.5139   21.1311 Cl  0  0  0  0  0  0  0  0  0  0  0  0
    3.2711    2.7870   19.3201 H   0  0  0  0  0  0  0  0  0  0  0  0
    3.6262    2.0082   21.6284 H   0  0  0  0  0  0  0  0  0  0  0  0
   12.2600    4.2603   24.4325 H   0  0  0  0  0  0  0  0  0  0  0  0
   11.1493    2.1222   24.9887 H   0  0  0  0  0  0  0  0  0  0  0  0
    7.5948   -0.7783   24.7966 H   0  0  0  0  0  0  0  0  0  0  0  0
   11.0389   -2.1844   22.6342 H   0  0  0  0  0  0  0  0  0  0  0  0
    4.7816    2.0660   17.4901 H   0  0  0  0  0  0  0  0  0  0  0  0
    5.4934    0.4579   22.1787 H   0  0  0  0  0  0  0  0  0  0  0  0
    7.5642   -2.8624   26.1050 H   0  0  0  0  0  0  0  0  0  0  0  0
   11.0137   -4.2649   23.9418 H   0  0  0  0  0  0  0  0  0  0  0  0
   11.2882    5.7644   22.7331 H   0  0  0  0  0  0  0  0  0  0  0  0
    8.0556    2.9797   22.1262 H   0  0  0  0  0  0  0  0  0  0  0  0
    8.5166   -1.1054   18.4533 H   0  0  0  0  0  0  0  0  0  0  0  0
    7.8354   -6.5308   28.4258 H   0  0  0  0  0  0  0  0  0  0  0  0
    8.1327   -7.2802   26.8520 H   0  0  0  0  0  0  0  0  0  0  0  0
   10.1894   -6.0388   28.7510 H   0  0  0  0  0  0  0  0  0  0  0  0
   10.0147   -7.7577   28.3814 H   0  0  0  0  0  0  0  0  0  0  0  0
   11.7074   -5.9326   27.0628 H   0  0  0  0  0  0  0  0  0  0  0  0
   11.3252   -7.5678   26.5219 H   0  0  0  0  0  0  0  0  0  0  0  0
   10.9447   -5.5942   24.8603 H   0  0  0  0  0  0  0  0  0  0  0  0
    9.6472   -6.7947   25.0059 H   0  0  0  0  0  0  0  0  0  0  0  0
    8.9923    0.9231   25.0006 H   0  0  0  0  0  0  0  0  0  0  0  0
    7.7650    1.2154   23.7981 H   0  0  0  0  0  0  0  0  0  0  0  0
   10.5617    0.2354   22.9523 H   0  0  0  0  0  0  0  0  0  0  0  0
    8.1256   -1.8039   21.3539 H   0  0  0  0  0  0  0  0  0  0  0  0
  1  2  1  0  0  0  0
  1  7  2  0  0  0  0
  2  8  2  0  0  0  0
  3  4  2  0  0  0  0
  3 11  1  0  0  0  0
  4 15  1  0  0  0  0
  5  9  2  0  0  0  0
  5 14  1  0  0  0  0
  6 10  1  0  0  0  0
  6 14  2  0  0  0  0
  7 16  1  0  0  0  0
  8 17  1  0  0  0  0
  9 18  1  0  0  0  0
 10 18  2  0  0  0  0
 11 19  2  0  0  0  0
 12 15  2  0  0  0  0
 12 19  1  0  0  0  0
 13 28  2  0  0  0  0
 13 29  1  0  0  0  0
 14 27  1  0  0  0  0
 15 26  1  0  0  0  0
 16 17  2  0  0  0  0
 16 28  1  0  0  0  0
 17 29  1  0  0  0  0
 18 30  1  0  0  0  0
 19 34  1  0  0  0  0
 20 22  1  0  0  0  0
 20 30  1  0  0  0  0
 20 32  2  0  0  0  0
 21 27  1  1  0  0  0
 21 31  1  0  0  0  0
 21 33  2  0  0  0  0
 22 23  1  0  0  0  0
 23 24  1  0  0  0  0
 24 25  1  0  0  0  0
 25 30  1  0  0  0  0
 26 27  1  0  0  0  0
 29 31  1  0  0  0  0
  1 35  1  0  0  0  0
  2 36  1  0  0  0  0
  3 37  1  0  0  0  0
  4 38  1  0  0  0  0
  5 39  1  0  0  0  0
  6 40  1  0  0  0  0
  7 41  1  0  0  0  0
  8 42  1  0  0  0  0
  9 43  1  0  0  0  0
 10 44  1  0  0  0  0
 11 45  1  0  0  0  0
 12 46  1  0  0  0  0
 13 47  1  0  0  0  0
 22 48  1  0  0  0  0
 22 49  1  0  0  0  0
 23 50  1  0  0  0  0
 23 51  1  0  0  0  0
 24 52  1  0  0  0  0
 24 53  1  0  0  0  0
 25 54  1  0  0  0  0
 25 55  1  0  0  0  0
 26 56  1  0  0  0  0
 26 57  1  0  0  0  0
 27 58  1  0  0  0  0
 31 59  1  0  0  0  0
M  END
> <clash_score>
2.754442320719673

> <docking_score>
-5.815288543701172

> <overlap_score>
0.8663573265075684

$$$$
BENZO_219_2
  -OEChem-08232013493D

 59 63  0     1  0  0  0  0  0999 V2000
    4.0980    2.1130   19.5350 C   0  0  0  0  0  0  0  0  0  0  0  0
    4.2970    1.6690   20.8430 C   0  0  0  0  0  0  0  0  0  0  0  0
    8.3510   -1.5420   24.6110 C   0  0  0  0  0  0  0  0  0  0  0  0
   10.2760   -2.3270   23.4020 C   0  0  0  0  0  0  0  0  0  0  0  0
    4.9400    1.7060   18.5060 C   0  0  0  0  0  0  0  0  0  0  0  0
    5.3360    0.8000   21.1530 C   0  0  0  0  0  0  0  0  0  0  0  0
    8.3310   -2.7170   25.3430 C   0  0  0  0  0  0  0  0  0  0  0  0
   10.2570   -3.5000   24.1350 C   0  0  0  0  0  0  0  0  0  0  0  0
   10.8281    2.6090   23.0801 C   0  0  0  0  0  0  0  0  0  0  0  0
    9.0171    3.6855   23.7097 C   0  0  0  0  0  0  0  0  0  0  0  0
    7.6830   -0.5170   18.7600 C   0  0  0  0  0  0  0  0  0  0  0  0
    9.3300   -1.3350   23.6390 C   0  0  0  0  0  0  0  0  0  0  0  0
    9.5300    2.4170   23.5898 C   0  0  0  0  0  0  0  0  0  0  0  0
    5.9810    0.8330   18.8060 C   0  0  0  0  0  0  0  0  0  0  0  0
    6.1600    0.3870   20.1140 C   0  0  0  0  0  0  0  0  0  0  0  0
    9.2850   -3.7090   25.1090 C   0  0  0  0  0  0  0  0  0  0  0  0
    8.0643   -5.4721   26.3672 C   0  0  0  0  0  0  0  0  0  0  0  0
    8.9510    0.1280   21.6880 C   0  0  0  0  0  0  0  0  0  0  0  0
    8.2649   -6.7591   27.1477 C   0  0  0  0  0  0  0  0  0  0  0  0
    9.4073   -6.6157   28.1377 C   0  0  0  0  0  0  0  0  0  0  0  0
   10.6967   -6.1489   27.4694 C   0  0  0  0  0  0  0  0  0  0  0  0
   10.4950   -5.7059   26.0212 C   0  0  0  0  0  0  0  0  0  0  0  0
    9.9292    5.9676   23.2208 C   0  0  0  0  0  0  0  0  0  0  0  0
    8.8505    1.1108   23.9272 C   0  0  0  0  0  0  0  0  0  0  0  0
    9.4200   -0.0840   22.9530 C   0  0  2  0  0  0  0  0  0  0  0  0
   11.1217    3.8980   22.8891 N   0  0  0  0  0  0  0  0  0  0  0  0
    6.9440    0.2550   18.0100 N   0  0  0  0  0  0  0  0  0  0  0  0
   10.0008    4.5274   23.2809 N   0  0  0  0  0  0  0  0  0  0  0  0
    7.2210   -0.4620   20.0350 N   0  0  0  0  0  0  0  0  0  0  0  0
    9.2624   -4.9267   25.8634 N   0  0  0  0  0  0  0  0  0  0  0  0
    8.0810   -0.9750   21.0820 N   0  0  0  0  0  0  0  0  0  0  0  0
    6.9247   -5.0497   26.1749 O   0  0  0  0  0  0  0  0  0  0  0  0
    9.1870    1.1500   21.0630 O   0  0  0  0  0  0  0  0  0  0  0  0
    3.2711    2.7870   19.3201 H   0  0  0  0  0  0  0  0  0  0  0  0
    3.6262    2.0082   21.6284 H   0  0  0  0  0  0  0  0  0  0  0  0
    7.5948   -0.7783   24.7966 H   0  0  0  0  0  0  0  0  0  0  0  0
   11.0389   -2.1844   22.6342 H   0  0  0  0  0  0  0  0  0  0  0  0
    4.7816    2.0660   17.4901 H   0  0  0  0  0  0  0  0  0  0  0  0
    5.4934    0.4579   22.1787 H   0  0  0  0  0  0  0  0  0  0  0  0
    7.5642   -2.8624   26.1050 H   0  0  0  0  0  0  0  0  0  0  0  0
   11.0137   -4.2649   23.9418 H   0  0  0  0  0  0  0  0  0  0  0  0
   11.5739    1.8650   22.8382 H   0  0  0  0  0  0  0  0  0  0  0  0
    8.0593    4.0517   24.0538 H   0  0  0  0  0  0  0  0  0  0  0  0
    8.5166   -1.1054   18.4533 H   0  0  0  0  0  0  0  0  0  0  0  0
    7.3543   -6.9829   27.6818 H   0  0  0  0  0  0  0  0  0  0  0  0
    8.4783   -7.5436   26.4372 H   0  0  0  0  0  0  0  0  0  0  0  0
    9.1257   -5.9021   28.9399 H   0  0  0  0  0  0  0  0  0  0  0  0
    9.5814   -7.5840   28.6486 H   0  0  0  0  0  0  0  0  0  0  0  0
   11.1319   -5.3094   28.0513 H   0  0  0  0  0  0  0  0  0  0  0  0
   11.4591   -6.9570   27.5118 H   0  0  0  0  0  0  0  0  0  0  0  0
   11.3214   -5.0711   25.7158 H   0  0  0  0  0  0  0  0  0  0  0  0
   10.4496   -6.5786   25.3788 H   0  0  0  0  0  0  0  0  0  0  0  0
   10.2845    6.3631   24.1759 H   0  0  0  0  0  0  0  0  0  0  0  0
   10.5553    6.3294   22.4005 H   0  0  0  0  0  0  0  0  0  0  0  0
    8.8938    6.2708   23.0416 H   0  0  0  0  0  0  0  0  0  0  0  0
    8.9923    0.9231   25.0006 H   0  0  0  0  0  0  0  0  0  0  0  0
    7.7650    1.2154   23.7981 H   0  0  0  0  0  0  0  0  0  0  0  0
   10.5617    0.2354   22.9523 H   0  0  0  0  0  0  0  0  0  0  0  0
    8.1256   -1.8039   21.3539 H   0  0  0  0  0  0  0  0  0  0  0  0
  1  2  1  0  0  0  0
  1  5  2  0  0  0  0
  2  6  2  0  0  0  0
  3  7  2  0  0  0  0
  3 12  1  0  0  0  0
  4  8  1  0  0  0  0
  4 12  2  0  0  0  0
  5 14  1  0  0  0  0
  6 15  1  0  0  0  0
  7 16  1  0  0  0  0
  8 16  2  0  0  0  0
  9 13  1  0  0  0  0
  9 26  2  0  0  0  0
 10 13  2  0  0  0  0
 10 28  1  0  0  0  0
 11 27  2  0  0  0  0
 11 29  1  0  0  0  0
 12 25  1  0  0  0  0
 13 24  1  0  0  0  0
 14 15  2  0  0  0  0
 14 27  1  0  0  0  0
 15 29  1  0  0  0  0
 16 30  1  0  0  0  0
 17 19  1  0  0  0  0
 17 30  1  0  0  0  0
 17 32  2  0  0  0  0
 18 25  1  0  0  0  0
 18 31  1  0  0  0  0
 18 33  2  0  0  0  0
 19 20  1  0  0  0  0
 20 21  1  0  0  0  0
 21 22  1  0  0  0  0
 22 30  1  0  0  0  0
 23 28  1  0  0  0  0
 24 25  1  6  0  0  0
 26 28  1  0  0  0  0
 29 31  1  0  0  0  0
  1 34  1  0  0  0  0
  2 35  1  0  0  0  0
  3 36  1  0  0  0  0
  4 37  1  0  0  0  0
  5 38  1  0  0  0  0
  6 39  1  0  0  0  0
  7 40  1  0  0  0  0
  8 41  1  0  0  0  0
  9 42  1  0  0  0  0
 10 43  1  0  0  0  0
 11 44  1  0  0  0  0
 19 45  1  0  0  0  0
 19 46  1  0  0  0  0
 20 47  1  0  0  0  0
 20 48  1  0  0  0  0
 21 49  1  0  0  0  0
 21 50  1  0  0  0  0
 22 51  1  0  0  0  0
 22 52  1  0  0  0  0
 23 53  1  0  0  0  0
 23 54  1  0  0  0  0
 23 55  1  0  0  0  0
 24 56  1  0  0  0  0
 24 57  1  0  0  0  0
 25 58  1  0  0  0  0
 31 59  1  0  0  0  0
M  END
> <clash_score>
1.2728248649063287

> <docking_score>
-8.601234436035156

> <overlap_score>
0.8765918016433716

$$$$
BENZO_221_1
  -OEChem-08232013493D

 58 62  0     1  0  0  0  0  0999 V2000
   10.7843    4.8294   22.9654 C   0  0  0  0  0  0  0  0  0  0  0  0
   11.3381    3.9837   23.9264 C   0  0  0  0  0  0  0  0  0  0  0  0
    9.6033    4.4690   22.3165 C   0  0  0  0  0  0  0  0  0  0  0  0
    4.0980    2.1130   19.5350 C   0  0  0  0  0  0  0  0  0  0  0  0
    4.2970    1.6690   20.8430 C   0  0  0  0  0  0  0  0  0  0  0  0
   10.7110    2.7775   24.2386 C   0  0  0  0  0  0  0  0  0  0  0  0
    8.9761    3.2628   22.6287 C   0  0  0  0  0  0  0  0  0  0  0  0
    8.3510   -1.5420   24.6110 C   0  0  0  0  0  0  0  0  0  0  0  0
   10.2760   -2.3270   23.4020 C   0  0  0  0  0  0  0  0  0  0  0  0
    4.9400    1.7060   18.5060 C   0  0  0  0  0  0  0  0  0  0  0  0
    5.3360    0.8000   21.1530 C   0  0  0  0  0  0  0  0  0  0  0  0
    8.3310   -2.7170   25.3430 C   0  0  0  0  0  0  0  0  0  0  0  0
   10.2570   -3.5000   24.1350 C   0  0  0  0  0  0  0  0  0  0  0  0
    7.6830   -0.5170   18.7600 C   0  0  0  0  0  0  0  0  0  0  0  0
    9.5300    2.4170   23.5897 C   0  0  0  0  0  0  0  0  0  0  0  0
    9.3300   -1.3350   23.6390 C   0  0  0  0  0  0  0  0  0  0  0  0
    5.9810    0.8330   18.8060 C   0  0  0  0  0  0  0  0  0  0  0  0
    6.1600    0.3870   20.1140 C   0  0  0  0  0  0  0  0  0  0  0  0
    9.2850   -3.7090   25.1090 C   0  0  0  0  0  0  0  0  0  0  0  0
    8.9510    0.1280   21.6880 C   0  0  0  0  0  0  0  0  0  0  0  0
    8.7671   -4.9535   27.2147 C   0  0  0  0  0  0  0  0  0  0  0  0
    9.3066   -6.1865   25.1649 C   0  0  0  0  0  0  0  0  0  0  0  0
    7.3847   -5.5970   27.2000 C   0  0  0  0  0  0  0  0  0  0  0  0
    7.9070   -6.7999   25.2264 C   0  0  0  0  0  0  0  0  0  0  0  0
    8.8504    1.1108   23.9271 C   0  0  0  0  0  0  0  0  0  0  0  0
    9.4200   -0.0840   22.9530 C   0  0  1  0  0  0  0  0  0  0  0  0
    6.9440    0.2550   18.0100 N   0  0  0  0  0  0  0  0  0  0  0  0
    7.2210   -0.4620   20.0350 N   0  0  0  0  0  0  0  0  0  0  0  0
    9.2641   -4.8845   25.8388 N   0  0  0  0  0  0  0  0  0  0  0  0
    8.0810   -0.9750   21.0820 N   0  0  0  0  0  0  0  0  0  0  0  0
    9.1870    1.1500   21.0630 O   0  0  0  0  0  0  0  0  0  0  0  0
    7.4533   -6.8877   26.5818 O   0  0  0  0  0  0  0  0  0  0  0  0
   11.2720    5.7692   22.7234 H   0  0  0  0  0  0  0  0  0  0  0  0
   12.2571    4.2647   24.4325 H   0  0  0  0  0  0  0  0  0  0  0  0
    9.1712    5.1277   21.5691 H   0  0  0  0  0  0  0  0  0  0  0  0
    3.2711    2.7870   19.3201 H   0  0  0  0  0  0  0  0  0  0  0  0
    3.6262    2.0082   21.6284 H   0  0  0  0  0  0  0  0  0  0  0  0
   11.1499    2.1247   24.9886 H   0  0  0  0  0  0  0  0  0  0  0  0
    8.0564    2.9902   22.1180 H   0  0  0  0  0  0  0  0  0  0  0  0
    7.5957   -0.7779   24.7973 H   0  0  0  0  0  0  0  0  0  0  0  0
   11.0384   -2.1852   22.6338 H   0  0  0  0  0  0  0  0  0  0  0  0
    4.7816    2.0660   17.4901 H   0  0  0  0  0  0  0  0  0  0  0  0
    5.4934    0.4579   22.1787 H   0  0  0  0  0  0  0  0  0  0  0  0
    7.5634   -2.8637   26.1037 H   0  0  0  0  0  0  0  0  0  0  0  0
   11.0139   -4.2645   23.9419 H   0  0  0  0  0  0  0  0  0  0  0  0
    8.5166   -1.1054   18.4533 H   0  0  0  0  0  0  0  0  0  0  0  0
    8.7013   -3.9575   27.6574 H   0  0  0  0  0  0  0  0  0  0  0  0
    9.4480   -5.5636   27.8142 H   0  0  0  0  0  0  0  0  0  0  0  0
   10.0131   -6.8375   25.6814 H   0  0  0  0  0  0  0  0  0  0  0  0
    9.6116   -6.0794   24.1250 H   0  0  0  0  0  0  0  0  0  0  0  0
    7.0306   -5.7388   28.2232 H   0  0  0  0  0  0  0  0  0  0  0  0
    6.6546   -4.9740   26.6757 H   0  0  0  0  0  0  0  0  0  0  0  0
    7.1892   -6.2226   24.6319 H   0  0  0  0  0  0  0  0  0  0  0  0
    7.9315   -7.8151   24.8187 H   0  0  0  0  0  0  0  0  0  0  0  0
    8.9922    0.9231   25.0006 H   0  0  0  0  0  0  0  0  0  0  0  0
    7.7650    1.2154   23.7980 H   0  0  0  0  0  0  0  0  0  0  0  0
   10.5617    0.2354   22.9523 H   0  0  0  0  0  0  0  0  0  0  0  0
    8.1256   -1.8039   21.3539 H   0  0  0  0  0  0  0  0  0  0  0  0
  1  2  1  0  0  0  0
  1  3  2  0  0  0  0
  2  6  2  0  0  0  0
  3  7  1  0  0  0  0
  4  5  1  0  0  0  0
  4 10  2  0  0  0  0
  5 11  2  0  0  0  0
  6 15  1  0  0  0  0
  7 15  2  0  0  0  0
  8 12  2  0  0  0  0
  8 16  1  0  0  0  0
  9 13  1  0  0  0  0
  9 16  2  0  0  0  0
 10 17  1  0  0  0  0
 11 18  1  0  0  0  0
 12 19  1  0  0  0  0
 13 19  2  0  0  0  0
 14 27  2  0  0  0  0
 14 28  1  0  0  0  0
 15 25  1  0  0  0  0
 16 26  1  0  0  0  0
 17 18  2  0  0  0  0
 17 27  1  0  0  0  0
 18 28  1  0  0  0  0
 19 29  1  0  0  0  0
 20 26  1  1  0  0  0
 20 30  1  0  0  0  0
 20 31  2  0  0  0  0
 21 23  1  0  0  0  0
 21 29  1  0  0  0  0
 22 24  1  0  0  0  0
 22 29  1  0  0  0  0
 23 32  1  0  0  0  0
 24 32  1  0  0  0  0
 25 26  1  0  0  0  0
 28 30  1  0  0  0  0
  1 33  1  0  0  0  0
  2 34  1  0  0  0  0
  3 35  1  0  0  0  0
  4 36  1  0  0  0  0
  5 37  1  0  0  0  0
  6 38  1  0  0  0  0
  7 39  1  0  0  0  0
  8 40  1  0  0  0  0
  9 41  1  0  0  0  0
 10 42  1  0  0  0  0
 11 43  1  0  0  0  0
 12 44  1  0  0  0  0
 13 45  1  0  0  0  0
 14 46  1  0  0  0  0
 21 47  1  0  0  0  0
 21 48  1  0  0  0  0
 22 49  1  0  0  0  0
 22 50  1  0  0  0  0
 23 51  1  0  0  0  0
 23 52  1  0  0  0  0
 24 53  1  0  0  0  0
 24 54  1  0  0  0  0
 25 55  1  0  0  0  0
 25 56  1  0  0  0  0
 26 57  1  0  0  0  0
 30 58  1  0  0  0  0
M  END
> <clash_score>
0

> <docking_score>
-7.839353561401367

> <overlap_score>
0.8671145439147949

$$$$
BENZO_219_1
  -OEChem-08232013493D

 59 63  0     1  0  0  0  0  0999 V2000
    4.0980    2.1130   19.5350 C   0  0  0  0  0  0  0  0  0  0  0  0
    4.2970    1.6690   20.8430 C   0  0  0  0  0  0  0  0  0  0  0  0
    8.3510   -1.5420   24.6110 C   0  0  0  0  0  0  0  0  0  0  0  0
   10.2760   -2.3270   23.4020 C   0  0  0  0  0  0  0  0  0  0  0  0
    4.9400    1.7060   18.5060 C   0  0  0  0  0  0  0  0  0  0  0  0
    5.3360    0.8000   21.1530 C   0  0  0  0  0  0  0  0  0  0  0  0
    8.3310   -2.7170   25.3430 C   0  0  0  0  0  0  0  0  0  0  0  0
   10.2570   -3.5000   24.1350 C   0  0  0  0  0  0  0  0  0  0  0  0
   10.2425    2.9569   23.4758 C   0  0  0  0  0  0  0  0  0  0  0  0
   12.2094    2.6821   22.5319 C   0  0  0  0  0  0  0  0  0  0  0  0
    7.6830   -0.5170   18.7600 C   0  0  0  0  0  0  0  0  0  0  0  0
    9.3300   -1.3350   23.6390 C   0  0  0  0  0  0  0  0  0  0  0  0
   11.1386    1.9724   23.0179 C   0  0  0  0  0  0  0  0  0  0  0  0
    5.9810    0.8330   18.8060 C   0  0  0  0  0  0  0  0  0  0  0  0
    6.1600    0.3870   20.1140 C   0  0  0  0  0  0  0  0  0  0  0  0
    9.2850   -3.7090   25.1090 C   0  0  0  0  0  0  0  0  0  0  0  0
    8.0643   -5.4721   26.3672 C   0  0  0  0  0  0  0  0  0  0  0  0
    8.9510    0.1280   21.6880 C   0  0  0  0  0  0  0  0  0  0  0  0
    8.2649   -6.7591   27.1477 C   0  0  0  0  0  0  0  0  0  0  0  0
    9.4073   -6.6157   28.1377 C   0  0  0  0  0  0  0  0  0  0  0  0
   10.6967   -6.1489   27.4694 C   0  0  0  0  0  0  0  0  0  0  0  0
   10.4950   -5.7059   26.0212 C   0  0  0  0  0  0  0  0  0  0  0  0
   12.7248    5.1287   22.3669 C   0  0  0  0  0  0  0  0  0  0  0  0
   10.9652    0.4722   23.0544 C   0  0  0  0  0  0  0  0  0  0  0  0
    9.4200   -0.0840   22.9530 C   0  0  1  0  0  0  0  0  0  0  0  0
   10.7040    4.1975   23.2969 N   0  0  0  0  0  0  0  0  0  0  0  0
    6.9440    0.2550   18.0100 N   0  0  0  0  0  0  0  0  0  0  0  0
   11.9018    3.9973   22.7212 N   0  0  0  0  0  0  0  0  0  0  0  0
    7.2210   -0.4620   20.0350 N   0  0  0  0  0  0  0  0  0  0  0  0
    9.2624   -4.9267   25.8634 N   0  0  0  0  0  0  0  0  0  0  0  0
    8.0810   -0.9750   21.0820 N   0  0  0  0  0  0  0  0  0  0  0  0
    6.9247   -5.0497   26.1749 O   0  0  0  0  0  0  0  0  0  0  0  0
    9.1870    1.1500   21.0630 O   0  0  0  0  0  0  0  0  0  0  0  0
    3.2711    2.7870   19.3201 H   0  0  0  0  0  0  0  0  0  0  0  0
    3.6262    2.0082   21.6285 H   0  0  0  0  0  0  0  0  0  0  0  0
    7.5948   -0.7783   24.7966 H   0  0  0  0  0  0  0  0  0  0  0  0
   11.0389   -2.1844   22.6342 H   0  0  0  0  0  0  0  0  0  0  0  0
    4.7816    2.0660   17.4901 H   0  0  0  0  0  0  0  0  0  0  0  0
    5.4934    0.4579   22.1787 H   0  0  0  0  0  0  0  0  0  0  0  0
    7.5642   -2.8624   26.1050 H   0  0  0  0  0  0  0  0  0  0  0  0
   11.0137   -4.2649   23.9418 H   0  0  0  0  0  0  0  0  0  0  0  0
    9.2724    2.8245   23.9336 H   0  0  0  0  0  0  0  0  0  0  0  0
   13.1415    2.3710   22.0799 H   0  0  0  0  0  0  0  0  0  0  0  0
    8.5166   -1.1054   18.4533 H   0  0  0  0  0  0  0  0  0  0  0  0
    7.3543   -6.9829   27.6818 H   0  0  0  0  0  0  0  0  0  0  0  0
    8.4783   -7.5436   26.4372 H   0  0  0  0  0  0  0  0  0  0  0  0
    9.1257   -5.9021   28.9399 H   0  0  0  0  0  0  0  0  0  0  0  0
    9.5814   -7.5840   28.6486 H   0  0  0  0  0  0  0  0  0  0  0  0
   11.1319   -5.3094   28.0513 H   0  0  0  0  0  0  0  0  0  0  0  0
   11.4591   -6.9570   27.5118 H   0  0  0  0  0  0  0  0  0  0  0  0
   11.3214   -5.0711   25.7158 H   0  0  0  0  0  0  0  0  0  0  0  0
   10.4496   -6.5786   25.3788 H   0  0  0  0  0  0  0  0  0  0  0  0
   12.4708    5.4238   21.3454 H   0  0  0  0  0  0  0  0  0  0  0  0
   12.5319    5.9510   23.0615 H   0  0  0  0  0  0  0  0  0  0  0  0
   13.7785    4.8438   22.4329 H   0  0  0  0  0  0  0  0  0  0  0  0
   11.5818    0.0409   22.2535 H   0  0  0  0  0  0  0  0  0  0  0  0
   11.3901    0.0742   23.9855 H   0  0  0  0  0  0  0  0  0  0  0  0
    8.9113    0.7342   23.6444 H   0  0  0  0  0  0  0  0  0  0  0  0
    8.1256   -1.8039   21.3539 H   0  0  0  0  0  0  0  0  0  0  0  0
  1  2  1  0  0  0  0
  1  5  2  0  0  0  0
  2  6  2  0  0  0  0
  3  7  2  0  0  0  0
  3 12  1  0  0  0  0
  4  8  1  0  0  0  0
  4 12  2  0  0  0  0
  5 14  1  0  0  0  0
  6 15  1  0  0  0  0
  7 16  1  0  0  0  0
  8 16  2  0  0  0  0
  9 13  1  0  0  0  0
  9 26  2  0  0  0  0
 10 13  2  0  0  0  0
 10 28  1  0  0  0  0
 11 27  2  0  0  0  0
 11 29  1  0  0  0  0
 12 25  1  0  0  0  0
 13 24  1  0  0  0  0
 14 15  2  0  0  0  0
 14 27  1  0  0  0  0
 15 29  1  0  0  0  0
 16 30  1  0  0  0  0
 17 19  1  0  0  0  0
 17 30  1  0  0  0  0
 17 32  2  0  0  0  0
 18 25  1  0  0  0  0
 18 31  1  0  0  0  0
 18 33  2  0  0  0  0
 19 20  1  0  0  0  0
 20 21  1  0  0  0  0
 21 22  1  0  0  0  0
 22 30  1  0  0  0  0
 23 28  1  0  0  0  0
 24 25  1  1  0  0  0
 26 28  1  0  0  0  0
 29 31  1  0  0  0  0
  1 34  1  0  0  0  0
  2 35  1  0  0  0  0
  3 36  1  0  0  0  0
  4 37  1  0  0  0  0
  5 38  1  0  0  0  0
  6 39  1  0  0  0  0
  7 40  1  0  0  0  0
  8 41  1  0  0  0  0
  9 42  1  0  0  0  0
 10 43  1  0  0  0  0
 11 44  1  0  0  0  0
 19 45  1  0  0  0  0
 19 46  1  0  0  0  0
 20 47  1  0  0  0  0
 20 48  1  0  0  0  0
 21 49  1  0  0  0  0
 21 50  1  0  0  0  0
 22 51  1  0  0  0  0
 22 52  1  0  0  0  0
 23 53  1  0  0  0  0
 23 54  1  0  0  0  0
 23 55  1  0  0  0  0
 24 56  1  0  0  0  0
 24 57  1  0  0  0  0
 25 58  1  0  0  0  0
 31 59  1  0  0  0  0
M  END
> <clash_score>
1.2728248649063287

> <docking_score>
-9.896568298339844

> <overlap_score>
0.9396191835403442

$$$$
BENZO_218_2
  -OEChem-08232013493D

 59 63  0     1  0  0  0  0  0999 V2000
    4.0980    2.1130   19.5350 C   0  0  0  0  0  0  0  0  0  0  0  0
    4.2970    1.6690   20.8430 C   0  0  0  0  0  0  0  0  0  0  0  0
   10.2958    4.1873   23.4875 C   0  0  0  0  0  0  0  0  0  0  0  0
   10.1359    2.8021   23.5198 C   0  0  0  0  0  0  0  0  0  0  0  0
    8.3510   -1.5420   24.6110 C   0  0  0  0  0  0  0  0  0  0  0  0
   10.2760   -2.3270   23.4020 C   0  0  0  0  0  0  0  0  0  0  0  0
    4.9400    1.7060   18.5060 C   0  0  0  0  0  0  0  0  0  0  0  0
    5.3360    0.8000   21.1530 C   0  0  0  0  0  0  0  0  0  0  0  0
    8.3310   -2.7170   25.3430 C   0  0  0  0  0  0  0  0  0  0  0  0
   10.2570   -3.5000   24.1350 C   0  0  0  0  0  0  0  0  0  0  0  0
   11.4584    4.7430   22.9532 C   0  0  0  0  0  0  0  0  0  0  0  0
   12.3012    2.5280   22.4837 C   0  0  0  0  0  0  0  0  0  0  0  0
    7.6830   -0.5170   18.7600 C   0  0  0  0  0  0  0  0  0  0  0  0
    9.3300   -1.3350   23.6390 C   0  0  0  0  0  0  0  0  0  0  0  0
   11.1386    1.9724   23.0179 C   0  0  0  0  0  0  0  0  0  0  0  0
    5.9810    0.8330   18.8060 C   0  0  0  0  0  0  0  0  0  0  0  0
    6.1600    0.3870   20.1140 C   0  0  0  0  0  0  0  0  0  0  0  0
    9.2850   -3.7090   25.1090 C   0  0  0  0  0  0  0  0  0  0  0  0
   12.4611    3.9133   22.4513 C   0  0  0  0  0  0  0  0  0  0  0  0
    8.0643   -5.4721   26.3672 C   0  0  0  0  0  0  0  0  0  0  0  0
    8.9510    0.1280   21.6880 C   0  0  0  0  0  0  0  0  0  0  0  0
    8.2649   -6.7591   27.1477 C   0  0  0  0  0  0  0  0  0  0  0  0
    9.4073   -6.6157   28.1377 C   0  0  0  0  0  0  0  0  0  0  0  0
   10.6967   -6.1489   27.4694 C   0  0  0  0  0  0  0  0  0  0  0  0
   10.4950   -5.7059   26.0212 C   0  0  0  0  0  0  0  0  0  0  0  0
   10.9652    0.4722   23.0544 C   0  0  0  0  0  0  0  0  0  0  0  0
    9.4200   -0.0840   22.9530 C   0  0  2  0  0  0  0  0  0  0  0  0
    6.9440    0.2550   18.0100 N   0  0  0  0  0  0  0  0  0  0  0  0
    7.2210   -0.4620   20.0350 N   0  0  0  0  0  0  0  0  0  0  0  0
    9.2624   -4.9267   25.8634 N   0  0  0  0  0  0  0  0  0  0  0  0
    8.0810   -0.9750   21.0820 N   0  0  0  0  0  0  0  0  0  0  0  0
    6.9247   -5.0497   26.1749 O   0  0  0  0  0  0  0  0  0  0  0  0
    9.1870    1.1500   21.0630 O   0  0  0  0  0  0  0  0  0  0  0  0
   13.8957    4.5993   21.7933 Cl  0  0  0  0  0  0  0  0  0  0  0  0
    3.2711    2.7870   19.3201 H   0  0  0  0  0  0  0  0  0  0  0  0
    3.6262    2.0082   21.6285 H   0  0  0  0  0  0  0  0  0  0  0  0
    9.5149    4.8331   23.8785 H   0  0  0  0  0  0  0  0  0  0  0  0
    9.2268    2.3779   23.9380 H   0  0  0  0  0  0  0  0  0  0  0  0
    7.5948   -0.7783   24.7966 H   0  0  0  0  0  0  0  0  0  0  0  0
   11.0389   -2.1844   22.6342 H   0  0  0  0  0  0  0  0  0  0  0  0
    4.7816    2.0660   17.4901 H   0  0  0  0  0  0  0  0  0  0  0  0
    5.4934    0.4579   22.1787 H   0  0  0  0  0  0  0  0  0  0  0  0
    7.5642   -2.8624   26.1050 H   0  0  0  0  0  0  0  0  0  0  0  0
   11.0137   -4.2649   23.9418 H   0  0  0  0  0  0  0  0  0  0  0  0
   11.5695    5.8243   22.9348 H   0  0  0  0  0  0  0  0  0  0  0  0
   13.0798    1.8768   22.0932 H   0  0  0  0  0  0  0  0  0  0  0  0
    8.5166   -1.1054   18.4533 H   0  0  0  0  0  0  0  0  0  0  0  0
    7.3543   -6.9829   27.6818 H   0  0  0  0  0  0  0  0  0  0  0  0
    8.4783   -7.5436   26.4372 H   0  0  0  0  0  0  0  0  0  0  0  0
    9.1257   -5.9021   28.9399 H   0  0  0  0  0  0  0  0  0  0  0  0
    9.5814   -7.5840   28.6486 H   0  0  0  0  0  0  0  0  0  0  0  0
   11.1319   -5.3094   28.0513 H   0  0  0  0  0  0  0  0  0  0  0  0
   11.4591   -6.9570   27.5118 H   0  0  0  0  0  0  0  0  0  0  0  0
   11.3214   -5.0711   25.7158 H   0  0  0  0  0  0  0  0  0  0  0  0
   10.4496   -6.5786   25.3788 H   0  0  0  0  0  0  0  0  0  0  0  0
   11.5818    0.0409   22.2535 H   0  0  0  0  0  0  0  0  0  0  0  0
   11.3901    0.0742   23.9855 H   0  0  0  0  0  0  0  0  0  0  0  0
    8.9113    0.7342   23.6444 H   0  0  0  0  0  0  0  0  0  0  0  0
    8.1256   -1.8039   21.3539 H   0  0  0  0  0  0  0  0  0  0  0  0
  1  2  1  0  0  0  0
  1  7  2  0  0  0  0
  2  8  2  0  0  0  0
  3  4  2  0  0  0  0
  3 11  1  0  0  0  0
  4 15  1  0  0  0  0
  5  9  2  0  0  0  0
  5 14  1  0  0  0  0
  6 10  1  0  0  0  0
  6 14  2  0  0  0  0
  7 16  1  0  0  0  0
  8 17  1  0  0  0  0
  9 18  1  0  0  0  0
 10 18  2  0  0  0  0
 11 19  2  0  0  0  0
 12 15  2  0  0  0  0
 12 19  1  0  0  0  0
 13 28  2  0  0  0  0
 13 29  1  0  0  0  0
 14 27  1  0  0  0  0
 15 26  1  0  0  0  0
 16 17  2  0  0  0  0
 16 28  1  0  0  0  0
 17 29  1  0  0  0  0
 18 30  1  0  0  0  0
 19 34  1  0  0  0  0
 20 22  1  0  0  0  0
 20 30  1  0  0  0  0
 20 32  2  0  0  0  0
 21 27  1  6  0  0  0
 21 31  1  0  0  0  0
 21 33  2  0  0  0  0
 22 23  1  0  0  0  0
 23 24  1  0  0  0  0
 24 25  1  0  0  0  0
 25 30  1  0  0  0  0
 26 27  1  0  0  0  0
 29 31  1  0  0  0  0
  1 35  1  0  0  0  0
  2 36  1  0  0  0  0
  3 37  1  0  0  0  0
  4 38  1  0  0  0  0
  5 39  1  0  0  0  0
  6 40  1  0  0  0  0
  7 41  1  0  0  0  0
  8 42  1  0  0  0  0
  9 43  1  0  0  0  0
 10 44  1  0  0  0  0
 11 45  1  0  0  0  0
 12 46  1  0  0  0  0
 13 47  1  0  0  0  0
 22 48  1  0  0  0  0
 22 49  1  0  0  0  0
 23 50  1  0  0  0  0
 23 51  1  0  0  0  0
 24 52  1  0  0  0  0
 24 53  1  0  0  0  0
 25 54  1  0  0  0  0
 25 55  1  0  0  0  0
 26 56  1  0  0  0  0
 26 57  1  0  0  0  0
 27 58  1  0  0  0  0
 31 59  1  0  0  0  0
M  END
> <clash_score>
1.2728248649063287

> <docking_score>
-10.291322708129883

> <overlap_score>
0.9450420141220093

$$$$
BENZO_220_1
  -OEChem-08232013493D

 55 59  0     1  0  0  0  0  0999 V2000
    4.0980    2.1130   19.5350 C   0  0  0  0  0  0  0  0  0  0  0  0
    4.2970    1.6690   20.8430 C   0  0  0  0  0  0  0  0  0  0  0  0
    8.3510   -1.5420   24.6110 C   0  0  0  0  0  0  0  0  0  0  0  0
   10.2760   -2.3270   23.4020 C   0  0  0  0  0  0  0  0  0  0  0  0
    4.9400    1.7060   18.5060 C   0  0  0  0  0  0  0  0  0  0  0  0
    5.3360    0.8000   21.1530 C   0  0  0  0  0  0  0  0  0  0  0  0
    8.3310   -2.7170   25.3430 C   0  0  0  0  0  0  0  0  0  0  0  0
   10.2570   -3.5000   24.1350 C   0  0  0  0  0  0  0  0  0  0  0  0
    8.8849    3.6862   23.6465 C   0  0  0  0  0  0  0  0  0  0  0  0
    9.7306    4.7130   23.2887 C   0  0  0  0  0  0  0  0  0  0  0  0
   10.8444    2.5222   23.1905 C   0  0  0  0  0  0  0  0  0  0  0  0
    7.6830   -0.5170   18.7600 C   0  0  0  0  0  0  0  0  0  0  0  0
    9.3300   -1.3350   23.6390 C   0  0  0  0  0  0  0  0  0  0  0  0
    9.5300    2.4170   23.5897 C   0  0  0  0  0  0  0  0  0  0  0  0
    5.9810    0.8330   18.8060 C   0  0  0  0  0  0  0  0  0  0  0  0
    6.1600    0.3870   20.1140 C   0  0  0  0  0  0  0  0  0  0  0  0
    9.2850   -3.7090   25.1090 C   0  0  0  0  0  0  0  0  0  0  0  0
    8.9510    0.1280   21.6880 C   0  0  0  0  0  0  0  0  0  0  0  0
    8.7671   -4.9535   27.2147 C   0  0  0  0  0  0  0  0  0  0  0  0
    9.3066   -6.1865   25.1649 C   0  0  0  0  0  0  0  0  0  0  0  0
    7.3847   -5.5970   27.2000 C   0  0  0  0  0  0  0  0  0  0  0  0
    7.9070   -6.7999   25.2264 C   0  0  0  0  0  0  0  0  0  0  0  0
    8.8505    1.1108   23.9271 C   0  0  0  0  0  0  0  0  0  0  0  0
    9.4200   -0.0840   22.9530 C   0  0  1  0  0  0  0  0  0  0  0  0
    6.9440    0.2550   18.0100 N   0  0  0  0  0  0  0  0  0  0  0  0
    7.2210   -0.4620   20.0350 N   0  0  0  0  0  0  0  0  0  0  0  0
    9.2641   -4.8845   25.8388 N   0  0  0  0  0  0  0  0  0  0  0  0
    8.0810   -0.9750   21.0820 N   0  0  0  0  0  0  0  0  0  0  0  0
    9.1870    1.1500   21.0630 O   0  0  0  0  0  0  0  0  0  0  0  0
    7.4533   -6.8877   26.5818 O   0  0  0  0  0  0  0  0  0  0  0  0
   11.2955    4.1459   22.8865 S   0  0  0  0  0  0  0  0  0  0  0  0
    3.2711    2.7870   19.3201 H   0  0  0  0  0  0  0  0  0  0  0  0
    3.6262    2.0082   21.6284 H   0  0  0  0  0  0  0  0  0  0  0  0
    7.5957   -0.7779   24.7973 H   0  0  0  0  0  0  0  0  0  0  0  0
   11.0384   -2.1852   22.6338 H   0  0  0  0  0  0  0  0  0  0  0  0
    4.7816    2.0660   17.4901 H   0  0  0  0  0  0  0  0  0  0  0  0
    5.4934    0.4579   22.1787 H   0  0  0  0  0  0  0  0  0  0  0  0
    7.5634   -2.8637   26.1037 H   0  0  0  0  0  0  0  0  0  0  0  0
   11.0139   -4.2645   23.9419 H   0  0  0  0  0  0  0  0  0  0  0  0
    7.8528    3.8425   23.9342 H   0  0  0  0  0  0  0  0  0  0  0  0
    9.5042    5.7689   23.2436 H   0  0  0  0  0  0  0  0  0  0  0  0
   11.5641    1.7260   23.0605 H   0  0  0  0  0  0  0  0  0  0  0  0
    8.5166   -1.1054   18.4533 H   0  0  0  0  0  0  0  0  0  0  0  0
    8.7013   -3.9575   27.6574 H   0  0  0  0  0  0  0  0  0  0  0  0
    9.4480   -5.5636   27.8142 H   0  0  0  0  0  0  0  0  0  0  0  0
   10.0131   -6.8375   25.6814 H   0  0  0  0  0  0  0  0  0  0  0  0
    9.6116   -6.0794   24.1250 H   0  0  0  0  0  0  0  0  0  0  0  0
    7.0306   -5.7388   28.2232 H   0  0  0  0  0  0  0  0  0  0  0  0
    6.6546   -4.9740   26.6757 H   0  0  0  0  0  0  0  0  0  0  0  0
    7.1892   -6.2226   24.6319 H   0  0  0  0  0  0  0  0  0  0  0  0
    7.9315   -7.8151   24.8187 H   0  0  0  0  0  0  0  0  0  0  0  0
    8.9923    0.9231   25.0006 H   0  0  0  0  0  0  0  0  0  0  0  0
    7.7650    1.2154   23.7980 H   0  0  0  0  0  0  0  0  0  0  0  0
   10.5617    0.2354   22.9523 H   0  0  0  0  0  0  0  0  0  0  0  0
    8.1256   -1.8039   21.3539 H   0  0  0  0  0  0  0  0  0  0  0  0
  1  2  1  0  0  0  0
  1  5  2  0  0  0  0
  2  6  2  0  0  0  0
  3  7  2  0  0  0  0
  3 13  1  0  0  0  0
  4  8  1  0  0  0  0
  4 13  2  0  0  0  0
  5 15  1  0  0  0  0
  6 16  1  0  0  0  0
  7 17  1  0  0  0  0
  8 17  2  0  0  0  0
  9 10  2  0  0  0  0
  9 14  1  0  0  0  0
 10 31  1  0  0  0  0
 11 14  2  0  0  0  0
 11 31  1  0  0  0  0
 12 25  2  0  0  0  0
 12 26  1  0  0  0  0
 13 24  1  0  0  0  0
 14 23  1  0  0  0  0
 15 16  2  0  0  0  0
 15 25  1  0  0  0  0
 16 26  1  0  0  0  0
 17 27  1  0  0  0  0
 18 24  1  1  0  0  0
 18 28  1  0  0  0  0
 18 29  2  0  0  0  0
 19 21  1  0  0  0  0
 19 27  1  0  0  0  0
 20 22  1  0  0  0  0
 20 27  1  0  0  0  0
 21 30  1  0  0  0  0
 22 30  1  0  0  0  0
 23 24  1  0  0  0  0
 26 28  1  0  0  0  0
  1 32  1  0  0  0  0
  2 33  1  0  0  0  0
  3 34  1  0  0  0  0
  4 35  1  0  0  0  0
  5 36  1  0  0  0  0
  6 37  1  0  0  0  0
  7 38  1  0  0  0  0
  8 39  1  0  0  0  0
  9 40  1  0  0  0  0
 10 41  1  0  0  0  0
 11 42  1  0  0  0  0
 12 43  1  0  0  0  0
 19 44  1  0  0  0  0
 19 45  1  0  0  0  0
 20 46  1  0  0  0  0
 20 47  1  0  0  0  0
 21 48  1  0  0  0  0
 21 49  1  0  0  0  0
 22 50  1  0  0  0  0
 22 51  1  0  0  0  0
 23 52  1  0  0  0  0
 23 53  1  0  0  0  0
 24 54  1  0  0  0  0
 28 55  1  0  0  0  0
M  END
> <clash_score>
0

> <docking_score>
-9.450004577636719

> <overlap_score>
0.8789114952087402

$$$$
BENZO_221_2
  -OEChem-08232013493D

 58 62  0     1  0  0  0  0  0999 V2000
   11.4573    4.7431   22.9506 C   0  0  0  0  0  0  0  0  0  0  0  0
   12.4604    3.9133   22.4498 C   0  0  0  0  0  0  0  0  0  0  0  0
   10.2948    4.1875   23.4851 C   0  0  0  0  0  0  0  0  0  0  0  0
    4.0980    2.1130   19.5350 C   0  0  0  0  0  0  0  0  0  0  0  0
    4.2970    1.6690   20.8430 C   0  0  0  0  0  0  0  0  0  0  0  0
   12.3011    2.5280   22.4834 C   0  0  0  0  0  0  0  0  0  0  0  0
   10.1354    2.8022   23.5187 C   0  0  0  0  0  0  0  0  0  0  0  0
    8.3510   -1.5420   24.6110 C   0  0  0  0  0  0  0  0  0  0  0  0
   10.2760   -2.3270   23.4020 C   0  0  0  0  0  0  0  0  0  0  0  0
    4.9400    1.7060   18.5060 C   0  0  0  0  0  0  0  0  0  0  0  0
    5.3360    0.8000   21.1530 C   0  0  0  0  0  0  0  0  0  0  0  0
    8.3310   -2.7170   25.3430 C   0  0  0  0  0  0  0  0  0  0  0  0
   10.2570   -3.5000   24.1350 C   0  0  0  0  0  0  0  0  0  0  0  0
    7.6830   -0.5170   18.7600 C   0  0  0  0  0  0  0  0  0  0  0  0
   11.1386    1.9724   23.0179 C   0  0  0  0  0  0  0  0  0  0  0  0
    9.3300   -1.3350   23.6390 C   0  0  0  0  0  0  0  0  0  0  0  0
    5.9810    0.8330   18.8060 C   0  0  0  0  0  0  0  0  0  0  0  0
    6.1600    0.3870   20.1140 C   0  0  0  0  0  0  0  0  0  0  0  0
    9.2850   -3.7090   25.1090 C   0  0  0  0  0  0  0  0  0  0  0  0
    8.9510    0.1280   21.6880 C   0  0  0  0  0  0  0  0  0  0  0  0
    8.7671   -4.9535   27.2147 C   0  0  0  0  0  0  0  0  0  0  0  0
    9.3066   -6.1865   25.1649 C   0  0  0  0  0  0  0  0  0  0  0  0
    7.3847   -5.5970   27.2000 C   0  0  0  0  0  0  0  0  0  0  0  0
    7.9070   -6.7999   25.2264 C   0  0  0  0  0  0  0  0  0  0  0  0
   10.9652    0.4722   23.0544 C   0  0  0  0  0  0  0  0  0  0  0  0
    9.4200   -0.0840   22.9530 C   0  0  2  0  0  0  0  0  0  0  0  0
    6.9440    0.2550   18.0100 N   0  0  0  0  0  0  0  0  0  0  0  0
    7.2210   -0.4620   20.0350 N   0  0  0  0  0  0  0  0  0  0  0  0
    9.2641   -4.8845   25.8388 N   0  0  0  0  0  0  0  0  0  0  0  0
    8.0810   -0.9750   21.0820 N   0  0  0  0  0  0  0  0  0  0  0  0
    9.1870    1.1500   21.0630 O   0  0  0  0  0  0  0  0  0  0  0  0
    7.4533   -6.8877   26.5818 O   0  0  0  0  0  0  0  0  0  0  0  0
   11.5821    5.8217   22.9256 H   0  0  0  0  0  0  0  0  0  0  0  0
   13.3661    4.3457   22.0346 H   0  0  0  0  0  0  0  0  0  0  0  0
    9.5141    4.8332   23.8761 H   0  0  0  0  0  0  0  0  0  0  0  0
    3.2711    2.7870   19.3201 H   0  0  0  0  0  0  0  0  0  0  0  0
    3.6262    2.0082   21.6284 H   0  0  0  0  0  0  0  0  0  0  0  0
   13.0879    1.8893   22.0908 H   0  0  0  0  0  0  0  0  0  0  0  0
    9.2263    2.3782   23.9369 H   0  0  0  0  0  0  0  0  0  0  0  0
    7.5957   -0.7779   24.7973 H   0  0  0  0  0  0  0  0  0  0  0  0
   11.0384   -2.1852   22.6338 H   0  0  0  0  0  0  0  0  0  0  0  0
    4.7816    2.0660   17.4901 H   0  0  0  0  0  0  0  0  0  0  0  0
    5.4934    0.4579   22.1787 H   0  0  0  0  0  0  0  0  0  0  0  0
    7.5634   -2.8637   26.1037 H   0  0  0  0  0  0  0  0  0  0  0  0
   11.0139   -4.2645   23.9419 H   0  0  0  0  0  0  0  0  0  0  0  0
    8.5166   -1.1054   18.4533 H   0  0  0  0  0  0  0  0  0  0  0  0
    8.7013   -3.9575   27.6574 H   0  0  0  0  0  0  0  0  0  0  0  0
    9.4480   -5.5636   27.8142 H   0  0  0  0  0  0  0  0  0  0  0  0
   10.0131   -6.8375   25.6814 H   0  0  0  0  0  0  0  0  0  0  0  0
    9.6116   -6.0794   24.1250 H   0  0  0  0  0  0  0  0  0  0  0  0
    7.0306   -5.7388   28.2232 H   0  0  0  0  0  0  0  0  0  0  0  0
    6.6546   -4.9740   26.6757 H   0  0  0  0  0  0  0  0  0  0  0  0
    7.1892   -6.2226   24.6319 H   0  0  0  0  0  0  0  0  0  0  0  0
    7.9315   -7.8151   24.8187 H   0  0  0  0  0  0  0  0  0  0  0  0
   11.5818    0.0409   22.2535 H   0  0  0  0  0  0  0  0  0  0  0  0
   11.3901    0.0742   23.9855 H   0  0  0  0  0  0  0  0  0  0  0  0
    8.9113    0.7342   23.6444 H   0  0  0  0  0  0  0  0  0  0  0  0
    8.1256   -1.8039   21.3539 H   0  0  0  0  0  0  0  0  0  0  0  0
  1  2  1  0  0  0  0
  1  3  2  0  0  0  0
  2  6  2  0  0  0  0
  3  7  1  0  0  0  0
  4  5  1  0  0  0  0
  4 10  2  0  0  0  0
  5 11  2  0  0  0  0
  6 15  1  0  0  0  0
  7 15  2  0  0  0  0
  8 12  2  0  0  0  0
  8 16  1  0  0  0  0
  9 13  1  0  0  0  0
  9 16  2  0  0  0  0
 10 17  1  0  0  0  0
 11 18  1  0  0  0  0
 12 19  1  0  0  0  0
 13 19  2  0  0  0  0
 14 27  2  0  0  0  0
 14 28  1  0  0  0  0
 15 25  1  0  0  0  0
 16 26  1  0  0  0  0
 17 18  2  0  0  0  0
 17 27  1  0  0  0  0
 18 28  1  0  0  0  0
 19 29  1  0  0  0  0
 20 26  1  6  0  0  0
 20 30  1  0  0  0  0
 20 31  2  0  0  0  0
 21 23  1  0  0  0  0
 21 29  1  0  0  0  0
 22 24  1  0  0  0  0
 22 29  1  0  0  0  0
 23 32  1  0  0  0  0
 24 32  1  0  0  0  0
 25 26  1  0  0  0  0
 28 30  1  0  0  0  0
  1 33  1  0  0  0  0
  2 34  1  0  0  0  0
  3 35  1  0  0  0  0
  4 36  1  0  0  0  0
  5 37  1  0  0  0  0
  6 38  1  0  0  0  0
  7 39  1  0  0  0  0
  8 40  1  0  0  0  0
  9 41  1  0  0  0  0
 10 42  1  0  0  0  0
 11 43  1  0  0  0  0
 12 44  1  0  0  0  0
 13 45  1  0  0  0  0
 14 46  1  0  0  0  0
 21 47  1  0  0  0  0
 21 48  1  0  0  0  0
 22 49  1  0  0  0  0
 22 50  1  0  0  0  0
 23 51  1  0  0  0  0
 23 52  1  0  0  0  0
 24 53  1  0  0  0  0
 24 54  1  0  0  0  0
 25 55  1  0  0  0  0
 25 56  1  0  0  0  0
 26 57  1  0  0  0  0
 30 58  1  0  0  0  0
M  END
> <clash_score>
0

> <docking_score>
-11.175342559814453

> <overlap_score>
0.9449926614761353

$$$$
BENZO_220_2
  -OEChem-08232013493D

 55 59  0     1  0  0  0  0  0999 V2000
    4.0980    2.1130   19.5350 C   0  0  0  0  0  0  0  0  0  0  0  0
    4.2970    1.6690   20.8430 C   0  0  0  0  0  0  0  0  0  0  0  0
    8.3510   -1.5420   24.6110 C   0  0  0  0  0  0  0  0  0  0  0  0
   10.2760   -2.3270   23.4020 C   0  0  0  0  0  0  0  0  0  0  0  0
    4.9400    1.7060   18.5060 C   0  0  0  0  0  0  0  0  0  0  0  0
    5.3360    0.8000   21.1530 C   0  0  0  0  0  0  0  0  0  0  0  0
    8.3310   -2.7170   25.3430 C   0  0  0  0  0  0  0  0  0  0  0  0
   10.2570   -3.5000   24.1350 C   0  0  0  0  0  0  0  0  0  0  0  0
   11.9711    2.6536   22.0835 C   0  0  0  0  0  0  0  0  0  0  0  0
   11.9493    4.0182   22.2699 C   0  0  0  0  0  0  0  0  0  0  0  0
   10.5124    2.8426   23.8831 C   0  0  0  0  0  0  0  0  0  0  0  0
    7.6830   -0.5170   18.7600 C   0  0  0  0  0  0  0  0  0  0  0  0
    9.3300   -1.3350   23.6390 C   0  0  0  0  0  0  0  0  0  0  0  0
   11.1386    1.9724   23.0179 C   0  0  0  0  0  0  0  0  0  0  0  0
    5.9810    0.8330   18.8060 C   0  0  0  0  0  0  0  0  0  0  0  0
    6.1600    0.3870   20.1140 C   0  0  0  0  0  0  0  0  0  0  0  0
    9.2850   -3.7090   25.1090 C   0  0  0  0  0  0  0  0  0  0  0  0
    8.9510    0.1280   21.6880 C   0  0  0  0  0  0  0  0  0  0  0  0
    8.7671   -4.9535   27.2147 C   0  0  0  0  0  0  0  0  0  0  0  0
    9.3066   -6.1865   25.1649 C   0  0  0  0  0  0  0  0  0  0  0  0
    7.3847   -5.5970   27.2000 C   0  0  0  0  0  0  0  0  0  0  0  0
    7.9070   -6.7999   25.2264 C   0  0  0  0  0  0  0  0  0  0  0  0
   10.9652    0.4722   23.0544 C   0  0  0  0  0  0  0  0  0  0  0  0
    9.4200   -0.0840   22.9530 C   0  0  2  0  0  0  0  0  0  0  0  0
    6.9440    0.2550   18.0100 N   0  0  0  0  0  0  0  0  0  0  0  0
    7.2210   -0.4620   20.0350 N   0  0  0  0  0  0  0  0  0  0  0  0
    9.2641   -4.8845   25.8388 N   0  0  0  0  0  0  0  0  0  0  0  0
    8.0810   -0.9750   21.0820 N   0  0  0  0  0  0  0  0  0  0  0  0
    9.1870    1.1500   21.0630 O   0  0  0  0  0  0  0  0  0  0  0  0
    7.4533   -6.8877   26.5818 O   0  0  0  0  0  0  0  0  0  0  0  0
   10.9284    4.4733   23.5672 S   0  0  0  0  0  0  0  0  0  0  0  0
    3.2711    2.7870   19.3201 H   0  0  0  0  0  0  0  0  0  0  0  0
    3.6262    2.0082   21.6284 H   0  0  0  0  0  0  0  0  0  0  0  0
    7.5957   -0.7779   24.7973 H   0  0  0  0  0  0  0  0  0  0  0  0
   11.0384   -2.1852   22.6338 H   0  0  0  0  0  0  0  0  0  0  0  0
    4.7816    2.0660   17.4901 H   0  0  0  0  0  0  0  0  0  0  0  0
    5.4934    0.4579   22.1787 H   0  0  0  0  0  0  0  0  0  0  0  0
    7.5634   -2.8637   26.1037 H   0  0  0  0  0  0  0  0  0  0  0  0
   11.0139   -4.2645   23.9419 H   0  0  0  0  0  0  0  0  0  0  0  0
   12.5582    2.1709   21.3123 H   0  0  0  0  0  0  0  0  0  0  0  0
   12.4846    4.7697   21.7069 H   0  0  0  0  0  0  0  0  0  0  0  0
    9.8309    2.6028   24.6876 H   0  0  0  0  0  0  0  0  0  0  0  0
    8.5166   -1.1054   18.4533 H   0  0  0  0  0  0  0  0  0  0  0  0
    8.7013   -3.9575   27.6574 H   0  0  0  0  0  0  0  0  0  0  0  0
    9.4480   -5.5636   27.8142 H   0  0  0  0  0  0  0  0  0  0  0  0
   10.0131   -6.8375   25.6814 H   0  0  0  0  0  0  0  0  0  0  0  0
    9.6116   -6.0794   24.1250 H   0  0  0  0  0  0  0  0  0  0  0  0
    7.0306   -5.7388   28.2232 H   0  0  0  0  0  0  0  0  0  0  0  0
    6.6546   -4.9740   26.6757 H   0  0  0  0  0  0  0  0  0  0  0  0
    7.1892   -6.2226   24.6319 H   0  0  0  0  0  0  0  0  0  0  0  0
    7.9315   -7.8151   24.8187 H   0  0  0  0  0  0  0  0  0  0  0  0
   11.5818    0.0409   22.2535 H   0  0  0  0  0  0  0  0  0  0  0  0
   11.3901    0.0742   23.9855 H   0  0  0  0  0  0  0  0  0  0  0  0
    8.9113    0.7342   23.6444 H   0  0  0  0  0  0  0  0  0  0  0  0
    8.1256   -1.8039   21.3539 H   0  0  0  0  0  0  0  0  0  0  0  0
  1  2  1  0  0  0  0
  1  5  2  0  0  0  0
  2  6  2  0  0  0  0
  3  7  2  0  0  0  0
  3 13  1  0  0  0  0
  4  8  1  0  0  0  0
  4 13  2  0  0  0  0
  5 15  1  0  0  0  0
  6 16  1  0  0  0  0
  7 17  1  0  0  0  0
  8 17  2  0  0  0  0
  9 10  2  0  0  0  0
  9 14  1  0  0  0  0
 10 31  1  0  0  0  0
 11 14  2  0  0  0  0
 11 31  1  0  0  0  0
 12 25  2  0  0  0  0
 12 26  1  0  0  0  0
 13 24  1  0  0  0  0
 14 23  1  0  0  0  0
 15 16  2  0  0  0  0
 15 25  1  0  0  0  0
 16 26  1  0  0  0  0
 17 27  1  0  0  0  0
 18 24  1  6  0  0  0
 18 28  1  0  0  0  0
 18 29  2  0  0  0  0
 19 21  1  0  0  0  0
 19 27  1  0  0  0  0
 20 22  1  0  0  0  0
 20 27  1  0  0  0  0
 21 30  1  0  0  0  0
 22 30  1  0  0  0  0
 23 24  1  0  0  0  0
 26 28  1  0  0  0  0
  1 32  1  0  0  0  0
  2 33  1  0  0  0  0
  3 34  1  0  0  0  0
  4 35  1  0  0  0  0
  5 36  1  0  0  0  0
  6 37  1  0  0  0  0
  7 38  1  0  0  0  0
  8 39  1  0  0  0  0
  9 40  1  0  0  0  0
 10 41  1  0  0  0  0
 11 42  1  0  0  0  0
 12 43  1  0  0  0  0
 19 44  1  0  0  0  0
 19 45  1  0  0  0  0
 20 46  1  0  0  0  0
 20 47  1  0  0  0  0
 21 48  1  0  0  0  0
 21 49  1  0  0  0  0
 22 50  1  0  0  0  0
 22 51  1  0  0  0  0
 23 52  1  0  0  0  0
 23 53  1  0  0  0  0
 24 54  1  0  0  0  0
 28 55  1  0  0  0  0
M  END
> <clash_score>
0

> <docking_score>
-10.103031158447266

> <overlap_score>
0.9350790977478027

$$$$
BENZO_222_1
  -OEChem-08232013493D

 58 62  0     1  0  0  0  0  0999 V2000
    4.0980    2.1130   19.5350 C   0  0  0  0  0  0  0  0  0  0  0  0
    4.2970    1.6690   20.8430 C   0  0  0  0  0  0  0  0  0  0  0  0
   11.3400    3.9813   23.9268 C   0  0  0  0  0  0  0  0  0  0  0  0
   10.7114    2.7759   24.2387 C   0  0  0  0  0  0  0  0  0  0  0  0
    8.3510   -1.5420   24.6110 C   0  0  0  0  0  0  0  0  0  0  0  0
   10.2760   -2.3270   23.4020 C   0  0  0  0  0  0  0  0  0  0  0  0
    4.9400    1.7060   18.5060 C   0  0  0  0  0  0  0  0  0  0  0  0
    5.3360    0.8000   21.1530 C   0  0  0  0  0  0  0  0  0  0  0  0
    8.3310   -2.7170   25.3430 C   0  0  0  0  0  0  0  0  0  0  0  0
   10.2570   -3.5000   24.1350 C   0  0  0  0  0  0  0  0  0  0  0  0
   10.7872    4.8281   22.9660 C   0  0  0  0  0  0  0  0  0  0  0  0
    8.9772    3.2637   22.6289 C   0  0  0  0  0  0  0  0  0  0  0  0
    7.6830   -0.5170   18.7600 C   0  0  0  0  0  0  0  0  0  0  0  0
    9.3300   -1.3350   23.6390 C   0  0  0  0  0  0  0  0  0  0  0  0
    9.5300    2.4170   23.5897 C   0  0  0  0  0  0  0  0  0  0  0  0
    5.9810    0.8330   18.8060 C   0  0  0  0  0  0  0  0  0  0  0  0
    6.1600    0.3870   20.1140 C   0  0  0  0  0  0  0  0  0  0  0  0
    9.2850   -3.7090   25.1090 C   0  0  0  0  0  0  0  0  0  0  0  0
    9.6058    4.4692   22.3170 C   0  0  0  0  0  0  0  0  0  0  0  0
    8.9510    0.1280   21.6880 C   0  0  0  0  0  0  0  0  0  0  0  0
    8.7671   -4.9535   27.2147 C   0  0  0  0  0  0  0  0  0  0  0  0
    9.3066   -6.1865   25.1649 C   0  0  0  0  0  0  0  0  0  0  0  0
    7.3847   -5.5970   27.2000 C   0  0  0  0  0  0  0  0  0  0  0  0
    7.9070   -6.7999   25.2264 C   0  0  0  0  0  0  0  0  0  0  0  0
    8.8505    1.1108   23.9271 C   0  0  0  0  0  0  0  0  0  0  0  0
    9.4200   -0.0840   22.9530 C   0  0  1  0  0  0  0  0  0  0  0  0
    6.9440    0.2550   18.0100 N   0  0  0  0  0  0  0  0  0  0  0  0
    7.2210   -0.4620   20.0350 N   0  0  0  0  0  0  0  0  0  0  0  0
    9.2641   -4.8845   25.8388 N   0  0  0  0  0  0  0  0  0  0  0  0
    8.0810   -0.9750   21.0820 N   0  0  0  0  0  0  0  0  0  0  0  0
    9.1870    1.1500   21.0630 O   0  0  0  0  0  0  0  0  0  0  0  0
    7.4533   -6.8877   26.5818 O   0  0  0  0  0  0  0  0  0  0  0  0
    8.9248    5.5138   21.1309 Cl  0  0  0  0  0  0  0  0  0  0  0  0
    3.2711    2.7870   19.3201 H   0  0  0  0  0  0  0  0  0  0  0  0
    3.6262    2.0082   21.6284 H   0  0  0  0  0  0  0  0  0  0  0  0
   12.2600    4.2603   24.4323 H   0  0  0  0  0  0  0  0  0  0  0  0
   11.1493    2.1222   24.9886 H   0  0  0  0  0  0  0  0  0  0  0  0
    7.5957   -0.7779   24.7973 H   0  0  0  0  0  0  0  0  0  0  0  0
   11.0384   -2.1852   22.6338 H   0  0  0  0  0  0  0  0  0  0  0  0
    4.7816    2.0660   17.4901 H   0  0  0  0  0  0  0  0  0  0  0  0
    5.4934    0.4579   22.1787 H   0  0  0  0  0  0  0  0  0  0  0  0
    7.5634   -2.8637   26.1037 H   0  0  0  0  0  0  0  0  0  0  0  0
   11.0139   -4.2645   23.9419 H   0  0  0  0  0  0  0  0  0  0  0  0
   11.2882    5.7644   22.7329 H   0  0  0  0  0  0  0  0  0  0  0  0
    8.0556    2.9797   22.1261 H   0  0  0  0  0  0  0  0  0  0  0  0
    8.5166   -1.1054   18.4533 H   0  0  0  0  0  0  0  0  0  0  0  0
    8.7013   -3.9575   27.6574 H   0  0  0  0  0  0  0  0  0  0  0  0
    9.4480   -5.5636   27.8142 H   0  0  0  0  0  0  0  0  0  0  0  0
   10.0131   -6.8375   25.6814 H   0  0  0  0  0  0  0  0  0  0  0  0
    9.6116   -6.0794   24.1250 H   0  0  0  0  0  0  0  0  0  0  0  0
    7.0306   -5.7388   28.2232 H   0  0  0  0  0  0  0  0  0  0  0  0
    6.6546   -4.9740   26.6757 H   0  0  0  0  0  0  0  0  0  0  0  0
    7.1892   -6.2226   24.6319 H   0  0  0  0  0  0  0  0  0  0  0  0
    7.9315   -7.8151   24.8187 H   0  0  0  0  0  0  0  0  0  0  0  0
    8.9923    0.9231   25.0006 H   0  0  0  0  0  0  0  0  0  0  0  0
    7.7650    1.2154   23.7980 H   0  0  0  0  0  0  0  0  0  0  0  0
   10.5617    0.2354   22.9523 H   0  0  0  0  0  0  0  0  0  0  0  0
    8.1256   -1.8039   21.3539 H   0  0  0  0  0  0  0  0  0  0  0  0
  1  2  1  0  0  0  0
  1  7  2  0  0  0  0
  2  8  2  0  0  0  0
  3  4  2  0  0  0  0
  3 11  1  0  0  0  0
  4 15  1  0  0  0  0
  5  9  2  0  0  0  0
  5 14  1  0  0  0  0
  6 10  1  0  0  0  0
  6 14  2  0  0  0  0
  7 16  1  0  0  0  0
  8 17  1  0  0  0  0
  9 18  1  0  0  0  0
 10 18  2  0  0  0  0
 11 19  2  0  0  0  0
 12 15  2  0  0  0  0
 12 19  1  0  0  0  0
 13 27  2  0  0  0  0
 13 28  1  0  0  0  0
 14 26  1  0  0  0  0
 15 25  1  0  0  0  0
 16 17  2  0  0  0  0
 16 27  1  0  0  0  0
 17 28  1  0  0  0  0
 18 29  1  0  0  0  0
 19 33  1  0  0  0  0
 20 26  1  1  0  0  0
 20 30  1  0  0  0  0
 20 31  2  0  0  0  0
 21 23  1  0  0  0  0
 21 29  1  0  0  0  0
 22 24  1  0  0  0  0
 22 29  1  0  0  0  0
 23 32  1  0  0  0  0
 24 32  1  0  0  0  0
 25 26  1  0  0  0  0
 28 30  1  0  0  0  0
  1 34  1  0  0  0  0
  2 35  1  0  0  0  0
  3 36  1  0  0  0  0
  4 37  1  0  0  0  0
  5 38  1  0  0  0  0
  6 39  1  0  0  0  0
  7 40  1  0  0  0  0
  8 41  1  0  0  0  0
  9 42  1  0  0  0  0
 10 43  1  0  0  0  0
 11 44  1  0  0  0  0
 12 45  1  0  0  0  0
 13 46  1  0  0  0  0
 21 47  1  0  0  0  0
 21 48  1  0  0  0  0
 22 49  1  0  0  0  0
 22 50  1  0  0  0  0
 23 51  1  0  0  0  0
 23 52  1  0  0  0  0
 24 53  1  0  0  0  0
 24 54  1  0  0  0  0
 25 55  1  0  0  0  0
 25 56  1  0  0  0  0
 26 57  1  0  0  0  0
 30 58  1  0  0  0  0
M  END
> <clash_score>
0.6943731598061976

> <docking_score>
-7.041228294372559

> <overlap_score>
0.8659301996231079

$$$$
BENZO_225_1
  -OEChem-08232013493D

 53 56  0     1  0  0  0  0  0999 V2000
   11.4296    4.7207   23.1993 C   0  0  0  0  0  0  0  0  0  0  0  0
    4.2970    1.6690   20.8430 C   0  0  0  0  0  0  0  0  0  0  0  0
   12.4494    3.9228   22.6806 C   0  0  0  0  0  0  0  0  0  0  0  0
   10.2636    4.1317   23.6883 C   0  0  0  0  0  0  0  0  0  0  0  0
    4.0980    2.1130   19.5350 C   0  0  0  0  0  0  0  0  0  0  0  0
    5.3360    0.8000   21.1530 C   0  0  0  0  0  0  0  0  0  0  0  0
   12.3031    2.5360   22.6508 C   0  0  0  0  0  0  0  0  0  0  0  0
   10.1173    2.7449   23.6585 C   0  0  0  0  0  0  0  0  0  0  0  0
    8.3510   -1.5420   24.6110 C   0  0  0  0  0  0  0  0  0  0  0  0
   10.2760   -2.3270   23.4020 C   0  0  0  0  0  0  0  0  0  0  0  0
    4.9400    1.7060   18.5060 C   0  0  0  0  0  0  0  0  0  0  0  0
    8.3310   -2.7170   25.3430 C   0  0  0  0  0  0  0  0  0  0  0  0
   10.2570   -3.5000   24.1350 C   0  0  0  0  0  0  0  0  0  0  0  0
    6.1600    0.3870   20.1140 C   0  0  0  0  0  0  0  0  0  0  0  0
   11.1370    1.9470   23.1397 C   0  0  0  0  0  0  0  0  0  0  0  0
    9.3300   -1.3350   23.6390 C   0  0  0  0  0  0  0  0  0  0  0  0
    5.9810    0.8330   18.8060 C   0  0  0  0  0  0  0  0  0  0  0  0
    9.2850   -3.7090   25.1090 C   0  0  0  0  0  0  0  0  0  0  0  0
    7.2210   -0.4620   20.0350 C   0  0  0  0  0  0  0  0  0  0  0  0
    8.9510    0.1280   21.6880 C   0  0  0  0  0  0  0  0  0  0  0  0
    8.2522   -5.1181   26.8654 C   0  0  0  0  0  0  0  0  0  0  0  0
   10.2439   -5.9404   25.5982 C   0  0  0  0  0  0  0  0  0  0  0  0
   10.9777    0.4443   23.1075 C   0  0  0  0  0  0  0  0  0  0  0  0
    9.4200   -0.0840   22.9530 C   0  0  1  0  0  0  0  0  0  0  0  0
    7.6830   -0.5170   18.7600 N   0  0  0  0  0  0  0  0  0  0  0  0
    6.9440    0.2550   18.0100 N   0  0  0  0  0  0  0  0  0  0  0  0
    8.0810   -0.9750   21.0820 N   0  0  0  0  0  0  0  0  0  0  0  0
    9.2638   -4.9025   25.8500 N   0  0  0  0  0  0  0  0  0  0  0  0
    9.1870    1.1500   21.0630 O   0  0  0  0  0  0  0  0  0  0  0  0
   11.5443    5.8005   23.2237 H   0  0  0  0  0  0  0  0  0  0  0  0
    3.6274    2.0126   21.6300 H   0  0  0  0  0  0  0  0  0  0  0  0
   13.3579    4.3812   22.3008 H   0  0  0  0  0  0  0  0  0  0  0  0
    9.4699    4.7525   24.0932 H   0  0  0  0  0  0  0  0  0  0  0  0
    3.2732    2.7875   19.3199 H   0  0  0  0  0  0  0  0  0  0  0  0
    5.4878    0.4645   22.1722 H   0  0  0  0  0  0  0  0  0  0  0  0
   13.1028    1.9222   22.2446 H   0  0  0  0  0  0  0  0  0  0  0  0
    9.2052    2.2948   24.0416 H   0  0  0  0  0  0  0  0  0  0  0  0
    7.5957   -0.7779   24.7973 H   0  0  0  0  0  0  0  0  0  0  0  0
   11.0384   -2.1852   22.6338 H   0  0  0  0  0  0  0  0  0  0  0  0
    4.7853    2.0674   17.4815 H   0  0  0  0  0  0  0  0  0  0  0  0
    7.5634   -2.8637   26.1037 H   0  0  0  0  0  0  0  0  0  0  0  0
   11.0139   -4.2645   23.9419 H   0  0  0  0  0  0  0  0  0  0  0  0
    8.4021   -6.1042   27.3293 H   0  0  0  0  0  0  0  0  0  0  0  0
    8.3318   -4.3354   27.6341 H   0  0  0  0  0  0  0  0  0  0  0  0
    7.2548   -5.0782   26.4033 H   0  0  0  0  0  0  0  0  0  0  0  0
   10.0615   -6.7893   26.2735 H   0  0  0  0  0  0  0  0  0  0  0  0
   10.1605   -6.2778   24.5545 H   0  0  0  0  0  0  0  0  0  0  0  0
   11.2537   -5.5417   25.7750 H   0  0  0  0  0  0  0  0  0  0  0  0
   11.5363    0.0387   22.2539 H   0  0  0  0  0  0  0  0  0  0  0  0
   11.4704    0.0336   23.9998 H   0  0  0  0  0  0  0  0  0  0  0  0
    8.9182    0.7194   23.6789 H   0  0  0  0  0  0  0  0  0  0  0  0
    7.1015    0.3608   17.0505 H   0  0  0  0  0  0  0  0  0  0  0  0
    8.1201   -1.8087   21.3560 H   0  0  0  0  0  0  0  0  0  0  0  0
  1  3  1  0  0  0  0
  1  4  2  0  0  0  0
  2  5  1  0  0  0  0
  2  6  2  0  0  0  0
  3  7  2  0  0  0  0
  4  8  1  0  0  0  0
  5 11  2  0  0  0  0
  6 14  1  0  0  0  0
  7 15  1  0  0  0  0
  8 15  2  0  0  0  0
  9 12  2  0  0  0  0
  9 16  1  0  0  0  0
 10 13  1  0  0  0  0
 10 16  2  0  0  0  0
 11 17  1  0  0  0  0
 12 18  1  0  0  0  0
 13 18  2  0  0  0  0
 14 17  2  0  0  0  0
 14 19  1  0  0  0  0
 15 23  1  0  0  0  0
 16 24  1  0  0  0  0
 17 26  1  0  0  0  0
 18 28  1  0  0  0  0
 19 25  2  0  0  0  0
 19 27  1  0  0  0  0
 20 24  1  0  0  0  0
 20 27  1  0  0  0  0
 20 29  2  0  0  0  0
 21 28  1  0  0  0  0
 22 28  1  0  0  0  0
 23 24  1  1  0  0  0
 25 26  1  0  0  0  0
  1 30  1  0  0  0  0
  2 31  1  0  0  0  0
  3 32  1  0  0  0  0
  4 33  1  0  0  0  0
  5 34  1  0  0  0  0
  6 35  1  0  0  0  0
  7 36  1  0  0  0  0
  8 37  1  0  0  0  0
  9 38  1  0  0  0  0
 10 39  1  0  0  0  0
 11 40  1  0  0  0  0
 12 41  1  0  0  0  0
 13 42  1  0  0  0  0
 21 43  1  0  0  0  0
 21 44  1  0  0  0  0
 21 45  1  0  0  0  0
 22 46  1  0  0  0  0
 22 47  1  0  0  0  0
 22 48  1  0  0  0  0
 23 49  1  0  0  0  0
 23 50  1  0  0  0  0
 24 51  1  0  0  0  0
 26 52  1  0  0  0  0
 27 53  1  0  0  0  0
M  END
> <clash_score>
0

> <docking_score>
-10.565840721130371

> <overlap_score>
0.9330862164497375

$$$$
BENZO_224_1
  -OEChem-08232013493D

 50 53  0     1  0  0  0  0  0999 V2000
    4.2970    1.6690   20.8430 C   0  0  0  0  0  0  0  0  0  0  0  0
    4.0980    2.1130   19.5350 C   0  0  0  0  0  0  0  0  0  0  0  0
    5.3360    0.8000   21.1530 C   0  0  0  0  0  0  0  0  0  0  0  0
    8.3510   -1.5420   24.6110 C   0  0  0  0  0  0  0  0  0  0  0  0
   10.2760   -2.3270   23.4020 C   0  0  0  0  0  0  0  0  0  0  0  0
    4.9400    1.7060   18.5060 C   0  0  0  0  0  0  0  0  0  0  0  0
    8.3310   -2.7170   25.3430 C   0  0  0  0  0  0  0  0  0  0  0  0
   10.2570   -3.5000   24.1350 C   0  0  0  0  0  0  0  0  0  0  0  0
   11.9019    2.6854   22.1912 C   0  0  0  0  0  0  0  0  0  0  0  0
   11.8820    4.0381   22.4508 C   0  0  0  0  0  0  0  0  0  0  0  0
   10.5617    2.7635   24.0885 C   0  0  0  0  0  0  0  0  0  0  0  0
    6.1600    0.3870   20.1140 C   0  0  0  0  0  0  0  0  0  0  0  0
    9.3300   -1.3350   23.6390 C   0  0  0  0  0  0  0  0  0  0  0  0
   11.1370    1.9470   23.1397 C   0  0  0  0  0  0  0  0  0  0  0  0
    5.9810    0.8330   18.8060 C   0  0  0  0  0  0  0  0  0  0  0  0
    9.2850   -3.7090   25.1090 C   0  0  0  0  0  0  0  0  0  0  0  0
    7.2210   -0.4620   20.0350 C   0  0  0  0  0  0  0  0  0  0  0  0
    8.9510    0.1280   21.6880 C   0  0  0  0  0  0  0  0  0  0  0  0
    8.2522   -5.1181   26.8654 C   0  0  0  0  0  0  0  0  0  0  0  0
   10.2439   -5.9404   25.5982 C   0  0  0  0  0  0  0  0  0  0  0  0
   10.9777    0.4443   23.1075 C   0  0  0  0  0  0  0  0  0  0  0  0
    9.4200   -0.0840   22.9530 C   0  0  1  0  0  0  0  0  0  0  0  0
    7.6830   -0.5170   18.7600 N   0  0  0  0  0  0  0  0  0  0  0  0
    6.9440    0.2550   18.0100 N   0  0  0  0  0  0  0  0  0  0  0  0
    8.0810   -0.9750   21.0820 N   0  0  0  0  0  0  0  0  0  0  0  0
    9.2638   -4.9025   25.8500 N   0  0  0  0  0  0  0  0  0  0  0  0
    9.1870    1.1500   21.0630 O   0  0  0  0  0  0  0  0  0  0  0  0
   10.9440    4.4131   23.8336 S   0  0  0  0  0  0  0  0  0  0  0  0
    3.6274    2.0126   21.6300 H   0  0  0  0  0  0  0  0  0  0  0  0
    3.2732    2.7875   19.3199 H   0  0  0  0  0  0  0  0  0  0  0  0
    5.4878    0.4645   22.1722 H   0  0  0  0  0  0  0  0  0  0  0  0
    7.5957   -0.7779   24.7973 H   0  0  0  0  0  0  0  0  0  0  0  0
   11.0384   -2.1852   22.6338 H   0  0  0  0  0  0  0  0  0  0  0  0
    4.7853    2.0674   17.4815 H   0  0  0  0  0  0  0  0  0  0  0  0
    7.5634   -2.8637   26.1037 H   0  0  0  0  0  0  0  0  0  0  0  0
   11.0139   -4.2645   23.9419 H   0  0  0  0  0  0  0  0  0  0  0  0
   12.4414    2.2505   21.3593 H   0  0  0  0  0  0  0  0  0  0  0  0
   12.3738    4.8240   21.8953 H   0  0  0  0  0  0  0  0  0  0  0  0
    9.9357    2.4743   24.9213 H   0  0  0  0  0  0  0  0  0  0  0  0
    8.4021   -6.1042   27.3293 H   0  0  0  0  0  0  0  0  0  0  0  0
    8.3318   -4.3354   27.6341 H   0  0  0  0  0  0  0  0  0  0  0  0
    7.2548   -5.0782   26.4033 H   0  0  0  0  0  0  0  0  0  0  0  0
   10.0615   -6.7893   26.2735 H   0  0  0  0  0  0  0  0  0  0  0  0
   10.1605   -6.2778   24.5545 H   0  0  0  0  0  0  0  0  0  0  0  0
   11.2537   -5.5417   25.7750 H   0  0  0  0  0  0  0  0  0  0  0  0
   11.5363    0.0387   22.2539 H   0  0  0  0  0  0  0  0  0  0  0  0
   11.4704    0.0336   23.9998 H   0  0  0  0  0  0  0  0  0  0  0  0
    8.9182    0.7194   23.6789 H   0  0  0  0  0  0  0  0  0  0  0  0
    7.1015    0.3608   17.0505 H   0  0  0  0  0  0  0  0  0  0  0  0
    8.1201   -1.8087   21.3560 H   0  0  0  0  0  0  0  0  0  0  0  0
  1  2  1  0  0  0  0
  1  3  2  0  0  0  0
  2  6  2  0  0  0  0
  3 12  1  0  0  0  0
  4  7  2  0  0  0  0
  4 13  1  0  0  0  0
  5  8  1  0  0  0  0
  5 13  2  0  0  0  0
  6 15  1  0  0  0  0
  7 16  1  0  0  0  0
  8 16  2  0  0  0  0
  9 10  2  0  0  0  0
  9 14  1  0  0  0  0
 10 28  1  0  0  0  0
 11 14  2  0  0  0  0
 11 28  1  0  0  0  0
 12 15  2  0  0  0  0
 12 17  1  0  0  0  0
 13 22  1  0  0  0  0
 14 21  1  0  0  0  0
 15 24  1  0  0  0  0
 16 26  1  0  0  0  0
 17 23  2  0  0  0  0
 17 25  1  0  0  0  0
 18 22  1  0  0  0  0
 18 25  1  0  0  0  0
 18 27  2  0  0  0  0
 19 26  1  0  0  0  0
 20 26  1  0  0  0  0
 21 22  1  1  0  0  0
 23 24  1  0  0  0  0
  1 29  1  0  0  0  0
  2 30  1  0  0  0  0
  3 31  1  0  0  0  0
  4 32  1  0  0  0  0
  5 33  1  0  0  0  0
  6 34  1  0  0  0  0
  7 35  1  0  0  0  0
  8 36  1  0  0  0  0
  9 37  1  0  0  0  0
 10 38  1  0  0  0  0
 11 39  1  0  0  0  0
 19 40  1  0  0  0  0
 19 41  1  0  0  0  0
 19 42  1  0  0  0  0
 20 43  1  0  0  0  0
 20 44  1  0  0  0  0
 20 45  1  0  0  0  0
 21 46  1  0  0  0  0
 21 47  1  0  0  0  0
 22 48  1  0  0  0  0
 24 49  1  0  0  0  0
 25 50  1  0  0  0  0
M  END
> <clash_score>
0

> <docking_score>
-9.107027053833008

> <overlap_score>
0.9221593737602234

$$$$
BENZO_225_2
  -OEChem-08232013493D

 53 56  0     1  0  0  0  0  0999 V2000
   10.6367    4.9868   23.6018 C   0  0  0  0  0  0  0  0  0  0  0  0
    4.2970    1.6690   20.8430 C   0  0  0  0  0  0  0  0  0  0  0  0
    9.3228    4.8557   24.0511 C   0  0  0  0  0  0  0  0  0  0  0  0
   11.3798    3.8515   23.2784 C   0  0  0  0  0  0  0  0  0  0  0  0
    4.0980    2.1130   19.5350 C   0  0  0  0  0  0  0  0  0  0  0  0
    5.3360    0.8000   21.1530 C   0  0  0  0  0  0  0  0  0  0  0  0
    8.7519    3.5893   24.1772 C   0  0  0  0  0  0  0  0  0  0  0  0
   10.8090    2.5851   23.4045 C   0  0  0  0  0  0  0  0  0  0  0  0
    8.3510   -1.5420   24.6110 C   0  0  0  0  0  0  0  0  0  0  0  0
   10.2760   -2.3270   23.4020 C   0  0  0  0  0  0  0  0  0  0  0  0
    4.9400    1.7060   18.5060 C   0  0  0  0  0  0  0  0  0  0  0  0
    8.3310   -2.7170   25.3430 C   0  0  0  0  0  0  0  0  0  0  0  0
   10.2570   -3.5000   24.1350 C   0  0  0  0  0  0  0  0  0  0  0  0
    6.1600    0.3870   20.1140 C   0  0  0  0  0  0  0  0  0  0  0  0
    9.4950    2.4539   23.8539 C   0  0  0  0  0  0  0  0  0  0  0  0
    9.3300   -1.3350   23.6390 C   0  0  0  0  0  0  0  0  0  0  0  0
    5.9810    0.8330   18.8060 C   0  0  0  0  0  0  0  0  0  0  0  0
    9.2850   -3.7090   25.1090 C   0  0  0  0  0  0  0  0  0  0  0  0
    7.2210   -0.4620   20.0350 C   0  0  0  0  0  0  0  0  0  0  0  0
    8.9510    0.1280   21.6880 C   0  0  0  0  0  0  0  0  0  0  0  0
    8.2522   -5.1181   26.8654 C   0  0  0  0  0  0  0  0  0  0  0  0
   10.2439   -5.9404   25.5982 C   0  0  0  0  0  0  0  0  0  0  0  0
    8.8771    1.0813   23.9905 C   0  0  0  0  0  0  0  0  0  0  0  0
    9.4200   -0.0840   22.9530 C   0  0  2  0  0  0  0  0  0  0  0  0
    7.6830   -0.5170   18.7600 N   0  0  0  0  0  0  0  0  0  0  0  0
    6.9440    0.2550   18.0100 N   0  0  0  0  0  0  0  0  0  0  0  0
    8.0810   -0.9750   21.0820 N   0  0  0  0  0  0  0  0  0  0  0  0
    9.2638   -4.9025   25.8500 N   0  0  0  0  0  0  0  0  0  0  0  0
    9.1870    1.1500   21.0630 O   0  0  0  0  0  0  0  0  0  0  0  0
   11.0806    5.9731   23.5024 H   0  0  0  0  0  0  0  0  0  0  0  0
    3.6274    2.0126   21.6300 H   0  0  0  0  0  0  0  0  0  0  0  0
    8.7437    5.7397   24.3019 H   0  0  0  0  0  0  0  0  0  0  0  0
   12.4025    3.9533   22.9274 H   0  0  0  0  0  0  0  0  0  0  0  0
    3.2732    2.7875   19.3199 H   0  0  0  0  0  0  0  0  0  0  0  0
    5.4878    0.4645   22.1722 H   0  0  0  0  0  0  0  0  0  0  0  0
    7.7275    3.4967   24.5283 H   0  0  0  0  0  0  0  0  0  0  0  0
   11.3955    1.7061   23.1503 H   0  0  0  0  0  0  0  0  0  0  0  0
    7.5957   -0.7779   24.7973 H   0  0  0  0  0  0  0  0  0  0  0  0
   11.0384   -2.1852   22.6338 H   0  0  0  0  0  0  0  0  0  0  0  0
    4.7853    2.0674   17.4815 H   0  0  0  0  0  0  0  0  0  0  0  0
    7.5634   -2.8637   26.1037 H   0  0  0  0  0  0  0  0  0  0  0  0
   11.0139   -4.2645   23.9419 H   0  0  0  0  0  0  0  0  0  0  0  0
    8.4021   -6.1042   27.3293 H   0  0  0  0  0  0  0  0  0  0  0  0
    8.3318   -4.3354   27.6341 H   0  0  0  0  0  0  0  0  0  0  0  0
    7.2548   -5.0782   26.4033 H   0  0  0  0  0  0  0  0  0  0  0  0
   10.0615   -6.7893   26.2735 H   0  0  0  0  0  0  0  0  0  0  0  0
   10.1605   -6.2778   24.5545 H   0  0  0  0  0  0  0  0  0  0  0  0
   11.2537   -5.5417   25.7750 H   0  0  0  0  0  0  0  0  0  0  0  0
    8.9708    0.7434   25.0308 H   0  0  0  0  0  0  0  0  0  0  0  0
    7.7972    1.1781   23.8117 H   0  0  0  0  0  0  0  0  0  0  0  0
   10.5743    0.2174   22.9808 H   0  0  0  0  0  0  0  0  0  0  0  0
    7.1015    0.3608   17.0505 H   0  0  0  0  0  0  0  0  0  0  0  0
    8.1201   -1.8087   21.3560 H   0  0  0  0  0  0  0  0  0  0  0  0
  1  3  1  0  0  0  0
  1  4  2  0  0  0  0
  2  5  1  0  0  0  0
  2  6  2  0  0  0  0
  3  7  2  0  0  0  0
  4  8  1  0  0  0  0
  5 11  2  0  0  0  0
  6 14  1  0  0  0  0
  7 15  1  0  0  0  0
  8 15  2  0  0  0  0
  9 12  2  0  0  0  0
  9 16  1  0  0  0  0
 10 13  1  0  0  0  0
 10 16  2  0  0  0  0
 11 17  1  0  0  0  0
 12 18  1  0  0  0  0
 13 18  2  0  0  0  0
 14 17  2  0  0  0  0
 14 19  1  0  0  0  0
 15 23  1  0  0  0  0
 16 24  1  0  0  0  0
 17 26  1  0  0  0  0
 18 28  1  0  0  0  0
 19 25  2  0  0  0  0
 19 27  1  0  0  0  0
 20 24  1  0  0  0  0
 20 27  1  0  0  0  0
 20 29  2  0  0  0  0
 21 28  1  0  0  0  0
 22 28  1  0  0  0  0
 23 24  1  6  0  0  0
 25 26  1  0  0  0  0
  1 30  1  0  0  0  0
  2 31  1  0  0  0  0
  3 32  1  0  0  0  0
  4 33  1  0  0  0  0
  5 34  1  0  0  0  0
  6 35  1  0  0  0  0
  7 36  1  0  0  0  0
  8 37  1  0  0  0  0
  9 38  1  0  0  0  0
 10 39  1  0  0  0  0
 11 40  1  0  0  0  0
 12 41  1  0  0  0  0
 13 42  1  0  0  0  0
 21 43  1  0  0  0  0
 21 44  1  0  0  0  0
 21 45  1  0  0  0  0
 22 46  1  0  0  0  0
 22 47  1  0  0  0  0
 22 48  1  0  0  0  0
 23 49  1  0  0  0  0
 23 50  1  0  0  0  0
 24 51  1  0  0  0  0
 26 52  1  0  0  0  0
 27 53  1  0  0  0  0
M  END
> <clash_score>
0

> <docking_score>
-9.45120620727539

> <overlap_score>
0.8615378141403198

$$$$
BENZO_223_1
  -OEChem-08232013493D

 58 62  0     1  0  0  0  0  0999 V2000
    4.0980    2.1130   19.5350 C   0  0  0  0  0  0  0  0  0  0  0  0
    4.2970    1.6690   20.8430 C   0  0  0  0  0  0  0  0  0  0  0  0
    8.3510   -1.5420   24.6110 C   0  0  0  0  0  0  0  0  0  0  0  0
   10.2760   -2.3270   23.4020 C   0  0  0  0  0  0  0  0  0  0  0  0
    4.9400    1.7060   18.5060 C   0  0  0  0  0  0  0  0  0  0  0  0
    5.3360    0.8000   21.1530 C   0  0  0  0  0  0  0  0  0  0  0  0
    8.3310   -2.7170   25.3430 C   0  0  0  0  0  0  0  0  0  0  0  0
   10.2570   -3.5000   24.1350 C   0  0  0  0  0  0  0  0  0  0  0  0
   10.2425    2.9569   23.4758 C   0  0  0  0  0  0  0  0  0  0  0  0
   12.2094    2.6821   22.5319 C   0  0  0  0  0  0  0  0  0  0  0  0
    7.6830   -0.5170   18.7600 C   0  0  0  0  0  0  0  0  0  0  0  0
    9.3300   -1.3350   23.6390 C   0  0  0  0  0  0  0  0  0  0  0  0
   11.1386    1.9724   23.0179 C   0  0  0  0  0  0  0  0  0  0  0  0
    5.9810    0.8330   18.8060 C   0  0  0  0  0  0  0  0  0  0  0  0
    6.1600    0.3870   20.1140 C   0  0  0  0  0  0  0  0  0  0  0  0
    9.2850   -3.7090   25.1090 C   0  0  0  0  0  0  0  0  0  0  0  0
    8.9510    0.1280   21.6880 C   0  0  0  0  0  0  0  0  0  0  0  0
    8.7671   -4.9535   27.2147 C   0  0  0  0  0  0  0  0  0  0  0  0
    9.3066   -6.1865   25.1649 C   0  0  0  0  0  0  0  0  0  0  0  0
    7.3847   -5.5970   27.2000 C   0  0  0  0  0  0  0  0  0  0  0  0
    7.9070   -6.7999   25.2264 C   0  0  0  0  0  0  0  0  0  0  0  0
   12.7247    5.1287   22.3668 C   0  0  0  0  0  0  0  0  0  0  0  0
   10.9652    0.4722   23.0544 C   0  0  0  0  0  0  0  0  0  0  0  0
    9.4200   -0.0840   22.9530 C   0  0  1  0  0  0  0  0  0  0  0  0
   10.7039    4.1975   23.2968 N   0  0  0  0  0  0  0  0  0  0  0  0
    6.9440    0.2550   18.0100 N   0  0  0  0  0  0  0  0  0  0  0  0
   11.9017    3.9973   22.7211 N   0  0  0  0  0  0  0  0  0  0  0  0
    7.2210   -0.4620   20.0350 N   0  0  0  0  0  0  0  0  0  0  0  0
    9.2641   -4.8845   25.8388 N   0  0  0  0  0  0  0  0  0  0  0  0
    8.0810   -0.9750   21.0820 N   0  0  0  0  0  0  0  0  0  0  0  0
    9.1870    1.1500   21.0630 O   0  0  0  0  0  0  0  0  0  0  0  0
    7.4533   -6.8877   26.5818 O   0  0  0  0  0  0  0  0  0  0  0  0
    3.2711    2.7870   19.3201 H   0  0  0  0  0  0  0  0  0  0  0  0
    3.6262    2.0082   21.6284 H   0  0  0  0  0  0  0  0  0  0  0  0
    7.5957   -0.7779   24.7973 H   0  0  0  0  0  0  0  0  0  0  0  0
   11.0384   -2.1852   22.6338 H   0  0  0  0  0  0  0  0  0  0  0  0
    4.7816    2.0660   17.4901 H   0  0  0  0  0  0  0  0  0  0  0  0
    5.4934    0.4579   22.1787 H   0  0  0  0  0  0  0  0  0  0  0  0
    7.5634   -2.8637   26.1037 H   0  0  0  0  0  0  0  0  0  0  0  0
   11.0139   -4.2645   23.9419 H   0  0  0  0  0  0  0  0  0  0  0  0
    9.2724    2.8245   23.9335 H   0  0  0  0  0  0  0  0  0  0  0  0
   13.1415    2.3710   22.0799 H   0  0  0  0  0  0  0  0  0  0  0  0
    8.5166   -1.1054   18.4533 H   0  0  0  0  0  0  0  0  0  0  0  0
    8.7013   -3.9575   27.6574 H   0  0  0  0  0  0  0  0  0  0  0  0
    9.4480   -5.5636   27.8142 H   0  0  0  0  0  0  0  0  0  0  0  0
   10.0131   -6.8375   25.6814 H   0  0  0  0  0  0  0  0  0  0  0  0
    9.6116   -6.0794   24.1250 H   0  0  0  0  0  0  0  0  0  0  0  0
    7.0306   -5.7388   28.2232 H   0  0  0  0  0  0  0  0  0  0  0  0
    6.6546   -4.9740   26.6757 H   0  0  0  0  0  0  0  0  0  0  0  0
    7.1892   -6.2226   24.6319 H   0  0  0  0  0  0  0  0  0  0  0  0
    7.9315   -7.8151   24.8187 H   0  0  0  0  0  0  0  0  0  0  0  0
   12.4707    5.4238   21.3452 H   0  0  0  0  0  0  0  0  0  0  0  0
   12.5318    5.9510   23.0614 H   0  0  0  0  0  0  0  0  0  0  0  0
   13.7785    4.8439   22.4328 H   0  0  0  0  0  0  0  0  0  0  0  0
   11.5818    0.0409   22.2535 H   0  0  0  0  0  0  0  0  0  0  0  0
   11.3901    0.0742   23.9855 H   0  0  0  0  0  0  0  0  0  0  0  0
    8.9113    0.7342   23.6444 H   0  0  0  0  0  0  0  0  0  0  0  0
    8.1256   -1.8039   21.3539 H   0  0  0  0  0  0  0  0  0  0  0  0
  1  2  1  0  0  0  0
  1  5  2  0  0  0  0
  2  6  2  0  0  0  0
  3  7  2  0  0  0  0
  3 12  1  0  0  0  0
  4  8  1  0  0  0  0
  4 12  2  0  0  0  0
  5 14  1  0  0  0  0
  6 15  1  0  0  0  0
  7 16  1  0  0  0  0
  8 16  2  0  0  0  0
  9 13  1  0  0  0  0
  9 25  2  0  0  0  0
 10 13  2  0  0  0  0
 10 27  1  0  0  0  0
 11 26  2  0  0  0  0
 11 28  1  0  0  0  0
 12 24  1  0  0  0  0
 13 23  1  0  0  0  0
 14 15  2  0  0  0  0
 14 26  1  0  0  0  0
 15 28  1  0  0  0  0
 16 29  1  0  0  0  0
 17 24  1  0  0  0  0
 17 30  1  0  0  0  0
 17 31  2  0  0  0  0
 18 20  1  0  0  0  0
 18 29  1  0  0  0  0
 19 21  1  0  0  0  0
 19 29  1  0  0  0  0
 20 32  1  0  0  0  0
 21 32  1  0  0  0  0
 22 27  1  0  0  0  0
 23 24  1  1  0  0  0
 25 27  1  0  0  0  0
 28 30  1  0  0  0  0
  1 33  1  0  0  0  0
  2 34  1  0  0  0  0
  3 35  1  0  0  0  0
  4 36  1  0  0  0  0
  5 37  1  0  0  0  0
  6 38  1  0  0  0  0
  7 39  1  0  0  0  0
  8 40  1  0  0  0  0
  9 41  1  0  0  0  0
 10 42  1  0  0  0  0
 11 43  1  0  0  0  0
 18 44  1  0  0  0  0
 18 45  1  0  0  0  0
 19 46  1  0  0  0  0
 19 47  1  0  0  0  0
 20 48  1  0  0  0  0
 20 49  1  0  0  0  0
 21 50  1  0  0  0  0
 21 51  1  0  0  0  0
 22 52  1  0  0  0  0
 22 53  1  0  0  0  0
 22 54  1  0  0  0  0
 23 55  1  0  0  0  0
 23 56  1  0  0  0  0
 24 57  1  0  0  0  0
 30 58  1  0  0  0  0
M  END
> <clash_score>
0

> <docking_score>
-11.132390975952148

> <overlap_score>
0.9400526285171509

$$$$
BENZO_224_2
  -OEChem-08232013493D

 50 53  0     1  0  0  0  0  0999 V2000
    4.2970    1.6690   20.8430 C   0  0  0  0  0  0  0  0  0  0  0  0
    4.0980    2.1130   19.5350 C   0  0  0  0  0  0  0  0  0  0  0  0
    5.3360    0.8000   21.1530 C   0  0  0  0  0  0  0  0  0  0  0  0
    8.3510   -1.5420   24.6110 C   0  0  0  0  0  0  0  0  0  0  0  0
   10.2760   -2.3270   23.4020 C   0  0  0  0  0  0  0  0  0  0  0  0
    4.9400    1.7060   18.5060 C   0  0  0  0  0  0  0  0  0  0  0  0
    8.3310   -2.7170   25.3430 C   0  0  0  0  0  0  0  0  0  0  0  0
   10.2570   -3.5000   24.1350 C   0  0  0  0  0  0  0  0  0  0  0  0
   10.8633    2.6804   23.5273 C   0  0  0  0  0  0  0  0  0  0  0  0
   11.1655    4.0230   23.4669 C   0  0  0  0  0  0  0  0  0  0  0  0
    8.8035    3.6322   24.0309 C   0  0  0  0  0  0  0  0  0  0  0  0
    6.1600    0.3870   20.1140 C   0  0  0  0  0  0  0  0  0  0  0  0
    9.3300   -1.3350   23.6390 C   0  0  0  0  0  0  0  0  0  0  0  0
    9.4950    2.4539   23.8539 C   0  0  0  0  0  0  0  0  0  0  0  0
    5.9810    0.8330   18.8060 C   0  0  0  0  0  0  0  0  0  0  0  0
    9.2850   -3.7090   25.1090 C   0  0  0  0  0  0  0  0  0  0  0  0
    7.2210   -0.4620   20.0350 C   0  0  0  0  0  0  0  0  0  0  0  0
    8.9510    0.1280   21.6880 C   0  0  0  0  0  0  0  0  0  0  0  0
    8.2522   -5.1181   26.8654 C   0  0  0  0  0  0  0  0  0  0  0  0
   10.2439   -5.9404   25.5982 C   0  0  0  0  0  0  0  0  0  0  0  0
    8.8771    1.0813   23.9905 C   0  0  0  0  0  0  0  0  0  0  0  0
    9.4200   -0.0840   22.9530 C   0  0  2  0  0  0  0  0  0  0  0  0
    7.6830   -0.5170   18.7600 N   0  0  0  0  0  0  0  0  0  0  0  0
    6.9440    0.2550   18.0100 N   0  0  0  0  0  0  0  0  0  0  0  0
    8.0810   -0.9750   21.0820 N   0  0  0  0  0  0  0  0  0  0  0  0
    9.2638   -4.9025   25.8500 N   0  0  0  0  0  0  0  0  0  0  0  0
    9.1870    1.1500   21.0630 O   0  0  0  0  0  0  0  0  0  0  0  0
    9.8028    5.0040   23.8033 S   0  0  0  0  0  0  0  0  0  0  0  0
    3.6274    2.0126   21.6300 H   0  0  0  0  0  0  0  0  0  0  0  0
    3.2732    2.7875   19.3199 H   0  0  0  0  0  0  0  0  0  0  0  0
    5.4878    0.4645   22.1722 H   0  0  0  0  0  0  0  0  0  0  0  0
    7.5957   -0.7779   24.7973 H   0  0  0  0  0  0  0  0  0  0  0  0
   11.0384   -2.1852   22.6338 H   0  0  0  0  0  0  0  0  0  0  0  0
    4.7853    2.0674   17.4815 H   0  0  0  0  0  0  0  0  0  0  0  0
    7.5634   -2.8637   26.1037 H   0  0  0  0  0  0  0  0  0  0  0  0
   11.0139   -4.2645   23.9419 H   0  0  0  0  0  0  0  0  0  0  0  0
   11.5925    1.9010   23.3455 H   0  0  0  0  0  0  0  0  0  0  0  0
   12.1213    4.4748   23.2422 H   0  0  0  0  0  0  0  0  0  0  0  0
    7.7599    3.7576   24.2842 H   0  0  0  0  0  0  0  0  0  0  0  0
    8.4021   -6.1042   27.3293 H   0  0  0  0  0  0  0  0  0  0  0  0
    8.3318   -4.3354   27.6341 H   0  0  0  0  0  0  0  0  0  0  0  0
    7.2548   -5.0782   26.4033 H   0  0  0  0  0  0  0  0  0  0  0  0
   10.0615   -6.7893   26.2735 H   0  0  0  0  0  0  0  0  0  0  0  0
   10.1605   -6.2778   24.5545 H   0  0  0  0  0  0  0  0  0  0  0  0
   11.2537   -5.5417   25.7750 H   0  0  0  0  0  0  0  0  0  0  0  0
    8.9708    0.7434   25.0308 H   0  0  0  0  0  0  0  0  0  0  0  0
    7.7972    1.1781   23.8117 H   0  0  0  0  0  0  0  0  0  0  0  0
   10.5743    0.2174   22.9808 H   0  0  0  0  0  0  0  0  0  0  0  0
    7.1015    0.3608   17.0505 H   0  0  0  0  0  0  0  0  0  0  0  0
    8.1201   -1.8087   21.3560 H   0  0  0  0  0  0  0  0  0  0  0  0
  1  2  1  0  0  0  0
  1  3  2  0  0  0  0
  2  6  2  0  0  0  0
  3 12  1  0  0  0  0
  4  7  2  0  0  0  0
  4 13  1  0  0  0  0
  5  8  1  0  0  0  0
  5 13  2  0  0  0  0
  6 15  1  0  0  0  0
  7 16  1  0  0  0  0
  8 16  2  0  0  0  0
  9 10  2  0  0  0  0
  9 14  1  0  0  0  0
 10 28  1  0  0  0  0
 11 14  2  0  0  0  0
 11 28  1  0  0  0  0
 12 15  2  0  0  0  0
 12 17  1  0  0  0  0
 13 22  1  0  0  0  0
 14 21  1  0  0  0  0
 15 24  1  0  0  0  0
 16 26  1  0  0  0  0
 17 23  2  0  0  0  0
 17 25  1  0  0  0  0
 18 22  1  0  0  0  0
 18 25  1  0  0  0  0
 18 27  2  0  0  0  0
 19 26  1  0  0  0  0
 20 26  1  0  0  0  0
 21 22  1  6  0  0  0
 23 24  1  0  0  0  0
  1 29  1  0  0  0  0
  2 30  1  0  0  0  0
  3 31  1  0  0  0  0
  4 32  1  0  0  0  0
  5 33  1  0  0  0  0
  6 34  1  0  0  0  0
  7 35  1  0  0  0  0
  8 36  1  0  0  0  0
  9 37  1  0  0  0  0
 10 38  1  0  0  0  0
 11 39  1  0  0  0  0
 19 40  1  0  0  0  0
 19 41  1  0  0  0  0
 19 42  1  0  0  0  0
 20 43  1  0  0  0  0
 20 44  1  0  0  0  0
 20 45  1  0  0  0  0
 21 46  1  0  0  0  0
 21 47  1  0  0  0  0
 22 48  1  0  0  0  0
 24 49  1  0  0  0  0
 25 50  1  0  0  0  0
M  END
> <clash_score>
0

> <docking_score>
-9.174568176269531

> <overlap_score>
0.85877525806427

$$$$
BENZO_222_2
  -OEChem-08232013493D

 58 62  0     1  0  0  0  0  0999 V2000
    4.0980    2.1130   19.5350 C   0  0  0  0  0  0  0  0  0  0  0  0
    4.2970    1.6690   20.8430 C   0  0  0  0  0  0  0  0  0  0  0  0
   10.2958    4.1874   23.4874 C   0  0  0  0  0  0  0  0  0  0  0  0
   10.1359    2.8021   23.5197 C   0  0  0  0  0  0  0  0  0  0  0  0
    8.3510   -1.5420   24.6110 C   0  0  0  0  0  0  0  0  0  0  0  0
   10.2760   -2.3270   23.4020 C   0  0  0  0  0  0  0  0  0  0  0  0
    4.9400    1.7060   18.5060 C   0  0  0  0  0  0  0  0  0  0  0  0
    5.3360    0.8000   21.1530 C   0  0  0  0  0  0  0  0  0  0  0  0
    8.3310   -2.7170   25.3430 C   0  0  0  0  0  0  0  0  0  0  0  0
   10.2570   -3.5000   24.1350 C   0  0  0  0  0  0  0  0  0  0  0  0
   11.4583    4.7430   22.9531 C   0  0  0  0  0  0  0  0  0  0  0  0
   12.3012    2.5280   22.4836 C   0  0  0  0  0  0  0  0  0  0  0  0
    7.6830   -0.5170   18.7600 C   0  0  0  0  0  0  0  0  0  0  0  0
    9.3300   -1.3350   23.6390 C   0  0  0  0  0  0  0  0  0  0  0  0
   11.1386    1.9724   23.0179 C   0  0  0  0  0  0  0  0  0  0  0  0
    5.9810    0.8330   18.8060 C   0  0  0  0  0  0  0  0  0  0  0  0
    6.1600    0.3870   20.1140 C   0  0  0  0  0  0  0  0  0  0  0  0
    9.2850   -3.7090   25.1090 C   0  0  0  0  0  0  0  0  0  0  0  0
   12.4610    3.9133   22.4513 C   0  0  0  0  0  0  0  0  0  0  0  0
    8.9510    0.1280   21.6880 C   0  0  0  0  0  0  0  0  0  0  0  0
    8.7671   -4.9535   27.2147 C   0  0  0  0  0  0  0  0  0  0  0  0
    9.3066   -6.1865   25.1649 C   0  0  0  0  0  0  0  0  0  0  0  0
    7.3847   -5.5970   27.2000 C   0  0  0  0  0  0  0  0  0  0  0  0
    7.9070   -6.7999   25.2264 C   0  0  0  0  0  0  0  0  0  0  0  0
   10.9652    0.4722   23.0544 C   0  0  0  0  0  0  0  0  0  0  0  0
    9.4200   -0.0840   22.9530 C   0  0  2  0  0  0  0  0  0  0  0  0
    6.9440    0.2550   18.0100 N   0  0  0  0  0  0  0  0  0  0  0  0
    7.2210   -0.4620   20.0350 N   0  0  0  0  0  0  0  0  0  0  0  0
    9.2641   -4.8845   25.8388 N   0  0  0  0  0  0  0  0  0  0  0  0
    8.0810   -0.9750   21.0820 N   0  0  0  0  0  0  0  0  0  0  0  0
    9.1870    1.1500   21.0630 O   0  0  0  0  0  0  0  0  0  0  0  0
    7.4533   -6.8877   26.5818 O   0  0  0  0  0  0  0  0  0  0  0  0
   13.8957    4.5993   21.7933 Cl  0  0  0  0  0  0  0  0  0  0  0  0
    3.2711    2.7870   19.3201 H   0  0  0  0  0  0  0  0  0  0  0  0
    3.6262    2.0082   21.6284 H   0  0  0  0  0  0  0  0  0  0  0  0
    9.5148    4.8331   23.8784 H   0  0  0  0  0  0  0  0  0  0  0  0
    9.2268    2.3779   23.9380 H   0  0  0  0  0  0  0  0  0  0  0  0
    7.5957   -0.7779   24.7973 H   0  0  0  0  0  0  0  0  0  0  0  0
   11.0384   -2.1852   22.6338 H   0  0  0  0  0  0  0  0  0  0  0  0
    4.7816    2.0660   17.4901 H   0  0  0  0  0  0  0  0  0  0  0  0
    5.4934    0.4579   22.1787 H   0  0  0  0  0  0  0  0  0  0  0  0
    7.5634   -2.8637   26.1037 H   0  0  0  0  0  0  0  0  0  0  0  0
   11.0139   -4.2645   23.9419 H   0  0  0  0  0  0  0  0  0  0  0  0
   11.5694    5.8244   22.9347 H   0  0  0  0  0  0  0  0  0  0  0  0
   13.0798    1.8768   22.0931 H   0  0  0  0  0  0  0  0  0  0  0  0
    8.5166   -1.1054   18.4533 H   0  0  0  0  0  0  0  0  0  0  0  0
    8.7013   -3.9575   27.6574 H   0  0  0  0  0  0  0  0  0  0  0  0
    9.4480   -5.5636   27.8142 H   0  0  0  0  0  0  0  0  0  0  0  0
   10.0131   -6.8375   25.6814 H   0  0  0  0  0  0  0  0  0  0  0  0
    9.6116   -6.0794   24.1250 H   0  0  0  0  0  0  0  0  0  0  0  0
    7.0306   -5.7388   28.2232 H   0  0  0  0  0  0  0  0  0  0  0  0
    6.6546   -4.9740   26.6757 H   0  0  0  0  0  0  0  0  0  0  0  0
    7.1892   -6.2226   24.6319 H   0  0  0  0  0  0  0  0  0  0  0  0
    7.9315   -7.8151   24.8187 H   0  0  0  0  0  0  0  0  0  0  0  0
   11.5818    0.0409   22.2535 H   0  0  0  0  0  0  0  0  0  0  0  0
   11.3901    0.0742   23.9855 H   0  0  0  0  0  0  0  0  0  0  0  0
    8.9113    0.7342   23.6444 H   0  0  0  0  0  0  0  0  0  0  0  0
    8.1256   -1.8039   21.3539 H   0  0  0  0  0  0  0  0  0  0  0  0
  1  2  1  0  0  0  0
  1  7  2  0  0  0  0
  2  8  2  0  0  0  0
  3  4  2  0  0  0  0
  3 11  1  0  0  0  0
  4 15  1  0  0  0  0
  5  9  2  0  0  0  0
  5 14  1  0  0  0  0
  6 10  1  0  0  0  0
  6 14  2  0  0  0  0
  7 16  1  0  0  0  0
  8 17  1  0  0  0  0
  9 18  1  0  0  0  0
 10 18  2  0  0  0  0
 11 19  2  0  0  0  0
 12 15  2  0  0  0  0
 12 19  1  0  0  0  0
 13 27  2  0  0  0  0
 13 28  1  0  0  0  0
 14 26  1  0  0  0  0
 15 25  1  0  0  0  0
 16 17  2  0  0  0  0
 16 27  1  0  0  0  0
 17 28  1  0  0  0  0
 18 29  1  0  0  0  0
 19 33  1  0  0  0  0
 20 26  1  6  0  0  0
 20 30  1  0  0  0  0
 20 31  2  0  0  0  0
 21 23  1  0  0  0  0
 21 29  1  0  0  0  0
 22 24  1  0  0  0  0
 22 29  1  0  0  0  0
 23 32  1  0  0  0  0
 24 32  1  0  0  0  0
 25 26  1  0  0  0  0
 28 30  1  0  0  0  0
  1 34  1  0  0  0  0
  2 35  1  0  0  0  0
  3 36  1  0  0  0  0
  4 37  1  0  0  0  0
  5 38  1  0  0  0  0
  6 39  1  0  0  0  0
  7 40  1  0  0  0  0
  8 41  1  0  0  0  0
  9 42  1  0  0  0  0
 10 43  1  0  0  0  0
 11 44  1  0  0  0  0
 12 45  1  0  0  0  0
 13 46  1  0  0  0  0
 21 47  1  0  0  0  0
 21 48  1  0  0  0  0
 22 49  1  0  0  0  0
 22 50  1  0  0  0  0
 23 51  1  0  0  0  0
 23 52  1  0  0  0  0
 24 53  1  0  0  0  0
 24 54  1  0  0  0  0
 25 55  1  0  0  0  0
 25 56  1  0  0  0  0
 26 57  1  0  0  0  0
 30 58  1  0  0  0  0
M  END
> <clash_score>
0

> <docking_score>
-11.527107238769531

> <overlap_score>
0.9454845786094666

$$$$
BENZO_223_2
  -OEChem-08232013493D

 58 62  0     1  0  0  0  0  0999 V2000
    4.0980    2.1130   19.5350 C   0  0  0  0  0  0  0  0  0  0  0  0
    4.2970    1.6690   20.8430 C   0  0  0  0  0  0  0  0  0  0  0  0
    8.3510   -1.5420   24.6110 C   0  0  0  0  0  0  0  0  0  0  0  0
   10.2760   -2.3270   23.4020 C   0  0  0  0  0  0  0  0  0  0  0  0
    4.9400    1.7060   18.5060 C   0  0  0  0  0  0  0  0  0  0  0  0
    5.3360    0.8000   21.1530 C   0  0  0  0  0  0  0  0  0  0  0  0
    8.3310   -2.7170   25.3430 C   0  0  0  0  0  0  0  0  0  0  0  0
   10.2570   -3.5000   24.1350 C   0  0  0  0  0  0  0  0  0  0  0  0
   10.8281    2.6090   23.0800 C   0  0  0  0  0  0  0  0  0  0  0  0
    9.0171    3.6855   23.7096 C   0  0  0  0  0  0  0  0  0  0  0  0
    7.6830   -0.5170   18.7600 C   0  0  0  0  0  0  0  0  0  0  0  0
    9.3300   -1.3350   23.6390 C   0  0  0  0  0  0  0  0  0  0  0  0
    9.5300    2.4170   23.5897 C   0  0  0  0  0  0  0  0  0  0  0  0
    5.9810    0.8330   18.8060 C   0  0  0  0  0  0  0  0  0  0  0  0
    6.1600    0.3870   20.1140 C   0  0  0  0  0  0  0  0  0  0  0  0
    9.2850   -3.7090   25.1090 C   0  0  0  0  0  0  0  0  0  0  0  0
    8.9510    0.1280   21.6880 C   0  0  0  0  0  0  0  0  0  0  0  0
    8.7671   -4.9535   27.2147 C   0  0  0  0  0  0  0  0  0  0  0  0
    9.3066   -6.1865   25.1649 C   0  0  0  0  0  0  0  0  0  0  0  0
    7.3847   -5.5970   27.2000 C   0  0  0  0  0  0  0  0  0  0  0  0
    7.9070   -6.7999   25.2264 C   0  0  0  0  0  0  0  0  0  0  0  0
    9.9292    5.9676   23.2205 C   0  0  0  0  0  0  0  0  0  0  0  0
    8.8504    1.1108   23.9271 C   0  0  0  0  0  0  0  0  0  0  0  0
    9.4200   -0.0840   22.9530 C   0  0  2  0  0  0  0  0  0  0  0  0
   11.1217    3.8979   22.8890 N   0  0  0  0  0  0  0  0  0  0  0  0
    6.9440    0.2550   18.0100 N   0  0  0  0  0  0  0  0  0  0  0  0
   10.0008    4.5274   23.2807 N   0  0  0  0  0  0  0  0  0  0  0  0
    7.2210   -0.4620   20.0350 N   0  0  0  0  0  0  0  0  0  0  0  0
    9.2641   -4.8845   25.8388 N   0  0  0  0  0  0  0  0  0  0  0  0
    8.0810   -0.9750   21.0820 N   0  0  0  0  0  0  0  0  0  0  0  0
    9.1870    1.1500   21.0630 O   0  0  0  0  0  0  0  0  0  0  0  0
    7.4533   -6.8877   26.5818 O   0  0  0  0  0  0  0  0  0  0  0  0
    3.2711    2.7870   19.3201 H   0  0  0  0  0  0  0  0  0  0  0  0
    3.6262    2.0082   21.6284 H   0  0  0  0  0  0  0  0  0  0  0  0
    7.5957   -0.7779   24.7973 H   0  0  0  0  0  0  0  0  0  0  0  0
   11.0384   -2.1852   22.6338 H   0  0  0  0  0  0  0  0  0  0  0  0
    4.7816    2.0660   17.4901 H   0  0  0  0  0  0  0  0  0  0  0  0
    5.4934    0.4579   22.1787 H   0  0  0  0  0  0  0  0  0  0  0  0
    7.5634   -2.8637   26.1037 H   0  0  0  0  0  0  0  0  0  0  0  0
   11.0139   -4.2645   23.9419 H   0  0  0  0  0  0  0  0  0  0  0  0
   11.5739    1.8650   22.8381 H   0  0  0  0  0  0  0  0  0  0  0  0
    8.0593    4.0517   24.0537 H   0  0  0  0  0  0  0  0  0  0  0  0
    8.5166   -1.1054   18.4533 H   0  0  0  0  0  0  0  0  0  0  0  0
    8.7013   -3.9575   27.6574 H   0  0  0  0  0  0  0  0  0  0  0  0
    9.4480   -5.5636   27.8142 H   0  0  0  0  0  0  0  0  0  0  0  0
   10.0131   -6.8375   25.6814 H   0  0  0  0  0  0  0  0  0  0  0  0
    9.6116   -6.0794   24.1250 H   0  0  0  0  0  0  0  0  0  0  0  0
    7.0306   -5.7388   28.2232 H   0  0  0  0  0  0  0  0  0  0  0  0
    6.6546   -4.9740   26.6757 H   0  0  0  0  0  0  0  0  0  0  0  0
    7.1892   -6.2226   24.6319 H   0  0  0  0  0  0  0  0  0  0  0  0
    7.9315   -7.8151   24.8187 H   0  0  0  0  0  0  0  0  0  0  0  0
   10.2845    6.3631   24.1757 H   0  0  0  0  0  0  0  0  0  0  0  0
   10.5553    6.3294   22.4002 H   0  0  0  0  0  0  0  0  0  0  0  0
    8.8938    6.2708   23.0414 H   0  0  0  0  0  0  0  0  0  0  0  0
    8.9922    0.9231   25.0006 H   0  0  0  0  0  0  0  0  0  0  0  0
    7.7650    1.2154   23.7980 H   0  0  0  0  0  0  0  0  0  0  0  0
   10.5617    0.2354   22.9523 H   0  0  0  0  0  0  0  0  0  0  0  0
    8.1256   -1.8039   21.3539 H   0  0  0  0  0  0  0  0  0  0  0  0
  1  2  1  0  0  0  0
  1  5  2  0  0  0  0
  2  6  2  0  0  0  0
  3  7  2  0  0  0  0
  3 12  1  0  0  0  0
  4  8  1  0  0  0  0
  4 12  2  0  0  0  0
  5 14  1  0  0  0  0
  6 15  1  0  0  0  0
  7 16  1  0  0  0  0
  8 16  2  0  0  0  0
  9 13  1  0  0  0  0
  9 25  2  0  0  0  0
 10 13  2  0  0  0  0
 10 27  1  0  0  0  0
 11 26  2  0  0  0  0
 11 28  1  0  0  0  0
 12 24  1  0  0  0  0
 13 23  1  0  0  0  0
 14 15  2  0  0  0  0
 14 26  1  0  0  0  0
 15 28  1  0  0  0  0
 16 29  1  0  0  0  0
 17 24  1  0  0  0  0
 17 30  1  0  0  0  0
 17 31  2  0  0  0  0
 18 20  1  0  0  0  0
 18 29  1  0  0  0  0
 19 21  1  0  0  0  0
 19 29  1  0  0  0  0
 20 32  1  0  0  0  0
 21 32  1  0  0  0  0
 22 27  1  0  0  0  0
 23 24  1  6  0  0  0
 25 27  1  0  0  0  0
 28 30  1  0  0  0  0
  1 33  1  0  0  0  0
  2 34  1  0  0  0  0
  3 35  1  0  0  0  0
  4 36  1  0  0  0  0
  5 37  1  0  0  0  0
  6 38  1  0  0  0  0
  7 39  1  0  0  0  0
  8 40  1  0  0  0  0
  9 41  1  0  0  0  0
 10 42  1  0  0  0  0
 11 43  1  0  0  0  0
 18 44  1  0  0  0  0
 18 45  1  0  0  0  0
 19 46  1  0  0  0  0
 19 47  1  0  0  0  0
 20 48  1  0  0  0  0
 20 49  1  0  0  0  0
 21 50  1  0  0  0  0
 21 51  1  0  0  0  0
 22 52  1  0  0  0  0
 22 53  1  0  0  0  0
 22 54  1  0  0  0  0
 23 55  1  0  0  0  0
 23 56  1  0  0  0  0
 24 57  1  0  0  0  0
 30 58  1  0  0  0  0
M  END
> <clash_score>
0

> <docking_score>
-9.836901664733887

> <overlap_score>
0.8769152760505676

$$$$
BENZO_226_1
  -OEChem-08232013493D

 53 56  0     1  0  0  0  0  0999 V2000
    4.2970    1.6690   20.8430 C   0  0  0  0  0  0  0  0  0  0  0  0
    4.0980    2.1130   19.5350 C   0  0  0  0  0  0  0  0  0  0  0  0
   10.2645    4.1315   23.6906 C   0  0  0  0  0  0  0  0  0  0  0  0
    5.3360    0.8000   21.1530 C   0  0  0  0  0  0  0  0  0  0  0  0
   10.1177    2.7447   23.6595 C   0  0  0  0  0  0  0  0  0  0  0  0
    8.3510   -1.5420   24.6110 C   0  0  0  0  0  0  0  0  0  0  0  0
   10.2760   -2.3270   23.4020 C   0  0  0  0  0  0  0  0  0  0  0  0
    4.9400    1.7060   18.5060 C   0  0  0  0  0  0  0  0  0  0  0  0
    8.3310   -2.7170   25.3430 C   0  0  0  0  0  0  0  0  0  0  0  0
   10.2570   -3.5000   24.1350 C   0  0  0  0  0  0  0  0  0  0  0  0
   11.4306    4.7205   23.2018 C   0  0  0  0  0  0  0  0  0  0  0  0
   12.3032    2.5360   22.6510 C   0  0  0  0  0  0  0  0  0  0  0  0
    6.1600    0.3870   20.1140 C   0  0  0  0  0  0  0  0  0  0  0  0
    9.3300   -1.3350   23.6390 C   0  0  0  0  0  0  0  0  0  0  0  0
   11.1370    1.9470   23.1397 C   0  0  0  0  0  0  0  0  0  0  0  0
    5.9810    0.8330   18.8060 C   0  0  0  0  0  0  0  0  0  0  0  0
    9.2850   -3.7090   25.1090 C   0  0  0  0  0  0  0  0  0  0  0  0
   12.4500    3.9228   22.6821 C   0  0  0  0  0  0  0  0  0  0  0  0
    7.2210   -0.4620   20.0350 C   0  0  0  0  0  0  0  0  0  0  0  0
    8.9510    0.1280   21.6880 C   0  0  0  0  0  0  0  0  0  0  0  0
    8.2522   -5.1181   26.8654 C   0  0  0  0  0  0  0  0  0  0  0  0
   10.2439   -5.9404   25.5982 C   0  0  0  0  0  0  0  0  0  0  0  0
   10.9777    0.4443   23.1075 C   0  0  0  0  0  0  0  0  0  0  0  0
    9.4200   -0.0840   22.9530 C   0  0  1  0  0  0  0  0  0  0  0  0
    7.6830   -0.5170   18.7600 N   0  0  0  0  0  0  0  0  0  0  0  0
    6.9440    0.2550   18.0100 N   0  0  0  0  0  0  0  0  0  0  0  0
    8.0810   -0.9750   21.0820 N   0  0  0  0  0  0  0  0  0  0  0  0
    9.2638   -4.9025   25.8500 N   0  0  0  0  0  0  0  0  0  0  0  0
    9.1870    1.1500   21.0630 O   0  0  0  0  0  0  0  0  0  0  0  0
   13.8890    4.6500   22.0802 Cl  0  0  0  0  0  0  0  0  0  0  0  0
    3.6274    2.0126   21.6300 H   0  0  0  0  0  0  0  0  0  0  0  0
    3.2732    2.7875   19.3199 H   0  0  0  0  0  0  0  0  0  0  0  0
    9.4706    4.7523   24.0956 H   0  0  0  0  0  0  0  0  0  0  0  0
    5.4878    0.4645   22.1722 H   0  0  0  0  0  0  0  0  0  0  0  0
    9.2057    2.2944   24.0426 H   0  0  0  0  0  0  0  0  0  0  0  0
    7.5957   -0.7779   24.7973 H   0  0  0  0  0  0  0  0  0  0  0  0
   11.0384   -2.1852   22.6338 H   0  0  0  0  0  0  0  0  0  0  0  0
    4.7853    2.0674   17.4815 H   0  0  0  0  0  0  0  0  0  0  0  0
    7.5634   -2.8637   26.1037 H   0  0  0  0  0  0  0  0  0  0  0  0
   11.0139   -4.2645   23.9419 H   0  0  0  0  0  0  0  0  0  0  0  0
   11.5314    5.8026   23.2327 H   0  0  0  0  0  0  0  0  0  0  0  0
   13.0949    1.9096   22.2463 H   0  0  0  0  0  0  0  0  0  0  0  0
    8.4021   -6.1042   27.3293 H   0  0  0  0  0  0  0  0  0  0  0  0
    8.3318   -4.3354   27.6341 H   0  0  0  0  0  0  0  0  0  0  0  0
    7.2548   -5.0782   26.4033 H   0  0  0  0  0  0  0  0  0  0  0  0
   10.0615   -6.7893   26.2735 H   0  0  0  0  0  0  0  0  0  0  0  0
   10.1605   -6.2778   24.5545 H   0  0  0  0  0  0  0  0  0  0  0  0
   11.2537   -5.5417   25.7750 H   0  0  0  0  0  0  0  0  0  0  0  0
   11.5363    0.0387   22.2539 H   0  0  0  0  0  0  0  0  0  0  0  0
   11.4704    0.0336   23.9998 H   0  0  0  0  0  0  0  0  0  0  0  0
    8.9182    0.7194   23.6789 H   0  0  0  0  0  0  0  0  0  0  0  0
    7.1015    0.3608   17.0505 H   0  0  0  0  0  0  0  0  0  0  0  0
    8.1201   -1.8087   21.3560 H   0  0  0  0  0  0  0  0  0  0  0  0
  1  2  1  0  0  0  0
  1  4  2  0  0  0  0
  2  8  2  0  0  0  0
  3  5  2  0  0  0  0
  3 11  1  0  0  0  0
  4 13  1  0  0  0  0
  5 15  1  0  0  0  0
  6  9  2  0  0  0  0
  6 14  1  0  0  0  0
  7 10  1  0  0  0  0
  7 14  2  0  0  0  0
  8 16  1  0  0  0  0
  9 17  1  0  0  0  0
 10 17  2  0  0  0  0
 11 18  2  0  0  0  0
 12 15  2  0  0  0  0
 12 18  1  0  0  0  0
 13 16  2  0  0  0  0
 13 19  1  0  0  0  0
 14 24  1  0  0  0  0
 15 23  1  0  0  0  0
 16 26  1  0  0  0  0
 17 28  1  0  0  0  0
 18 30  1  0  0  0  0
 19 25  2  0  0  0  0
 19 27  1  0  0  0  0
 20 24  1  0  0  0  0
 20 27  1  0  0  0  0
 20 29  2  0  0  0  0
 21 28  1  0  0  0  0
 22 28  1  0  0  0  0
 23 24  1  1  0  0  0
 25 26  1  0  0  0  0
  1 31  1  0  0  0  0
  2 32  1  0  0  0  0
  3 33  1  0  0  0  0
  4 34  1  0  0  0  0
  5 35  1  0  0  0  0
  6 36  1  0  0  0  0
  7 37  1  0  0  0  0
  8 38  1  0  0  0  0
  9 39  1  0  0  0  0
 10 40  1  0  0  0  0
 11 41  1  0  0  0  0
 12 42  1  0  0  0  0
 21 43  1  0  0  0  0
 21 44  1  0  0  0  0
 21 45  1  0  0  0  0
 22 46  1  0  0  0  0
 22 47  1  0  0  0  0
 22 48  1  0  0  0  0
 23 49  1  0  0  0  0
 23 50  1  0  0  0  0
 24 51  1  0  0  0  0
 26 52  1  0  0  0  0
 27 53  1  0  0  0  0
M  END
> <clash_score>
0

> <docking_score>
-10.993639945983887

> <overlap_score>
0.9337276816368103

$$$$
BENZO_227_1
  -OEChem-08232013493D

 53 56  0     1  0  0  0  0  0999 V2000
    4.2970    1.6690   20.8430 C   0  0  0  0  0  0  0  0  0  0  0  0
    4.0980    2.1130   19.5350 C   0  0  0  0  0  0  0  0  0  0  0  0
    5.3360    0.8000   21.1530 C   0  0  0  0  0  0  0  0  0  0  0  0
    8.3510   -1.5420   24.6110 C   0  0  0  0  0  0  0  0  0  0  0  0
   10.2760   -2.3270   23.4020 C   0  0  0  0  0  0  0  0  0  0  0  0
    4.9400    1.7060   18.5060 C   0  0  0  0  0  0  0  0  0  0  0  0
    8.3310   -2.7170   25.3430 C   0  0  0  0  0  0  0  0  0  0  0  0
   10.2570   -3.5000   24.1350 C   0  0  0  0  0  0  0  0  0  0  0  0
   10.2235    2.9023   23.6242 C   0  0  0  0  0  0  0  0  0  0  0  0
   12.2091    2.6870   22.7043 C   0  0  0  0  0  0  0  0  0  0  0  0
    6.1600    0.3870   20.1140 C   0  0  0  0  0  0  0  0  0  0  0  0
    9.3300   -1.3350   23.6390 C   0  0  0  0  0  0  0  0  0  0  0  0
   11.1370    1.9470   23.1397 C   0  0  0  0  0  0  0  0  0  0  0  0
    5.9810    0.8330   18.8060 C   0  0  0  0  0  0  0  0  0  0  0  0
    9.2850   -3.7090   25.1090 C   0  0  0  0  0  0  0  0  0  0  0  0
    7.2210   -0.4620   20.0350 C   0  0  0  0  0  0  0  0  0  0  0  0
    8.9510    0.1280   21.6880 C   0  0  0  0  0  0  0  0  0  0  0  0
   12.7031    5.1430   22.6555 C   0  0  0  0  0  0  0  0  0  0  0  0
    8.2522   -5.1181   26.8654 C   0  0  0  0  0  0  0  0  0  0  0  0
   10.2439   -5.9404   25.5982 C   0  0  0  0  0  0  0  0  0  0  0  0
   10.9777    0.4443   23.1075 C   0  0  0  0  0  0  0  0  0  0  0  0
    9.4200   -0.0840   22.9530 C   0  0  1  0  0  0  0  0  0  0  0  0
   10.6758    4.1536   23.5079 N   0  0  0  0  0  0  0  0  0  0  0  0
    7.6830   -0.5170   18.7600 N   0  0  0  0  0  0  0  0  0  0  0  0
    6.9440    0.2550   18.0100 N   0  0  0  0  0  0  0  0  0  0  0  0
   11.8853    3.9898   22.9453 N   0  0  0  0  0  0  0  0  0  0  0  0
    8.0810   -0.9750   21.0820 N   0  0  0  0  0  0  0  0  0  0  0  0
    9.2638   -4.9025   25.8500 N   0  0  0  0  0  0  0  0  0  0  0  0
    9.1870    1.1500   21.0630 O   0  0  0  0  0  0  0  0  0  0  0  0
    3.6274    2.0126   21.6300 H   0  0  0  0  0  0  0  0  0  0  0  0
    3.2732    2.7875   19.3199 H   0  0  0  0  0  0  0  0  0  0  0  0
    5.4878    0.4645   22.1722 H   0  0  0  0  0  0  0  0  0  0  0  0
    7.5957   -0.7779   24.7973 H   0  0  0  0  0  0  0  0  0  0  0  0
   11.0384   -2.1852   22.6338 H   0  0  0  0  0  0  0  0  0  0  0  0
    4.7853    2.0674   17.4815 H   0  0  0  0  0  0  0  0  0  0  0  0
    7.5634   -2.8637   26.1037 H   0  0  0  0  0  0  0  0  0  0  0  0
   11.0139   -4.2645   23.9419 H   0  0  0  0  0  0  0  0  0  0  0  0
    9.2470    2.7411   24.0585 H   0  0  0  0  0  0  0  0  0  0  0  0
   13.1519    2.4044   22.2557 H   0  0  0  0  0  0  0  0  0  0  0  0
   12.4640    5.4803   21.6435 H   0  0  0  0  0  0  0  0  0  0  0  0
   12.4902    5.9323   23.3818 H   0  0  0  0  0  0  0  0  0  0  0  0
   13.7583    4.8651   22.7277 H   0  0  0  0  0  0  0  0  0  0  0  0
    8.4021   -6.1042   27.3293 H   0  0  0  0  0  0  0  0  0  0  0  0
    8.3318   -4.3354   27.6341 H   0  0  0  0  0  0  0  0  0  0  0  0
    7.2548   -5.0782   26.4033 H   0  0  0  0  0  0  0  0  0  0  0  0
   10.0615   -6.7893   26.2735 H   0  0  0  0  0  0  0  0  0  0  0  0
   10.1605   -6.2778   24.5545 H   0  0  0  0  0  0  0  0  0  0  0  0
   11.2537   -5.5417   25.7750 H   0  0  0  0  0  0  0  0  0  0  0  0
   11.5363    0.0387   22.2539 H   0  0  0  0  0  0  0  0  0  0  0  0
   11.4704    0.0336   23.9998 H   0  0  0  0  0  0  0  0  0  0  0  0
    8.9182    0.7194   23.6789 H   0  0  0  0  0  0  0  0  0  0  0  0
    7.1015    0.3608   17.0505 H   0  0  0  0  0  0  0  0  0  0  0  0
    8.1201   -1.8087   21.3560 H   0  0  0  0  0  0  0  0  0  0  0  0
  1  2  1  0  0  0  0
  1  3  2  0  0  0  0
  2  6  2  0  0  0  0
  3 11  1  0  0  0  0
  4  7  2  0  0  0  0
  4 12  1  0  0  0  0
  5  8  1  0  0  0  0
  5 12  2  0  0  0  0
  6 14  1  0  0  0  0
  7 15  1  0  0  0  0
  8 15  2  0  0  0  0
  9 13  1  0  0  0  0
  9 23  2  0  0  0  0
 10 13  2  0  0  0  0
 10 26  1  0  0  0  0
 11 14  2  0  0  0  0
 11 16  1  0  0  0  0
 12 22  1  0  0  0  0
 13 21  1  0  0  0  0
 14 25  1  0  0  0  0
 15 28  1  0  0  0  0
 16 24  2  0  0  0  0
 16 27  1  0  0  0  0
 17 22  1  0  0  0  0
 17 27  1  0  0  0  0
 17 29  2  0  0  0  0
 18 26  1  0  0  0  0
 19 28  1  0  0  0  0
 20 28  1  0  0  0  0
 21 22  1  1  0  0  0
 23 26  1  0  0  0  0
 24 25  1  0  0  0  0
  1 30  1  0  0  0  0
  2 31  1  0  0  0  0
  3 32  1  0  0  0  0
  4 33  1  0  0  0  0
  5 34  1  0  0  0  0
  6 35  1  0  0  0  0
  7 36  1  0  0  0  0
  8 37  1  0  0  0  0
  9 38  1  0  0  0  0
 10 39  1  0  0  0  0
 18 40  1  0  0  0  0
 18 41  1  0  0  0  0
 18 42  1  0  0  0  0
 19 43  1  0  0  0  0
 19 44  1  0  0  0  0
 19 45  1  0  0  0  0
 20 46  1  0  0  0  0
 20 47  1  0  0  0  0
 20 48  1  0  0  0  0
 21 49  1  0  0  0  0
 21 50  1  0  0  0  0
 22 51  1  0  0  0  0
 25 52  1  0  0  0  0
 27 53  1  0  0  0  0
M  END
> <clash_score>
0

> <docking_score>
-10.522319793701172

> <overlap_score>
0.9275826215744019

$$$$
BENZO_227_2
  -OEChem-08232013493D

 53 56  0     1  0  0  0  0  0999 V2000
    4.2970    1.6690   20.8430 C   0  0  0  0  0  0  0  0  0  0  0  0
    4.0980    2.1130   19.5350 C   0  0  0  0  0  0  0  0  0  0  0  0
    5.3360    0.8000   21.1530 C   0  0  0  0  0  0  0  0  0  0  0  0
    8.3510   -1.5420   24.6110 C   0  0  0  0  0  0  0  0  0  0  0  0
   10.2760   -2.3270   23.4020 C   0  0  0  0  0  0  0  0  0  0  0  0
    4.9400    1.7060   18.5060 C   0  0  0  0  0  0  0  0  0  0  0  0
    8.3310   -2.7170   25.3430 C   0  0  0  0  0  0  0  0  0  0  0  0
   10.2570   -3.5000   24.1350 C   0  0  0  0  0  0  0  0  0  0  0  0
   10.7939    2.7770   23.4177 C   0  0  0  0  0  0  0  0  0  0  0  0
    8.9123    3.6676   24.1257 C   0  0  0  0  0  0  0  0  0  0  0  0
    6.1600    0.3870   20.1140 C   0  0  0  0  0  0  0  0  0  0  0  0
    9.3300   -1.3350   23.6390 C   0  0  0  0  0  0  0  0  0  0  0  0
    9.4950    2.4539   23.8539 C   0  0  0  0  0  0  0  0  0  0  0  0
    5.9810    0.8330   18.8060 C   0  0  0  0  0  0  0  0  0  0  0  0
    9.2850   -3.7090   25.1090 C   0  0  0  0  0  0  0  0  0  0  0  0
    7.2210   -0.4620   20.0350 C   0  0  0  0  0  0  0  0  0  0  0  0
    8.9510    0.1280   21.6880 C   0  0  0  0  0  0  0  0  0  0  0  0
    9.7138    6.0371   23.9775 C   0  0  0  0  0  0  0  0  0  0  0  0
    8.2522   -5.1181   26.8654 C   0  0  0  0  0  0  0  0  0  0  0  0
   10.2439   -5.9404   25.5982 C   0  0  0  0  0  0  0  0  0  0  0  0
    8.8771    1.0813   23.9905 C   0  0  0  0  0  0  0  0  0  0  0  0
    9.4200   -0.0840   22.9530 C   0  0  2  0  0  0  0  0  0  0  0  0
   11.0232    4.0928   23.4110 N   0  0  0  0  0  0  0  0  0  0  0  0
    7.6830   -0.5170   18.7600 N   0  0  0  0  0  0  0  0  0  0  0  0
    6.9440    0.2550   18.0100 N   0  0  0  0  0  0  0  0  0  0  0  0
    9.8605    4.6073   23.8463 N   0  0  0  0  0  0  0  0  0  0  0  0
    8.0810   -0.9750   21.0820 N   0  0  0  0  0  0  0  0  0  0  0  0
    9.2638   -4.9025   25.8500 N   0  0  0  0  0  0  0  0  0  0  0  0
    9.1870    1.1500   21.0630 O   0  0  0  0  0  0  0  0  0  0  0  0
    3.6274    2.0126   21.6300 H   0  0  0  0  0  0  0  0  0  0  0  0
    3.2732    2.7875   19.3199 H   0  0  0  0  0  0  0  0  0  0  0  0
    5.4878    0.4645   22.1722 H   0  0  0  0  0  0  0  0  0  0  0  0
    7.5957   -0.7779   24.7973 H   0  0  0  0  0  0  0  0  0  0  0  0
   11.0384   -2.1852   22.6338 H   0  0  0  0  0  0  0  0  0  0  0  0
    4.7853    2.0674   17.4815 H   0  0  0  0  0  0  0  0  0  0  0  0
    7.5634   -2.8637   26.1037 H   0  0  0  0  0  0  0  0  0  0  0  0
   11.0139   -4.2645   23.9419 H   0  0  0  0  0  0  0  0  0  0  0  0
   11.5843    2.1103   23.1031 H   0  0  0  0  0  0  0  0  0  0  0  0
    7.9277    3.9360   24.4839 H   0  0  0  0  0  0  0  0  0  0  0  0
   10.0225    6.3165   24.9883 H   0  0  0  0  0  0  0  0  0  0  0  0
   10.3410    6.5371   23.2342 H   0  0  0  0  0  0  0  0  0  0  0  0
    8.6688    6.3103   23.8064 H   0  0  0  0  0  0  0  0  0  0  0  0
    8.4021   -6.1042   27.3293 H   0  0  0  0  0  0  0  0  0  0  0  0
    8.3318   -4.3354   27.6341 H   0  0  0  0  0  0  0  0  0  0  0  0
    7.2548   -5.0782   26.4033 H   0  0  0  0  0  0  0  0  0  0  0  0
   10.0615   -6.7893   26.2735 H   0  0  0  0  0  0  0  0  0  0  0  0
   10.1605   -6.2778   24.5545 H   0  0  0  0  0  0  0  0  0  0  0  0
   11.2537   -5.5417   25.7750 H   0  0  0  0  0  0  0  0  0  0  0  0
    8.9708    0.7434   25.0308 H   0  0  0  0  0  0  0  0  0  0  0  0
    7.7972    1.1781   23.8117 H   0  0  0  0  0  0  0  0  0  0  0  0
   10.5743    0.2174   22.9808 H   0  0  0  0  0  0  0  0  0  0  0  0
    7.1015    0.3608   17.0505 H   0  0  0  0  0  0  0  0  0  0  0  0
    8.1201   -1.8087   21.3560 H   0  0  0  0  0  0  0  0  0  0  0  0
  1  2  1  0  0  0  0
  1  3  2  0  0  0  0
  2  6  2  0  0  0  0
  3 11  1  0  0  0  0
  4  7  2  0  0  0  0
  4 12  1  0  0  0  0
  5  8  1  0  0  0  0
  5 12  2  0  0  0  0
  6 14  1  0  0  0  0
  7 15  1  0  0  0  0
  8 15  2  0  0  0  0
  9 13  1  0  0  0  0
  9 23  2  0  0  0  0
 10 13  2  0  0  0  0
 10 26  1  0  0  0  0
 11 14  2  0  0  0  0
 11 16  1  0  0  0  0
 12 22  1  0  0  0  0
 13 21  1  0  0  0  0
 14 25  1  0  0  0  0
 15 28  1  0  0  0  0
 16 24  2  0  0  0  0
 16 27  1  0  0  0  0
 17 22  1  0  0  0  0
 17 27  1  0  0  0  0
 17 29  2  0  0  0  0
 18 26  1  0  0  0  0
 19 28  1  0  0  0  0
 20 28  1  0  0  0  0
 21 22  1  6  0  0  0
 23 26  1  0  0  0  0
 24 25  1  0  0  0  0
  1 30  1  0  0  0  0
  2 31  1  0  0  0  0
  3 32  1  0  0  0  0
  4 33  1  0  0  0  0
  5 34  1  0  0  0  0
  6 35  1  0  0  0  0
  7 36  1  0  0  0  0
  8 37  1  0  0  0  0
  9 38  1  0  0  0  0
 10 39  1  0  0  0  0
 18 40  1  0  0  0  0
 18 41  1  0  0  0  0
 18 42  1  0  0  0  0
 19 43  1  0  0  0  0
 19 44  1  0  0  0  0
 19 45  1  0  0  0  0
 20 46  1  0  0  0  0
 20 47  1  0  0  0  0
 20 48  1  0  0  0  0
 21 49  1  0  0  0  0
 21 50  1  0  0  0  0
 22 51  1  0  0  0  0
 25 52  1  0  0  0  0
 27 53  1  0  0  0  0
M  END
> <clash_score>
0

> <docking_score>
-9.326629638671875

> <overlap_score>
0.8542828559875488

$$$$
BENZO_229_1
  -OEChem-08232013493D

 55 58  0     1  0  0  0  0  0999 V2000
   11.4296    4.7207   23.1993 C   0  0  0  0  0  0  0  0  0  0  0  0
    4.2970    1.6690   20.8430 C   0  0  0  0  0  0  0  0  0  0  0  0
   12.4494    3.9228   22.6806 C   0  0  0  0  0  0  0  0  0  0  0  0
   10.2636    4.1317   23.6883 C   0  0  0  0  0  0  0  0  0  0  0  0
    4.0980    2.1130   19.5350 C   0  0  0  0  0  0  0  0  0  0  0  0
    5.3360    0.8000   21.1530 C   0  0  0  0  0  0  0  0  0  0  0  0
   12.3031    2.5360   22.6508 C   0  0  0  0  0  0  0  0  0  0  0  0
   10.1173    2.7449   23.6585 C   0  0  0  0  0  0  0  0  0  0  0  0
    8.3510   -1.5420   24.6110 C   0  0  0  0  0  0  0  0  0  0  0  0
   10.2760   -2.3270   23.4020 C   0  0  0  0  0  0  0  0  0  0  0  0
    4.9400    1.7060   18.5060 C   0  0  0  0  0  0  0  0  0  0  0  0
    8.3310   -2.7170   25.3430 C   0  0  0  0  0  0  0  0  0  0  0  0
   10.2570   -3.5000   24.1350 C   0  0  0  0  0  0  0  0  0  0  0  0
    6.1600    0.3870   20.1140 C   0  0  0  0  0  0  0  0  0  0  0  0
   11.1370    1.9470   23.1397 C   0  0  0  0  0  0  0  0  0  0  0  0
    9.3300   -1.3350   23.6390 C   0  0  0  0  0  0  0  0  0  0  0  0
    5.9810    0.8330   18.8060 C   0  0  0  0  0  0  0  0  0  0  0  0
    9.2850   -3.7090   25.1090 C   0  0  0  0  0  0  0  0  0  0  0  0
    7.2210   -0.4620   20.0350 C   0  0  0  0  0  0  0  0  0  0  0  0
    8.1541   -5.5451   26.4009 C   0  0  0  0  0  0  0  0  0  0  0  0
    8.9510    0.1280   21.6880 C   0  0  0  0  0  0  0  0  0  0  0  0
    9.2286   -7.8281   26.2034 C   0  0  0  0  0  0  0  0  0  0  0  0
   10.9777    0.4443   23.1075 C   0  0  0  0  0  0  0  0  0  0  0  0
    8.5738   -6.8153   27.1256 C   0  0  0  0  0  0  0  0  0  0  0  0
    9.4200   -0.0840   22.9530 C   0  0  1  0  0  0  0  0  0  0  0  0
    7.6830   -0.5170   18.7600 N   0  0  0  0  0  0  0  0  0  0  0  0
    6.9440    0.2550   18.0100 N   0  0  0  0  0  0  0  0  0  0  0  0
    9.2630   -4.8903   25.8409 N   0  0  0  0  0  0  0  0  0  0  0  0
    8.0810   -0.9750   21.0820 N   0  0  0  0  0  0  0  0  0  0  0  0
    6.9827   -5.1857   26.3435 O   0  0  0  0  0  0  0  0  0  0  0  0
    9.1870    1.1500   21.0630 O   0  0  0  0  0  0  0  0  0  0  0  0
   11.5443    5.8005   23.2237 H   0  0  0  0  0  0  0  0  0  0  0  0
    3.6274    2.0126   21.6300 H   0  0  0  0  0  0  0  0  0  0  0  0
   13.3579    4.3812   22.3008 H   0  0  0  0  0  0  0  0  0  0  0  0
    9.4699    4.7525   24.0932 H   0  0  0  0  0  0  0  0  0  0  0  0
    3.2732    2.7875   19.3199 H   0  0  0  0  0  0  0  0  0  0  0  0
    5.4878    0.4645   22.1722 H   0  0  0  0  0  0  0  0  0  0  0  0
   13.1028    1.9222   22.2446 H   0  0  0  0  0  0  0  0  0  0  0  0
    9.2052    2.2948   24.0416 H   0  0  0  0  0  0  0  0  0  0  0  0
    7.5948   -0.7783   24.7966 H   0  0  0  0  0  0  0  0  0  0  0  0
   11.0389   -2.1844   22.6342 H   0  0  0  0  0  0  0  0  0  0  0  0
    4.7853    2.0674   17.4815 H   0  0  0  0  0  0  0  0  0  0  0  0
    7.5642   -2.8624   26.1050 H   0  0  0  0  0  0  0  0  0  0  0  0
   11.0137   -4.2649   23.9418 H   0  0  0  0  0  0  0  0  0  0  0  0
    8.5514   -8.1174   25.3930 H   0  0  0  0  0  0  0  0  0  0  0  0
    9.5008   -8.7301   26.7600 H   0  0  0  0  0  0  0  0  0  0  0  0
   10.1375   -7.4179   25.7510 H   0  0  0  0  0  0  0  0  0  0  0  0
   11.5363    0.0387   22.2539 H   0  0  0  0  0  0  0  0  0  0  0  0
   11.4704    0.0336   23.9998 H   0  0  0  0  0  0  0  0  0  0  0  0
    9.2725   -6.5443   27.9255 H   0  0  0  0  0  0  0  0  0  0  0  0
    7.6856   -7.2618   27.5873 H   0  0  0  0  0  0  0  0  0  0  0  0
    8.9182    0.7194   23.6789 H   0  0  0  0  0  0  0  0  0  0  0  0
    7.1015    0.3608   17.0505 H   0  0  0  0  0  0  0  0  0  0  0  0
   10.1698   -5.3461   25.9957 H   0  0  0  0  0  0  0  0  0  0  0  0
    8.1201   -1.8087   21.3560 H   0  0  0  0  0  0  0  0  0  0  0  0
  1  3  1  0  0  0  0
  1  4  2  0  0  0  0
  2  5  1  0  0  0  0
  2  6  2  0  0  0  0
  3  7  2  0  0  0  0
  4  8  1  0  0  0  0
  5 11  2  0  0  0  0
  6 14  1  0  0  0  0
  7 15  1  0  0  0  0
  8 15  2  0  0  0  0
  9 12  2  0  0  0  0
  9 16  1  0  0  0  0
 10 13  1  0  0  0  0
 10 16  2  0  0  0  0
 11 17  1  0  0  0  0
 12 18  1  0  0  0  0
 13 18  2  0  0  0  0
 14 17  2  0  0  0  0
 14 19  1  0  0  0  0
 15 23  1  0  0  0  0
 16 25  1  0  0  0  0
 17 27  1  0  0  0  0
 18 28  1  0  0  0  0
 19 26  2  0  0  0  0
 19 29  1  0  0  0  0
 20 24  1  0  0  0  0
 20 28  1  0  0  0  0
 20 30  2  0  0  0  0
 21 25  1  0  0  0  0
 21 29  1  0  0  0  0
 21 31  2  0  0  0  0
 22 24  1  0  0  0  0
 23 25  1  1  0  0  0
 26 27  1  0  0  0  0
  1 32  1  0  0  0  0
  2 33  1  0  0  0  0
  3 34  1  0  0  0  0
  4 35  1  0  0  0  0
  5 36  1  0  0  0  0
  6 37  1  0  0  0  0
  7 38  1  0  0  0  0
  8 39  1  0  0  0  0
  9 40  1  0  0  0  0
 10 41  1  0  0  0  0
 11 42  1  0  0  0  0
 12 43  1  0  0  0  0
 13 44  1  0  0  0  0
 22 45  1  0  0  0  0
 22 46  1  0  0  0  0
 22 47  1  0  0  0  0
 23 48  1  0  0  0  0
 23 49  1  0  0  0  0
 24 50  1  0  0  0  0
 24 51  1  0  0  0  0
 25 52  1  0  0  0  0
 27 53  1  0  0  0  0
 28 54  1  0  0  0  0
 29 55  1  0  0  0  0
M  END
> <clash_score>
1.2357337429672006

> <docking_score>
-8.66588020324707

> <overlap_score>
0.9388543963432312

$$$$
BENZO_229_2
  -OEChem-08232013493D

 55 58  0     1  0  0  0  0  0999 V2000
   10.6367    4.9868   23.6018 C   0  0  0  0  0  0  0  0  0  0  0  0
    4.2970    1.6690   20.8430 C   0  0  0  0  0  0  0  0  0  0  0  0
    9.3228    4.8557   24.0511 C   0  0  0  0  0  0  0  0  0  0  0  0
   11.3798    3.8515   23.2784 C   0  0  0  0  0  0  0  0  0  0  0  0
    4.0980    2.1130   19.5350 C   0  0  0  0  0  0  0  0  0  0  0  0
    5.3360    0.8000   21.1530 C   0  0  0  0  0  0  0  0  0  0  0  0
    8.7519    3.5893   24.1772 C   0  0  0  0  0  0  0  0  0  0  0  0
   10.8090    2.5851   23.4045 C   0  0  0  0  0  0  0  0  0  0  0  0
    8.3510   -1.5420   24.6110 C   0  0  0  0  0  0  0  0  0  0  0  0
   10.2760   -2.3270   23.4020 C   0  0  0  0  0  0  0  0  0  0  0  0
    4.9400    1.7060   18.5060 C   0  0  0  0  0  0  0  0  0  0  0  0
    8.3310   -2.7170   25.3430 C   0  0  0  0  0  0  0  0  0  0  0  0
   10.2570   -3.5000   24.1350 C   0  0  0  0  0  0  0  0  0  0  0  0
    6.1600    0.3870   20.1140 C   0  0  0  0  0  0  0  0  0  0  0  0
    9.4950    2.4539   23.8539 C   0  0  0  0  0  0  0  0  0  0  0  0
    9.3300   -1.3350   23.6390 C   0  0  0  0  0  0  0  0  0  0  0  0
    5.9810    0.8330   18.8060 C   0  0  0  0  0  0  0  0  0  0  0  0
    9.2850   -3.7090   25.1090 C   0  0  0  0  0  0  0  0  0  0  0  0
    7.2210   -0.4620   20.0350 C   0  0  0  0  0  0  0  0  0  0  0  0
    8.1541   -5.5451   26.4009 C   0  0  0  0  0  0  0  0  0  0  0  0
    8.9510    0.1280   21.6880 C   0  0  0  0  0  0  0  0  0  0  0  0
    9.2286   -7.8281   26.2034 C   0  0  0  0  0  0  0  0  0  0  0  0
    8.8771    1.0813   23.9905 C   0  0  0  0  0  0  0  0  0  0  0  0
    8.5738   -6.8153   27.1256 C   0  0  0  0  0  0  0  0  0  0  0  0
    9.4200   -0.0840   22.9530 C   0  0  2  0  0  0  0  0  0  0  0  0
    7.6830   -0.5170   18.7600 N   0  0  0  0  0  0  0  0  0  0  0  0
    6.9440    0.2550   18.0100 N   0  0  0  0  0  0  0  0  0  0  0  0
    9.2630   -4.8903   25.8409 N   0  0  0  0  0  0  0  0  0  0  0  0
    8.0810   -0.9750   21.0820 N   0  0  0  0  0  0  0  0  0  0  0  0
    6.9827   -5.1857   26.3435 O   0  0  0  0  0  0  0  0  0  0  0  0
    9.1870    1.1500   21.0630 O   0  0  0  0  0  0  0  0  0  0  0  0
   11.0806    5.9731   23.5024 H   0  0  0  0  0  0  0  0  0  0  0  0
    3.6274    2.0126   21.6300 H   0  0  0  0  0  0  0  0  0  0  0  0
    8.7437    5.7397   24.3019 H   0  0  0  0  0  0  0  0  0  0  0  0
   12.4025    3.9533   22.9274 H   0  0  0  0  0  0  0  0  0  0  0  0
    3.2732    2.7875   19.3199 H   0  0  0  0  0  0  0  0  0  0  0  0
    5.4878    0.4645   22.1722 H   0  0  0  0  0  0  0  0  0  0  0  0
    7.7275    3.4967   24.5283 H   0  0  0  0  0  0  0  0  0  0  0  0
   11.3955    1.7061   23.1503 H   0  0  0  0  0  0  0  0  0  0  0  0
    7.5948   -0.7783   24.7966 H   0  0  0  0  0  0  0  0  0  0  0  0
   11.0389   -2.1844   22.6342 H   0  0  0  0  0  0  0  0  0  0  0  0
    4.7853    2.0674   17.4815 H   0  0  0  0  0  0  0  0  0  0  0  0
    7.5642   -2.8624   26.1050 H   0  0  0  0  0  0  0  0  0  0  0  0
   11.0137   -4.2649   23.9418 H   0  0  0  0  0  0  0  0  0  0  0  0
    8.5514   -8.1174   25.3930 H   0  0  0  0  0  0  0  0  0  0  0  0
    9.5008   -8.7301   26.7600 H   0  0  0  0  0  0  0  0  0  0  0  0
   10.1375   -7.4179   25.7510 H   0  0  0  0  0  0  0  0  0  0  0  0
    8.9708    0.7434   25.0308 H   0  0  0  0  0  0  0  0  0  0  0  0
    7.7972    1.1781   23.8117 H   0  0  0  0  0  0  0  0  0  0  0  0
    9.2725   -6.5443   27.9255 H   0  0  0  0  0  0  0  0  0  0  0  0
    7.6856   -7.2618   27.5873 H   0  0  0  0  0  0  0  0  0  0  0  0
   10.5743    0.2174   22.9808 H   0  0  0  0  0  0  0  0  0  0  0  0
    7.1015    0.3608   17.0505 H   0  0  0  0  0  0  0  0  0  0  0  0
   10.1698   -5.3461   25.9957 H   0  0  0  0  0  0  0  0  0  0  0  0
    8.1201   -1.8087   21.3560 H   0  0  0  0  0  0  0  0  0  0  0  0
  1  3  1  0  0  0  0
  1  4  2  0  0  0  0
  2  5  1  0  0  0  0
  2  6  2  0  0  0  0
  3  7  2  0  0  0  0
  4  8  1  0  0  0  0
  5 11  2  0  0  0  0
  6 14  1  0  0  0  0
  7 15  1  0  0  0  0
  8 15  2  0  0  0  0
  9 12  2  0  0  0  0
  9 16  1  0  0  0  0
 10 13  1  0  0  0  0
 10 16  2  0  0  0  0
 11 17  1  0  0  0  0
 12 18  1  0  0  0  0
 13 18  2  0  0  0  0
 14 17  2  0  0  0  0
 14 19  1  0  0  0  0
 15 23  1  0  0  0  0
 16 25  1  0  0  0  0
 17 27  1  0  0  0  0
 18 28  1  0  0  0  0
 19 26  2  0  0  0  0
 19 29  1  0  0  0  0
 20 24  1  0  0  0  0
 20 28  1  0  0  0  0
 20 30  2  0  0  0  0
 21 25  1  0  0  0  0
 21 29  1  0  0  0  0
 21 31  2  0  0  0  0
 22 24  1  0  0  0  0
 23 25  1  6  0  0  0
 26 27  1  0  0  0  0
  1 32  1  0  0  0  0
  2 33  1  0  0  0  0
  3 34  1  0  0  0  0
  4 35  1  0  0  0  0
  5 36  1  0  0  0  0
  6 37  1  0  0  0  0
  7 38  1  0  0  0  0
  8 39  1  0  0  0  0
  9 40  1  0  0  0  0
 10 41  1  0  0  0  0
 11 42  1  0  0  0  0
 12 43  1  0  0  0  0
 13 44  1  0  0  0  0
 22 45  1  0  0  0  0
 22 46  1  0  0  0  0
 22 47  1  0  0  0  0
 23 48  1  0  0  0  0
 23 49  1  0  0  0  0
 24 50  1  0  0  0  0
 24 51  1  0  0  0  0
 25 52  1  0  0  0  0
 27 53  1  0  0  0  0
 28 54  1  0  0  0  0
 29 55  1  0  0  0  0
M  END
> <clash_score>
1.2357337429672006

> <docking_score>
-7.55124568939209

> <overlap_score>
0.8675513863563538

$$$$
BENZO_226_2
  -OEChem-08232013493D

 53 56  0     1  0  0  0  0  0999 V2000
    4.2970    1.6690   20.8430 C   0  0  0  0  0  0  0  0  0  0  0  0
    4.0980    2.1130   19.5350 C   0  0  0  0  0  0  0  0  0  0  0  0
    9.3211    4.8553   24.0536 C   0  0  0  0  0  0  0  0  0  0  0  0
    5.3360    0.8000   21.1530 C   0  0  0  0  0  0  0  0  0  0  0  0
    8.7511    3.5884   24.1784 C   0  0  0  0  0  0  0  0  0  0  0  0
    8.3510   -1.5420   24.6110 C   0  0  0  0  0  0  0  0  0  0  0  0
   10.2760   -2.3270   23.4020 C   0  0  0  0  0  0  0  0  0  0  0  0
    4.9400    1.7060   18.5060 C   0  0  0  0  0  0  0  0  0  0  0  0
    8.3310   -2.7170   25.3430 C   0  0  0  0  0  0  0  0  0  0  0  0
   10.2570   -3.5000   24.1350 C   0  0  0  0  0  0  0  0  0  0  0  0
   10.6349    4.9878   23.6043 C   0  0  0  0  0  0  0  0  0  0  0  0
   10.8089    2.5864   23.4046 C   0  0  0  0  0  0  0  0  0  0  0  0
    6.1600    0.3870   20.1140 C   0  0  0  0  0  0  0  0  0  0  0  0
    9.3300   -1.3350   23.6390 C   0  0  0  0  0  0  0  0  0  0  0  0
    9.4950    2.4539   23.8539 C   0  0  0  0  0  0  0  0  0  0  0  0
    5.9810    0.8330   18.8060 C   0  0  0  0  0  0  0  0  0  0  0  0
    9.2850   -3.7090   25.1090 C   0  0  0  0  0  0  0  0  0  0  0  0
   11.3788    3.8534   23.2798 C   0  0  0  0  0  0  0  0  0  0  0  0
    7.2210   -0.4620   20.0350 C   0  0  0  0  0  0  0  0  0  0  0  0
    8.9510    0.1280   21.6880 C   0  0  0  0  0  0  0  0  0  0  0  0
    8.2522   -5.1181   26.8654 C   0  0  0  0  0  0  0  0  0  0  0  0
   10.2439   -5.9404   25.5982 C   0  0  0  0  0  0  0  0  0  0  0  0
    8.8771    1.0813   23.9905 C   0  0  0  0  0  0  0  0  0  0  0  0
    9.4200   -0.0840   22.9530 C   0  0  2  0  0  0  0  0  0  0  0  0
    7.6830   -0.5170   18.7600 N   0  0  0  0  0  0  0  0  0  0  0  0
    6.9440    0.2550   18.0100 N   0  0  0  0  0  0  0  0  0  0  0  0
    8.0810   -0.9750   21.0820 N   0  0  0  0  0  0  0  0  0  0  0  0
    9.2638   -4.9025   25.8500 N   0  0  0  0  0  0  0  0  0  0  0  0
    9.1870    1.1500   21.0630 O   0  0  0  0  0  0  0  0  0  0  0  0
   13.0002    4.0175   22.7265 Cl  0  0  0  0  0  0  0  0  0  0  0  0
    3.6274    2.0126   21.6300 H   0  0  0  0  0  0  0  0  0  0  0  0
    3.2732    2.7875   19.3199 H   0  0  0  0  0  0  0  0  0  0  0  0
    8.7415    5.7384   24.3065 H   0  0  0  0  0  0  0  0  0  0  0  0
    5.4878    0.4645   22.1722 H   0  0  0  0  0  0  0  0  0  0  0  0
    7.7267    3.4945   24.5294 H   0  0  0  0  0  0  0  0  0  0  0  0
    7.5957   -0.7779   24.7973 H   0  0  0  0  0  0  0  0  0  0  0  0
   11.0384   -2.1852   22.6338 H   0  0  0  0  0  0  0  0  0  0  0  0
    4.7853    2.0674   17.4815 H   0  0  0  0  0  0  0  0  0  0  0  0
    7.5634   -2.8637   26.1037 H   0  0  0  0  0  0  0  0  0  0  0  0
   11.0139   -4.2645   23.9419 H   0  0  0  0  0  0  0  0  0  0  0  0
   11.0663    5.9816   23.5122 H   0  0  0  0  0  0  0  0  0  0  0  0
   11.3846    1.6989   23.1523 H   0  0  0  0  0  0  0  0  0  0  0  0
    8.4021   -6.1042   27.3293 H   0  0  0  0  0  0  0  0  0  0  0  0
    8.3318   -4.3354   27.6341 H   0  0  0  0  0  0  0  0  0  0  0  0
    7.2548   -5.0782   26.4033 H   0  0  0  0  0  0  0  0  0  0  0  0
   10.0615   -6.7893   26.2735 H   0  0  0  0  0  0  0  0  0  0  0  0
   10.1605   -6.2778   24.5545 H   0  0  0  0  0  0  0  0  0  0  0  0
   11.2537   -5.5417   25.7750 H   0  0  0  0  0  0  0  0  0  0  0  0
    8.9708    0.7434   25.0308 H   0  0  0  0  0  0  0  0  0  0  0  0
    7.7972    1.1781   23.8117 H   0  0  0  0  0  0  0  0  0  0  0  0
   10.5743    0.2174   22.9808 H   0  0  0  0  0  0  0  0  0  0  0  0
    7.1015    0.3608   17.0505 H   0  0  0  0  0  0  0  0  0  0  0  0
    8.1201   -1.8087   21.3560 H   0  0  0  0  0  0  0  0  0  0  0  0
  1  2  1  0  0  0  0
  1  4  2  0  0  0  0
  2  8  2  0  0  0  0
  3  5  2  0  0  0  0
  3 11  1  0  0  0  0
  4 13  1  0  0  0  0
  5 15  1  0  0  0  0
  6  9  2  0  0  0  0
  6 14  1  0  0  0  0
  7 10  1  0  0  0  0
  7 14  2  0  0  0  0
  8 16  1  0  0  0  0
  9 17  1  0  0  0  0
 10 17  2  0  0  0  0
 11 18  2  0  0  0  0
 12 15  2  0  0  0  0
 12 18  1  0  0  0  0
 13 16  2  0  0  0  0
 13 19  1  0  0  0  0
 14 24  1  0  0  0  0
 15 23  1  0  0  0  0
 16 26  1  0  0  0  0
 17 28  1  0  0  0  0
 18 30  1  0  0  0  0
 19 25  2  0  0  0  0
 19 27  1  0  0  0  0
 20 24  1  0  0  0  0
 20 27  1  0  0  0  0
 20 29  2  0  0  0  0
 21 28  1  0  0  0  0
 22 28  1  0  0  0  0
 23 24  1  6  0  0  0
 25 26  1  0  0  0  0
  1 31  1  0  0  0  0
  2 32  1  0  0  0  0
  3 33  1  0  0  0  0
  4 34  1  0  0  0  0
  5 35  1  0  0  0  0
  6 36  1  0  0  0  0
  7 37  1  0  0  0  0
  8 38  1  0  0  0  0
  9 39  1  0  0  0  0
 10 40  1  0  0  0  0
 11 41  1  0  0  0  0
 12 42  1  0  0  0  0
 21 43  1  0  0  0  0
 21 44  1  0  0  0  0
 21 45  1  0  0  0  0
 22 46  1  0  0  0  0
 22 47  1  0  0  0  0
 22 48  1  0  0  0  0
 23 49  1  0  0  0  0
 23 50  1  0  0  0  0
 24 51  1  0  0  0  0
 26 52  1  0  0  0  0
 27 53  1  0  0  0  0
M  END
> <clash_score>
0

> <docking_score>
-9.985757827758789

> <overlap_score>
0.8692758679389954

$$$$
BENZO_228_2
  -OEChem-08232013493D

 52 55  0     1  0  0  0  0  0999 V2000
    4.2970    1.6690   20.8430 C   0  0  0  0  0  0  0  0  0  0  0  0
    4.0980    2.1130   19.5350 C   0  0  0  0  0  0  0  0  0  0  0  0
    5.3360    0.8000   21.1530 C   0  0  0  0  0  0  0  0  0  0  0  0
    8.3510   -1.5420   24.6110 C   0  0  0  0  0  0  0  0  0  0  0  0
   10.2760   -2.3270   23.4020 C   0  0  0  0  0  0  0  0  0  0  0  0
    4.9400    1.7060   18.5060 C   0  0  0  0  0  0  0  0  0  0  0  0
    8.3310   -2.7170   25.3430 C   0  0  0  0  0  0  0  0  0  0  0  0
   10.2570   -3.5000   24.1350 C   0  0  0  0  0  0  0  0  0  0  0  0
   10.8633    2.6804   23.5273 C   0  0  0  0  0  0  0  0  0  0  0  0
   11.1655    4.0230   23.4669 C   0  0  0  0  0  0  0  0  0  0  0  0
    8.8035    3.6322   24.0309 C   0  0  0  0  0  0  0  0  0  0  0  0
    6.1600    0.3870   20.1140 C   0  0  0  0  0  0  0  0  0  0  0  0
    9.3300   -1.3350   23.6390 C   0  0  0  0  0  0  0  0  0  0  0  0
    9.4950    2.4539   23.8539 C   0  0  0  0  0  0  0  0  0  0  0  0
    5.9810    0.8330   18.8060 C   0  0  0  0  0  0  0  0  0  0  0  0
    9.2850   -3.7090   25.1090 C   0  0  0  0  0  0  0  0  0  0  0  0
    7.2210   -0.4620   20.0350 C   0  0  0  0  0  0  0  0  0  0  0  0
    8.1541   -5.5451   26.4009 C   0  0  0  0  0  0  0  0  0  0  0  0
    8.9510    0.1280   21.6880 C   0  0  0  0  0  0  0  0  0  0  0  0
    9.2286   -7.8281   26.2034 C   0  0  0  0  0  0  0  0  0  0  0  0
    8.8771    1.0813   23.9905 C   0  0  0  0  0  0  0  0  0  0  0  0
    8.5738   -6.8153   27.1256 C   0  0  0  0  0  0  0  0  0  0  0  0
    9.4200   -0.0840   22.9530 C   0  0  2  0  0  0  0  0  0  0  0  0
    7.6830   -0.5170   18.7600 N   0  0  0  0  0  0  0  0  0  0  0  0
    6.9440    0.2550   18.0100 N   0  0  0  0  0  0  0  0  0  0  0  0
    9.2630   -4.8903   25.8409 N   0  0  0  0  0  0  0  0  0  0  0  0
    8.0810   -0.9750   21.0820 N   0  0  0  0  0  0  0  0  0  0  0  0
    6.9827   -5.1857   26.3435 O   0  0  0  0  0  0  0  0  0  0  0  0
    9.1870    1.1500   21.0630 O   0  0  0  0  0  0  0  0  0  0  0  0
    9.8028    5.0040   23.8033 S   0  0  0  0  0  0  0  0  0  0  0  0
    3.6274    2.0126   21.6300 H   0  0  0  0  0  0  0  0  0  0  0  0
    3.2732    2.7875   19.3199 H   0  0  0  0  0  0  0  0  0  0  0  0
    5.4878    0.4645   22.1722 H   0  0  0  0  0  0  0  0  0  0  0  0
    7.5948   -0.7783   24.7966 H   0  0  0  0  0  0  0  0  0  0  0  0
   11.0389   -2.1844   22.6342 H   0  0  0  0  0  0  0  0  0  0  0  0
    4.7853    2.0674   17.4815 H   0  0  0  0  0  0  0  0  0  0  0  0
    7.5642   -2.8624   26.1050 H   0  0  0  0  0  0  0  0  0  0  0  0
   11.0137   -4.2649   23.9418 H   0  0  0  0  0  0  0  0  0  0  0  0
   11.5925    1.9010   23.3455 H   0  0  0  0  0  0  0  0  0  0  0  0
   12.1213    4.4748   23.2422 H   0  0  0  0  0  0  0  0  0  0  0  0
    7.7599    3.7576   24.2842 H   0  0  0  0  0  0  0  0  0  0  0  0
    8.5514   -8.1174   25.3930 H   0  0  0  0  0  0  0  0  0  0  0  0
    9.5008   -8.7301   26.7600 H   0  0  0  0  0  0  0  0  0  0  0  0
   10.1375   -7.4179   25.7510 H   0  0  0  0  0  0  0  0  0  0  0  0
    8.9708    0.7434   25.0308 H   0  0  0  0  0  0  0  0  0  0  0  0
    7.7972    1.1781   23.8117 H   0  0  0  0  0  0  0  0  0  0  0  0
    9.2725   -6.5443   27.9255 H   0  0  0  0  0  0  0  0  0  0  0  0
    7.6856   -7.2618   27.5873 H   0  0  0  0  0  0  0  0  0  0  0  0
   10.5743    0.2174   22.9808 H   0  0  0  0  0  0  0  0  0  0  0  0
    7.1015    0.3608   17.0505 H   0  0  0  0  0  0  0  0  0  0  0  0
   10.1698   -5.3461   25.9957 H   0  0  0  0  0  0  0  0  0  0  0  0
    8.1201   -1.8087   21.3560 H   0  0  0  0  0  0  0  0  0  0  0  0
  1  2  1  0  0  0  0
  1  3  2  0  0  0  0
  2  6  2  0  0  0  0
  3 12  1  0  0  0  0
  4  7  2  0  0  0  0
  4 13  1  0  0  0  0
  5  8  1  0  0  0  0
  5 13  2  0  0  0  0
  6 15  1  0  0  0  0
  7 16  1  0  0  0  0
  8 16  2  0  0  0  0
  9 10  2  0  0  0  0
  9 14  1  0  0  0  0
 10 30  1  0  0  0  0
 11 14  2  0  0  0  0
 11 30  1  0  0  0  0
 12 15  2  0  0  0  0
 12 17  1  0  0  0  0
 13 23  1  0  0  0  0
 14 21  1  0  0  0  0
 15 25  1  0  0  0  0
 16 26  1  0  0  0  0
 17 24  2  0  0  0  0
 17 27  1  0  0  0  0
 18 22  1  0  0  0  0
 18 26  1  0  0  0  0
 18 28  2  0  0  0  0
 19 23  1  0  0  0  0
 19 27  1  0  0  0  0
 19 29  2  0  0  0  0
 20 22  1  0  0  0  0
 21 23  1  6  0  0  0
 24 25  1  0  0  0  0
  1 31  1  0  0  0  0
  2 32  1  0  0  0  0
  3 33  1  0  0  0  0
  4 34  1  0  0  0  0
  5 35  1  0  0  0  0
  6 36  1  0  0  0  0
  7 37  1  0  0  0  0
  8 38  1  0  0  0  0
  9 39  1  0  0  0  0
 10 40  1  0  0  0  0
 11 41  1  0  0  0  0
 20 42  1  0  0  0  0
 20 43  1  0  0  0  0
 20 44  1  0  0  0  0
 21 45  1  0  0  0  0
 21 46  1  0  0  0  0
 22 47  1  0  0  0  0
 22 48  1  0  0  0  0
 23 49  1  0  0  0  0
 25 50  1  0  0  0  0
 26 51  1  0  0  0  0
 27 52  1  0  0  0  0
M  END
> <clash_score>
1.2357337429672006

> <docking_score>
-7.274608612060547

> <overlap_score>
0.8648129105567932

$$$$
BENZO_228_1
  -OEChem-08232013493D

 52 55  0     1  0  0  0  0  0999 V2000
    4.2970    1.6690   20.8430 C   0  0  0  0  0  0  0  0  0  0  0  0
    4.0980    2.1130   19.5350 C   0  0  0  0  0  0  0  0  0  0  0  0
    5.3360    0.8000   21.1530 C   0  0  0  0  0  0  0  0  0  0  0  0
    8.3510   -1.5420   24.6110 C   0  0  0  0  0  0  0  0  0  0  0  0
   10.2760   -2.3270   23.4020 C   0  0  0  0  0  0  0  0  0  0  0  0
    4.9400    1.7060   18.5060 C   0  0  0  0  0  0  0  0  0  0  0  0
    8.3310   -2.7170   25.3430 C   0  0  0  0  0  0  0  0  0  0  0  0
   10.2570   -3.5000   24.1350 C   0  0  0  0  0  0  0  0  0  0  0  0
   11.9019    2.6854   22.1912 C   0  0  0  0  0  0  0  0  0  0  0  0
   11.8820    4.0381   22.4508 C   0  0  0  0  0  0  0  0  0  0  0  0
   10.5617    2.7635   24.0885 C   0  0  0  0  0  0  0  0  0  0  0  0
    6.1600    0.3870   20.1140 C   0  0  0  0  0  0  0  0  0  0  0  0
    9.3300   -1.3350   23.6390 C   0  0  0  0  0  0  0  0  0  0  0  0
   11.1370    1.9470   23.1397 C   0  0  0  0  0  0  0  0  0  0  0  0
    5.9810    0.8330   18.8060 C   0  0  0  0  0  0  0  0  0  0  0  0
    9.2850   -3.7090   25.1090 C   0  0  0  0  0  0  0  0  0  0  0  0
    7.2210   -0.4620   20.0350 C   0  0  0  0  0  0  0  0  0  0  0  0
    8.1541   -5.5451   26.4009 C   0  0  0  0  0  0  0  0  0  0  0  0
    8.9510    0.1280   21.6880 C   0  0  0  0  0  0  0  0  0  0  0  0
    9.2286   -7.8281   26.2034 C   0  0  0  0  0  0  0  0  0  0  0  0
   10.9777    0.4443   23.1075 C   0  0  0  0  0  0  0  0  0  0  0  0
    8.5738   -6.8153   27.1256 C   0  0  0  0  0  0  0  0  0  0  0  0
    9.4200   -0.0840   22.9530 C   0  0  1  0  0  0  0  0  0  0  0  0
    7.6830   -0.5170   18.7600 N   0  0  0  0  0  0  0  0  0  0  0  0
    6.9440    0.2550   18.0100 N   0  0  0  0  0  0  0  0  0  0  0  0
    9.2630   -4.8903   25.8409 N   0  0  0  0  0  0  0  0  0  0  0  0
    8.0810   -0.9750   21.0820 N   0  0  0  0  0  0  0  0  0  0  0  0
    6.9827   -5.1857   26.3435 O   0  0  0  0  0  0  0  0  0  0  0  0
    9.1870    1.1500   21.0630 O   0  0  0  0  0  0  0  0  0  0  0  0
   10.9440    4.4131   23.8336 S   0  0  0  0  0  0  0  0  0  0  0  0
    3.6274    2.0126   21.6300 H   0  0  0  0  0  0  0  0  0  0  0  0
    3.2732    2.7875   19.3199 H   0  0  0  0  0  0  0  0  0  0  0  0
    5.4878    0.4645   22.1722 H   0  0  0  0  0  0  0  0  0  0  0  0
    7.5948   -0.7783   24.7966 H   0  0  0  0  0  0  0  0  0  0  0  0
   11.0389   -2.1844   22.6342 H   0  0  0  0  0  0  0  0  0  0  0  0
    4.7853    2.0674   17.4815 H   0  0  0  0  0  0  0  0  0  0  0  0
    7.5642   -2.8624   26.1050 H   0  0  0  0  0  0  0  0  0  0  0  0
   11.0137   -4.2649   23.9418 H   0  0  0  0  0  0  0  0  0  0  0  0
   12.4414    2.2505   21.3593 H   0  0  0  0  0  0  0  0  0  0  0  0
   12.3738    4.8240   21.8953 H   0  0  0  0  0  0  0  0  0  0  0  0
    9.9357    2.4743   24.9213 H   0  0  0  0  0  0  0  0  0  0  0  0
    8.5514   -8.1174   25.3930 H   0  0  0  0  0  0  0  0  0  0  0  0
    9.5008   -8.7301   26.7600 H   0  0  0  0  0  0  0  0  0  0  0  0
   10.1375   -7.4179   25.7510 H   0  0  0  0  0  0  0  0  0  0  0  0
   11.5363    0.0387   22.2539 H   0  0  0  0  0  0  0  0  0  0  0  0
   11.4704    0.0336   23.9998 H   0  0  0  0  0  0  0  0  0  0  0  0
    9.2725   -6.5443   27.9255 H   0  0  0  0  0  0  0  0  0  0  0  0
    7.6856   -7.2618   27.5873 H   0  0  0  0  0  0  0  0  0  0  0  0
    8.9182    0.7194   23.6789 H   0  0  0  0  0  0  0  0  0  0  0  0
    7.1015    0.3608   17.0505 H   0  0  0  0  0  0  0  0  0  0  0  0
   10.1698   -5.3461   25.9957 H   0  0  0  0  0  0  0  0  0  0  0  0
    8.1201   -1.8087   21.3560 H   0  0  0  0  0  0  0  0  0  0  0  0
  1  2  1  0  0  0  0
  1  3  2  0  0  0  0
  2  6  2  0  0  0  0
  3 12  1  0  0  0  0
  4  7  2  0  0  0  0
  4 13  1  0  0  0  0
  5  8  1  0  0  0  0
  5 13  2  0  0  0  0
  6 15  1  0  0  0  0
  7 16  1  0  0  0  0
  8 16  2  0  0  0  0
  9 10  2  0  0  0  0
  9 14  1  0  0  0  0
 10 30  1  0  0  0  0
 11 14  2  0  0  0  0
 11 30  1  0  0  0  0
 12 15  2  0  0  0  0
 12 17  1  0  0  0  0
 13 23  1  0  0  0  0
 14 21  1  0  0  0  0
 15 25  1  0  0  0  0
 16 26  1  0  0  0  0
 17 24  2  0  0  0  0
 17 27  1  0  0  0  0
 18 22  1  0  0  0  0
 18 26  1  0  0  0  0
 18 28  2  0  0  0  0
 19 23  1  0  0  0  0
 19 27  1  0  0  0  0
 19 29  2  0  0  0  0
 20 22  1  0  0  0  0
 21 23  1  1  0  0  0
 24 25  1  0  0  0  0
  1 31  1  0  0  0  0
  2 32  1  0  0  0  0
  3 33  1  0  0  0  0
  4 34  1  0  0  0  0
  5 35  1  0  0  0  0
  6 36  1  0  0  0  0
  7 37  1  0  0  0  0
  8 38  1  0  0  0  0
  9 39  1  0  0  0  0
 10 40  1  0  0  0  0
 11 41  1  0  0  0  0
 20 42  1  0  0  0  0
 20 43  1  0  0  0  0
 20 44  1  0  0  0  0
 21 45  1  0  0  0  0
 21 46  1  0  0  0  0
 22 47  1  0  0  0  0
 22 48  1  0  0  0  0
 23 49  1  0  0  0  0
 25 50  1  0  0  0  0
 26 51  1  0  0  0  0
 27 52  1  0  0  0  0
M  END
> <clash_score>
1.2357337429672006

> <docking_score>
-7.207067489624023

> <overlap_score>
0.927979052066803

$$$$
BENZO_230_1
  -OEChem-08232013493D

 55 58  0     1  0  0  0  0  0999 V2000
    4.2970    1.6690   20.8430 C   0  0  0  0  0  0  0  0  0  0  0  0
    4.0980    2.1130   19.5350 C   0  0  0  0  0  0  0  0  0  0  0  0
   10.2645    4.1315   23.6906 C   0  0  0  0  0  0  0  0  0  0  0  0
    5.3360    0.8000   21.1530 C   0  0  0  0  0  0  0  0  0  0  0  0
   10.1177    2.7447   23.6595 C   0  0  0  0  0  0  0  0  0  0  0  0
    8.3510   -1.5420   24.6110 C   0  0  0  0  0  0  0  0  0  0  0  0
   10.2760   -2.3270   23.4020 C   0  0  0  0  0  0  0  0  0  0  0  0
    4.9400    1.7060   18.5060 C   0  0  0  0  0  0  0  0  0  0  0  0
    8.3310   -2.7170   25.3430 C   0  0  0  0  0  0  0  0  0  0  0  0
   10.2570   -3.5000   24.1350 C   0  0  0  0  0  0  0  0  0  0  0  0
   11.4306    4.7205   23.2018 C   0  0  0  0  0  0  0  0  0  0  0  0
   12.3032    2.5360   22.6510 C   0  0  0  0  0  0  0  0  0  0  0  0
    6.1600    0.3870   20.1140 C   0  0  0  0  0  0  0  0  0  0  0  0
    9.3300   -1.3350   23.6390 C   0  0  0  0  0  0  0  0  0  0  0  0
   11.1370    1.9470   23.1397 C   0  0  0  0  0  0  0  0  0  0  0  0
    5.9810    0.8330   18.8060 C   0  0  0  0  0  0  0  0  0  0  0  0
    9.2850   -3.7090   25.1090 C   0  0  0  0  0  0  0  0  0  0  0  0
   12.4500    3.9228   22.6821 C   0  0  0  0  0  0  0  0  0  0  0  0
    7.2210   -0.4620   20.0350 C   0  0  0  0  0  0  0  0  0  0  0  0
    8.3664   -5.2687   26.8533 C   0  0  0  0  0  0  0  0  0  0  0  0
    8.9510    0.1280   21.6880 C   0  0  0  0  0  0  0  0  0  0  0  0
    7.9636   -7.7604   26.6667 C   0  0  0  0  0  0  0  0  0  0  0  0
   10.9777    0.4443   23.1075 C   0  0  0  0  0  0  0  0  0  0  0  0
    8.7003   -6.6507   27.3951 C   0  0  0  0  0  0  0  0  0  0  0  0
    9.4200   -0.0840   22.9530 C   0  0  1  0  0  0  0  0  0  0  0  0
    7.6830   -0.5170   18.7600 N   0  0  0  0  0  0  0  0  0  0  0  0
    6.9440    0.2550   18.0100 N   0  0  0  0  0  0  0  0  0  0  0  0
    9.2630   -4.8903   25.8409 N   0  0  0  0  0  0  0  0  0  0  0  0
    8.0810   -0.9750   21.0820 N   0  0  0  0  0  0  0  0  0  0  0  0
    7.4229   -4.6125   27.2818 O   0  0  0  0  0  0  0  0  0  0  0  0
    9.1870    1.1500   21.0630 O   0  0  0  0  0  0  0  0  0  0  0  0
   13.8890    4.6500   22.0802 Cl  0  0  0  0  0  0  0  0  0  0  0  0
    3.6274    2.0126   21.6300 H   0  0  0  0  0  0  0  0  0  0  0  0
    3.2732    2.7875   19.3199 H   0  0  0  0  0  0  0  0  0  0  0  0
    9.4706    4.7523   24.0956 H   0  0  0  0  0  0  0  0  0  0  0  0
    5.4878    0.4645   22.1722 H   0  0  0  0  0  0  0  0  0  0  0  0
    9.2057    2.2944   24.0426 H   0  0  0  0  0  0  0  0  0  0  0  0
    7.5948   -0.7783   24.7966 H   0  0  0  0  0  0  0  0  0  0  0  0
   11.0389   -2.1844   22.6342 H   0  0  0  0  0  0  0  0  0  0  0  0
    4.7853    2.0674   17.4815 H   0  0  0  0  0  0  0  0  0  0  0  0
    7.5642   -2.8624   26.1050 H   0  0  0  0  0  0  0  0  0  0  0  0
   11.0137   -4.2649   23.9418 H   0  0  0  0  0  0  0  0  0  0  0  0
   11.5314    5.8026   23.2327 H   0  0  0  0  0  0  0  0  0  0  0  0
   13.0949    1.9096   22.2463 H   0  0  0  0  0  0  0  0  0  0  0  0
    6.8793   -7.6281   26.7422 H   0  0  0  0  0  0  0  0  0  0  0  0
    8.2200   -8.7338   27.0961 H   0  0  0  0  0  0  0  0  0  0  0  0
    8.2268   -7.7754   25.6039 H   0  0  0  0  0  0  0  0  0  0  0  0
   11.5363    0.0387   22.2539 H   0  0  0  0  0  0  0  0  0  0  0  0
   11.4704    0.0336   23.9998 H   0  0  0  0  0  0  0  0  0  0  0  0
    9.7811   -6.8081   27.3033 H   0  0  0  0  0  0  0  0  0  0  0  0
    8.4423   -6.6782   28.4600 H   0  0  0  0  0  0  0  0  0  0  0  0
    8.9182    0.7194   23.6789 H   0  0  0  0  0  0  0  0  0  0  0  0
    7.1015    0.3608   17.0505 H   0  0  0  0  0  0  0  0  0  0  0  0
    9.9931   -5.5768   25.6181 H   0  0  0  0  0  0  0  0  0  0  0  0
    8.1201   -1.8087   21.3560 H   0  0  0  0  0  0  0  0  0  0  0  0
  1  2  1  0  0  0  0
  1  4  2  0  0  0  0
  2  8  2  0  0  0  0
  3  5  2  0  0  0  0
  3 11  1  0  0  0  0
  4 13  1  0  0  0  0
  5 15  1  0  0  0  0
  6  9  2  0  0  0  0
  6 14  1  0  0  0  0
  7 10  1  0  0  0  0
  7 14  2  0  0  0  0
  8 16  1  0  0  0  0
  9 17  1  0  0  0  0
 10 17  2  0  0  0  0
 11 18  2  0  0  0  0
 12 15  2  0  0  0  0
 12 18  1  0  0  0  0
 13 16  2  0  0  0  0
 13 19  1  0  0  0  0
 14 25  1  0  0  0  0
 15 23  1  0  0  0  0
 16 27  1  0  0  0  0
 17 28  1  0  0  0  0
 18 32  1  0  0  0  0
 19 26  2  0  0  0  0
 19 29  1  0  0  0  0
 20 24  1  0  0  0  0
 20 28  1  0  0  0  0
 20 30  2  0  0  0  0
 21 25  1  0  0  0  0
 21 29  1  0  0  0  0
 21 31  2  0  0  0  0
 22 24  1  0  0  0  0
 23 25  1  1  0  0  0
 26 27  1  0  0  0  0
  1 33  1  0  0  0  0
  2 34  1  0  0  0  0
  3 35  1  0  0  0  0
  4 36  1  0  0  0  0
  5 37  1  0  0  0  0
  6 38  1  0  0  0  0
  7 39  1  0  0  0  0
  8 40  1  0  0  0  0
  9 41  1  0  0  0  0
 10 42  1  0  0  0  0
 11 43  1  0  0  0  0
 12 44  1  0  0  0  0
 22 45  1  0  0  0  0
 22 46  1  0  0  0  0
 22 47  1  0  0  0  0
 23 48  1  0  0  0  0
 23 49  1  0  0  0  0
 24 50  1  0  0  0  0
 24 51  1  0  0  0  0
 25 52  1  0  0  0  0
 27 53  1  0  0  0  0
 28 54  1  0  0  0  0
 29 55  1  0  0  0  0
M  END
> <clash_score>
0.7804987027490742

> <docking_score>
-8.817562103271484

> <overlap_score>
0.9407991170883179

$$$$
BENZO_230_2
  -OEChem-08232013493D

 55 58  0     1  0  0  0  0  0999 V2000
    4.2970    1.6690   20.8430 C   0  0  0  0  0  0  0  0  0  0  0  0
    4.0980    2.1130   19.5350 C   0  0  0  0  0  0  0  0  0  0  0  0
    9.3211    4.8553   24.0536 C   0  0  0  0  0  0  0  0  0  0  0  0
    5.3360    0.8000   21.1530 C   0  0  0  0  0  0  0  0  0  0  0  0
    8.7511    3.5884   24.1784 C   0  0  0  0  0  0  0  0  0  0  0  0
    8.3510   -1.5420   24.6110 C   0  0  0  0  0  0  0  0  0  0  0  0
   10.2760   -2.3270   23.4020 C   0  0  0  0  0  0  0  0  0  0  0  0
    4.9400    1.7060   18.5060 C   0  0  0  0  0  0  0  0  0  0  0  0
    8.3310   -2.7170   25.3430 C   0  0  0  0  0  0  0  0  0  0  0  0
   10.2570   -3.5000   24.1350 C   0  0  0  0  0  0  0  0  0  0  0  0
   10.6349    4.9878   23.6043 C   0  0  0  0  0  0  0  0  0  0  0  0
   10.8089    2.5864   23.4046 C   0  0  0  0  0  0  0  0  0  0  0  0
    6.1600    0.3870   20.1140 C   0  0  0  0  0  0  0  0  0  0  0  0
    9.3300   -1.3350   23.6390 C   0  0  0  0  0  0  0  0  0  0  0  0
    9.4950    2.4539   23.8539 C   0  0  0  0  0  0  0  0  0  0  0  0
    5.9810    0.8330   18.8060 C   0  0  0  0  0  0  0  0  0  0  0  0
    9.2850   -3.7090   25.1090 C   0  0  0  0  0  0  0  0  0  0  0  0
   11.3788    3.8534   23.2798 C   0  0  0  0  0  0  0  0  0  0  0  0
    7.2210   -0.4620   20.0350 C   0  0  0  0  0  0  0  0  0  0  0  0
    8.3664   -5.2687   26.8533 C   0  0  0  0  0  0  0  0  0  0  0  0
    8.9510    0.1280   21.6880 C   0  0  0  0  0  0  0  0  0  0  0  0
    7.9636   -7.7604   26.6667 C   0  0  0  0  0  0  0  0  0  0  0  0
    8.8771    1.0813   23.9905 C   0  0  0  0  0  0  0  0  0  0  0  0
    8.7003   -6.6507   27.3951 C   0  0  0  0  0  0  0  0  0  0  0  0
    9.4200   -0.0840   22.9530 C   0  0  2  0  0  0  0  0  0  0  0  0
    7.6830   -0.5170   18.7600 N   0  0  0  0  0  0  0  0  0  0  0  0
    6.9440    0.2550   18.0100 N   0  0  0  0  0  0  0  0  0  0  0  0
    9.2630   -4.8903   25.8409 N   0  0  0  0  0  0  0  0  0  0  0  0
    8.0810   -0.9750   21.0820 N   0  0  0  0  0  0  0  0  0  0  0  0
    7.4229   -4.6125   27.2818 O   0  0  0  0  0  0  0  0  0  0  0  0
    9.1870    1.1500   21.0630 O   0  0  0  0  0  0  0  0  0  0  0  0
   13.0002    4.0175   22.7265 Cl  0  0  0  0  0  0  0  0  0  0  0  0
    3.6274    2.0126   21.6300 H   0  0  0  0  0  0  0  0  0  0  0  0
    3.2732    2.7875   19.3199 H   0  0  0  0  0  0  0  0  0  0  0  0
    8.7415    5.7384   24.3065 H   0  0  0  0  0  0  0  0  0  0  0  0
    5.4878    0.4645   22.1722 H   0  0  0  0  0  0  0  0  0  0  0  0
    7.7267    3.4945   24.5294 H   0  0  0  0  0  0  0  0  0  0  0  0
    7.5948   -0.7783   24.7966 H   0  0  0  0  0  0  0  0  0  0  0  0
   11.0389   -2.1844   22.6342 H   0  0  0  0  0  0  0  0  0  0  0  0
    4.7853    2.0674   17.4815 H   0  0  0  0  0  0  0  0  0  0  0  0
    7.5642   -2.8624   26.1050 H   0  0  0  0  0  0  0  0  0  0  0  0
   11.0137   -4.2649   23.9418 H   0  0  0  0  0  0  0  0  0  0  0  0
   11.0663    5.9816   23.5122 H   0  0  0  0  0  0  0  0  0  0  0  0
   11.3846    1.6989   23.1523 H   0  0  0  0  0  0  0  0  0  0  0  0
    6.8793   -7.6281   26.7422 H   0  0  0  0  0  0  0  0  0  0  0  0
    8.2200   -8.7338   27.0961 H   0  0  0  0  0  0  0  0  0  0  0  0
    8.2268   -7.7754   25.6039 H   0  0  0  0  0  0  0  0  0  0  0  0
    8.9708    0.7434   25.0308 H   0  0  0  0  0  0  0  0  0  0  0  0
    7.7972    1.1781   23.8117 H   0  0  0  0  0  0  0  0  0  0  0  0
    9.7811   -6.8081   27.3033 H   0  0  0  0  0  0  0  0  0  0  0  0
    8.4423   -6.6782   28.4600 H   0  0  0  0  0  0  0  0  0  0  0  0
   10.5743    0.2174   22.9808 H   0  0  0  0  0  0  0  0  0  0  0  0
    7.1015    0.3608   17.0505 H   0  0  0  0  0  0  0  0  0  0  0  0
    9.9931   -5.5768   25.6181 H   0  0  0  0  0  0  0  0  0  0  0  0
    8.1201   -1.8087   21.3560 H   0  0  0  0  0  0  0  0  0  0  0  0
  1  2  1  0  0  0  0
  1  4  2  0  0  0  0
  2  8  2  0  0  0  0
  3  5  2  0  0  0  0
  3 11  1  0  0  0  0
  4 13  1  0  0  0  0
  5 15  1  0  0  0  0
  6  9  2  0  0  0  0
  6 14  1  0  0  0  0
  7 10  1  0  0  0  0
  7 14  2  0  0  0  0
  8 16  1  0  0  0  0
  9 17  1  0  0  0  0
 10 17  2  0  0  0  0
 11 18  2  0  0  0  0
 12 15  2  0  0  0  0
 12 18  1  0  0  0  0
 13 16  2  0  0  0  0
 13 19  1  0  0  0  0
 14 25  1  0  0  0  0
 15 23  1  0  0  0  0
 16 27  1  0  0  0  0
 17 28  1  0  0  0  0
 18 32  1  0  0  0  0
 19 26  2  0  0  0  0
 19 29  1  0  0  0  0
 20 24  1  0  0  0  0
 20 28  1  0  0  0  0
 20 30  2  0  0  0  0
 21 25  1  0  0  0  0
 21 29  1  0  0  0  0
 21 31  2  0  0  0  0
 22 24  1  0  0  0  0
 23 25  1  6  0  0  0
 26 27  1  0  0  0  0
  1 33  1  0  0  0  0
  2 34  1  0  0  0  0
  3 35  1  0  0  0  0
  4 36  1  0  0  0  0
  5 37  1  0  0  0  0
  6 38  1  0  0  0  0
  7 39  1  0  0  0  0
  8 40  1  0  0  0  0
  9 41  1  0  0  0  0
 10 42  1  0  0  0  0
 11 43  1  0  0  0  0
 12 44  1  0  0  0  0
 22 45  1  0  0  0  0
 22 46  1  0  0  0  0
 22 47  1  0  0  0  0
 23 48  1  0  0  0  0
 23 49  1  0  0  0  0
 24 50  1  0  0  0  0
 24 51  1  0  0  0  0
 25 52  1  0  0  0  0
 27 53  1  0  0  0  0
 28 54  1  0  0  0  0
 29 55  1  0  0  0  0
M  END
> <clash_score>
0.7804987027490742

> <docking_score>
-7.809675216674805

> <overlap_score>
0.8765684962272644

$$$$
BENZO_233_1
  -OEChem-08232013493D

 60 64  0     1  0  0  0  0  0999 V2000
   10.6051    5.0072   23.5714 C   0  0  0  0  0  0  0  0  0  0  0  0
    4.2970    1.6690   20.8430 C   0  0  0  0  0  0  0  0  0  0  0  0
    9.2931    4.8685   24.0240 C   0  0  0  0  0  0  0  0  0  0  0  0
   11.3561    3.8759   23.2522 C   0  0  0  0  0  0  0  0  0  0  0  0
    4.0980    2.1130   19.5350 C   0  0  0  0  0  0  0  0  0  0  0  0
    5.3360    0.8000   21.1530 C   0  0  0  0  0  0  0  0  0  0  0  0
    8.7320    3.5984   24.1576 C   0  0  0  0  0  0  0  0  0  0  0  0
   10.7950    2.6058   23.3857 C   0  0  0  0  0  0  0  0  0  0  0  0
    8.3510   -1.5420   24.6110 C   0  0  0  0  0  0  0  0  0  0  0  0
   10.2760   -2.3270   23.4020 C   0  0  0  0  0  0  0  0  0  0  0  0
    4.9400    1.7060   18.5060 C   0  0  0  0  0  0  0  0  0  0  0  0
    8.3310   -2.7170   25.3430 C   0  0  0  0  0  0  0  0  0  0  0  0
   10.2570   -3.5000   24.1350 C   0  0  0  0  0  0  0  0  0  0  0  0
    6.1600    0.3870   20.1140 C   0  0  0  0  0  0  0  0  0  0  0  0
    9.4829    2.4671   23.8384 C   0  0  0  0  0  0  0  0  0  0  0  0
    9.3300   -1.3350   23.6390 C   0  0  0  0  0  0  0  0  0  0  0  0
    5.9810    0.8330   18.8060 C   0  0  0  0  0  0  0  0  0  0  0  0
    9.2850   -3.7090   25.1090 C   0  0  0  0  0  0  0  0  0  0  0  0
    7.2210   -0.4620   20.0350 C   0  0  0  0  0  0  0  0  0  0  0  0
    8.9510    0.1280   21.6880 C   0  0  0  0  0  0  0  0  0  0  0  0
    7.3211   -6.8875   26.5227 C   0  0  0  0  0  0  0  0  0  0  0  0
    7.3523   -5.5278   27.2244 C   0  0  0  0  0  0  0  0  0  0  0  0
    7.9422   -6.8107   25.1261 C   0  0  0  0  0  0  0  0  0  0  0  0
    8.7641   -4.9418   27.2163 C   0  0  0  0  0  0  0  0  0  0  0  0
    9.3411   -6.1879   25.1670 C   0  0  0  0  0  0  0  0  0  0  0  0
    8.8757    1.0906   23.9831 C   0  0  0  0  0  0  0  0  0  0  0  0
    9.4200   -0.0840   22.9530 C   0  0  1  0  0  0  0  0  0  0  0  0
    7.6830   -0.5170   18.7600 N   0  0  0  0  0  0  0  0  0  0  0  0
    6.9440    0.2550   18.0100 N   0  0  0  0  0  0  0  0  0  0  0  0
    9.2641   -4.8861   25.8398 N   0  0  0  0  0  0  0  0  0  0  0  0
    8.0810   -0.9750   21.0820 N   0  0  0  0  0  0  0  0  0  0  0  0
    9.1870    1.1500   21.0630 O   0  0  0  0  0  0  0  0  0  0  0  0
   11.0414    5.9962   23.4662 H   0  0  0  0  0  0  0  0  0  0  0  0
    3.6274    2.0126   21.6300 H   0  0  0  0  0  0  0  0  0  0  0  0
    8.7078    5.7493   24.2716 H   0  0  0  0  0  0  0  0  0  0  0  0
   12.3772    3.9835   22.8987 H   0  0  0  0  0  0  0  0  0  0  0  0
    3.2732    2.7875   19.3199 H   0  0  0  0  0  0  0  0  0  0  0  0
    5.4878    0.4645   22.1722 H   0  0  0  0  0  0  0  0  0  0  0  0
    7.7090    3.4999   24.5112 H   0  0  0  0  0  0  0  0  0  0  0  0
   11.3876    1.7301   23.1348 H   0  0  0  0  0  0  0  0  0  0  0  0
    7.5957   -0.7779   24.7973 H   0  0  0  0  0  0  0  0  0  0  0  0
   11.0384   -2.1852   22.6338 H   0  0  0  0  0  0  0  0  0  0  0  0
    4.7853    2.0674   17.4815 H   0  0  0  0  0  0  0  0  0  0  0  0
    7.5634   -2.8637   26.1037 H   0  0  0  0  0  0  0  0  0  0  0  0
   11.0139   -4.2645   23.9419 H   0  0  0  0  0  0  0  0  0  0  0  0
    7.8644   -7.6283   27.1289 H   0  0  0  0  0  0  0  0  0  0  0  0
    6.2830   -7.2423   26.4478 H   0  0  0  0  0  0  0  0  0  0  0  0
    6.6663   -4.8405   26.7221 H   0  0  0  0  0  0  0  0  0  0  0  0
    7.0062   -5.6400   28.2540 H   0  0  0  0  0  0  0  0  0  0  0  0
    8.0018   -7.8160   24.6962 H   0  0  0  0  0  0  0  0  0  0  0  0
    7.2963   -6.2182   24.4678 H   0  0  0  0  0  0  0  0  0  0  0  0
    8.7322   -3.9404   27.6532 H   0  0  0  0  0  0  0  0  0  0  0  0
    9.4260   -5.5610   27.8283 H   0  0  0  0  0  0  0  0  0  0  0  0
   10.0249   -6.8474   25.7028 H   0  0  0  0  0  0  0  0  0  0  0  0
    9.7015   -6.0700   24.1446 H   0  0  0  0  0  0  0  0  0  0  0  0
    8.9639    0.7632   25.0273 H   0  0  0  0  0  0  0  0  0  0  0  0
    7.7964    1.1765   23.7949 H   0  0  0  0  0  0  0  0  0  0  0  0
   10.5749    0.2253   22.9765 H   0  0  0  0  0  0  0  0  0  0  0  0
    7.1015    0.3608   17.0505 H   0  0  0  0  0  0  0  0  0  0  0  0
    8.1354   -1.7990   21.3694 H   0  0  0  0  0  0  0  0  0  0  0  0
  1  3  1  0  0  0  0
  1  4  2  0  0  0  0
  2  5  1  0  0  0  0
  2  6  2  0  0  0  0
  3  7  2  0  0  0  0
  4  8  1  0  0  0  0
  5 11  2  0  0  0  0
  6 14  1  0  0  0  0
  7 15  1  0  0  0  0
  8 15  2  0  0  0  0
  9 12  2  0  0  0  0
  9 16  1  0  0  0  0
 10 13  1  0  0  0  0
 10 16  2  0  0  0  0
 11 17  1  0  0  0  0
 12 18  1  0  0  0  0
 13 18  2  0  0  0  0
 14 17  2  0  0  0  0
 14 19  1  0  0  0  0
 15 26  1  0  0  0  0
 16 27  1  0  0  0  0
 17 29  1  0  0  0  0
 18 30  1  0  0  0  0
 19 28  2  0  0  0  0
 19 31  1  0  0  0  0
 20 27  1  1  0  0  0
 20 31  1  0  0  0  0
 20 32  2  0  0  0  0
 21 22  1  0  0  0  0
 21 23  1  0  0  0  0
 22 24  1  0  0  0  0
 23 25  1  0  0  0  0
 24 30  1  0  0  0  0
 25 30  1  0  0  0  0
 26 27  1  0  0  0  0
 28 29  1  0  0  0  0
  1 33  1  0  0  0  0
  2 34  1  0  0  0  0
  3 35  1  0  0  0  0
  4 36  1  0  0  0  0
  5 37  1  0  0  0  0
  6 38  1  0  0  0  0
  7 39  1  0  0  0  0
  8 40  1  0  0  0  0
  9 41  1  0  0  0  0
 10 42  1  0  0  0  0
 11 43  1  0  0  0  0
 12 44  1  0  0  0  0
 13 45  1  0  0  0  0
 21 46  1  0  0  0  0
 21 47  1  0  0  0  0
 22 48  1  0  0  0  0
 22 49  1  0  0  0  0
 23 50  1  0  0  0  0
 23 51  1  0  0  0  0
 24 52  1  0  0  0  0
 24 53  1  0  0  0  0
 25 54  1  0  0  0  0
 25 55  1  0  0  0  0
 26 56  1  0  0  0  0
 26 57  1  0  0  0  0
 27 58  1  0  0  0  0
 29 59  1  0  0  0  0
 31 60  1  0  0  0  0
M  END
> <clash_score>
0

> <docking_score>
-8.12878704071045

> <overlap_score>
0.8739050030708313

$$$$
BENZO_232_1
  -OEChem-08232013493D

 57 61  0     1  0  0  0  0  0999 V2000
    4.2970    1.6690   20.8430 C   0  0  0  0  0  0  0  0  0  0  0  0
    4.0980    2.1130   19.5350 C   0  0  0  0  0  0  0  0  0  0  0  0
    5.3360    0.8000   21.1530 C   0  0  0  0  0  0  0  0  0  0  0  0
    8.3510   -1.5420   24.6110 C   0  0  0  0  0  0  0  0  0  0  0  0
   10.2760   -2.3270   23.4020 C   0  0  0  0  0  0  0  0  0  0  0  0
    4.9400    1.7060   18.5060 C   0  0  0  0  0  0  0  0  0  0  0  0
    8.3310   -2.7170   25.3430 C   0  0  0  0  0  0  0  0  0  0  0  0
   10.2570   -3.5000   24.1350 C   0  0  0  0  0  0  0  0  0  0  0  0
   10.8518    2.7022   23.5205 C   0  0  0  0  0  0  0  0  0  0  0  0
   11.1431    4.0467   23.4499 C   0  0  0  0  0  0  0  0  0  0  0  0
    8.7801    3.6410   23.9989 C   0  0  0  0  0  0  0  0  0  0  0  0
    6.1600    0.3870   20.1140 C   0  0  0  0  0  0  0  0  0  0  0  0
    9.3300   -1.3350   23.6390 C   0  0  0  0  0  0  0  0  0  0  0  0
    9.4829    2.4671   23.8384 C   0  0  0  0  0  0  0  0  0  0  0  0
    5.9810    0.8330   18.8060 C   0  0  0  0  0  0  0  0  0  0  0  0
    9.2850   -3.7090   25.1090 C   0  0  0  0  0  0  0  0  0  0  0  0
    7.2210   -0.4620   20.0350 C   0  0  0  0  0  0  0  0  0  0  0  0
    8.9510    0.1280   21.6880 C   0  0  0  0  0  0  0  0  0  0  0  0
    7.3211   -6.8875   26.5227 C   0  0  0  0  0  0  0  0  0  0  0  0
    7.3523   -5.5278   27.2244 C   0  0  0  0  0  0  0  0  0  0  0  0
    7.9422   -6.8107   25.1261 C   0  0  0  0  0  0  0  0  0  0  0  0
    8.7641   -4.9418   27.2163 C   0  0  0  0  0  0  0  0  0  0  0  0
    9.3411   -6.1879   25.1670 C   0  0  0  0  0  0  0  0  0  0  0  0
    8.8757    1.0906   23.9831 C   0  0  0  0  0  0  0  0  0  0  0  0
    9.4200   -0.0840   22.9530 C   0  0  1  0  0  0  0  0  0  0  0  0
    7.6830   -0.5170   18.7600 N   0  0  0  0  0  0  0  0  0  0  0  0
    6.9440    0.2550   18.0100 N   0  0  0  0  0  0  0  0  0  0  0  0
    9.2641   -4.8861   25.8398 N   0  0  0  0  0  0  0  0  0  0  0  0
    8.0810   -0.9750   21.0820 N   0  0  0  0  0  0  0  0  0  0  0  0
    9.1870    1.1500   21.0630 O   0  0  0  0  0  0  0  0  0  0  0  0
    9.7695    5.0191   23.7662 S   0  0  0  0  0  0  0  0  0  0  0  0
    3.6274    2.0126   21.6300 H   0  0  0  0  0  0  0  0  0  0  0  0
    3.2732    2.7875   19.3199 H   0  0  0  0  0  0  0  0  0  0  0  0
    5.4878    0.4645   22.1722 H   0  0  0  0  0  0  0  0  0  0  0  0
    7.5957   -0.7779   24.7973 H   0  0  0  0  0  0  0  0  0  0  0  0
   11.0384   -2.1852   22.6338 H   0  0  0  0  0  0  0  0  0  0  0  0
    4.7853    2.0674   17.4815 H   0  0  0  0  0  0  0  0  0  0  0  0
    7.5634   -2.8637   26.1037 H   0  0  0  0  0  0  0  0  0  0  0  0
   11.0139   -4.2645   23.9419 H   0  0  0  0  0  0  0  0  0  0  0  0
   11.5890    1.9274   23.3518 H   0  0  0  0  0  0  0  0  0  0  0  0
   12.0968    4.5045   23.2284 H   0  0  0  0  0  0  0  0  0  0  0  0
    7.7334    3.7598   24.2427 H   0  0  0  0  0  0  0  0  0  0  0  0
    7.8644   -7.6283   27.1289 H   0  0  0  0  0  0  0  0  0  0  0  0
    6.2830   -7.2423   26.4478 H   0  0  0  0  0  0  0  0  0  0  0  0
    6.6663   -4.8405   26.7221 H   0  0  0  0  0  0  0  0  0  0  0  0
    7.0062   -5.6400   28.2540 H   0  0  0  0  0  0  0  0  0  0  0  0
    8.0018   -7.8160   24.6962 H   0  0  0  0  0  0  0  0  0  0  0  0
    7.2963   -6.2182   24.4678 H   0  0  0  0  0  0  0  0  0  0  0  0
    8.7322   -3.9404   27.6532 H   0  0  0  0  0  0  0  0  0  0  0  0
    9.4260   -5.5610   27.8283 H   0  0  0  0  0  0  0  0  0  0  0  0
   10.0249   -6.8474   25.7028 H   0  0  0  0  0  0  0  0  0  0  0  0
    9.7015   -6.0700   24.1446 H   0  0  0  0  0  0  0  0  0  0  0  0
    8.9639    0.7632   25.0273 H   0  0  0  0  0  0  0  0  0  0  0  0
    7.7964    1.1765   23.7949 H   0  0  0  0  0  0  0  0  0  0  0  0
   10.5749    0.2253   22.9765 H   0  0  0  0  0  0  0  0  0  0  0  0
    7.1015    0.3608   17.0505 H   0  0  0  0  0  0  0  0  0  0  0  0
    8.1354   -1.7990   21.3694 H   0  0  0  0  0  0  0  0  0  0  0  0
  1  2  1  0  0  0  0
  1  3  2  0  0  0  0
  2  6  2  0  0  0  0
  3 12  1  0  0  0  0
  4  7  2  0  0  0  0
  4 13  1  0  0  0  0
  5  8  1  0  0  0  0
  5 13  2  0  0  0  0
  6 15  1  0  0  0  0
  7 16  1  0  0  0  0
  8 16  2  0  0  0  0
  9 10  2  0  0  0  0
  9 14  1  0  0  0  0
 10 31  1  0  0  0  0
 11 14  2  0  0  0  0
 11 31  1  0  0  0  0
 12 15  2  0  0  0  0
 12 17  1  0  0  0  0
 13 25  1  0  0  0  0
 14 24  1  0  0  0  0
 15 27  1  0  0  0  0
 16 28  1  0  0  0  0
 17 26  2  0  0  0  0
 17 29  1  0  0  0  0
 18 25  1  1  0  0  0
 18 29  1  0  0  0  0
 18 30  2  0  0  0  0
 19 20  1  0  0  0  0
 19 21  1  0  0  0  0
 20 22  1  0  0  0  0
 21 23  1  0  0  0  0
 22 28  1  0  0  0  0
 23 28  1  0  0  0  0
 24 25  1  0  0  0  0
 26 27  1  0  0  0  0
  1 32  1  0  0  0  0
  2 33  1  0  0  0  0
  3 34  1  0  0  0  0
  4 35  1  0  0  0  0
  5 36  1  0  0  0  0
  6 37  1  0  0  0  0
  7 38  1  0  0  0  0
  8 39  1  0  0  0  0
  9 40  1  0  0  0  0
 10 41  1  0  0  0  0
 11 42  1  0  0  0  0
 19 43  1  0  0  0  0
 19 44  1  0  0  0  0
 20 45  1  0  0  0  0
 20 46  1  0  0  0  0
 21 47  1  0  0  0  0
 21 48  1  0  0  0  0
 22 49  1  0  0  0  0
 22 50  1  0  0  0  0
 23 51  1  0  0  0  0
 23 52  1  0  0  0  0
 24 53  1  0  0  0  0
 24 54  1  0  0  0  0
 25 55  1  0  0  0  0
 27 56  1  0  0  0  0
 29 57  1  0  0  0  0
M  END
> <clash_score>
0

> <docking_score>
-7.848232746124268

> <overlap_score>
0.8712783455848694

$$$$
BENZO_233_2
  -OEChem-08232013493D

 60 64  0     1  0  0  0  0  0999 V2000
   11.4307    4.7297   23.1589 C   0  0  0  0  0  0  0  0  0  0  0  0
    4.2970    1.6690   20.8430 C   0  0  0  0  0  0  0  0  0  0  0  0
   12.4501    3.9274   22.6463 C   0  0  0  0  0  0  0  0  0  0  0  0
   10.2648    4.1449   23.6533 C   0  0  0  0  0  0  0  0  0  0  0  0
    4.0980    2.1130   19.5350 C   0  0  0  0  0  0  0  0  0  0  0  0
    5.3360    0.8000   21.1530 C   0  0  0  0  0  0  0  0  0  0  0  0
   12.3036    2.5404   22.6279 C   0  0  0  0  0  0  0  0  0  0  0  0
   10.1183    2.7579   23.6349 C   0  0  0  0  0  0  0  0  0  0  0  0
    8.3510   -1.5420   24.6110 C   0  0  0  0  0  0  0  0  0  0  0  0
   10.2760   -2.3270   23.4020 C   0  0  0  0  0  0  0  0  0  0  0  0
    4.9400    1.7060   18.5060 C   0  0  0  0  0  0  0  0  0  0  0  0
    8.3310   -2.7170   25.3430 C   0  0  0  0  0  0  0  0  0  0  0  0
   10.2570   -3.5000   24.1350 C   0  0  0  0  0  0  0  0  0  0  0  0
    6.1600    0.3870   20.1140 C   0  0  0  0  0  0  0  0  0  0  0  0
   11.1377    1.9556   23.1223 C   0  0  0  0  0  0  0  0  0  0  0  0
    9.3300   -1.3350   23.6390 C   0  0  0  0  0  0  0  0  0  0  0  0
    5.9810    0.8330   18.8060 C   0  0  0  0  0  0  0  0  0  0  0  0
    9.2850   -3.7090   25.1090 C   0  0  0  0  0  0  0  0  0  0  0  0
    7.2210   -0.4620   20.0350 C   0  0  0  0  0  0  0  0  0  0  0  0
    8.9510    0.1280   21.6880 C   0  0  0  0  0  0  0  0  0  0  0  0
    7.3211   -6.8875   26.5227 C   0  0  0  0  0  0  0  0  0  0  0  0
    7.3523   -5.5278   27.2244 C   0  0  0  0  0  0  0  0  0  0  0  0
    7.9422   -6.8107   25.1261 C   0  0  0  0  0  0  0  0  0  0  0  0
    8.7641   -4.9418   27.2163 C   0  0  0  0  0  0  0  0  0  0  0  0
    9.3411   -6.1879   25.1670 C   0  0  0  0  0  0  0  0  0  0  0  0
   10.9782    0.4528   23.1025 C   0  0  0  0  0  0  0  0  0  0  0  0
    9.4200   -0.0840   22.9530 C   0  0  2  0  0  0  0  0  0  0  0  0
    7.6830   -0.5170   18.7600 N   0  0  0  0  0  0  0  0  0  0  0  0
    6.9440    0.2550   18.0100 N   0  0  0  0  0  0  0  0  0  0  0  0
    9.2641   -4.8861   25.8398 N   0  0  0  0  0  0  0  0  0  0  0  0
    8.0810   -0.9750   21.0820 N   0  0  0  0  0  0  0  0  0  0  0  0
    9.1870    1.1500   21.0630 O   0  0  0  0  0  0  0  0  0  0  0  0
   11.5455    5.8096   23.1743 H   0  0  0  0  0  0  0  0  0  0  0  0
    3.6274    2.0126   21.6300 H   0  0  0  0  0  0  0  0  0  0  0  0
   13.3585    4.3825   22.2623 H   0  0  0  0  0  0  0  0  0  0  0  0
    9.4714    4.7691   24.0535 H   0  0  0  0  0  0  0  0  0  0  0  0
    3.2732    2.7875   19.3199 H   0  0  0  0  0  0  0  0  0  0  0  0
    5.4878    0.4645   22.1722 H   0  0  0  0  0  0  0  0  0  0  0  0
   13.1031    1.9232   22.2264 H   0  0  0  0  0  0  0  0  0  0  0  0
    9.2064    2.3111   24.0221 H   0  0  0  0  0  0  0  0  0  0  0  0
    7.5957   -0.7779   24.7973 H   0  0  0  0  0  0  0  0  0  0  0  0
   11.0384   -2.1852   22.6338 H   0  0  0  0  0  0  0  0  0  0  0  0
    4.7853    2.0674   17.4815 H   0  0  0  0  0  0  0  0  0  0  0  0
    7.5634   -2.8637   26.1037 H   0  0  0  0  0  0  0  0  0  0  0  0
   11.0139   -4.2645   23.9419 H   0  0  0  0  0  0  0  0  0  0  0  0
    7.8644   -7.6283   27.1289 H   0  0  0  0  0  0  0  0  0  0  0  0
    6.2830   -7.2423   26.4478 H   0  0  0  0  0  0  0  0  0  0  0  0
    6.6663   -4.8405   26.7221 H   0  0  0  0  0  0  0  0  0  0  0  0
    7.0062   -5.6400   28.2540 H   0  0  0  0  0  0  0  0  0  0  0  0
    8.0018   -7.8160   24.6962 H   0  0  0  0  0  0  0  0  0  0  0  0
    7.2963   -6.2182   24.4678 H   0  0  0  0  0  0  0  0  0  0  0  0
    8.7322   -3.9404   27.6532 H   0  0  0  0  0  0  0  0  0  0  0  0
    9.4260   -5.5610   27.8283 H   0  0  0  0  0  0  0  0  0  0  0  0
   10.0249   -6.8474   25.7028 H   0  0  0  0  0  0  0  0  0  0  0  0
    9.7015   -6.0700   24.1446 H   0  0  0  0  0  0  0  0  0  0  0  0
   11.5374    0.0399   22.2527 H   0  0  0  0  0  0  0  0  0  0  0  0
   11.4700    0.0494   23.9985 H   0  0  0  0  0  0  0  0  0  0  0  0
    8.9187    0.7273   23.6745 H   0  0  0  0  0  0  0  0  0  0  0  0
    7.1015    0.3608   17.0505 H   0  0  0  0  0  0  0  0  0  0  0  0
    8.1354   -1.7990   21.3694 H   0  0  0  0  0  0  0  0  0  0  0  0
  1  3  1  0  0  0  0
  1  4  2  0  0  0  0
  2  5  1  0  0  0  0
  2  6  2  0  0  0  0
  3  7  2  0  0  0  0
  4  8  1  0  0  0  0
  5 11  2  0  0  0  0
  6 14  1  0  0  0  0
  7 15  1  0  0  0  0
  8 15  2  0  0  0  0
  9 12  2  0  0  0  0
  9 16  1  0  0  0  0
 10 13  1  0  0  0  0
 10 16  2  0  0  0  0
 11 17  1  0  0  0  0
 12 18  1  0  0  0  0
 13 18  2  0  0  0  0
 14 17  2  0  0  0  0
 14 19  1  0  0  0  0
 15 26  1  0  0  0  0
 16 27  1  0  0  0  0
 17 29  1  0  0  0  0
 18 30  1  0  0  0  0
 19 28  2  0  0  0  0
 19 31  1  0  0  0  0
 20 27  1  6  0  0  0
 20 31  1  0  0  0  0
 20 32  2  0  0  0  0
 21 22  1  0  0  0  0
 21 23  1  0  0  0  0
 22 24  1  0  0  0  0
 23 25  1  0  0  0  0
 24 30  1  0  0  0  0
 25 30  1  0  0  0  0
 26 27  1  0  0  0  0
 28 29  1  0  0  0  0
  1 33  1  0  0  0  0
  2 34  1  0  0  0  0
  3 35  1  0  0  0  0
  4 36  1  0  0  0  0
  5 37  1  0  0  0  0
  6 38  1  0  0  0  0
  7 39  1  0  0  0  0
  8 40  1  0  0  0  0
  9 41  1  0  0  0  0
 10 42  1  0  0  0  0
 11 43  1  0  0  0  0
 12 44  1  0  0  0  0
 13 45  1  0  0  0  0
 21 46  1  0  0  0  0
 21 47  1  0  0  0  0
 22 48  1  0  0  0  0
 22 49  1  0  0  0  0
 23 50  1  0  0  0  0
 23 51  1  0  0  0  0
 24 52  1  0  0  0  0
 24 53  1  0  0  0  0
 25 54  1  0  0  0  0
 25 55  1  0  0  0  0
 26 56  1  0  0  0  0
 26 57  1  0  0  0  0
 27 58  1  0  0  0  0
 29 59  1  0  0  0  0
 31 60  1  0  0  0  0
M  END
> <clash_score>
0

> <docking_score>
-9.234725952148438

> <overlap_score>
0.9455479383468628

$$$$
BENZO_232_2
  -OEChem-08232013493D

 57 61  0     1  0  0  0  0  0999 V2000
    4.2970    1.6690   20.8430 C   0  0  0  0  0  0  0  0  0  0  0  0
    4.0980    2.1130   19.5350 C   0  0  0  0  0  0  0  0  0  0  0  0
    5.3360    0.8000   21.1530 C   0  0  0  0  0  0  0  0  0  0  0  0
    8.3510   -1.5420   24.6110 C   0  0  0  0  0  0  0  0  0  0  0  0
   10.2760   -2.3270   23.4020 C   0  0  0  0  0  0  0  0  0  0  0  0
    4.9400    1.7060   18.5060 C   0  0  0  0  0  0  0  0  0  0  0  0
    8.3310   -2.7170   25.3430 C   0  0  0  0  0  0  0  0  0  0  0  0
   10.2570   -3.5000   24.1350 C   0  0  0  0  0  0  0  0  0  0  0  0
   11.9035    2.6860   22.1682 C   0  0  0  0  0  0  0  0  0  0  0  0
   11.8836    4.0408   22.4165 C   0  0  0  0  0  0  0  0  0  0  0  0
   10.5617    2.7801   24.0637 C   0  0  0  0  0  0  0  0  0  0  0  0
    6.1600    0.3870   20.1140 C   0  0  0  0  0  0  0  0  0  0  0  0
    9.3300   -1.3350   23.6390 C   0  0  0  0  0  0  0  0  0  0  0  0
   11.1377    1.9556   23.1223 C   0  0  0  0  0  0  0  0  0  0  0  0
    5.9810    0.8330   18.8060 C   0  0  0  0  0  0  0  0  0  0  0  0
    9.2850   -3.7090   25.1090 C   0  0  0  0  0  0  0  0  0  0  0  0
    7.2210   -0.4620   20.0350 C   0  0  0  0  0  0  0  0  0  0  0  0
    8.9510    0.1280   21.6880 C   0  0  0  0  0  0  0  0  0  0  0  0
    7.3211   -6.8875   26.5227 C   0  0  0  0  0  0  0  0  0  0  0  0
    7.3523   -5.5278   27.2244 C   0  0  0  0  0  0  0  0  0  0  0  0
    7.9422   -6.8107   25.1261 C   0  0  0  0  0  0  0  0  0  0  0  0
    8.7641   -4.9418   27.2163 C   0  0  0  0  0  0  0  0  0  0  0  0
    9.3411   -6.1879   25.1670 C   0  0  0  0  0  0  0  0  0  0  0  0
   10.9782    0.4528   23.1025 C   0  0  0  0  0  0  0  0  0  0  0  0
    9.4200   -0.0840   22.9530 C   0  0  2  0  0  0  0  0  0  0  0  0
    7.6830   -0.5170   18.7600 N   0  0  0  0  0  0  0  0  0  0  0  0
    6.9440    0.2550   18.0100 N   0  0  0  0  0  0  0  0  0  0  0  0
    9.2641   -4.8861   25.8398 N   0  0  0  0  0  0  0  0  0  0  0  0
    8.0810   -0.9750   21.0820 N   0  0  0  0  0  0  0  0  0  0  0  0
    9.1870    1.1500   21.0630 O   0  0  0  0  0  0  0  0  0  0  0  0
   10.9445    4.4275   23.7953 S   0  0  0  0  0  0  0  0  0  0  0  0
    3.6274    2.0126   21.6300 H   0  0  0  0  0  0  0  0  0  0  0  0
    3.2732    2.7875   19.3199 H   0  0  0  0  0  0  0  0  0  0  0  0
    5.4878    0.4645   22.1722 H   0  0  0  0  0  0  0  0  0  0  0  0
    7.5957   -0.7779   24.7973 H   0  0  0  0  0  0  0  0  0  0  0  0
   11.0384   -2.1852   22.6338 H   0  0  0  0  0  0  0  0  0  0  0  0
    4.7853    2.0674   17.4815 H   0  0  0  0  0  0  0  0  0  0  0  0
    7.5634   -2.8637   26.1037 H   0  0  0  0  0  0  0  0  0  0  0  0
   11.0139   -4.2645   23.9419 H   0  0  0  0  0  0  0  0  0  0  0  0
   12.4436    2.2440   21.3404 H   0  0  0  0  0  0  0  0  0  0  0  0
   12.3760    4.8219   21.8548 H   0  0  0  0  0  0  0  0  0  0  0  0
    9.9349    2.4981   24.8983 H   0  0  0  0  0  0  0  0  0  0  0  0
    7.8644   -7.6283   27.1289 H   0  0  0  0  0  0  0  0  0  0  0  0
    6.2830   -7.2423   26.4478 H   0  0  0  0  0  0  0  0  0  0  0  0
    6.6663   -4.8405   26.7221 H   0  0  0  0  0  0  0  0  0  0  0  0
    7.0062   -5.6400   28.2540 H   0  0  0  0  0  0  0  0  0  0  0  0
    8.0018   -7.8160   24.6962 H   0  0  0  0  0  0  0  0  0  0  0  0
    7.2963   -6.2182   24.4678 H   0  0  0  0  0  0  0  0  0  0  0  0
    8.7322   -3.9404   27.6532 H   0  0  0  0  0  0  0  0  0  0  0  0
    9.4260   -5.5610   27.8283 H   0  0  0  0  0  0  0  0  0  0  0  0
   10.0249   -6.8474   25.7028 H   0  0  0  0  0  0  0  0  0  0  0  0
    9.7015   -6.0700   24.1446 H   0  0  0  0  0  0  0  0  0  0  0  0
   11.5374    0.0399   22.2527 H   0  0  0  0  0  0  0  0  0  0  0  0
   11.4700    0.0494   23.9985 H   0  0  0  0  0  0  0  0  0  0  0  0
    8.9187    0.7273   23.6745 H   0  0  0  0  0  0  0  0  0  0  0  0
    7.1015    0.3608   17.0505 H   0  0  0  0  0  0  0  0  0  0  0  0
    8.1354   -1.7990   21.3694 H   0  0  0  0  0  0  0  0  0  0  0  0
  1  2  1  0  0  0  0
  1  3  2  0  0  0  0
  2  6  2  0  0  0  0
  3 12  1  0  0  0  0
  4  7  2  0  0  0  0
  4 13  1  0  0  0  0
  5  8  1  0  0  0  0
  5 13  2  0  0  0  0
  6 15  1  0  0  0  0
  7 16  1  0  0  0  0
  8 16  2  0  0  0  0
  9 10  2  0  0  0  0
  9 14  1  0  0  0  0
 10 31  1  0  0  0  0
 11 14  2  0  0  0  0
 11 31  1  0  0  0  0
 12 15  2  0  0  0  0
 12 17  1  0  0  0  0
 13 25  1  0  0  0  0
 14 24  1  0  0  0  0
 15 27  1  0  0  0  0
 16 28  1  0  0  0  0
 17 26  2  0  0  0  0
 17 29  1  0  0  0  0
 18 25  1  6  0  0  0
 18 29  1  0  0  0  0
 18 30  2  0  0  0  0
 19 20  1  0  0  0  0
 19 21  1  0  0  0  0
 20 22  1  0  0  0  0
 21 23  1  0  0  0  0
 22 28  1  0  0  0  0
 23 28  1  0  0  0  0
 24 25  1  0  0  0  0
 26 27  1  0  0  0  0
  1 32  1  0  0  0  0
  2 33  1  0  0  0  0
  3 34  1  0  0  0  0
  4 35  1  0  0  0  0
  5 36  1  0  0  0  0
  6 37  1  0  0  0  0
  7 38  1  0  0  0  0
  8 39  1  0  0  0  0
  9 40  1  0  0  0  0
 10 41  1  0  0  0  0
 11 42  1  0  0  0  0
 19 43  1  0  0  0  0
 19 44  1  0  0  0  0
 20 45  1  0  0  0  0
 20 46  1  0  0  0  0
 21 47  1  0  0  0  0
 21 48  1  0  0  0  0
 22 49  1  0  0  0  0
 22 50  1  0  0  0  0
 23 51  1  0  0  0  0
 23 52  1  0  0  0  0
 24 53  1  0  0  0  0
 24 54  1  0  0  0  0
 25 55  1  0  0  0  0
 27 56  1  0  0  0  0
 29 57  1  0  0  0  0
M  END
> <clash_score>
0

> <docking_score>
-7.797445774078369

> <overlap_score>
0.9346765875816345

$$$$
BENZO_231_1
  -OEChem-08232013493D

 55 58  0     1  0  0  0  0  0999 V2000
    4.2970    1.6690   20.8430 C   0  0  0  0  0  0  0  0  0  0  0  0
    4.0980    2.1130   19.5350 C   0  0  0  0  0  0  0  0  0  0  0  0
    5.3360    0.8000   21.1530 C   0  0  0  0  0  0  0  0  0  0  0  0
    8.3510   -1.5420   24.6110 C   0  0  0  0  0  0  0  0  0  0  0  0
   10.2760   -2.3270   23.4020 C   0  0  0  0  0  0  0  0  0  0  0  0
    4.9400    1.7060   18.5060 C   0  0  0  0  0  0  0  0  0  0  0  0
    8.3310   -2.7170   25.3430 C   0  0  0  0  0  0  0  0  0  0  0  0
   10.2570   -3.5000   24.1350 C   0  0  0  0  0  0  0  0  0  0  0  0
   10.2235    2.9023   23.6242 C   0  0  0  0  0  0  0  0  0  0  0  0
   12.2091    2.6870   22.7043 C   0  0  0  0  0  0  0  0  0  0  0  0
    6.1600    0.3870   20.1140 C   0  0  0  0  0  0  0  0  0  0  0  0
    9.3300   -1.3350   23.6390 C   0  0  0  0  0  0  0  0  0  0  0  0
   11.1370    1.9470   23.1397 C   0  0  0  0  0  0  0  0  0  0  0  0
    5.9810    0.8330   18.8060 C   0  0  0  0  0  0  0  0  0  0  0  0
    9.2850   -3.7090   25.1090 C   0  0  0  0  0  0  0  0  0  0  0  0
    7.2210   -0.4620   20.0350 C   0  0  0  0  0  0  0  0  0  0  0  0
    8.1541   -5.5451   26.4009 C   0  0  0  0  0  0  0  0  0  0  0  0
    8.9510    0.1280   21.6880 C   0  0  0  0  0  0  0  0  0  0  0  0
    9.2286   -7.8281   26.2034 C   0  0  0  0  0  0  0  0  0  0  0  0
   12.7031    5.1430   22.6555 C   0  0  0  0  0  0  0  0  0  0  0  0
   10.9777    0.4443   23.1075 C   0  0  0  0  0  0  0  0  0  0  0  0
    8.5738   -6.8153   27.1256 C   0  0  0  0  0  0  0  0  0  0  0  0
    9.4200   -0.0840   22.9530 C   0  0  1  0  0  0  0  0  0  0  0  0
   10.6758    4.1536   23.5079 N   0  0  0  0  0  0  0  0  0  0  0  0
    7.6830   -0.5170   18.7600 N   0  0  0  0  0  0  0  0  0  0  0  0
    6.9440    0.2550   18.0100 N   0  0  0  0  0  0  0  0  0  0  0  0
   11.8853    3.9898   22.9453 N   0  0  0  0  0  0  0  0  0  0  0  0
    9.2630   -4.8903   25.8409 N   0  0  0  0  0  0  0  0  0  0  0  0
    8.0810   -0.9750   21.0820 N   0  0  0  0  0  0  0  0  0  0  0  0
    6.9827   -5.1857   26.3435 O   0  0  0  0  0  0  0  0  0  0  0  0
    9.1870    1.1500   21.0630 O   0  0  0  0  0  0  0  0  0  0  0  0
    3.6274    2.0126   21.6300 H   0  0  0  0  0  0  0  0  0  0  0  0
    3.2732    2.7875   19.3199 H   0  0  0  0  0  0  0  0  0  0  0  0
    5.4878    0.4645   22.1722 H   0  0  0  0  0  0  0  0  0  0  0  0
    7.5948   -0.7783   24.7966 H   0  0  0  0  0  0  0  0  0  0  0  0
   11.0389   -2.1844   22.6342 H   0  0  0  0  0  0  0  0  0  0  0  0
    4.7853    2.0674   17.4815 H   0  0  0  0  0  0  0  0  0  0  0  0
    7.5642   -2.8624   26.1050 H   0  0  0  0  0  0  0  0  0  0  0  0
   11.0137   -4.2649   23.9418 H   0  0  0  0  0  0  0  0  0  0  0  0
    9.2470    2.7411   24.0585 H   0  0  0  0  0  0  0  0  0  0  0  0
   13.1519    2.4044   22.2557 H   0  0  0  0  0  0  0  0  0  0  0  0
    8.5514   -8.1174   25.3930 H   0  0  0  0  0  0  0  0  0  0  0  0
    9.5008   -8.7301   26.7600 H   0  0  0  0  0  0  0  0  0  0  0  0
   10.1375   -7.4179   25.7510 H   0  0  0  0  0  0  0  0  0  0  0  0
   12.4640    5.4803   21.6435 H   0  0  0  0  0  0  0  0  0  0  0  0
   12.4902    5.9323   23.3818 H   0  0  0  0  0  0  0  0  0  0  0  0
   13.7583    4.8651   22.7277 H   0  0  0  0  0  0  0  0  0  0  0  0
   11.5363    0.0387   22.2539 H   0  0  0  0  0  0  0  0  0  0  0  0
   11.4704    0.0336   23.9998 H   0  0  0  0  0  0  0  0  0  0  0  0
    9.2725   -6.5443   27.9255 H   0  0  0  0  0  0  0  0  0  0  0  0
    7.6856   -7.2618   27.5873 H   0  0  0  0  0  0  0  0  0  0  0  0
    8.9182    0.7194   23.6789 H   0  0  0  0  0  0  0  0  0  0  0  0
    7.1015    0.3608   17.0505 H   0  0  0  0  0  0  0  0  0  0  0  0
   10.1698   -5.3461   25.9957 H   0  0  0  0  0  0  0  0  0  0  0  0
    8.1201   -1.8087   21.3560 H   0  0  0  0  0  0  0  0  0  0  0  0
  1  2  1  0  0  0  0
  1  3  2  0  0  0  0
  2  6  2  0  0  0  0
  3 11  1  0  0  0  0
  4  7  2  0  0  0  0
  4 12  1  0  0  0  0
  5  8  1  0  0  0  0
  5 12  2  0  0  0  0
  6 14  1  0  0  0  0
  7 15  1  0  0  0  0
  8 15  2  0  0  0  0
  9 13  1  0  0  0  0
  9 24  2  0  0  0  0
 10 13  2  0  0  0  0
 10 27  1  0  0  0  0
 11 14  2  0  0  0  0
 11 16  1  0  0  0  0
 12 23  1  0  0  0  0
 13 21  1  0  0  0  0
 14 26  1  0  0  0  0
 15 28  1  0  0  0  0
 16 25  2  0  0  0  0
 16 29  1  0  0  0  0
 17 22  1  0  0  0  0
 17 28  1  0  0  0  0
 17 30  2  0  0  0  0
 18 23  1  0  0  0  0
 18 29  1  0  0  0  0
 18 31  2  0  0  0  0
 19 22  1  0  0  0  0
 20 27  1  0  0  0  0
 21 23  1  1  0  0  0
 24 27  1  0  0  0  0
 25 26  1  0  0  0  0
  1 32  1  0  0  0  0
  2 33  1  0  0  0  0
  3 34  1  0  0  0  0
  4 35  1  0  0  0  0
  5 36  1  0  0  0  0
  6 37  1  0  0  0  0
  7 38  1  0  0  0  0
  8 39  1  0  0  0  0
  9 40  1  0  0  0  0
 10 41  1  0  0  0  0
 19 42  1  0  0  0  0
 19 43  1  0  0  0  0
 19 44  1  0  0  0  0
 20 45  1  0  0  0  0
 20 46  1  0  0  0  0
 20 47  1  0  0  0  0
 21 48  1  0  0  0  0
 21 49  1  0  0  0  0
 22 50  1  0  0  0  0
 22 51  1  0  0  0  0
 23 52  1  0  0  0  0
 26 53  1  0  0  0  0
 28 54  1  0  0  0  0
 29 55  1  0  0  0  0
M  END
> <clash_score>
1.2357337429672006

> <docking_score>
-8.622358322143555

> <overlap_score>
0.9333677887916565

$$$$
BENZO_231_2
  -OEChem-08232013493D

 55 58  0     1  0  0  0  0  0999 V2000
    4.2970    1.6690   20.8430 C   0  0  0  0  0  0  0  0  0  0  0  0
    4.0980    2.1130   19.5350 C   0  0  0  0  0  0  0  0  0  0  0  0
    5.3360    0.8000   21.1530 C   0  0  0  0  0  0  0  0  0  0  0  0
    8.3510   -1.5420   24.6110 C   0  0  0  0  0  0  0  0  0  0  0  0
   10.2760   -2.3270   23.4020 C   0  0  0  0  0  0  0  0  0  0  0  0
    4.9400    1.7060   18.5060 C   0  0  0  0  0  0  0  0  0  0  0  0
    8.3310   -2.7170   25.3430 C   0  0  0  0  0  0  0  0  0  0  0  0
   10.2570   -3.5000   24.1350 C   0  0  0  0  0  0  0  0  0  0  0  0
   10.7939    2.7770   23.4177 C   0  0  0  0  0  0  0  0  0  0  0  0
    8.9123    3.6676   24.1257 C   0  0  0  0  0  0  0  0  0  0  0  0
    6.1600    0.3870   20.1140 C   0  0  0  0  0  0  0  0  0  0  0  0
    9.3300   -1.3350   23.6390 C   0  0  0  0  0  0  0  0  0  0  0  0
    9.4950    2.4539   23.8539 C   0  0  0  0  0  0  0  0  0  0  0  0
    5.9810    0.8330   18.8060 C   0  0  0  0  0  0  0  0  0  0  0  0
    9.2850   -3.7090   25.1090 C   0  0  0  0  0  0  0  0  0  0  0  0
    7.2210   -0.4620   20.0350 C   0  0  0  0  0  0  0  0  0  0  0  0
    8.1541   -5.5451   26.4009 C   0  0  0  0  0  0  0  0  0  0  0  0
    8.9510    0.1280   21.6880 C   0  0  0  0  0  0  0  0  0  0  0  0
    9.2286   -7.8281   26.2034 C   0  0  0  0  0  0  0  0  0  0  0  0
    9.7138    6.0371   23.9775 C   0  0  0  0  0  0  0  0  0  0  0  0
    8.8771    1.0813   23.9905 C   0  0  0  0  0  0  0  0  0  0  0  0
    8.5738   -6.8153   27.1256 C   0  0  0  0  0  0  0  0  0  0  0  0
    9.4200   -0.0840   22.9530 C   0  0  2  0  0  0  0  0  0  0  0  0
   11.0232    4.0928   23.4110 N   0  0  0  0  0  0  0  0  0  0  0  0
    7.6830   -0.5170   18.7600 N   0  0  0  0  0  0  0  0  0  0  0  0
    6.9440    0.2550   18.0100 N   0  0  0  0  0  0  0  0  0  0  0  0
    9.8605    4.6073   23.8463 N   0  0  0  0  0  0  0  0  0  0  0  0
    9.2630   -4.8903   25.8409 N   0  0  0  0  0  0  0  0  0  0  0  0
    8.0810   -0.9750   21.0820 N   0  0  0  0  0  0  0  0  0  0  0  0
    6.9827   -5.1857   26.3435 O   0  0  0  0  0  0  0  0  0  0  0  0
    9.1870    1.1500   21.0630 O   0  0  0  0  0  0  0  0  0  0  0  0
    3.6274    2.0126   21.6300 H   0  0  0  0  0  0  0  0  0  0  0  0
    3.2732    2.7875   19.3199 H   0  0  0  0  0  0  0  0  0  0  0  0
    5.4878    0.4645   22.1722 H   0  0  0  0  0  0  0  0  0  0  0  0
    7.5948   -0.7783   24.7966 H   0  0  0  0  0  0  0  0  0  0  0  0
   11.0389   -2.1844   22.6342 H   0  0  0  0  0  0  0  0  0  0  0  0
    4.7853    2.0674   17.4815 H   0  0  0  0  0  0  0  0  0  0  0  0
    7.5642   -2.8624   26.1050 H   0  0  0  0  0  0  0  0  0  0  0  0
   11.0137   -4.2649   23.9418 H   0  0  0  0  0  0  0  0  0  0  0  0
   11.5843    2.1103   23.1031 H   0  0  0  0  0  0  0  0  0  0  0  0
    7.9277    3.9360   24.4839 H   0  0  0  0  0  0  0  0  0  0  0  0
    8.5514   -8.1174   25.3930 H   0  0  0  0  0  0  0  0  0  0  0  0
    9.5008   -8.7301   26.7600 H   0  0  0  0  0  0  0  0  0  0  0  0
   10.1375   -7.4179   25.7510 H   0  0  0  0  0  0  0  0  0  0  0  0
   10.0225    6.3165   24.9883 H   0  0  0  0  0  0  0  0  0  0  0  0
   10.3410    6.5371   23.2342 H   0  0  0  0  0  0  0  0  0  0  0  0
    8.6688    6.3103   23.8064 H   0  0  0  0  0  0  0  0  0  0  0  0
    8.9708    0.7434   25.0308 H   0  0  0  0  0  0  0  0  0  0  0  0
    7.7972    1.1781   23.8117 H   0  0  0  0  0  0  0  0  0  0  0  0
    9.2725   -6.5443   27.9255 H   0  0  0  0  0  0  0  0  0  0  0  0
    7.6856   -7.2618   27.5873 H   0  0  0  0  0  0  0  0  0  0  0  0
   10.5743    0.2174   22.9808 H   0  0  0  0  0  0  0  0  0  0  0  0
    7.1015    0.3608   17.0505 H   0  0  0  0  0  0  0  0  0  0  0  0
   10.1698   -5.3461   25.9957 H   0  0  0  0  0  0  0  0  0  0  0  0
    8.1201   -1.8087   21.3560 H   0  0  0  0  0  0  0  0  0  0  0  0
  1  2  1  0  0  0  0
  1  3  2  0  0  0  0
  2  6  2  0  0  0  0
  3 11  1  0  0  0  0
  4  7  2  0  0  0  0
  4 12  1  0  0  0  0
  5  8  1  0  0  0  0
  5 12  2  0  0  0  0
  6 14  1  0  0  0  0
  7 15  1  0  0  0  0
  8 15  2  0  0  0  0
  9 13  1  0  0  0  0
  9 24  2  0  0  0  0
 10 13  2  0  0  0  0
 10 27  1  0  0  0  0
 11 14  2  0  0  0  0
 11 16  1  0  0  0  0
 12 23  1  0  0  0  0
 13 21  1  0  0  0  0
 14 26  1  0  0  0  0
 15 28  1  0  0  0  0
 16 25  2  0  0  0  0
 16 29  1  0  0  0  0
 17 22  1  0  0  0  0
 17 28  1  0  0  0  0
 17 30  2  0  0  0  0
 18 23  1  0  0  0  0
 18 29  1  0  0  0  0
 18 31  2  0  0  0  0
 19 22  1  0  0  0  0
 20 27  1  0  0  0  0
 21 23  1  6  0  0  0
 24 27  1  0  0  0  0
 25 26  1  0  0  0  0
  1 32  1  0  0  0  0
  2 33  1  0  0  0  0
  3 34  1  0  0  0  0
  4 35  1  0  0  0  0
  5 36  1  0  0  0  0
  6 37  1  0  0  0  0
  7 38  1  0  0  0  0
  8 39  1  0  0  0  0
  9 40  1  0  0  0  0
 10 41  1  0  0  0  0
 19 42  1  0  0  0  0
 19 43  1  0  0  0  0
 19 44  1  0  0  0  0
 20 45  1  0  0  0  0
 20 46  1  0  0  0  0
 20 47  1  0  0  0  0
 21 48  1  0  0  0  0
 21 49  1  0  0  0  0
 22 50  1  0  0  0  0
 22 51  1  0  0  0  0
 23 52  1  0  0  0  0
 26 53  1  0  0  0  0
 28 54  1  0  0  0  0
 29 55  1  0  0  0  0
M  END
> <clash_score>
1.2357337429672006

> <docking_score>
-7.426668167114258

> <overlap_score>
0.8603193163871765

$$$$
BENZO_237_1
  -OEChem-08232013493D

 48 51  0     1  0  0  0  0  0999 V2000
   11.4296    4.7207   23.1993 C   0  0  0  0  0  0  0  0  0  0  0  0
    4.2970    1.6690   20.8430 C   0  0  0  0  0  0  0  0  0  0  0  0
   12.4494    3.9228   22.6806 C   0  0  0  0  0  0  0  0  0  0  0  0
   10.2636    4.1317   23.6883 C   0  0  0  0  0  0  0  0  0  0  0  0
    4.0980    2.1130   19.5350 C   0  0  0  0  0  0  0  0  0  0  0  0
    5.3360    0.8000   21.1530 C   0  0  0  0  0  0  0  0  0  0  0  0
   12.3031    2.5360   22.6508 C   0  0  0  0  0  0  0  0  0  0  0  0
   10.1173    2.7449   23.6585 C   0  0  0  0  0  0  0  0  0  0  0  0
    8.3310   -2.7170   25.3430 C   0  0  0  0  0  0  0  0  0  0  0  0
   10.2570   -3.5000   24.1350 C   0  0  0  0  0  0  0  0  0  0  0  0
    8.3510   -1.5420   24.6110 C   0  0  0  0  0  0  0  0  0  0  0  0
   10.2760   -2.3270   23.4020 C   0  0  0  0  0  0  0  0  0  0  0  0
    4.9400    1.7060   18.5060 C   0  0  0  0  0  0  0  0  0  0  0  0
    6.1600    0.3870   20.1140 C   0  0  0  0  0  0  0  0  0  0  0  0
    9.2850   -3.7090   25.1090 C   0  0  0  0  0  0  0  0  0  0  0  0
   11.1370    1.9470   23.1397 C   0  0  0  0  0  0  0  0  0  0  0  0
    9.3300   -1.3350   23.6390 C   0  0  0  0  0  0  0  0  0  0  0  0
    5.9810    0.8330   18.8060 C   0  0  0  0  0  0  0  0  0  0  0  0
    7.2210   -0.4620   20.0350 C   0  0  0  0  0  0  0  0  0  0  0  0
    8.9510    0.1280   21.6880 C   0  0  0  0  0  0  0  0  0  0  0  0
    9.2618   -4.9724   25.8910 C   0  0  0  0  0  0  0  0  0  0  0  0
   10.9777    0.4443   23.1075 C   0  0  0  0  0  0  0  0  0  0  0  0
    9.4200   -0.0840   22.9530 C   0  0  1  0  0  0  0  0  0  0  0  0
    7.6830   -0.5170   18.7600 N   0  0  0  0  0  0  0  0  0  0  0  0
    6.9440    0.2550   18.0100 N   0  0  0  0  0  0  0  0  0  0  0  0
    8.0810   -0.9750   21.0820 N   0  0  0  0  0  0  0  0  0  0  0  0
    9.1870    1.1500   21.0630 O   0  0  0  0  0  0  0  0  0  0  0  0
   11.5443    5.8005   23.2237 H   0  0  0  0  0  0  0  0  0  0  0  0
    3.6274    2.0126   21.6300 H   0  0  0  0  0  0  0  0  0  0  0  0
   13.3579    4.3812   22.3008 H   0  0  0  0  0  0  0  0  0  0  0  0
    9.4699    4.7525   24.0932 H   0  0  0  0  0  0  0  0  0  0  0  0
    3.2732    2.7875   19.3199 H   0  0  0  0  0  0  0  0  0  0  0  0
    5.4878    0.4645   22.1722 H   0  0  0  0  0  0  0  0  0  0  0  0
   13.1028    1.9222   22.2446 H   0  0  0  0  0  0  0  0  0  0  0  0
    9.2052    2.2948   24.0416 H   0  0  0  0  0  0  0  0  0  0  0  0
    7.5655   -2.8644   26.1055 H   0  0  0  0  0  0  0  0  0  0  0  0
   11.0125   -4.2662   23.9435 H   0  0  0  0  0  0  0  0  0  0  0  0
    7.5953   -0.7782   24.7971 H   0  0  0  0  0  0  0  0  0  0  0  0
   11.0394   -2.1837   22.6349 H   0  0  0  0  0  0  0  0  0  0  0  0
    4.7853    2.0674   17.4815 H   0  0  0  0  0  0  0  0  0  0  0  0
    8.6408   -5.7227   25.3864 H   0  0  0  0  0  0  0  0  0  0  0  0
   10.2726   -5.3829   26.0135 H   0  0  0  0  0  0  0  0  0  0  0  0
    8.8606   -4.8102   26.9000 H   0  0  0  0  0  0  0  0  0  0  0  0
   11.5363    0.0387   22.2539 H   0  0  0  0  0  0  0  0  0  0  0  0
   11.4704    0.0336   23.9998 H   0  0  0  0  0  0  0  0  0  0  0  0
    8.9182    0.7194   23.6789 H   0  0  0  0  0  0  0  0  0  0  0  0
    7.1015    0.3608   17.0505 H   0  0  0  0  0  0  0  0  0  0  0  0
    8.1201   -1.8087   21.3560 H   0  0  0  0  0  0  0  0  0  0  0  0
  1  3  1  0  0  0  0
  1  4  2  0  0  0  0
  2  5  1  0  0  0  0
  2  6  2  0  0  0  0
  3  7  2  0  0  0  0
  4  8  1  0  0  0  0
  5 13  2  0  0  0  0
  6 14  1  0  0  0  0
  7 16  1  0  0  0  0
  8 16  2  0  0  0  0
  9 11  2  0  0  0  0
  9 15  1  0  0  0  0
 10 12  1  0  0  0  0
 10 15  2  0  0  0  0
 11 17  1  0  0  0  0
 12 17  2  0  0  0  0
 13 18  1  0  0  0  0
 14 18  2  0  0  0  0
 14 19  1  0  0  0  0
 15 21  1  0  0  0  0
 16 22  1  0  0  0  0
 17 23  1  0  0  0  0
 18 25  1  0  0  0  0
 19 24  2  0  0  0  0
 19 26  1  0  0  0  0
 20 23  1  0  0  0  0
 20 26  1  0  0  0  0
 20 27  2  0  0  0  0
 22 23  1  1  0  0  0
 24 25  1  0  0  0  0
  1 28  1  0  0  0  0
  2 29  1  0  0  0  0
  3 30  1  0  0  0  0
  4 31  1  0  0  0  0
  5 32  1  0  0  0  0
  6 33  1  0  0  0  0
  7 34  1  0  0  0  0
  8 35  1  0  0  0  0
  9 36  1  0  0  0  0
 10 37  1  0  0  0  0
 11 38  1  0  0  0  0
 12 39  1  0  0  0  0
 13 40  1  0  0  0  0
 21 41  1  0  0  0  0
 21 42  1  0  0  0  0
 21 43  1  0  0  0  0
 22 44  1  0  0  0  0
 22 45  1  0  0  0  0
 23 46  1  0  0  0  0
 25 47  1  0  0  0  0
 26 48  1  0  0  0  0
M  END
> <clash_score>
0

> <docking_score>
-10.236773490905762

> <overlap_score>
0.9015265107154846

$$$$
BENZO_237_2
  -OEChem-08232013493D

 48 51  0     1  0  0  0  0  0999 V2000
   10.6367    4.9868   23.6018 C   0  0  0  0  0  0  0  0  0  0  0  0
    4.2970    1.6690   20.8430 C   0  0  0  0  0  0  0  0  0  0  0  0
    9.3228    4.8557   24.0511 C   0  0  0  0  0  0  0  0  0  0  0  0
   11.3798    3.8515   23.2784 C   0  0  0  0  0  0  0  0  0  0  0  0
    4.0980    2.1130   19.5350 C   0  0  0  0  0  0  0  0  0  0  0  0
    5.3360    0.8000   21.1530 C   0  0  0  0  0  0  0  0  0  0  0  0
    8.7519    3.5893   24.1772 C   0  0  0  0  0  0  0  0  0  0  0  0
   10.8090    2.5851   23.4045 C   0  0  0  0  0  0  0  0  0  0  0  0
    8.3310   -2.7170   25.3430 C   0  0  0  0  0  0  0  0  0  0  0  0
   10.2570   -3.5000   24.1350 C   0  0  0  0  0  0  0  0  0  0  0  0
    8.3510   -1.5420   24.6110 C   0  0  0  0  0  0  0  0  0  0  0  0
   10.2760   -2.3270   23.4020 C   0  0  0  0  0  0  0  0  0  0  0  0
    4.9400    1.7060   18.5060 C   0  0  0  0  0  0  0  0  0  0  0  0
    6.1600    0.3870   20.1140 C   0  0  0  0  0  0  0  0  0  0  0  0
    9.2850   -3.7090   25.1090 C   0  0  0  0  0  0  0  0  0  0  0  0
    9.4950    2.4539   23.8539 C   0  0  0  0  0  0  0  0  0  0  0  0
    9.3300   -1.3350   23.6390 C   0  0  0  0  0  0  0  0  0  0  0  0
    5.9810    0.8330   18.8060 C   0  0  0  0  0  0  0  0  0  0  0  0
    7.2210   -0.4620   20.0350 C   0  0  0  0  0  0  0  0  0  0  0  0
    8.9510    0.1280   21.6880 C   0  0  0  0  0  0  0  0  0  0  0  0
    9.2618   -4.9724   25.8910 C   0  0  0  0  0  0  0  0  0  0  0  0
    8.8771    1.0813   23.9905 C   0  0  0  0  0  0  0  0  0  0  0  0
    9.4200   -0.0840   22.9530 C   0  0  2  0  0  0  0  0  0  0  0  0
    7.6830   -0.5170   18.7600 N   0  0  0  0  0  0  0  0  0  0  0  0
    6.9440    0.2550   18.0100 N   0  0  0  0  0  0  0  0  0  0  0  0
    8.0810   -0.9750   21.0820 N   0  0  0  0  0  0  0  0  0  0  0  0
    9.1870    1.1500   21.0630 O   0  0  0  0  0  0  0  0  0  0  0  0
   11.0806    5.9731   23.5024 H   0  0  0  0  0  0  0  0  0  0  0  0
    3.6274    2.0126   21.6300 H   0  0  0  0  0  0  0  0  0  0  0  0
    8.7437    5.7397   24.3019 H   0  0  0  0  0  0  0  0  0  0  0  0
   12.4025    3.9533   22.9274 H   0  0  0  0  0  0  0  0  0  0  0  0
    3.2732    2.7875   19.3199 H   0  0  0  0  0  0  0  0  0  0  0  0
    5.4878    0.4645   22.1722 H   0  0  0  0  0  0  0  0  0  0  0  0
    7.7275    3.4967   24.5283 H   0  0  0  0  0  0  0  0  0  0  0  0
   11.3955    1.7061   23.1503 H   0  0  0  0  0  0  0  0  0  0  0  0
    7.5655   -2.8644   26.1055 H   0  0  0  0  0  0  0  0  0  0  0  0
   11.0125   -4.2662   23.9435 H   0  0  0  0  0  0  0  0  0  0  0  0
    7.5953   -0.7782   24.7971 H   0  0  0  0  0  0  0  0  0  0  0  0
   11.0394   -2.1837   22.6349 H   0  0  0  0  0  0  0  0  0  0  0  0
    4.7853    2.0674   17.4815 H   0  0  0  0  0  0  0  0  0  0  0  0
    8.6408   -5.7227   25.3864 H   0  0  0  0  0  0  0  0  0  0  0  0
   10.2726   -5.3829   26.0135 H   0  0  0  0  0  0  0  0  0  0  0  0
    8.8606   -4.8102   26.9000 H   0  0  0  0  0  0  0  0  0  0  0  0
    8.9708    0.7434   25.0308 H   0  0  0  0  0  0  0  0  0  0  0  0
    7.7972    1.1781   23.8117 H   0  0  0  0  0  0  0  0  0  0  0  0
   10.5743    0.2174   22.9808 H   0  0  0  0  0  0  0  0  0  0  0  0
    7.1015    0.3608   17.0505 H   0  0  0  0  0  0  0  0  0  0  0  0
    8.1201   -1.8087   21.3560 H   0  0  0  0  0  0  0  0  0  0  0  0
  1  3  1  0  0  0  0
  1  4  2  0  0  0  0
  2  5  1  0  0  0  0
  2  6  2  0  0  0  0
  3  7  2  0  0  0  0
  4  8  1  0  0  0  0
  5 13  2  0  0  0  0
  6 14  1  0  0  0  0
  7 16  1  0  0  0  0
  8 16  2  0  0  0  0
  9 11  2  0  0  0  0
  9 15  1  0  0  0  0
 10 12  1  0  0  0  0
 10 15  2  0  0  0  0
 11 17  1  0  0  0  0
 12 17  2  0  0  0  0
 13 18  1  0  0  0  0
 14 18  2  0  0  0  0
 14 19  1  0  0  0  0
 15 21  1  0  0  0  0
 16 22  1  0  0  0  0
 17 23  1  0  0  0  0
 18 25  1  0  0  0  0
 19 24  2  0  0  0  0
 19 26  1  0  0  0  0
 20 23  1  0  0  0  0
 20 26  1  0  0  0  0
 20 27  2  0  0  0  0
 22 23  1  6  0  0  0
 24 25  1  0  0  0  0
  1 28  1  0  0  0  0
  2 29  1  0  0  0  0
  3 30  1  0  0  0  0
  4 31  1  0  0  0  0
  5 32  1  0  0  0  0
  6 33  1  0  0  0  0
  7 34  1  0  0  0  0
  8 35  1  0  0  0  0
  9 36  1  0  0  0  0
 10 37  1  0  0  0  0
 11 38  1  0  0  0  0
 12 39  1  0  0  0  0
 13 40  1  0  0  0  0
 21 41  1  0  0  0  0
 21 42  1  0  0  0  0
 21 43  1  0  0  0  0
 22 44  1  0  0  0  0
 22 45  1  0  0  0  0
 23 46  1  0  0  0  0
 25 47  1  0  0  0  0
 26 48  1  0  0  0  0
M  END
> <clash_score>
0

> <docking_score>
-9.122139930725098

> <overlap_score>
0.8297222852706909

$$$$
BENZO_236_1
  -OEChem-08232013493D

 45 48  0     1  0  0  0  0  0999 V2000
    4.2970    1.6690   20.8430 C   0  0  0  0  0  0  0  0  0  0  0  0
    4.0980    2.1130   19.5350 C   0  0  0  0  0  0  0  0  0  0  0  0
    5.3360    0.8000   21.1530 C   0  0  0  0  0  0  0  0  0  0  0  0
    8.3310   -2.7170   25.3430 C   0  0  0  0  0  0  0  0  0  0  0  0
   10.2570   -3.5000   24.1350 C   0  0  0  0  0  0  0  0  0  0  0  0
    8.3510   -1.5420   24.6110 C   0  0  0  0  0  0  0  0  0  0  0  0
   10.2760   -2.3270   23.4020 C   0  0  0  0  0  0  0  0  0  0  0  0
    4.9400    1.7060   18.5060 C   0  0  0  0  0  0  0  0  0  0  0  0
   11.9019    2.6854   22.1912 C   0  0  0  0  0  0  0  0  0  0  0  0
   11.8820    4.0381   22.4508 C   0  0  0  0  0  0  0  0  0  0  0  0
   10.5617    2.7635   24.0885 C   0  0  0  0  0  0  0  0  0  0  0  0
    6.1600    0.3870   20.1140 C   0  0  0  0  0  0  0  0  0  0  0  0
    9.2850   -3.7090   25.1090 C   0  0  0  0  0  0  0  0  0  0  0  0
    9.3300   -1.3350   23.6390 C   0  0  0  0  0  0  0  0  0  0  0  0
   11.1370    1.9470   23.1397 C   0  0  0  0  0  0  0  0  0  0  0  0
    5.9810    0.8330   18.8060 C   0  0  0  0  0  0  0  0  0  0  0  0
    7.2210   -0.4620   20.0350 C   0  0  0  0  0  0  0  0  0  0  0  0
    8.9510    0.1280   21.6880 C   0  0  0  0  0  0  0  0  0  0  0  0
    9.2618   -4.9724   25.8910 C   0  0  0  0  0  0  0  0  0  0  0  0
   10.9777    0.4443   23.1075 C   0  0  0  0  0  0  0  0  0  0  0  0
    9.4200   -0.0840   22.9530 C   0  0  1  0  0  0  0  0  0  0  0  0
    7.6830   -0.5170   18.7600 N   0  0  0  0  0  0  0  0  0  0  0  0
    6.9440    0.2550   18.0100 N   0  0  0  0  0  0  0  0  0  0  0  0
    8.0810   -0.9750   21.0820 N   0  0  0  0  0  0  0  0  0  0  0  0
    9.1870    1.1500   21.0630 O   0  0  0  0  0  0  0  0  0  0  0  0
   10.9440    4.4131   23.8336 S   0  0  0  0  0  0  0  0  0  0  0  0
    3.6274    2.0126   21.6300 H   0  0  0  0  0  0  0  0  0  0  0  0
    3.2732    2.7875   19.3199 H   0  0  0  0  0  0  0  0  0  0  0  0
    5.4878    0.4645   22.1722 H   0  0  0  0  0  0  0  0  0  0  0  0
    7.5655   -2.8644   26.1055 H   0  0  0  0  0  0  0  0  0  0  0  0
   11.0125   -4.2662   23.9435 H   0  0  0  0  0  0  0  0  0  0  0  0
    7.5953   -0.7782   24.7971 H   0  0  0  0  0  0  0  0  0  0  0  0
   11.0394   -2.1837   22.6349 H   0  0  0  0  0  0  0  0  0  0  0  0
    4.7853    2.0674   17.4815 H   0  0  0  0  0  0  0  0  0  0  0  0
   12.4414    2.2505   21.3593 H   0  0  0  0  0  0  0  0  0  0  0  0
   12.3738    4.8240   21.8953 H   0  0  0  0  0  0  0  0  0  0  0  0
    9.9357    2.4743   24.9213 H   0  0  0  0  0  0  0  0  0  0  0  0
    8.6408   -5.7227   25.3864 H   0  0  0  0  0  0  0  0  0  0  0  0
   10.2726   -5.3829   26.0135 H   0  0  0  0  0  0  0  0  0  0  0  0
    8.8606   -4.8102   26.9000 H   0  0  0  0  0  0  0  0  0  0  0  0
   11.5363    0.0387   22.2539 H   0  0  0  0  0  0  0  0  0  0  0  0
   11.4704    0.0336   23.9998 H   0  0  0  0  0  0  0  0  0  0  0  0
    8.9182    0.7194   23.6789 H   0  0  0  0  0  0  0  0  0  0  0  0
    7.1015    0.3608   17.0505 H   0  0  0  0  0  0  0  0  0  0  0  0
    8.1201   -1.8087   21.3560 H   0  0  0  0  0  0  0  0  0  0  0  0
  1  2  1  0  0  0  0
  1  3  2  0  0  0  0
  2  8  2  0  0  0  0
  3 12  1  0  0  0  0
  4  6  2  0  0  0  0
  4 13  1  0  0  0  0
  5  7  1  0  0  0  0
  5 13  2  0  0  0  0
  6 14  1  0  0  0  0
  7 14  2  0  0  0  0
  8 16  1  0  0  0  0
  9 10  2  0  0  0  0
  9 15  1  0  0  0  0
 10 26  1  0  0  0  0
 11 15  2  0  0  0  0
 11 26  1  0  0  0  0
 12 16  2  0  0  0  0
 12 17  1  0  0  0  0
 13 19  1  0  0  0  0
 14 21  1  0  0  0  0
 15 20  1  0  0  0  0
 16 23  1  0  0  0  0
 17 22  2  0  0  0  0
 17 24  1  0  0  0  0
 18 21  1  0  0  0  0
 18 24  1  0  0  0  0
 18 25  2  0  0  0  0
 20 21  1  1  0  0  0
 22 23  1  0  0  0  0
  1 27  1  0  0  0  0
  2 28  1  0  0  0  0
  3 29  1  0  0  0  0
  4 30  1  0  0  0  0
  5 31  1  0  0  0  0
  6 32  1  0  0  0  0
  7 33  1  0  0  0  0
  8 34  1  0  0  0  0
  9 35  1  0  0  0  0
 10 36  1  0  0  0  0
 11 37  1  0  0  0  0
 19 38  1  0  0  0  0
 19 39  1  0  0  0  0
 19 40  1  0  0  0  0
 20 41  1  0  0  0  0
 20 42  1  0  0  0  0
 21 43  1  0  0  0  0
 23 44  1  0  0  0  0
 24 45  1  0  0  0  0
M  END
> <clash_score>
0

> <docking_score>
-8.777960777282715

> <overlap_score>
0.8904837369918823

$$$$
BENZO_236_2
  -OEChem-08232013493D

 45 48  0     1  0  0  0  0  0999 V2000
    4.2970    1.6690   20.8430 C   0  0  0  0  0  0  0  0  0  0  0  0
    4.0980    2.1130   19.5350 C   0  0  0  0  0  0  0  0  0  0  0  0
    5.3360    0.8000   21.1530 C   0  0  0  0  0  0  0  0  0  0  0  0
    8.3310   -2.7170   25.3430 C   0  0  0  0  0  0  0  0  0  0  0  0
   10.2570   -3.5000   24.1350 C   0  0  0  0  0  0  0  0  0  0  0  0
    8.3510   -1.5420   24.6110 C   0  0  0  0  0  0  0  0  0  0  0  0
   10.2760   -2.3270   23.4020 C   0  0  0  0  0  0  0  0  0  0  0  0
    4.9400    1.7060   18.5060 C   0  0  0  0  0  0  0  0  0  0  0  0
   10.8633    2.6804   23.5273 C   0  0  0  0  0  0  0  0  0  0  0  0
   11.1655    4.0230   23.4669 C   0  0  0  0  0  0  0  0  0  0  0  0
    8.8035    3.6322   24.0309 C   0  0  0  0  0  0  0  0  0  0  0  0
    6.1600    0.3870   20.1140 C   0  0  0  0  0  0  0  0  0  0  0  0
    9.2850   -3.7090   25.1090 C   0  0  0  0  0  0  0  0  0  0  0  0
    9.3300   -1.3350   23.6390 C   0  0  0  0  0  0  0  0  0  0  0  0
    9.4950    2.4539   23.8539 C   0  0  0  0  0  0  0  0  0  0  0  0
    5.9810    0.8330   18.8060 C   0  0  0  0  0  0  0  0  0  0  0  0
    7.2210   -0.4620   20.0350 C   0  0  0  0  0  0  0  0  0  0  0  0
    8.9510    0.1280   21.6880 C   0  0  0  0  0  0  0  0  0  0  0  0
    9.2618   -4.9724   25.8910 C   0  0  0  0  0  0  0  0  0  0  0  0
    8.8771    1.0813   23.9905 C   0  0  0  0  0  0  0  0  0  0  0  0
    9.4200   -0.0840   22.9530 C   0  0  2  0  0  0  0  0  0  0  0  0
    7.6830   -0.5170   18.7600 N   0  0  0  0  0  0  0  0  0  0  0  0
    6.9440    0.2550   18.0100 N   0  0  0  0  0  0  0  0  0  0  0  0
    8.0810   -0.9750   21.0820 N   0  0  0  0  0  0  0  0  0  0  0  0
    9.1870    1.1500   21.0630 O   0  0  0  0  0  0  0  0  0  0  0  0
    9.8028    5.0040   23.8033 S   0  0  0  0  0  0  0  0  0  0  0  0
    3.6274    2.0126   21.6300 H   0  0  0  0  0  0  0  0  0  0  0  0
    3.2732    2.7875   19.3199 H   0  0  0  0  0  0  0  0  0  0  0  0
    5.4878    0.4645   22.1722 H   0  0  0  0  0  0  0  0  0  0  0  0
    7.5655   -2.8644   26.1055 H   0  0  0  0  0  0  0  0  0  0  0  0
   11.0125   -4.2662   23.9435 H   0  0  0  0  0  0  0  0  0  0  0  0
    7.5953   -0.7782   24.7971 H   0  0  0  0  0  0  0  0  0  0  0  0
   11.0394   -2.1837   22.6349 H   0  0  0  0  0  0  0  0  0  0  0  0
    4.7853    2.0674   17.4815 H   0  0  0  0  0  0  0  0  0  0  0  0
   11.5925    1.9010   23.3455 H   0  0  0  0  0  0  0  0  0  0  0  0
   12.1213    4.4748   23.2422 H   0  0  0  0  0  0  0  0  0  0  0  0
    7.7599    3.7576   24.2842 H   0  0  0  0  0  0  0  0  0  0  0  0
    8.6408   -5.7227   25.3864 H   0  0  0  0  0  0  0  0  0  0  0  0
   10.2726   -5.3829   26.0135 H   0  0  0  0  0  0  0  0  0  0  0  0
    8.8606   -4.8102   26.9000 H   0  0  0  0  0  0  0  0  0  0  0  0
    8.9708    0.7434   25.0308 H   0  0  0  0  0  0  0  0  0  0  0  0
    7.7972    1.1781   23.8117 H   0  0  0  0  0  0  0  0  0  0  0  0
   10.5743    0.2174   22.9808 H   0  0  0  0  0  0  0  0  0  0  0  0
    7.1015    0.3608   17.0505 H   0  0  0  0  0  0  0  0  0  0  0  0
    8.1201   -1.8087   21.3560 H   0  0  0  0  0  0  0  0  0  0  0  0
  1  2  1  0  0  0  0
  1  3  2  0  0  0  0
  2  8  2  0  0  0  0
  3 12  1  0  0  0  0
  4  6  2  0  0  0  0
  4 13  1  0  0  0  0
  5  7  1  0  0  0  0
  5 13  2  0  0  0  0
  6 14  1  0  0  0  0
  7 14  2  0  0  0  0
  8 16  1  0  0  0  0
  9 10  2  0  0  0  0
  9 15  1  0  0  0  0
 10 26  1  0  0  0  0
 11 15  2  0  0  0  0
 11 26  1  0  0  0  0
 12 16  2  0  0  0  0
 12 17  1  0  0  0  0
 13 19  1  0  0  0  0
 14 21  1  0  0  0  0
 15 20  1  0  0  0  0
 16 23  1  0  0  0  0
 17 22  2  0  0  0  0
 17 24  1  0  0  0  0
 18 21  1  0  0  0  0
 18 24  1  0  0  0  0
 18 25  2  0  0  0  0
 20 21  1  6  0  0  0
 22 23  1  0  0  0  0
  1 27  1  0  0  0  0
  2 28  1  0  0  0  0
  3 29  1  0  0  0  0
  4 30  1  0  0  0  0
  5 31  1  0  0  0  0
  6 32  1  0  0  0  0
  7 33  1  0  0  0  0
  8 34  1  0  0  0  0
  9 35  1  0  0  0  0
 10 36  1  0  0  0  0
 11 37  1  0  0  0  0
 19 38  1  0  0  0  0
 19 39  1  0  0  0  0
 19 40  1  0  0  0  0
 20 41  1  0  0  0  0
 20 42  1  0  0  0  0
 21 43  1  0  0  0  0
 23 44  1  0  0  0  0
 24 45  1  0  0  0  0
M  END
> <clash_score>
0

> <docking_score>
-8.845500946044922

> <overlap_score>
0.8268725872039795

$$$$
BENZO_235_1
  -OEChem-08232013493D

 60 64  0     1  0  0  0  0  0999 V2000
    4.2970    1.6690   20.8430 C   0  0  0  0  0  0  0  0  0  0  0  0
    4.0980    2.1130   19.5350 C   0  0  0  0  0  0  0  0  0  0  0  0
    5.3360    0.8000   21.1530 C   0  0  0  0  0  0  0  0  0  0  0  0
    8.3510   -1.5420   24.6110 C   0  0  0  0  0  0  0  0  0  0  0  0
   10.2760   -2.3270   23.4020 C   0  0  0  0  0  0  0  0  0  0  0  0
    4.9400    1.7060   18.5060 C   0  0  0  0  0  0  0  0  0  0  0  0
    8.3310   -2.7170   25.3430 C   0  0  0  0  0  0  0  0  0  0  0  0
   10.2570   -3.5000   24.1350 C   0  0  0  0  0  0  0  0  0  0  0  0
   10.2246    2.9150   23.5993 C   0  0  0  0  0  0  0  0  0  0  0  0
   12.2096    2.6918   22.6802 C   0  0  0  0  0  0  0  0  0  0  0  0
    6.1600    0.3870   20.1140 C   0  0  0  0  0  0  0  0  0  0  0  0
    9.3300   -1.3350   23.6390 C   0  0  0  0  0  0  0  0  0  0  0  0
   11.1377    1.9556   23.1223 C   0  0  0  0  0  0  0  0  0  0  0  0
    5.9810    0.8330   18.8060 C   0  0  0  0  0  0  0  0  0  0  0  0
    9.2850   -3.7090   25.1090 C   0  0  0  0  0  0  0  0  0  0  0  0
    7.2210   -0.4620   20.0350 C   0  0  0  0  0  0  0  0  0  0  0  0
    8.9510    0.1280   21.6880 C   0  0  0  0  0  0  0  0  0  0  0  0
    7.3211   -6.8875   26.5227 C   0  0  0  0  0  0  0  0  0  0  0  0
    7.3523   -5.5278   27.2244 C   0  0  0  0  0  0  0  0  0  0  0  0
    7.9422   -6.8107   25.1261 C   0  0  0  0  0  0  0  0  0  0  0  0
    8.7641   -4.9418   27.2163 C   0  0  0  0  0  0  0  0  0  0  0  0
    9.3411   -6.1879   25.1670 C   0  0  0  0  0  0  0  0  0  0  0  0
   12.7040    5.1473   22.6110 C   0  0  0  0  0  0  0  0  0  0  0  0
   10.9782    0.4528   23.1025 C   0  0  0  0  0  0  0  0  0  0  0  0
    9.4200   -0.0840   22.9530 C   0  0  1  0  0  0  0  0  0  0  0  0
   10.6770    4.1653   23.4725 N   0  0  0  0  0  0  0  0  0  0  0  0
    7.6830   -0.5170   18.7600 N   0  0  0  0  0  0  0  0  0  0  0  0
    6.9440    0.2550   18.0100 N   0  0  0  0  0  0  0  0  0  0  0  0
   11.8861    3.9966   22.9107 N   0  0  0  0  0  0  0  0  0  0  0  0
    9.2641   -4.8861   25.8398 N   0  0  0  0  0  0  0  0  0  0  0  0
    8.0810   -0.9750   21.0820 N   0  0  0  0  0  0  0  0  0  0  0  0
    9.1870    1.1500   21.0630 O   0  0  0  0  0  0  0  0  0  0  0  0
    3.6274    2.0126   21.6300 H   0  0  0  0  0  0  0  0  0  0  0  0
    3.2732    2.7875   19.3199 H   0  0  0  0  0  0  0  0  0  0  0  0
    5.4878    0.4645   22.1722 H   0  0  0  0  0  0  0  0  0  0  0  0
    7.5957   -0.7779   24.7973 H   0  0  0  0  0  0  0  0  0  0  0  0
   11.0384   -2.1852   22.6338 H   0  0  0  0  0  0  0  0  0  0  0  0
    4.7853    2.0674   17.4815 H   0  0  0  0  0  0  0  0  0  0  0  0
    7.5634   -2.8637   26.1037 H   0  0  0  0  0  0  0  0  0  0  0  0
   11.0139   -4.2645   23.9419 H   0  0  0  0  0  0  0  0  0  0  0  0
    9.2482    2.7576   24.0354 H   0  0  0  0  0  0  0  0  0  0  0  0
   13.1522    2.4055   22.2336 H   0  0  0  0  0  0  0  0  0  0  0  0
    7.8644   -7.6283   27.1289 H   0  0  0  0  0  0  0  0  0  0  0  0
    6.2830   -7.2423   26.4478 H   0  0  0  0  0  0  0  0  0  0  0  0
    6.6663   -4.8405   26.7221 H   0  0  0  0  0  0  0  0  0  0  0  0
    7.0062   -5.6400   28.2540 H   0  0  0  0  0  0  0  0  0  0  0  0
    8.0018   -7.8160   24.6962 H   0  0  0  0  0  0  0  0  0  0  0  0
    7.2963   -6.2182   24.4678 H   0  0  0  0  0  0  0  0  0  0  0  0
    8.7322   -3.9404   27.6532 H   0  0  0  0  0  0  0  0  0  0  0  0
    9.4260   -5.5610   27.8283 H   0  0  0  0  0  0  0  0  0  0  0  0
   10.0249   -6.8474   25.7028 H   0  0  0  0  0  0  0  0  0  0  0  0
    9.7015   -6.0700   24.1446 H   0  0  0  0  0  0  0  0  0  0  0  0
   12.4645    5.4764   21.5964 H   0  0  0  0  0  0  0  0  0  0  0  0
   12.4916    5.9426   23.3309 H   0  0  0  0  0  0  0  0  0  0  0  0
   13.7592    4.8699   22.6849 H   0  0  0  0  0  0  0  0  0  0  0  0
   11.5374    0.0399   22.2527 H   0  0  0  0  0  0  0  0  0  0  0  0
   11.4700    0.0494   23.9985 H   0  0  0  0  0  0  0  0  0  0  0  0
    8.9187    0.7273   23.6745 H   0  0  0  0  0  0  0  0  0  0  0  0
    7.1015    0.3608   17.0505 H   0  0  0  0  0  0  0  0  0  0  0  0
    8.1354   -1.7990   21.3694 H   0  0  0  0  0  0  0  0  0  0  0  0
  1  2  1  0  0  0  0
  1  3  2  0  0  0  0
  2  6  2  0  0  0  0
  3 11  1  0  0  0  0
  4  7  2  0  0  0  0
  4 12  1  0  0  0  0
  5  8  1  0  0  0  0
  5 12  2  0  0  0  0
  6 14  1  0  0  0  0
  7 15  1  0  0  0  0
  8 15  2  0  0  0  0
  9 13  1  0  0  0  0
  9 26  2  0  0  0  0
 10 13  2  0  0  0  0
 10 29  1  0  0  0  0
 11 14  2  0  0  0  0
 11 16  1  0  0  0  0
 12 25  1  0  0  0  0
 13 24  1  0  0  0  0
 14 28  1  0  0  0  0
 15 30  1  0  0  0  0
 16 27  2  0  0  0  0
 16 31  1  0  0  0  0
 17 25  1  0  0  0  0
 17 31  1  0  0  0  0
 17 32  2  0  0  0  0
 18 19  1  0  0  0  0
 18 20  1  0  0  0  0
 19 21  1  0  0  0  0
 20 22  1  0  0  0  0
 21 30  1  0  0  0  0
 22 30  1  0  0  0  0
 23 29  1  0  0  0  0
 24 25  1  1  0  0  0
 26 29  1  0  0  0  0
 27 28  1  0  0  0  0
  1 33  1  0  0  0  0
  2 34  1  0  0  0  0
  3 35  1  0  0  0  0
  4 36  1  0  0  0  0
  5 37  1  0  0  0  0
  6 38  1  0  0  0  0
  7 39  1  0  0  0  0
  8 40  1  0  0  0  0
  9 41  1  0  0  0  0
 10 42  1  0  0  0  0
 18 43  1  0  0  0  0
 18 44  1  0  0  0  0
 19 45  1  0  0  0  0
 19 46  1  0  0  0  0
 20 47  1  0  0  0  0
 20 48  1  0  0  0  0
 21 49  1  0  0  0  0
 21 50  1  0  0  0  0
 22 51  1  0  0  0  0
 22 52  1  0  0  0  0
 23 53  1  0  0  0  0
 23 54  1  0  0  0  0
 23 55  1  0  0  0  0
 24 56  1  0  0  0  0
 24 57  1  0  0  0  0
 25 58  1  0  0  0  0
 28 59  1  0  0  0  0
 31 60  1  0  0  0  0
M  END
> <clash_score>
0

> <docking_score>
-9.184222221374512

> <overlap_score>
0.9401388168334961

$$$$
BENZO_234_1
  -OEChem-08232013493D

 60 64  0     1  0  0  0  0  0999 V2000
    4.2970    1.6690   20.8430 C   0  0  0  0  0  0  0  0  0  0  0  0
    4.0980    2.1130   19.5350 C   0  0  0  0  0  0  0  0  0  0  0  0
    9.2913    4.8680   24.0265 C   0  0  0  0  0  0  0  0  0  0  0  0
    5.3360    0.8000   21.1530 C   0  0  0  0  0  0  0  0  0  0  0  0
    8.7312    3.5975   24.1588 C   0  0  0  0  0  0  0  0  0  0  0  0
    8.3510   -1.5420   24.6110 C   0  0  0  0  0  0  0  0  0  0  0  0
   10.2760   -2.3270   23.4020 C   0  0  0  0  0  0  0  0  0  0  0  0
    4.9400    1.7060   18.5060 C   0  0  0  0  0  0  0  0  0  0  0  0
    8.3310   -2.7170   25.3430 C   0  0  0  0  0  0  0  0  0  0  0  0
   10.2570   -3.5000   24.1350 C   0  0  0  0  0  0  0  0  0  0  0  0
   10.6033    5.0082   23.5739 C   0  0  0  0  0  0  0  0  0  0  0  0
   10.7949    2.6072   23.3858 C   0  0  0  0  0  0  0  0  0  0  0  0
    6.1600    0.3870   20.1140 C   0  0  0  0  0  0  0  0  0  0  0  0
    9.3300   -1.3350   23.6390 C   0  0  0  0  0  0  0  0  0  0  0  0
    9.4829    2.4671   23.8384 C   0  0  0  0  0  0  0  0  0  0  0  0
    5.9810    0.8330   18.8060 C   0  0  0  0  0  0  0  0  0  0  0  0
    9.2850   -3.7090   25.1090 C   0  0  0  0  0  0  0  0  0  0  0  0
   11.3551    3.8778   23.2536 C   0  0  0  0  0  0  0  0  0  0  0  0
    7.2210   -0.4620   20.0350 C   0  0  0  0  0  0  0  0  0  0  0  0
    8.9510    0.1280   21.6880 C   0  0  0  0  0  0  0  0  0  0  0  0
    7.3211   -6.8875   26.5227 C   0  0  0  0  0  0  0  0  0  0  0  0
    7.3523   -5.5278   27.2244 C   0  0  0  0  0  0  0  0  0  0  0  0
    7.9422   -6.8107   25.1261 C   0  0  0  0  0  0  0  0  0  0  0  0
    8.7641   -4.9418   27.2163 C   0  0  0  0  0  0  0  0  0  0  0  0
    9.3411   -6.1879   25.1670 C   0  0  0  0  0  0  0  0  0  0  0  0
    8.8757    1.0906   23.9831 C   0  0  0  0  0  0  0  0  0  0  0  0
    9.4200   -0.0840   22.9530 C   0  0  1  0  0  0  0  0  0  0  0  0
    7.6830   -0.5170   18.7600 N   0  0  0  0  0  0  0  0  0  0  0  0
    6.9440    0.2550   18.0100 N   0  0  0  0  0  0  0  0  0  0  0  0
    9.2641   -4.8861   25.8398 N   0  0  0  0  0  0  0  0  0  0  0  0
    8.0810   -0.9750   21.0820 N   0  0  0  0  0  0  0  0  0  0  0  0
    9.1870    1.1500   21.0630 O   0  0  0  0  0  0  0  0  0  0  0  0
   12.9740    4.0513   22.6963 Cl  0  0  0  0  0  0  0  0  0  0  0  0
    3.6274    2.0126   21.6300 H   0  0  0  0  0  0  0  0  0  0  0  0
    3.2732    2.7875   19.3199 H   0  0  0  0  0  0  0  0  0  0  0  0
    8.7056    5.7481   24.2762 H   0  0  0  0  0  0  0  0  0  0  0  0
    5.4878    0.4645   22.1722 H   0  0  0  0  0  0  0  0  0  0  0  0
    7.7082    3.4977   24.5123 H   0  0  0  0  0  0  0  0  0  0  0  0
    7.5957   -0.7779   24.7973 H   0  0  0  0  0  0  0  0  0  0  0  0
   11.0384   -2.1852   22.6338 H   0  0  0  0  0  0  0  0  0  0  0  0
    4.7853    2.0674   17.4815 H   0  0  0  0  0  0  0  0  0  0  0  0
    7.5634   -2.8637   26.1037 H   0  0  0  0  0  0  0  0  0  0  0  0
   11.0139   -4.2645   23.9419 H   0  0  0  0  0  0  0  0  0  0  0  0
   11.0270    6.0047   23.4760 H   0  0  0  0  0  0  0  0  0  0  0  0
   11.3767    1.7227   23.1369 H   0  0  0  0  0  0  0  0  0  0  0  0
    7.8644   -7.6283   27.1289 H   0  0  0  0  0  0  0  0  0  0  0  0
    6.2830   -7.2423   26.4478 H   0  0  0  0  0  0  0  0  0  0  0  0
    6.6663   -4.8405   26.7221 H   0  0  0  0  0  0  0  0  0  0  0  0
    7.0062   -5.6400   28.2540 H   0  0  0  0  0  0  0  0  0  0  0  0
    8.0018   -7.8160   24.6962 H   0  0  0  0  0  0  0  0  0  0  0  0
    7.2963   -6.2182   24.4678 H   0  0  0  0  0  0  0  0  0  0  0  0
    8.7322   -3.9404   27.6532 H   0  0  0  0  0  0  0  0  0  0  0  0
    9.4260   -5.5610   27.8283 H   0  0  0  0  0  0  0  0  0  0  0  0
   10.0249   -6.8474   25.7028 H   0  0  0  0  0  0  0  0  0  0  0  0
    9.7015   -6.0700   24.1446 H   0  0  0  0  0  0  0  0  0  0  0  0
    8.9639    0.7632   25.0273 H   0  0  0  0  0  0  0  0  0  0  0  0
    7.7964    1.1765   23.7949 H   0  0  0  0  0  0  0  0  0  0  0  0
   10.5749    0.2253   22.9765 H   0  0  0  0  0  0  0  0  0  0  0  0
    7.1015    0.3608   17.0505 H   0  0  0  0  0  0  0  0  0  0  0  0
    8.1354   -1.7990   21.3694 H   0  0  0  0  0  0  0  0  0  0  0  0
  1  2  1  0  0  0  0
  1  4  2  0  0  0  0
  2  8  2  0  0  0  0
  3  5  2  0  0  0  0
  3 11  1  0  0  0  0
  4 13  1  0  0  0  0
  5 15  1  0  0  0  0
  6  9  2  0  0  0  0
  6 14  1  0  0  0  0
  7 10  1  0  0  0  0
  7 14  2  0  0  0  0
  8 16  1  0  0  0  0
  9 17  1  0  0  0  0
 10 17  2  0  0  0  0
 11 18  2  0  0  0  0
 12 15  2  0  0  0  0
 12 18  1  0  0  0  0
 13 16  2  0  0  0  0
 13 19  1  0  0  0  0
 14 27  1  0  0  0  0
 15 26  1  0  0  0  0
 16 29  1  0  0  0  0
 17 30  1  0  0  0  0
 18 33  1  0  0  0  0
 19 28  2  0  0  0  0
 19 31  1  0  0  0  0
 20 27  1  1  0  0  0
 20 31  1  0  0  0  0
 20 32  2  0  0  0  0
 21 22  1  0  0  0  0
 21 23  1  0  0  0  0
 22 24  1  0  0  0  0
 23 25  1  0  0  0  0
 24 30  1  0  0  0  0
 25 30  1  0  0  0  0
 26 27  1  0  0  0  0
 28 29  1  0  0  0  0
  1 34  1  0  0  0  0
  2 35  1  0  0  0  0
  3 36  1  0  0  0  0
  4 37  1  0  0  0  0
  5 38  1  0  0  0  0
  6 39  1  0  0  0  0
  7 40  1  0  0  0  0
  8 41  1  0  0  0  0
  9 42  1  0  0  0  0
 10 43  1  0  0  0  0
 11 44  1  0  0  0  0
 12 45  1  0  0  0  0
 21 46  1  0  0  0  0
 21 47  1  0  0  0  0
 22 48  1  0  0  0  0
 22 49  1  0  0  0  0
 23 50  1  0  0  0  0
 23 51  1  0  0  0  0
 24 52  1  0  0  0  0
 24 53  1  0  0  0  0
 25 54  1  0  0  0  0
 25 55  1  0  0  0  0
 26 56  1  0  0  0  0
 26 57  1  0  0  0  0
 27 58  1  0  0  0  0
 29 59  1  0  0  0  0
 31 60  1  0  0  0  0
M  END
> <clash_score>
0

> <docking_score>
-8.675838470458984

> <overlap_score>
0.8812171220779419

$$$$
BENZO_235_2
  -OEChem-08232013493D

 60 64  0     1  0  0  0  0  0999 V2000
    4.2970    1.6690   20.8430 C   0  0  0  0  0  0  0  0  0  0  0  0
    4.0980    2.1130   19.5350 C   0  0  0  0  0  0  0  0  0  0  0  0
    5.3360    0.8000   21.1530 C   0  0  0  0  0  0  0  0  0  0  0  0
    8.3510   -1.5420   24.6110 C   0  0  0  0  0  0  0  0  0  0  0  0
   10.2760   -2.3270   23.4020 C   0  0  0  0  0  0  0  0  0  0  0  0
    4.9400    1.7060   18.5060 C   0  0  0  0  0  0  0  0  0  0  0  0
    8.3310   -2.7170   25.3430 C   0  0  0  0  0  0  0  0  0  0  0  0
   10.2570   -3.5000   24.1350 C   0  0  0  0  0  0  0  0  0  0  0  0
   10.7785    2.7977   23.3980 C   0  0  0  0  0  0  0  0  0  0  0  0
    8.8916    3.6777   24.1053 C   0  0  0  0  0  0  0  0  0  0  0  0
    6.1600    0.3870   20.1140 C   0  0  0  0  0  0  0  0  0  0  0  0
    9.3300   -1.3350   23.6390 C   0  0  0  0  0  0  0  0  0  0  0  0
    9.4829    2.4671   23.8384 C   0  0  0  0  0  0  0  0  0  0  0  0
    5.9810    0.8330   18.8060 C   0  0  0  0  0  0  0  0  0  0  0  0
    9.2850   -3.7090   25.1090 C   0  0  0  0  0  0  0  0  0  0  0  0
    7.2210   -0.4620   20.0350 C   0  0  0  0  0  0  0  0  0  0  0  0
    8.9510    0.1280   21.6880 C   0  0  0  0  0  0  0  0  0  0  0  0
    7.3211   -6.8875   26.5227 C   0  0  0  0  0  0  0  0  0  0  0  0
    7.3523   -5.5278   27.2244 C   0  0  0  0  0  0  0  0  0  0  0  0
    7.9422   -6.8107   25.1261 C   0  0  0  0  0  0  0  0  0  0  0  0
    8.7641   -4.9418   27.2163 C   0  0  0  0  0  0  0  0  0  0  0  0
    9.3411   -6.1879   25.1670 C   0  0  0  0  0  0  0  0  0  0  0  0
    9.6750    6.0523   23.9437 C   0  0  0  0  0  0  0  0  0  0  0  0
    8.8757    1.0906   23.9831 C   0  0  0  0  0  0  0  0  0  0  0  0
    9.4200   -0.0840   22.9530 C   0  0  2  0  0  0  0  0  0  0  0  0
   10.9979    4.1151   23.3843 N   0  0  0  0  0  0  0  0  0  0  0  0
    7.6830   -0.5170   18.7600 N   0  0  0  0  0  0  0  0  0  0  0  0
    6.9440    0.2550   18.0100 N   0  0  0  0  0  0  0  0  0  0  0  0
    9.8322    4.6230   23.8194 N   0  0  0  0  0  0  0  0  0  0  0  0
    9.2641   -4.8861   25.8398 N   0  0  0  0  0  0  0  0  0  0  0  0
    8.0810   -0.9750   21.0820 N   0  0  0  0  0  0  0  0  0  0  0  0
    9.1870    1.1500   21.0630 O   0  0  0  0  0  0  0  0  0  0  0  0
    3.6274    2.0126   21.6300 H   0  0  0  0  0  0  0  0  0  0  0  0
    3.2732    2.7875   19.3199 H   0  0  0  0  0  0  0  0  0  0  0  0
    5.4878    0.4645   22.1722 H   0  0  0  0  0  0  0  0  0  0  0  0
    7.5957   -0.7779   24.7973 H   0  0  0  0  0  0  0  0  0  0  0  0
   11.0384   -2.1852   22.6338 H   0  0  0  0  0  0  0  0  0  0  0  0
    4.7853    2.0674   17.4815 H   0  0  0  0  0  0  0  0  0  0  0  0
    7.5634   -2.8637   26.1037 H   0  0  0  0  0  0  0  0  0  0  0  0
   11.0139   -4.2645   23.9419 H   0  0  0  0  0  0  0  0  0  0  0  0
   11.5733    2.1354   23.0851 H   0  0  0  0  0  0  0  0  0  0  0  0
    7.9057    3.9405   24.4642 H   0  0  0  0  0  0  0  0  0  0  0  0
    7.8644   -7.6283   27.1289 H   0  0  0  0  0  0  0  0  0  0  0  0
    6.2830   -7.2423   26.4478 H   0  0  0  0  0  0  0  0  0  0  0  0
    6.6663   -4.8405   26.7221 H   0  0  0  0  0  0  0  0  0  0  0  0
    7.0062   -5.6400   28.2540 H   0  0  0  0  0  0  0  0  0  0  0  0
    8.0018   -7.8160   24.6962 H   0  0  0  0  0  0  0  0  0  0  0  0
    7.2963   -6.2182   24.4678 H   0  0  0  0  0  0  0  0  0  0  0  0
    8.7322   -3.9404   27.6532 H   0  0  0  0  0  0  0  0  0  0  0  0
    9.4260   -5.5610   27.8283 H   0  0  0  0  0  0  0  0  0  0  0  0
   10.0249   -6.8474   25.7028 H   0  0  0  0  0  0  0  0  0  0  0  0
    9.7015   -6.0700   24.1446 H   0  0  0  0  0  0  0  0  0  0  0  0
    9.9836    6.3391   24.9525 H   0  0  0  0  0  0  0  0  0  0  0  0
   10.2970    6.5534   23.1967 H   0  0  0  0  0  0  0  0  0  0  0  0
    8.6277    6.3169   23.7734 H   0  0  0  0  0  0  0  0  0  0  0  0
    8.9639    0.7632   25.0273 H   0  0  0  0  0  0  0  0  0  0  0  0
    7.7964    1.1765   23.7949 H   0  0  0  0  0  0  0  0  0  0  0  0
   10.5749    0.2253   22.9765 H   0  0  0  0  0  0  0  0  0  0  0  0
    7.1015    0.3608   17.0505 H   0  0  0  0  0  0  0  0  0  0  0  0
    8.1354   -1.7990   21.3694 H   0  0  0  0  0  0  0  0  0  0  0  0
  1  2  1  0  0  0  0
  1  3  2  0  0  0  0
  2  6  2  0  0  0  0
  3 11  1  0  0  0  0
  4  7  2  0  0  0  0
  4 12  1  0  0  0  0
  5  8  1  0  0  0  0
  5 12  2  0  0  0  0
  6 14  1  0  0  0  0
  7 15  1  0  0  0  0
  8 15  2  0  0  0  0
  9 13  1  0  0  0  0
  9 26  2  0  0  0  0
 10 13  2  0  0  0  0
 10 29  1  0  0  0  0
 11 14  2  0  0  0  0
 11 16  1  0  0  0  0
 12 25  1  0  0  0  0
 13 24  1  0  0  0  0
 14 28  1  0  0  0  0
 15 30  1  0  0  0  0
 16 27  2  0  0  0  0
 16 31  1  0  0  0  0
 17 25  1  0  0  0  0
 17 31  1  0  0  0  0
 17 32  2  0  0  0  0
 18 19  1  0  0  0  0
 18 20  1  0  0  0  0
 19 21  1  0  0  0  0
 20 22  1  0  0  0  0
 21 30  1  0  0  0  0
 22 30  1  0  0  0  0
 23 29  1  0  0  0  0
 24 25  1  6  0  0  0
 26 29  1  0  0  0  0
 27 28  1  0  0  0  0
  1 33  1  0  0  0  0
  2 34  1  0  0  0  0
  3 35  1  0  0  0  0
  4 36  1  0  0  0  0
  5 37  1  0  0  0  0
  6 38  1  0  0  0  0
  7 39  1  0  0  0  0
  8 40  1  0  0  0  0
  9 41  1  0  0  0  0
 10 42  1  0  0  0  0
 18 43  1  0  0  0  0
 18 44  1  0  0  0  0
 19 45  1  0  0  0  0
 19 46  1  0  0  0  0
 20 47  1  0  0  0  0
 20 48  1  0  0  0  0
 21 49  1  0  0  0  0
 21 50  1  0  0  0  0
 22 51  1  0  0  0  0
 22 52  1  0  0  0  0
 23 53  1  0  0  0  0
 23 54  1  0  0  0  0
 23 55  1  0  0  0  0
 24 56  1  0  0  0  0
 24 57  1  0  0  0  0
 25 58  1  0  0  0  0
 28 59  1  0  0  0  0
 31 60  1  0  0  0  0
M  END
> <clash_score>
0

> <docking_score>
-7.979406356811523

> <overlap_score>
0.8668239712715149

$$$$
BENZO_234_2
  -OEChem-08232013493D

 60 64  0     1  0  0  0  0  0999 V2000
    4.2970    1.6690   20.8430 C   0  0  0  0  0  0  0  0  0  0  0  0
    4.0980    2.1130   19.5350 C   0  0  0  0  0  0  0  0  0  0  0  0
   10.2658    4.1447   23.6556 C   0  0  0  0  0  0  0  0  0  0  0  0
    5.3360    0.8000   21.1530 C   0  0  0  0  0  0  0  0  0  0  0  0
   10.1187    2.7578   23.6359 C   0  0  0  0  0  0  0  0  0  0  0  0
    8.3510   -1.5420   24.6110 C   0  0  0  0  0  0  0  0  0  0  0  0
   10.2760   -2.3270   23.4020 C   0  0  0  0  0  0  0  0  0  0  0  0
    4.9400    1.7060   18.5060 C   0  0  0  0  0  0  0  0  0  0  0  0
    8.3310   -2.7170   25.3430 C   0  0  0  0  0  0  0  0  0  0  0  0
   10.2570   -3.5000   24.1350 C   0  0  0  0  0  0  0  0  0  0  0  0
   11.4317    4.7295   23.1614 C   0  0  0  0  0  0  0  0  0  0  0  0
   12.3037    2.5404   22.6281 C   0  0  0  0  0  0  0  0  0  0  0  0
    6.1600    0.3870   20.1140 C   0  0  0  0  0  0  0  0  0  0  0  0
    9.3300   -1.3350   23.6390 C   0  0  0  0  0  0  0  0  0  0  0  0
   11.1377    1.9556   23.1223 C   0  0  0  0  0  0  0  0  0  0  0  0
    5.9810    0.8330   18.8060 C   0  0  0  0  0  0  0  0  0  0  0  0
    9.2850   -3.7090   25.1090 C   0  0  0  0  0  0  0  0  0  0  0  0
   12.4507    3.9274   22.6477 C   0  0  0  0  0  0  0  0  0  0  0  0
    7.2210   -0.4620   20.0350 C   0  0  0  0  0  0  0  0  0  0  0  0
    8.9510    0.1280   21.6880 C   0  0  0  0  0  0  0  0  0  0  0  0
    7.3211   -6.8875   26.5227 C   0  0  0  0  0  0  0  0  0  0  0  0
    7.3523   -5.5278   27.2244 C   0  0  0  0  0  0  0  0  0  0  0  0
    7.9422   -6.8107   25.1261 C   0  0  0  0  0  0  0  0  0  0  0  0
    8.7641   -4.9418   27.2163 C   0  0  0  0  0  0  0  0  0  0  0  0
    9.3411   -6.1879   25.1670 C   0  0  0  0  0  0  0  0  0  0  0  0
   10.9782    0.4528   23.1025 C   0  0  0  0  0  0  0  0  0  0  0  0
    9.4200   -0.0840   22.9530 C   0  0  2  0  0  0  0  0  0  0  0  0
    7.6830   -0.5170   18.7600 N   0  0  0  0  0  0  0  0  0  0  0  0
    6.9440    0.2550   18.0100 N   0  0  0  0  0  0  0  0  0  0  0  0
    9.2641   -4.8861   25.8398 N   0  0  0  0  0  0  0  0  0  0  0  0
    8.0810   -0.9750   21.0820 N   0  0  0  0  0  0  0  0  0  0  0  0
    9.1870    1.1500   21.0630 O   0  0  0  0  0  0  0  0  0  0  0  0
   13.8895    4.6494   22.0392 Cl  0  0  0  0  0  0  0  0  0  0  0  0
    3.6274    2.0126   21.6300 H   0  0  0  0  0  0  0  0  0  0  0  0
    3.2732    2.7875   19.3199 H   0  0  0  0  0  0  0  0  0  0  0  0
    9.4721    4.7690   24.0558 H   0  0  0  0  0  0  0  0  0  0  0  0
    5.4878    0.4645   22.1722 H   0  0  0  0  0  0  0  0  0  0  0  0
    9.2068    2.3107   24.0232 H   0  0  0  0  0  0  0  0  0  0  0  0
    7.5957   -0.7779   24.7973 H   0  0  0  0  0  0  0  0  0  0  0  0
   11.0384   -2.1852   22.6338 H   0  0  0  0  0  0  0  0  0  0  0  0
    4.7853    2.0674   17.4815 H   0  0  0  0  0  0  0  0  0  0  0  0
    7.5634   -2.8637   26.1037 H   0  0  0  0  0  0  0  0  0  0  0  0
   11.0139   -4.2645   23.9419 H   0  0  0  0  0  0  0  0  0  0  0  0
   11.5327    5.8118   23.1833 H   0  0  0  0  0  0  0  0  0  0  0  0
   13.0951    1.9106   22.2282 H   0  0  0  0  0  0  0  0  0  0  0  0
    7.8644   -7.6283   27.1289 H   0  0  0  0  0  0  0  0  0  0  0  0
    6.2830   -7.2423   26.4478 H   0  0  0  0  0  0  0  0  0  0  0  0
    6.6663   -4.8405   26.7221 H   0  0  0  0  0  0  0  0  0  0  0  0
    7.0062   -5.6400   28.2540 H   0  0  0  0  0  0  0  0  0  0  0  0
    8.0018   -7.8160   24.6962 H   0  0  0  0  0  0  0  0  0  0  0  0
    7.2963   -6.2182   24.4678 H   0  0  0  0  0  0  0  0  0  0  0  0
    8.7322   -3.9404   27.6532 H   0  0  0  0  0  0  0  0  0  0  0  0
    9.4260   -5.5610   27.8283 H   0  0  0  0  0  0  0  0  0  0  0  0
   10.0249   -6.8474   25.7028 H   0  0  0  0  0  0  0  0  0  0  0  0
    9.7015   -6.0700   24.1446 H   0  0  0  0  0  0  0  0  0  0  0  0
   11.5374    0.0399   22.2527 H   0  0  0  0  0  0  0  0  0  0  0  0
   11.4700    0.0494   23.9985 H   0  0  0  0  0  0  0  0  0  0  0  0
    8.9187    0.7273   23.6745 H   0  0  0  0  0  0  0  0  0  0  0  0
    7.1015    0.3608   17.0505 H   0  0  0  0  0  0  0  0  0  0  0  0
    8.1354   -1.7990   21.3694 H   0  0  0  0  0  0  0  0  0  0  0  0
  1  2  1  0  0  0  0
  1  4  2  0  0  0  0
  2  8  2  0  0  0  0
  3  5  2  0  0  0  0
  3 11  1  0  0  0  0
  4 13  1  0  0  0  0
  5 15  1  0  0  0  0
  6  9  2  0  0  0  0
  6 14  1  0  0  0  0
  7 10  1  0  0  0  0
  7 14  2  0  0  0  0
  8 16  1  0  0  0  0
  9 17  1  0  0  0  0
 10 17  2  0  0  0  0
 11 18  2  0  0  0  0
 12 15  2  0  0  0  0
 12 18  1  0  0  0  0
 13 16  2  0  0  0  0
 13 19  1  0  0  0  0
 14 27  1  0  0  0  0
 15 26  1  0  0  0  0
 16 29  1  0  0  0  0
 17 30  1  0  0  0  0
 18 33  1  0  0  0  0
 19 28  2  0  0  0  0
 19 31  1  0  0  0  0
 20 27  1  6  0  0  0
 20 31  1  0  0  0  0
 20 32  2  0  0  0  0
 21 22  1  0  0  0  0
 21 23  1  0  0  0  0
 22 24  1  0  0  0  0
 23 25  1  0  0  0  0
 24 30  1  0  0  0  0
 25 30  1  0  0  0  0
 26 27  1  0  0  0  0
 28 29  1  0  0  0  0
  1 34  1  0  0  0  0
  2 35  1  0  0  0  0
  3 36  1  0  0  0  0
  4 37  1  0  0  0  0
  5 38  1  0  0  0  0
  6 39  1  0  0  0  0
  7 40  1  0  0  0  0
  8 41  1  0  0  0  0
  9 42  1  0  0  0  0
 10 43  1  0  0  0  0
 11 44  1  0  0  0  0
 12 45  1  0  0  0  0
 21 46  1  0  0  0  0
 21 47  1  0  0  0  0
 22 48  1  0  0  0  0
 22 49  1  0  0  0  0
 23 50  1  0  0  0  0
 23 51  1  0  0  0  0
 24 52  1  0  0  0  0
 24 53  1  0  0  0  0
 25 54  1  0  0  0  0
 25 55  1  0  0  0  0
 26 56  1  0  0  0  0
 26 57  1  0  0  0  0
 27 58  1  0  0  0  0
 29 59  1  0  0  0  0
 31 60  1  0  0  0  0
M  END
> <clash_score>
0

> <docking_score>
-9.657318115234375

> <overlap_score>
0.9461336731910706

$$$$
BENZO_238_1
  -OEChem-08232013493D

 48 51  0     1  0  0  0  0  0999 V2000
    4.2970    1.6690   20.8430 C   0  0  0  0  0  0  0  0  0  0  0  0
    4.0980    2.1130   19.5350 C   0  0  0  0  0  0  0  0  0  0  0  0
   10.2645    4.1315   23.6906 C   0  0  0  0  0  0  0  0  0  0  0  0
    5.3360    0.8000   21.1530 C   0  0  0  0  0  0  0  0  0  0  0  0
   10.1177    2.7447   23.6595 C   0  0  0  0  0  0  0  0  0  0  0  0
    8.3310   -2.7170   25.3430 C   0  0  0  0  0  0  0  0  0  0  0  0
   10.2570   -3.5000   24.1350 C   0  0  0  0  0  0  0  0  0  0  0  0
    8.3510   -1.5420   24.6110 C   0  0  0  0  0  0  0  0  0  0  0  0
   10.2760   -2.3270   23.4020 C   0  0  0  0  0  0  0  0  0  0  0  0
    4.9400    1.7060   18.5060 C   0  0  0  0  0  0  0  0  0  0  0  0
   11.4306    4.7205   23.2018 C   0  0  0  0  0  0  0  0  0  0  0  0
   12.3032    2.5360   22.6510 C   0  0  0  0  0  0  0  0  0  0  0  0
    6.1600    0.3870   20.1140 C   0  0  0  0  0  0  0  0  0  0  0  0
    9.2850   -3.7090   25.1090 C   0  0  0  0  0  0  0  0  0  0  0  0
    9.3300   -1.3350   23.6390 C   0  0  0  0  0  0  0  0  0  0  0  0
   11.1370    1.9470   23.1397 C   0  0  0  0  0  0  0  0  0  0  0  0
    5.9810    0.8330   18.8060 C   0  0  0  0  0  0  0  0  0  0  0  0
   12.4500    3.9228   22.6821 C   0  0  0  0  0  0  0  0  0  0  0  0
    7.2210   -0.4620   20.0350 C   0  0  0  0  0  0  0  0  0  0  0  0
    8.9510    0.1280   21.6880 C   0  0  0  0  0  0  0  0  0  0  0  0
    9.2618   -4.9724   25.8910 C   0  0  0  0  0  0  0  0  0  0  0  0
   10.9777    0.4443   23.1075 C   0  0  0  0  0  0  0  0  0  0  0  0
    9.4200   -0.0840   22.9530 C   0  0  1  0  0  0  0  0  0  0  0  0
    7.6830   -0.5170   18.7600 N   0  0  0  0  0  0  0  0  0  0  0  0
    6.9440    0.2550   18.0100 N   0  0  0  0  0  0  0  0  0  0  0  0
    8.0810   -0.9750   21.0820 N   0  0  0  0  0  0  0  0  0  0  0  0
    9.1870    1.1500   21.0630 O   0  0  0  0  0  0  0  0  0  0  0  0
   13.8890    4.6500   22.0802 Cl  0  0  0  0  0  0  0  0  0  0  0  0
    3.6274    2.0126   21.6300 H   0  0  0  0  0  0  0  0  0  0  0  0
    3.2732    2.7875   19.3199 H   0  0  0  0  0  0  0  0  0  0  0  0
    9.4706    4.7523   24.0956 H   0  0  0  0  0  0  0  0  0  0  0  0
    5.4878    0.4645   22.1722 H   0  0  0  0  0  0  0  0  0  0  0  0
    9.2057    2.2944   24.0426 H   0  0  0  0  0  0  0  0  0  0  0  0
    7.5655   -2.8644   26.1055 H   0  0  0  0  0  0  0  0  0  0  0  0
   11.0125   -4.2662   23.9435 H   0  0  0  0  0  0  0  0  0  0  0  0
    7.5953   -0.7782   24.7971 H   0  0  0  0  0  0  0  0  0  0  0  0
   11.0394   -2.1837   22.6349 H   0  0  0  0  0  0  0  0  0  0  0  0
    4.7853    2.0674   17.4815 H   0  0  0  0  0  0  0  0  0  0  0  0
   11.5314    5.8026   23.2327 H   0  0  0  0  0  0  0  0  0  0  0  0
   13.0949    1.9096   22.2463 H   0  0  0  0  0  0  0  0  0  0  0  0
    8.6408   -5.7227   25.3864 H   0  0  0  0  0  0  0  0  0  0  0  0
   10.2726   -5.3829   26.0135 H   0  0  0  0  0  0  0  0  0  0  0  0
    8.8606   -4.8102   26.9000 H   0  0  0  0  0  0  0  0  0  0  0  0
   11.5363    0.0387   22.2539 H   0  0  0  0  0  0  0  0  0  0  0  0
   11.4704    0.0336   23.9998 H   0  0  0  0  0  0  0  0  0  0  0  0
    8.9182    0.7194   23.6789 H   0  0  0  0  0  0  0  0  0  0  0  0
    7.1015    0.3608   17.0505 H   0  0  0  0  0  0  0  0  0  0  0  0
    8.1201   -1.8087   21.3560 H   0  0  0  0  0  0  0  0  0  0  0  0
  1  2  1  0  0  0  0
  1  4  2  0  0  0  0
  2 10  2  0  0  0  0
  3  5  2  0  0  0  0
  3 11  1  0  0  0  0
  4 13  1  0  0  0  0
  5 16  1  0  0  0  0
  6  8  2  0  0  0  0
  6 14  1  0  0  0  0
  7  9  1  0  0  0  0
  7 14  2  0  0  0  0
  8 15  1  0  0  0  0
  9 15  2  0  0  0  0
 10 17  1  0  0  0  0
 11 18  2  0  0  0  0
 12 16  2  0  0  0  0
 12 18  1  0  0  0  0
 13 17  2  0  0  0  0
 13 19  1  0  0  0  0
 14 21  1  0  0  0  0
 15 23  1  0  0  0  0
 16 22  1  0  0  0  0
 17 25  1  0  0  0  0
 18 28  1  0  0  0  0
 19 24  2  0  0  0  0
 19 26  1  0  0  0  0
 20 23  1  0  0  0  0
 20 26  1  0  0  0  0
 20 27  2  0  0  0  0
 22 23  1  1  0  0  0
 24 25  1  0  0  0  0
  1 29  1  0  0  0  0
  2 30  1  0  0  0  0
  3 31  1  0  0  0  0
  4 32  1  0  0  0  0
  5 33  1  0  0  0  0
  6 34  1  0  0  0  0
  7 35  1  0  0  0  0
  8 36  1  0  0  0  0
  9 37  1  0  0  0  0
 10 38  1  0  0  0  0
 11 39  1  0  0  0  0
 12 40  1  0  0  0  0
 21 41  1  0  0  0  0
 21 42  1  0  0  0  0
 21 43  1  0  0  0  0
 22 44  1  0  0  0  0
 22 45  1  0  0  0  0
 23 46  1  0  0  0  0
 25 47  1  0  0  0  0
 26 48  1  0  0  0  0
M  END
> <clash_score>
0

> <docking_score>
-10.66457462310791

> <overlap_score>
0.9022156596183777

$$$$
BENZO_239_1
  -OEChem-08232013493D

 48 51  0     1  0  0  0  0  0999 V2000
    4.2970    1.6690   20.8430 C   0  0  0  0  0  0  0  0  0  0  0  0
    4.0980    2.1130   19.5350 C   0  0  0  0  0  0  0  0  0  0  0  0
    5.3360    0.8000   21.1530 C   0  0  0  0  0  0  0  0  0  0  0  0
    8.3310   -2.7170   25.3430 C   0  0  0  0  0  0  0  0  0  0  0  0
   10.2570   -3.5000   24.1350 C   0  0  0  0  0  0  0  0  0  0  0  0
    8.3510   -1.5420   24.6110 C   0  0  0  0  0  0  0  0  0  0  0  0
   10.2760   -2.3270   23.4020 C   0  0  0  0  0  0  0  0  0  0  0  0
    4.9400    1.7060   18.5060 C   0  0  0  0  0  0  0  0  0  0  0  0
   10.2235    2.9023   23.6242 C   0  0  0  0  0  0  0  0  0  0  0  0
   12.2091    2.6870   22.7043 C   0  0  0  0  0  0  0  0  0  0  0  0
    6.1600    0.3870   20.1140 C   0  0  0  0  0  0  0  0  0  0  0  0
    9.2850   -3.7090   25.1090 C   0  0  0  0  0  0  0  0  0  0  0  0
    9.3300   -1.3350   23.6390 C   0  0  0  0  0  0  0  0  0  0  0  0
   11.1370    1.9470   23.1397 C   0  0  0  0  0  0  0  0  0  0  0  0
    5.9810    0.8330   18.8060 C   0  0  0  0  0  0  0  0  0  0  0  0
    7.2210   -0.4620   20.0350 C   0  0  0  0  0  0  0  0  0  0  0  0
    8.9510    0.1280   21.6880 C   0  0  0  0  0  0  0  0  0  0  0  0
    9.2618   -4.9724   25.8910 C   0  0  0  0  0  0  0  0  0  0  0  0
   12.7031    5.1430   22.6555 C   0  0  0  0  0  0  0  0  0  0  0  0
   10.9777    0.4443   23.1075 C   0  0  0  0  0  0  0  0  0  0  0  0
    9.4200   -0.0840   22.9530 C   0  0  1  0  0  0  0  0  0  0  0  0
   10.6758    4.1536   23.5079 N   0  0  0  0  0  0  0  0  0  0  0  0
    7.6830   -0.5170   18.7600 N   0  0  0  0  0  0  0  0  0  0  0  0
    6.9440    0.2550   18.0100 N   0  0  0  0  0  0  0  0  0  0  0  0
   11.8853    3.9898   22.9453 N   0  0  0  0  0  0  0  0  0  0  0  0
    8.0810   -0.9750   21.0820 N   0  0  0  0  0  0  0  0  0  0  0  0
    9.1870    1.1500   21.0630 O   0  0  0  0  0  0  0  0  0  0  0  0
    3.6274    2.0126   21.6300 H   0  0  0  0  0  0  0  0  0  0  0  0
    3.2732    2.7875   19.3199 H   0  0  0  0  0  0  0  0  0  0  0  0
    5.4878    0.4645   22.1722 H   0  0  0  0  0  0  0  0  0  0  0  0
    7.5655   -2.8644   26.1055 H   0  0  0  0  0  0  0  0  0  0  0  0
   11.0125   -4.2662   23.9435 H   0  0  0  0  0  0  0  0  0  0  0  0
    7.5953   -0.7782   24.7971 H   0  0  0  0  0  0  0  0  0  0  0  0
   11.0394   -2.1837   22.6349 H   0  0  0  0  0  0  0  0  0  0  0  0
    4.7853    2.0674   17.4815 H   0  0  0  0  0  0  0  0  0  0  0  0
    9.2470    2.7411   24.0585 H   0  0  0  0  0  0  0  0  0  0  0  0
   13.1519    2.4044   22.2557 H   0  0  0  0  0  0  0  0  0  0  0  0
    8.6408   -5.7227   25.3864 H   0  0  0  0  0  0  0  0  0  0  0  0
   10.2726   -5.3829   26.0135 H   0  0  0  0  0  0  0  0  0  0  0  0
    8.8606   -4.8102   26.9000 H   0  0  0  0  0  0  0  0  0  0  0  0
   12.4640    5.4803   21.6435 H   0  0  0  0  0  0  0  0  0  0  0  0
   12.4902    5.9323   23.3818 H   0  0  0  0  0  0  0  0  0  0  0  0
   13.7583    4.8651   22.7277 H   0  0  0  0  0  0  0  0  0  0  0  0
   11.5363    0.0387   22.2539 H   0  0  0  0  0  0  0  0  0  0  0  0
   11.4704    0.0336   23.9998 H   0  0  0  0  0  0  0  0  0  0  0  0
    8.9182    0.7194   23.6789 H   0  0  0  0  0  0  0  0  0  0  0  0
    7.1015    0.3608   17.0505 H   0  0  0  0  0  0  0  0  0  0  0  0
    8.1201   -1.8087   21.3560 H   0  0  0  0  0  0  0  0  0  0  0  0
  1  2  1  0  0  0  0
  1  3  2  0  0  0  0
  2  8  2  0  0  0  0
  3 11  1  0  0  0  0
  4  6  2  0  0  0  0
  4 12  1  0  0  0  0
  5  7  1  0  0  0  0
  5 12  2  0  0  0  0
  6 13  1  0  0  0  0
  7 13  2  0  0  0  0
  8 15  1  0  0  0  0
  9 14  1  0  0  0  0
  9 22  2  0  0  0  0
 10 14  2  0  0  0  0
 10 25  1  0  0  0  0
 11 15  2  0  0  0  0
 11 16  1  0  0  0  0
 12 18  1  0  0  0  0
 13 21  1  0  0  0  0
 14 20  1  0  0  0  0
 15 24  1  0  0  0  0
 16 23  2  0  0  0  0
 16 26  1  0  0  0  0
 17 21  1  0  0  0  0
 17 26  1  0  0  0  0
 17 27  2  0  0  0  0
 19 25  1  0  0  0  0
 20 21  1  1  0  0  0
 22 25  1  0  0  0  0
 23 24  1  0  0  0  0
  1 28  1  0  0  0  0
  2 29  1  0  0  0  0
  3 30  1  0  0  0  0
  4 31  1  0  0  0  0
  5 32  1  0  0  0  0
  6 33  1  0  0  0  0
  7 34  1  0  0  0  0
  8 35  1  0  0  0  0
  9 36  1  0  0  0  0
 10 37  1  0  0  0  0
 18 38  1  0  0  0  0
 18 39  1  0  0  0  0
 18 40  1  0  0  0  0
 19 41  1  0  0  0  0
 19 42  1  0  0  0  0
 19 43  1  0  0  0  0
 20 44  1  0  0  0  0
 20 45  1  0  0  0  0
 21 46  1  0  0  0  0
 24 47  1  0  0  0  0
 26 48  1  0  0  0  0
M  END
> <clash_score>
0

> <docking_score>
-10.19325065612793

> <overlap_score>
0.896013617515564

$$$$
BENZO_238_2
  -OEChem-08232013493D

 48 51  0     1  0  0  0  0  0999 V2000
    4.2970    1.6690   20.8430 C   0  0  0  0  0  0  0  0  0  0  0  0
    4.0980    2.1130   19.5350 C   0  0  0  0  0  0  0  0  0  0  0  0
    9.3211    4.8553   24.0536 C   0  0  0  0  0  0  0  0  0  0  0  0
    5.3360    0.8000   21.1530 C   0  0  0  0  0  0  0  0  0  0  0  0
    8.7511    3.5884   24.1784 C   0  0  0  0  0  0  0  0  0  0  0  0
    8.3310   -2.7170   25.3430 C   0  0  0  0  0  0  0  0  0  0  0  0
   10.2570   -3.5000   24.1350 C   0  0  0  0  0  0  0  0  0  0  0  0
    8.3510   -1.5420   24.6110 C   0  0  0  0  0  0  0  0  0  0  0  0
   10.2760   -2.3270   23.4020 C   0  0  0  0  0  0  0  0  0  0  0  0
    4.9400    1.7060   18.5060 C   0  0  0  0  0  0  0  0  0  0  0  0
   10.6349    4.9878   23.6043 C   0  0  0  0  0  0  0  0  0  0  0  0
   10.8089    2.5864   23.4046 C   0  0  0  0  0  0  0  0  0  0  0  0
    6.1600    0.3870   20.1140 C   0  0  0  0  0  0  0  0  0  0  0  0
    9.2850   -3.7090   25.1090 C   0  0  0  0  0  0  0  0  0  0  0  0
    9.3300   -1.3350   23.6390 C   0  0  0  0  0  0  0  0  0  0  0  0
    9.4950    2.4539   23.8539 C   0  0  0  0  0  0  0  0  0  0  0  0
    5.9810    0.8330   18.8060 C   0  0  0  0  0  0  0  0  0  0  0  0
   11.3788    3.8534   23.2798 C   0  0  0  0  0  0  0  0  0  0  0  0
    7.2210   -0.4620   20.0350 C   0  0  0  0  0  0  0  0  0  0  0  0
    8.9510    0.1280   21.6880 C   0  0  0  0  0  0  0  0  0  0  0  0
    9.2618   -4.9724   25.8910 C   0  0  0  0  0  0  0  0  0  0  0  0
    8.8771    1.0813   23.9905 C   0  0  0  0  0  0  0  0  0  0  0  0
    9.4200   -0.0840   22.9530 C   0  0  2  0  0  0  0  0  0  0  0  0
    7.6830   -0.5170   18.7600 N   0  0  0  0  0  0  0  0  0  0  0  0
    6.9440    0.2550   18.0100 N   0  0  0  0  0  0  0  0  0  0  0  0
    8.0810   -0.9750   21.0820 N   0  0  0  0  0  0  0  0  0  0  0  0
    9.1870    1.1500   21.0630 O   0  0  0  0  0  0  0  0  0  0  0  0
   13.0002    4.0175   22.7265 Cl  0  0  0  0  0  0  0  0  0  0  0  0
    3.6274    2.0126   21.6300 H   0  0  0  0  0  0  0  0  0  0  0  0
    3.2732    2.7875   19.3199 H   0  0  0  0  0  0  0  0  0  0  0  0
    8.7415    5.7384   24.3065 H   0  0  0  0  0  0  0  0  0  0  0  0
    5.4878    0.4645   22.1722 H   0  0  0  0  0  0  0  0  0  0  0  0
    7.7267    3.4945   24.5294 H   0  0  0  0  0  0  0  0  0  0  0  0
    7.5655   -2.8644   26.1055 H   0  0  0  0  0  0  0  0  0  0  0  0
   11.0125   -4.2662   23.9435 H   0  0  0  0  0  0  0  0  0  0  0  0
    7.5953   -0.7782   24.7971 H   0  0  0  0  0  0  0  0  0  0  0  0
   11.0394   -2.1837   22.6349 H   0  0  0  0  0  0  0  0  0  0  0  0
    4.7853    2.0674   17.4815 H   0  0  0  0  0  0  0  0  0  0  0  0
   11.0663    5.9816   23.5122 H   0  0  0  0  0  0  0  0  0  0  0  0
   11.3846    1.6989   23.1523 H   0  0  0  0  0  0  0  0  0  0  0  0
    8.6408   -5.7227   25.3864 H   0  0  0  0  0  0  0  0  0  0  0  0
   10.2726   -5.3829   26.0135 H   0  0  0  0  0  0  0  0  0  0  0  0
    8.8606   -4.8102   26.9000 H   0  0  0  0  0  0  0  0  0  0  0  0
    8.9708    0.7434   25.0308 H   0  0  0  0  0  0  0  0  0  0  0  0
    7.7972    1.1781   23.8117 H   0  0  0  0  0  0  0  0  0  0  0  0
   10.5743    0.2174   22.9808 H   0  0  0  0  0  0  0  0  0  0  0  0
    7.1015    0.3608   17.0505 H   0  0  0  0  0  0  0  0  0  0  0  0
    8.1201   -1.8087   21.3560 H   0  0  0  0  0  0  0  0  0  0  0  0
  1  2  1  0  0  0  0
  1  4  2  0  0  0  0
  2 10  2  0  0  0  0
  3  5  2  0  0  0  0
  3 11  1  0  0  0  0
  4 13  1  0  0  0  0
  5 16  1  0  0  0  0
  6  8  2  0  0  0  0
  6 14  1  0  0  0  0
  7  9  1  0  0  0  0
  7 14  2  0  0  0  0
  8 15  1  0  0  0  0
  9 15  2  0  0  0  0
 10 17  1  0  0  0  0
 11 18  2  0  0  0  0
 12 16  2  0  0  0  0
 12 18  1  0  0  0  0
 13 17  2  0  0  0  0
 13 19  1  0  0  0  0
 14 21  1  0  0  0  0
 15 23  1  0  0  0  0
 16 22  1  0  0  0  0
 17 25  1  0  0  0  0
 18 28  1  0  0  0  0
 19 24  2  0  0  0  0
 19 26  1  0  0  0  0
 20 23  1  0  0  0  0
 20 26  1  0  0  0  0
 20 27  2  0  0  0  0
 22 23  1  6  0  0  0
 24 25  1  0  0  0  0
  1 29  1  0  0  0  0
  2 30  1  0  0  0  0
  3 31  1  0  0  0  0
  4 32  1  0  0  0  0
  5 33  1  0  0  0  0
  6 34  1  0  0  0  0
  7 35  1  0  0  0  0
  8 36  1  0  0  0  0
  9 37  1  0  0  0  0
 10 38  1  0  0  0  0
 11 39  1  0  0  0  0
 12 40  1  0  0  0  0
 21 41  1  0  0  0  0
 21 42  1  0  0  0  0
 21 43  1  0  0  0  0
 22 44  1  0  0  0  0
 22 45  1  0  0  0  0
 23 46  1  0  0  0  0
 25 47  1  0  0  0  0
 26 48  1  0  0  0  0
M  END
> <clash_score>
0

> <docking_score>
-9.656688690185547

> <overlap_score>
0.8375335931777954

$$$$
BENZO_239_2
  -OEChem-08232013493D

 48 51  0     1  0  0  0  0  0999 V2000
    4.2970    1.6690   20.8430 C   0  0  0  0  0  0  0  0  0  0  0  0
    4.0980    2.1130   19.5350 C   0  0  0  0  0  0  0  0  0  0  0  0
    5.3360    0.8000   21.1530 C   0  0  0  0  0  0  0  0  0  0  0  0
    8.3310   -2.7170   25.3430 C   0  0  0  0  0  0  0  0  0  0  0  0
   10.2570   -3.5000   24.1350 C   0  0  0  0  0  0  0  0  0  0  0  0
    8.3510   -1.5420   24.6110 C   0  0  0  0  0  0  0  0  0  0  0  0
   10.2760   -2.3270   23.4020 C   0  0  0  0  0  0  0  0  0  0  0  0
    4.9400    1.7060   18.5060 C   0  0  0  0  0  0  0  0  0  0  0  0
   10.7939    2.7770   23.4177 C   0  0  0  0  0  0  0  0  0  0  0  0
    8.9123    3.6676   24.1257 C   0  0  0  0  0  0  0  0  0  0  0  0
    6.1600    0.3870   20.1140 C   0  0  0  0  0  0  0  0  0  0  0  0
    9.2850   -3.7090   25.1090 C   0  0  0  0  0  0  0  0  0  0  0  0
    9.3300   -1.3350   23.6390 C   0  0  0  0  0  0  0  0  0  0  0  0
    9.4950    2.4539   23.8539 C   0  0  0  0  0  0  0  0  0  0  0  0
    5.9810    0.8330   18.8060 C   0  0  0  0  0  0  0  0  0  0  0  0
    7.2210   -0.4620   20.0350 C   0  0  0  0  0  0  0  0  0  0  0  0
    8.9510    0.1280   21.6880 C   0  0  0  0  0  0  0  0  0  0  0  0
    9.2618   -4.9724   25.8910 C   0  0  0  0  0  0  0  0  0  0  0  0
    9.7138    6.0371   23.9775 C   0  0  0  0  0  0  0  0  0  0  0  0
    8.8771    1.0813   23.9905 C   0  0  0  0  0  0  0  0  0  0  0  0
    9.4200   -0.0840   22.9530 C   0  0  2  0  0  0  0  0  0  0  0  0
   11.0232    4.0928   23.4110 N   0  0  0  0  0  0  0  0  0  0  0  0
    7.6830   -0.5170   18.7600 N   0  0  0  0  0  0  0  0  0  0  0  0
    6.9440    0.2550   18.0100 N   0  0  0  0  0  0  0  0  0  0  0  0
    9.8605    4.6073   23.8463 N   0  0  0  0  0  0  0  0  0  0  0  0
    8.0810   -0.9750   21.0820 N   0  0  0  0  0  0  0  0  0  0  0  0
    9.1870    1.1500   21.0630 O   0  0  0  0  0  0  0  0  0  0  0  0
    3.6274    2.0126   21.6300 H   0  0  0  0  0  0  0  0  0  0  0  0
    3.2732    2.7875   19.3199 H   0  0  0  0  0  0  0  0  0  0  0  0
    5.4878    0.4645   22.1722 H   0  0  0  0  0  0  0  0  0  0  0  0
    7.5655   -2.8644   26.1055 H   0  0  0  0  0  0  0  0  0  0  0  0
   11.0125   -4.2662   23.9435 H   0  0  0  0  0  0  0  0  0  0  0  0
    7.5953   -0.7782   24.7971 H   0  0  0  0  0  0  0  0  0  0  0  0
   11.0394   -2.1837   22.6349 H   0  0  0  0  0  0  0  0  0  0  0  0
    4.7853    2.0674   17.4815 H   0  0  0  0  0  0  0  0  0  0  0  0
   11.5843    2.1103   23.1031 H   0  0  0  0  0  0  0  0  0  0  0  0
    7.9277    3.9360   24.4839 H   0  0  0  0  0  0  0  0  0  0  0  0
    8.6408   -5.7227   25.3864 H   0  0  0  0  0  0  0  0  0  0  0  0
   10.2726   -5.3829   26.0135 H   0  0  0  0  0  0  0  0  0  0  0  0
    8.8606   -4.8102   26.9000 H   0  0  0  0  0  0  0  0  0  0  0  0
   10.0225    6.3165   24.9883 H   0  0  0  0  0  0  0  0  0  0  0  0
   10.3410    6.5371   23.2342 H   0  0  0  0  0  0  0  0  0  0  0  0
    8.6688    6.3103   23.8064 H   0  0  0  0  0  0  0  0  0  0  0  0
    8.9708    0.7434   25.0308 H   0  0  0  0  0  0  0  0  0  0  0  0
    7.7972    1.1781   23.8117 H   0  0  0  0  0  0  0  0  0  0  0  0
   10.5743    0.2174   22.9808 H   0  0  0  0  0  0  0  0  0  0  0  0
    7.1015    0.3608   17.0505 H   0  0  0  0  0  0  0  0  0  0  0  0
    8.1201   -1.8087   21.3560 H   0  0  0  0  0  0  0  0  0  0  0  0
  1  2  1  0  0  0  0
  1  3  2  0  0  0  0
  2  8  2  0  0  0  0
  3 11  1  0  0  0  0
  4  6  2  0  0  0  0
  4 12  1  0  0  0  0
  5  7  1  0  0  0  0
  5 12  2  0  0  0  0
  6 13  1  0  0  0  0
  7 13  2  0  0  0  0
  8 15  1  0  0  0  0
  9 14  1  0  0  0  0
  9 22  2  0  0  0  0
 10 14  2  0  0  0  0
 10 25  1  0  0  0  0
 11 15  2  0  0  0  0
 11 16  1  0  0  0  0
 12 18  1  0  0  0  0
 13 21  1  0  0  0  0
 14 20  1  0  0  0  0
 15 24  1  0  0  0  0
 16 23  2  0  0  0  0
 16 26  1  0  0  0  0
 17 21  1  0  0  0  0
 17 26  1  0  0  0  0
 17 27  2  0  0  0  0
 19 25  1  0  0  0  0
 20 21  1  6  0  0  0
 22 25  1  0  0  0  0
 23 24  1  0  0  0  0
  1 28  1  0  0  0  0
  2 29  1  0  0  0  0
  3 30  1  0  0  0  0
  4 31  1  0  0  0  0
  5 32  1  0  0  0  0
  6 33  1  0  0  0  0
  7 34  1  0  0  0  0
  8 35  1  0  0  0  0
  9 36  1  0  0  0  0
 10 37  1  0  0  0  0
 18 38  1  0  0  0  0
 18 39  1  0  0  0  0
 18 40  1  0  0  0  0
 19 41  1  0  0  0  0
 19 42  1  0  0  0  0
 19 43  1  0  0  0  0
 20 44  1  0  0  0  0
 20 45  1  0  0  0  0
 21 46  1  0  0  0  0
 24 47  1  0  0  0  0
 26 48  1  0  0  0  0
M  END
> <clash_score>
0

> <docking_score>
-8.99756145477295

> <overlap_score>
0.8224518299102783

$$$$
BENZO_241_1
  -OEChem-08232013493D

 49 52  0     1  0  0  0  0  0999 V2000
   11.4296    4.7207   23.1993 C   0  0  0  0  0  0  0  0  0  0  0  0
    4.2970    1.6690   20.8430 C   0  0  0  0  0  0  0  0  0  0  0  0
   12.4494    3.9228   22.6806 C   0  0  0  0  0  0  0  0  0  0  0  0
   10.2636    4.1317   23.6883 C   0  0  0  0  0  0  0  0  0  0  0  0
    4.0980    2.1130   19.5350 C   0  0  0  0  0  0  0  0  0  0  0  0
    5.3360    0.8000   21.1530 C   0  0  0  0  0  0  0  0  0  0  0  0
   12.3031    2.5360   22.6508 C   0  0  0  0  0  0  0  0  0  0  0  0
   10.1173    2.7449   23.6585 C   0  0  0  0  0  0  0  0  0  0  0  0
    8.3510   -1.5420   24.6110 C   0  0  0  0  0  0  0  0  0  0  0  0
   10.2760   -2.3270   23.4020 C   0  0  0  0  0  0  0  0  0  0  0  0
    4.9400    1.7060   18.5060 C   0  0  0  0  0  0  0  0  0  0  0  0
    8.3310   -2.7170   25.3430 C   0  0  0  0  0  0  0  0  0  0  0  0
   10.2570   -3.5000   24.1350 C   0  0  0  0  0  0  0  0  0  0  0  0
    6.1600    0.3870   20.1140 C   0  0  0  0  0  0  0  0  0  0  0  0
   11.1370    1.9470   23.1397 C   0  0  0  0  0  0  0  0  0  0  0  0
    9.3300   -1.3350   23.6390 C   0  0  0  0  0  0  0  0  0  0  0  0
    5.9810    0.8330   18.8060 C   0  0  0  0  0  0  0  0  0  0  0  0
    9.2850   -3.7090   25.1090 C   0  0  0  0  0  0  0  0  0  0  0  0
    7.2210   -0.4620   20.0350 C   0  0  0  0  0  0  0  0  0  0  0  0
    8.9510    0.1280   21.6880 C   0  0  0  0  0  0  0  0  0  0  0  0
    8.2361   -4.9968   26.8044 C   0  0  0  0  0  0  0  0  0  0  0  0
   10.9777    0.4443   23.1075 C   0  0  0  0  0  0  0  0  0  0  0  0
    9.4200   -0.0840   22.9530 C   0  0  1  0  0  0  0  0  0  0  0  0
    7.6830   -0.5170   18.7600 N   0  0  0  0  0  0  0  0  0  0  0  0
    6.9440    0.2550   18.0100 N   0  0  0  0  0  0  0  0  0  0  0  0
    8.0810   -0.9750   21.0820 N   0  0  0  0  0  0  0  0  0  0  0  0
    9.1870    1.1500   21.0630 O   0  0  0  0  0  0  0  0  0  0  0  0
    9.2637   -4.8607   25.8240 O   0  0  0  0  0  0  0  0  0  0  0  0
   11.5443    5.8005   23.2237 H   0  0  0  0  0  0  0  0  0  0  0  0
    3.6274    2.0126   21.6300 H   0  0  0  0  0  0  0  0  0  0  0  0
   13.3579    4.3812   22.3008 H   0  0  0  0  0  0  0  0  0  0  0  0
    9.4699    4.7525   24.0932 H   0  0  0  0  0  0  0  0  0  0  0  0
    3.2732    2.7875   19.3199 H   0  0  0  0  0  0  0  0  0  0  0  0
    5.4878    0.4645   22.1722 H   0  0  0  0  0  0  0  0  0  0  0  0
   13.1028    1.9222   22.2446 H   0  0  0  0  0  0  0  0  0  0  0  0
    9.2052    2.2948   24.0416 H   0  0  0  0  0  0  0  0  0  0  0  0
    7.5962   -0.7776   24.7980 H   0  0  0  0  0  0  0  0  0  0  0  0
   11.0395   -2.1844   22.6346 H   0  0  0  0  0  0  0  0  0  0  0  0
    4.7853    2.0674   17.4815 H   0  0  0  0  0  0  0  0  0  0  0  0
    7.5664   -2.8672   26.1058 H   0  0  0  0  0  0  0  0  0  0  0  0
   11.0120   -4.2666   23.9463 H   0  0  0  0  0  0  0  0  0  0  0  0
    8.3330   -5.9643   27.3030 H   0  0  0  0  0  0  0  0  0  0  0  0
    7.2584   -4.9198   26.3219 H   0  0  0  0  0  0  0  0  0  0  0  0
    8.3402   -4.1974   27.5418 H   0  0  0  0  0  0  0  0  0  0  0  0
   11.5363    0.0387   22.2539 H   0  0  0  0  0  0  0  0  0  0  0  0
   11.4704    0.0336   23.9998 H   0  0  0  0  0  0  0  0  0  0  0  0
    8.9182    0.7194   23.6789 H   0  0  0  0  0  0  0  0  0  0  0  0
    7.1015    0.3608   17.0505 H   0  0  0  0  0  0  0  0  0  0  0  0
    8.1201   -1.8087   21.3560 H   0  0  0  0  0  0  0  0  0  0  0  0
  1  3  1  0  0  0  0
  1  4  2  0  0  0  0
  2  5  1  0  0  0  0
  2  6  2  0  0  0  0
  3  7  2  0  0  0  0
  4  8  1  0  0  0  0
  5 11  2  0  0  0  0
  6 14  1  0  0  0  0
  7 15  1  0  0  0  0
  8 15  2  0  0  0  0
  9 12  2  0  0  0  0
  9 16  1  0  0  0  0
 10 13  1  0  0  0  0
 10 16  2  0  0  0  0
 11 17  1  0  0  0  0
 12 18  1  0  0  0  0
 13 18  2  0  0  0  0
 14 17  2  0  0  0  0
 14 19  1  0  0  0  0
 15 22  1  0  0  0  0
 16 23  1  0  0  0  0
 17 25  1  0  0  0  0
 18 28  1  0  0  0  0
 19 24  2  0  0  0  0
 19 26  1  0  0  0  0
 20 23  1  0  0  0  0
 20 26  1  0  0  0  0
 20 27  2  0  0  0  0
 21 28  1  0  0  0  0
 22 23  1  1  0  0  0
 24 25  1  0  0  0  0
  1 29  1  0  0  0  0
  2 30  1  0  0  0  0
  3 31  1  0  0  0  0
  4 32  1  0  0  0  0
  5 33  1  0  0  0  0
  6 34  1  0  0  0  0
  7 35  1  0  0  0  0
  8 36  1  0  0  0  0
  9 37  1  0  0  0  0
 10 38  1  0  0  0  0
 11 39  1  0  0  0  0
 12 40  1  0  0  0  0
 13 41  1  0  0  0  0
 21 42  1  0  0  0  0
 21 43  1  0  0  0  0
 21 44  1  0  0  0  0
 22 45  1  0  0  0  0
 22 46  1  0  0  0  0
 23 47  1  0  0  0  0
 25 48  1  0  0  0  0
 26 49  1  0  0  0  0
M  END
> <clash_score>
0

> <docking_score>
-9.94521427154541

> <overlap_score>
0.9255406260490417

$$$$
BENZO_241_2
  -OEChem-08232013493D

 49 52  0     1  0  0  0  0  0999 V2000
   10.6367    4.9868   23.6018 C   0  0  0  0  0  0  0  0  0  0  0  0
    4.2970    1.6690   20.8430 C   0  0  0  0  0  0  0  0  0  0  0  0
    9.3228    4.8557   24.0511 C   0  0  0  0  0  0  0  0  0  0  0  0
   11.3798    3.8515   23.2784 C   0  0  0  0  0  0  0  0  0  0  0  0
    4.0980    2.1130   19.5350 C   0  0  0  0  0  0  0  0  0  0  0  0
    5.3360    0.8000   21.1530 C   0  0  0  0  0  0  0  0  0  0  0  0
    8.7519    3.5893   24.1772 C   0  0  0  0  0  0  0  0  0  0  0  0
   10.8090    2.5851   23.4045 C   0  0  0  0  0  0  0  0  0  0  0  0
    8.3510   -1.5420   24.6110 C   0  0  0  0  0  0  0  0  0  0  0  0
   10.2760   -2.3270   23.4020 C   0  0  0  0  0  0  0  0  0  0  0  0
    4.9400    1.7060   18.5060 C   0  0  0  0  0  0  0  0  0  0  0  0
    8.3310   -2.7170   25.3430 C   0  0  0  0  0  0  0  0  0  0  0  0
   10.2570   -3.5000   24.1350 C   0  0  0  0  0  0  0  0  0  0  0  0
    6.1600    0.3870   20.1140 C   0  0  0  0  0  0  0  0  0  0  0  0
    9.4950    2.4539   23.8539 C   0  0  0  0  0  0  0  0  0  0  0  0
    9.3300   -1.3350   23.6390 C   0  0  0  0  0  0  0  0  0  0  0  0
    5.9810    0.8330   18.8060 C   0  0  0  0  0  0  0  0  0  0  0  0
    9.2850   -3.7090   25.1090 C   0  0  0  0  0  0  0  0  0  0  0  0
    7.2210   -0.4620   20.0350 C   0  0  0  0  0  0  0  0  0  0  0  0
    8.9510    0.1280   21.6880 C   0  0  0  0  0  0  0  0  0  0  0  0
    8.2361   -4.9968   26.8044 C   0  0  0  0  0  0  0  0  0  0  0  0
    8.8771    1.0813   23.9905 C   0  0  0  0  0  0  0  0  0  0  0  0
    9.4200   -0.0840   22.9530 C   0  0  2  0  0  0  0  0  0  0  0  0
    7.6830   -0.5170   18.7600 N   0  0  0  0  0  0  0  0  0  0  0  0
    6.9440    0.2550   18.0100 N   0  0  0  0  0  0  0  0  0  0  0  0
    8.0810   -0.9750   21.0820 N   0  0  0  0  0  0  0  0  0  0  0  0
    9.1870    1.1500   21.0630 O   0  0  0  0  0  0  0  0  0  0  0  0
    9.2637   -4.8607   25.8240 O   0  0  0  0  0  0  0  0  0  0  0  0
   11.0806    5.9731   23.5024 H   0  0  0  0  0  0  0  0  0  0  0  0
    3.6274    2.0126   21.6300 H   0  0  0  0  0  0  0  0  0  0  0  0
    8.7437    5.7397   24.3019 H   0  0  0  0  0  0  0  0  0  0  0  0
   12.4025    3.9533   22.9274 H   0  0  0  0  0  0  0  0  0  0  0  0
    3.2732    2.7875   19.3199 H   0  0  0  0  0  0  0  0  0  0  0  0
    5.4878    0.4645   22.1722 H   0  0  0  0  0  0  0  0  0  0  0  0
    7.7275    3.4967   24.5283 H   0  0  0  0  0  0  0  0  0  0  0  0
   11.3955    1.7061   23.1503 H   0  0  0  0  0  0  0  0  0  0  0  0
    7.5962   -0.7776   24.7980 H   0  0  0  0  0  0  0  0  0  0  0  0
   11.0395   -2.1844   22.6346 H   0  0  0  0  0  0  0  0  0  0  0  0
    4.7853    2.0674   17.4815 H   0  0  0  0  0  0  0  0  0  0  0  0
    7.5664   -2.8672   26.1058 H   0  0  0  0  0  0  0  0  0  0  0  0
   11.0120   -4.2666   23.9463 H   0  0  0  0  0  0  0  0  0  0  0  0
    8.3330   -5.9643   27.3030 H   0  0  0  0  0  0  0  0  0  0  0  0
    7.2584   -4.9198   26.3219 H   0  0  0  0  0  0  0  0  0  0  0  0
    8.3402   -4.1974   27.5418 H   0  0  0  0  0  0  0  0  0  0  0  0
    8.9708    0.7434   25.0308 H   0  0  0  0  0  0  0  0  0  0  0  0
    7.7972    1.1781   23.8117 H   0  0  0  0  0  0  0  0  0  0  0  0
   10.5743    0.2174   22.9808 H   0  0  0  0  0  0  0  0  0  0  0  0
    7.1015    0.3608   17.0505 H   0  0  0  0  0  0  0  0  0  0  0  0
    8.1201   -1.8087   21.3560 H   0  0  0  0  0  0  0  0  0  0  0  0
  1  3  1  0  0  0  0
  1  4  2  0  0  0  0
  2  5  1  0  0  0  0
  2  6  2  0  0  0  0
  3  7  2  0  0  0  0
  4  8  1  0  0  0  0
  5 11  2  0  0  0  0
  6 14  1  0  0  0  0
  7 15  1  0  0  0  0
  8 15  2  0  0  0  0
  9 12  2  0  0  0  0
  9 16  1  0  0  0  0
 10 13  1  0  0  0  0
 10 16  2  0  0  0  0
 11 17  1  0  0  0  0
 12 18  1  0  0  0  0
 13 18  2  0  0  0  0
 14 17  2  0  0  0  0
 14 19  1  0  0  0  0
 15 22  1  0  0  0  0
 16 23  1  0  0  0  0
 17 25  1  0  0  0  0
 18 28  1  0  0  0  0
 19 24  2  0  0  0  0
 19 26  1  0  0  0  0
 20 23  1  0  0  0  0
 20 26  1  0  0  0  0
 20 27  2  0  0  0  0
 21 28  1  0  0  0  0
 22 23  1  6  0  0  0
 24 25  1  0  0  0  0
  1 29  1  0  0  0  0
  2 30  1  0  0  0  0
  3 31  1  0  0  0  0
  4 32  1  0  0  0  0
  5 33  1  0  0  0  0
  6 34  1  0  0  0  0
  7 35  1  0  0  0  0
  8 36  1  0  0  0  0
  9 37  1  0  0  0  0
 10 38  1  0  0  0  0
 11 39  1  0  0  0  0
 12 40  1  0  0  0  0
 13 41  1  0  0  0  0
 21 42  1  0  0  0  0
 21 43  1  0  0  0  0
 21 44  1  0  0  0  0
 22 45  1  0  0  0  0
 22 46  1  0  0  0  0
 23 47  1  0  0  0  0
 25 48  1  0  0  0  0
 26 49  1  0  0  0  0
M  END
> <clash_score>
0

> <docking_score>
-8.830580711364746

> <overlap_score>
0.8538739681243896

$$$$
BENZO_240_1
  -OEChem-08232013493D

 46 49  0     1  0  0  0  0  0999 V2000
    4.2970    1.6690   20.8430 C   0  0  0  0  0  0  0  0  0  0  0  0
    4.0980    2.1130   19.5350 C   0  0  0  0  0  0  0  0  0  0  0  0
    5.3360    0.8000   21.1530 C   0  0  0  0  0  0  0  0  0  0  0  0
    8.3510   -1.5420   24.6110 C   0  0  0  0  0  0  0  0  0  0  0  0
   10.2760   -2.3270   23.4020 C   0  0  0  0  0  0  0  0  0  0  0  0
    4.9400    1.7060   18.5060 C   0  0  0  0  0  0  0  0  0  0  0  0
    8.3310   -2.7170   25.3430 C   0  0  0  0  0  0  0  0  0  0  0  0
   10.2570   -3.5000   24.1350 C   0  0  0  0  0  0  0  0  0  0  0  0
   11.9019    2.6854   22.1912 C   0  0  0  0  0  0  0  0  0  0  0  0
   11.8820    4.0381   22.4508 C   0  0  0  0  0  0  0  0  0  0  0  0
   10.5617    2.7635   24.0885 C   0  0  0  0  0  0  0  0  0  0  0  0
    6.1600    0.3870   20.1140 C   0  0  0  0  0  0  0  0  0  0  0  0
    9.3300   -1.3350   23.6390 C   0  0  0  0  0  0  0  0  0  0  0  0
   11.1370    1.9470   23.1397 C   0  0  0  0  0  0  0  0  0  0  0  0
    5.9810    0.8330   18.8060 C   0  0  0  0  0  0  0  0  0  0  0  0
    9.2850   -3.7090   25.1090 C   0  0  0  0  0  0  0  0  0  0  0  0
    7.2210   -0.4620   20.0350 C   0  0  0  0  0  0  0  0  0  0  0  0
    8.9510    0.1280   21.6880 C   0  0  0  0  0  0  0  0  0  0  0  0
    8.2361   -4.9968   26.8044 C   0  0  0  0  0  0  0  0  0  0  0  0
   10.9777    0.4443   23.1075 C   0  0  0  0  0  0  0  0  0  0  0  0
    9.4200   -0.0840   22.9530 C   0  0  1  0  0  0  0  0  0  0  0  0
    7.6830   -0.5170   18.7600 N   0  0  0  0  0  0  0  0  0  0  0  0
    6.9440    0.2550   18.0100 N   0  0  0  0  0  0  0  0  0  0  0  0
    8.0810   -0.9750   21.0820 N   0  0  0  0  0  0  0  0  0  0  0  0
    9.1870    1.1500   21.0630 O   0  0  0  0  0  0  0  0  0  0  0  0
    9.2637   -4.8607   25.8240 O   0  0  0  0  0  0  0  0  0  0  0  0
   10.9440    4.4131   23.8336 S   0  0  0  0  0  0  0  0  0  0  0  0
    3.6274    2.0126   21.6300 H   0  0  0  0  0  0  0  0  0  0  0  0
    3.2732    2.7875   19.3199 H   0  0  0  0  0  0  0  0  0  0  0  0
    5.4878    0.4645   22.1722 H   0  0  0  0  0  0  0  0  0  0  0  0
    7.5962   -0.7776   24.7980 H   0  0  0  0  0  0  0  0  0  0  0  0
   11.0395   -2.1844   22.6346 H   0  0  0  0  0  0  0  0  0  0  0  0
    4.7853    2.0674   17.4815 H   0  0  0  0  0  0  0  0  0  0  0  0
    7.5664   -2.8672   26.1058 H   0  0  0  0  0  0  0  0  0  0  0  0
   11.0120   -4.2666   23.9463 H   0  0  0  0  0  0  0  0  0  0  0  0
   12.4414    2.2505   21.3593 H   0  0  0  0  0  0  0  0  0  0  0  0
   12.3738    4.8240   21.8953 H   0  0  0  0  0  0  0  0  0  0  0  0
    9.9357    2.4743   24.9213 H   0  0  0  0  0  0  0  0  0  0  0  0
    8.3330   -5.9643   27.3030 H   0  0  0  0  0  0  0  0  0  0  0  0
    7.2584   -4.9198   26.3219 H   0  0  0  0  0  0  0  0  0  0  0  0
    8.3402   -4.1974   27.5418 H   0  0  0  0  0  0  0  0  0  0  0  0
   11.5363    0.0387   22.2539 H   0  0  0  0  0  0  0  0  0  0  0  0
   11.4704    0.0336   23.9998 H   0  0  0  0  0  0  0  0  0  0  0  0
    8.9182    0.7194   23.6789 H   0  0  0  0  0  0  0  0  0  0  0  0
    7.1015    0.3608   17.0505 H   0  0  0  0  0  0  0  0  0  0  0  0
    8.1201   -1.8087   21.3560 H   0  0  0  0  0  0  0  0  0  0  0  0
  1  2  1  0  0  0  0
  1  3  2  0  0  0  0
  2  6  2  0  0  0  0
  3 12  1  0  0  0  0
  4  7  2  0  0  0  0
  4 13  1  0  0  0  0
  5  8  1  0  0  0  0
  5 13  2  0  0  0  0
  6 15  1  0  0  0  0
  7 16  1  0  0  0  0
  8 16  2  0  0  0  0
  9 10  2  0  0  0  0
  9 14  1  0  0  0  0
 10 27  1  0  0  0  0
 11 14  2  0  0  0  0
 11 27  1  0  0  0  0
 12 15  2  0  0  0  0
 12 17  1  0  0  0  0
 13 21  1  0  0  0  0
 14 20  1  0  0  0  0
 15 23  1  0  0  0  0
 16 26  1  0  0  0  0
 17 22  2  0  0  0  0
 17 24  1  0  0  0  0
 18 21  1  0  0  0  0
 18 24  1  0  0  0  0
 18 25  2  0  0  0  0
 19 26  1  0  0  0  0
 20 21  1  1  0  0  0
 22 23  1  0  0  0  0
  1 28  1  0  0  0  0
  2 29  1  0  0  0  0
  3 30  1  0  0  0  0
  4 31  1  0  0  0  0
  5 32  1  0  0  0  0
  6 33  1  0  0  0  0
  7 34  1  0  0  0  0
  8 35  1  0  0  0  0
  9 36  1  0  0  0  0
 10 37  1  0  0  0  0
 11 38  1  0  0  0  0
 19 39  1  0  0  0  0
 19 40  1  0  0  0  0
 19 41  1  0  0  0  0
 20 42  1  0  0  0  0
 20 43  1  0  0  0  0
 21 44  1  0  0  0  0
 23 45  1  0  0  0  0
 24 46  1  0  0  0  0
M  END
> <clash_score>
0

> <docking_score>
-8.486401557922363

> <overlap_score>
0.914577305316925

$$$$
BENZO_240_2
  -OEChem-08232013493D

 46 49  0     1  0  0  0  0  0999 V2000
    4.2970    1.6690   20.8430 C   0  0  0  0  0  0  0  0  0  0  0  0
    4.0980    2.1130   19.5350 C   0  0  0  0  0  0  0  0  0  0  0  0
    5.3360    0.8000   21.1530 C   0  0  0  0  0  0  0  0  0  0  0  0
    8.3510   -1.5420   24.6110 C   0  0  0  0  0  0  0  0  0  0  0  0
   10.2760   -2.3270   23.4020 C   0  0  0  0  0  0  0  0  0  0  0  0
    4.9400    1.7060   18.5060 C   0  0  0  0  0  0  0  0  0  0  0  0
    8.3310   -2.7170   25.3430 C   0  0  0  0  0  0  0  0  0  0  0  0
   10.2570   -3.5000   24.1350 C   0  0  0  0  0  0  0  0  0  0  0  0
   10.8633    2.6804   23.5273 C   0  0  0  0  0  0  0  0  0  0  0  0
   11.1655    4.0230   23.4669 C   0  0  0  0  0  0  0  0  0  0  0  0
    8.8035    3.6322   24.0309 C   0  0  0  0  0  0  0  0  0  0  0  0
    6.1600    0.3870   20.1140 C   0  0  0  0  0  0  0  0  0  0  0  0
    9.3300   -1.3350   23.6390 C   0  0  0  0  0  0  0  0  0  0  0  0
    9.4950    2.4539   23.8539 C   0  0  0  0  0  0  0  0  0  0  0  0
    5.9810    0.8330   18.8060 C   0  0  0  0  0  0  0  0  0  0  0  0
    9.2850   -3.7090   25.1090 C   0  0  0  0  0  0  0  0  0  0  0  0
    7.2210   -0.4620   20.0350 C   0  0  0  0  0  0  0  0  0  0  0  0
    8.9510    0.1280   21.6880 C   0  0  0  0  0  0  0  0  0  0  0  0
    8.2361   -4.9968   26.8044 C   0  0  0  0  0  0  0  0  0  0  0  0
    8.8771    1.0813   23.9905 C   0  0  0  0  0  0  0  0  0  0  0  0
    9.4200   -0.0840   22.9530 C   0  0  2  0  0  0  0  0  0  0  0  0
    7.6830   -0.5170   18.7600 N   0  0  0  0  0  0  0  0  0  0  0  0
    6.9440    0.2550   18.0100 N   0  0  0  0  0  0  0  0  0  0  0  0
    8.0810   -0.9750   21.0820 N   0  0  0  0  0  0  0  0  0  0  0  0
    9.1870    1.1500   21.0630 O   0  0  0  0  0  0  0  0  0  0  0  0
    9.2637   -4.8607   25.8240 O   0  0  0  0  0  0  0  0  0  0  0  0
    9.8028    5.0040   23.8033 S   0  0  0  0  0  0  0  0  0  0  0  0
    3.6274    2.0126   21.6300 H   0  0  0  0  0  0  0  0  0  0  0  0
    3.2732    2.7875   19.3199 H   0  0  0  0  0  0  0  0  0  0  0  0
    5.4878    0.4645   22.1722 H   0  0  0  0  0  0  0  0  0  0  0  0
    7.5962   -0.7776   24.7980 H   0  0  0  0  0  0  0  0  0  0  0  0
   11.0395   -2.1844   22.6346 H   0  0  0  0  0  0  0  0  0  0  0  0
    4.7853    2.0674   17.4815 H   0  0  0  0  0  0  0  0  0  0  0  0
    7.5664   -2.8672   26.1058 H   0  0  0  0  0  0  0  0  0  0  0  0
   11.0120   -4.2666   23.9463 H   0  0  0  0  0  0  0  0  0  0  0  0
   11.5925    1.9010   23.3455 H   0  0  0  0  0  0  0  0  0  0  0  0
   12.1213    4.4748   23.2422 H   0  0  0  0  0  0  0  0  0  0  0  0
    7.7599    3.7576   24.2842 H   0  0  0  0  0  0  0  0  0  0  0  0
    8.3330   -5.9643   27.3030 H   0  0  0  0  0  0  0  0  0  0  0  0
    7.2584   -4.9198   26.3219 H   0  0  0  0  0  0  0  0  0  0  0  0
    8.3402   -4.1974   27.5418 H   0  0  0  0  0  0  0  0  0  0  0  0
    8.9708    0.7434   25.0308 H   0  0  0  0  0  0  0  0  0  0  0  0
    7.7972    1.1781   23.8117 H   0  0  0  0  0  0  0  0  0  0  0  0
   10.5743    0.2174   22.9808 H   0  0  0  0  0  0  0  0  0  0  0  0
    7.1015    0.3608   17.0505 H   0  0  0  0  0  0  0  0  0  0  0  0
    8.1201   -1.8087   21.3560 H   0  0  0  0  0  0  0  0  0  0  0  0
  1  2  1  0  0  0  0
  1  3  2  0  0  0  0
  2  6  2  0  0  0  0
  3 12  1  0  0  0  0
  4  7  2  0  0  0  0
  4 13  1  0  0  0  0
  5  8  1  0  0  0  0
  5 13  2  0  0  0  0
  6 15  1  0  0  0  0
  7 16  1  0  0  0  0
  8 16  2  0  0  0  0
  9 10  2  0  0  0  0
  9 14  1  0  0  0  0
 10 27  1  0  0  0  0
 11 14  2  0  0  0  0
 11 27  1  0  0  0  0
 12 15  2  0  0  0  0
 12 17  1  0  0  0  0
 13 21  1  0  0  0  0
 14 20  1  0  0  0  0
 15 23  1  0  0  0  0
 16 26  1  0  0  0  0
 17 22  2  0  0  0  0
 17 24  1  0  0  0  0
 18 21  1  0  0  0  0
 18 24  1  0  0  0  0
 18 25  2  0  0  0  0
 19 26  1  0  0  0  0
 20 21  1  6  0  0  0
 22 23  1  0  0  0  0
  1 28  1  0  0  0  0
  2 29  1  0  0  0  0
  3 30  1  0  0  0  0
  4 31  1  0  0  0  0
  5 32  1  0  0  0  0
  6 33  1  0  0  0  0
  7 34  1  0  0  0  0
  8 35  1  0  0  0  0
  9 36  1  0  0  0  0
 10 37  1  0  0  0  0
 11 38  1  0  0  0  0
 19 39  1  0  0  0  0
 19 40  1  0  0  0  0
 19 41  1  0  0  0  0
 20 42  1  0  0  0  0
 20 43  1  0  0  0  0
 21 44  1  0  0  0  0
 23 45  1  0  0  0  0
 24 46  1  0  0  0  0
M  END
> <clash_score>
0

> <docking_score>
-8.553942680358887

> <overlap_score>
0.8510883450508118

$$$$
BENZO_242_1
  -OEChem-08232013493D

 49 52  0     1  0  0  0  0  0999 V2000
    4.2970    1.6690   20.8430 C   0  0  0  0  0  0  0  0  0  0  0  0
    4.0980    2.1130   19.5350 C   0  0  0  0  0  0  0  0  0  0  0  0
   10.2645    4.1315   23.6906 C   0  0  0  0  0  0  0  0  0  0  0  0
    5.3360    0.8000   21.1530 C   0  0  0  0  0  0  0  0  0  0  0  0
   10.1177    2.7447   23.6595 C   0  0  0  0  0  0  0  0  0  0  0  0
    8.3510   -1.5420   24.6110 C   0  0  0  0  0  0  0  0  0  0  0  0
   10.2760   -2.3270   23.4020 C   0  0  0  0  0  0  0  0  0  0  0  0
    4.9400    1.7060   18.5060 C   0  0  0  0  0  0  0  0  0  0  0  0
    8.3310   -2.7170   25.3430 C   0  0  0  0  0  0  0  0  0  0  0  0
   10.2570   -3.5000   24.1350 C   0  0  0  0  0  0  0  0  0  0  0  0
   11.4306    4.7205   23.2018 C   0  0  0  0  0  0  0  0  0  0  0  0
   12.3032    2.5360   22.6510 C   0  0  0  0  0  0  0  0  0  0  0  0
    6.1600    0.3870   20.1140 C   0  0  0  0  0  0  0  0  0  0  0  0
    9.3300   -1.3350   23.6390 C   0  0  0  0  0  0  0  0  0  0  0  0
   11.1370    1.9470   23.1397 C   0  0  0  0  0  0  0  0  0  0  0  0
    5.9810    0.8330   18.8060 C   0  0  0  0  0  0  0  0  0  0  0  0
    9.2850   -3.7090   25.1090 C   0  0  0  0  0  0  0  0  0  0  0  0
   12.4500    3.9228   22.6821 C   0  0  0  0  0  0  0  0  0  0  0  0
    7.2210   -0.4620   20.0350 C   0  0  0  0  0  0  0  0  0  0  0  0
    8.9510    0.1280   21.6880 C   0  0  0  0  0  0  0  0  0  0  0  0
    8.2361   -4.9968   26.8044 C   0  0  0  0  0  0  0  0  0  0  0  0
   10.9777    0.4443   23.1075 C   0  0  0  0  0  0  0  0  0  0  0  0
    9.4200   -0.0840   22.9530 C   0  0  1  0  0  0  0  0  0  0  0  0
    7.6830   -0.5170   18.7600 N   0  0  0  0  0  0  0  0  0  0  0  0
    6.9440    0.2550   18.0100 N   0  0  0  0  0  0  0  0  0  0  0  0
    8.0810   -0.9750   21.0820 N   0  0  0  0  0  0  0  0  0  0  0  0
    9.1870    1.1500   21.0630 O   0  0  0  0  0  0  0  0  0  0  0  0
    9.2637   -4.8607   25.8240 O   0  0  0  0  0  0  0  0  0  0  0  0
   13.8890    4.6500   22.0802 Cl  0  0  0  0  0  0  0  0  0  0  0  0
    3.6274    2.0126   21.6300 H   0  0  0  0  0  0  0  0  0  0  0  0
    3.2732    2.7875   19.3199 H   0  0  0  0  0  0  0  0  0  0  0  0
    9.4706    4.7523   24.0956 H   0  0  0  0  0  0  0  0  0  0  0  0
    5.4878    0.4645   22.1722 H   0  0  0  0  0  0  0  0  0  0  0  0
    9.2057    2.2944   24.0426 H   0  0  0  0  0  0  0  0  0  0  0  0
    7.5962   -0.7776   24.7980 H   0  0  0  0  0  0  0  0  0  0  0  0
   11.0395   -2.1844   22.6346 H   0  0  0  0  0  0  0  0  0  0  0  0
    4.7853    2.0674   17.4815 H   0  0  0  0  0  0  0  0  0  0  0  0
    7.5664   -2.8672   26.1058 H   0  0  0  0  0  0  0  0  0  0  0  0
   11.0120   -4.2666   23.9463 H   0  0  0  0  0  0  0  0  0  0  0  0
   11.5314    5.8026   23.2327 H   0  0  0  0  0  0  0  0  0  0  0  0
   13.0949    1.9096   22.2463 H   0  0  0  0  0  0  0  0  0  0  0  0
    8.3330   -5.9643   27.3030 H   0  0  0  0  0  0  0  0  0  0  0  0
    7.2584   -4.9198   26.3219 H   0  0  0  0  0  0  0  0  0  0  0  0
    8.3402   -4.1974   27.5418 H   0  0  0  0  0  0  0  0  0  0  0  0
   11.5363    0.0387   22.2539 H   0  0  0  0  0  0  0  0  0  0  0  0
   11.4704    0.0336   23.9998 H   0  0  0  0  0  0  0  0  0  0  0  0
    8.9182    0.7194   23.6789 H   0  0  0  0  0  0  0  0  0  0  0  0
    7.1015    0.3608   17.0505 H   0  0  0  0  0  0  0  0  0  0  0  0
    8.1201   -1.8087   21.3560 H   0  0  0  0  0  0  0  0  0  0  0  0
  1  2  1  0  0  0  0
  1  4  2  0  0  0  0
  2  8  2  0  0  0  0
  3  5  2  0  0  0  0
  3 11  1  0  0  0  0
  4 13  1  0  0  0  0
  5 15  1  0  0  0  0
  6  9  2  0  0  0  0
  6 14  1  0  0  0  0
  7 10  1  0  0  0  0
  7 14  2  0  0  0  0
  8 16  1  0  0  0  0
  9 17  1  0  0  0  0
 10 17  2  0  0  0  0
 11 18  2  0  0  0  0
 12 15  2  0  0  0  0
 12 18  1  0  0  0  0
 13 16  2  0  0  0  0
 13 19  1  0  0  0  0
 14 23  1  0  0  0  0
 15 22  1  0  0  0  0
 16 25  1  0  0  0  0
 17 28  1  0  0  0  0
 18 29  1  0  0  0  0
 19 24  2  0  0  0  0
 19 26  1  0  0  0  0
 20 23  1  0  0  0  0
 20 26  1  0  0  0  0
 20 27  2  0  0  0  0
 21 28  1  0  0  0  0
 22 23  1  1  0  0  0
 24 25  1  0  0  0  0
  1 30  1  0  0  0  0
  2 31  1  0  0  0  0
  3 32  1  0  0  0  0
  4 33  1  0  0  0  0
  5 34  1  0  0  0  0
  6 35  1  0  0  0  0
  7 36  1  0  0  0  0
  8 37  1  0  0  0  0
  9 38  1  0  0  0  0
 10 39  1  0  0  0  0
 11 40  1  0  0  0  0
 12 41  1  0  0  0  0
 21 42  1  0  0  0  0
 21 43  1  0  0  0  0
 21 44  1  0  0  0  0
 22 45  1  0  0  0  0
 22 46  1  0  0  0  0
 23 47  1  0  0  0  0
 25 48  1  0  0  0  0
 26 49  1  0  0  0  0
M  END
> <clash_score>
0

> <docking_score>
-10.373016357421875

> <overlap_score>
0.9261941313743591

$$$$
BENZO_242_2
  -OEChem-08232013493D

 49 52  0     1  0  0  0  0  0999 V2000
    4.2970    1.6690   20.8430 C   0  0  0  0  0  0  0  0  0  0  0  0
    4.0980    2.1130   19.5350 C   0  0  0  0  0  0  0  0  0  0  0  0
    9.3211    4.8553   24.0536 C   0  0  0  0  0  0  0  0  0  0  0  0
    5.3360    0.8000   21.1530 C   0  0  0  0  0  0  0  0  0  0  0  0
    8.7511    3.5884   24.1784 C   0  0  0  0  0  0  0  0  0  0  0  0
    8.3510   -1.5420   24.6110 C   0  0  0  0  0  0  0  0  0  0  0  0
   10.2760   -2.3270   23.4020 C   0  0  0  0  0  0  0  0  0  0  0  0
    4.9400    1.7060   18.5060 C   0  0  0  0  0  0  0  0  0  0  0  0
    8.3310   -2.7170   25.3430 C   0  0  0  0  0  0  0  0  0  0  0  0
   10.2570   -3.5000   24.1350 C   0  0  0  0  0  0  0  0  0  0  0  0
   10.6349    4.9878   23.6043 C   0  0  0  0  0  0  0  0  0  0  0  0
   10.8089    2.5864   23.4046 C   0  0  0  0  0  0  0  0  0  0  0  0
    6.1600    0.3870   20.1140 C   0  0  0  0  0  0  0  0  0  0  0  0
    9.3300   -1.3350   23.6390 C   0  0  0  0  0  0  0  0  0  0  0  0
    9.4950    2.4539   23.8539 C   0  0  0  0  0  0  0  0  0  0  0  0
    5.9810    0.8330   18.8060 C   0  0  0  0  0  0  0  0  0  0  0  0
    9.2850   -3.7090   25.1090 C   0  0  0  0  0  0  0  0  0  0  0  0
   11.3788    3.8534   23.2798 C   0  0  0  0  0  0  0  0  0  0  0  0
    7.2210   -0.4620   20.0350 C   0  0  0  0  0  0  0  0  0  0  0  0
    8.9510    0.1280   21.6880 C   0  0  0  0  0  0  0  0  0  0  0  0
    8.2361   -4.9968   26.8044 C   0  0  0  0  0  0  0  0  0  0  0  0
    8.8771    1.0813   23.9905 C   0  0  0  0  0  0  0  0  0  0  0  0
    9.4200   -0.0840   22.9530 C   0  0  2  0  0  0  0  0  0  0  0  0
    7.6830   -0.5170   18.7600 N   0  0  0  0  0  0  0  0  0  0  0  0
    6.9440    0.2550   18.0100 N   0  0  0  0  0  0  0  0  0  0  0  0
    8.0810   -0.9750   21.0820 N   0  0  0  0  0  0  0  0  0  0  0  0
    9.1870    1.1500   21.0630 O   0  0  0  0  0  0  0  0  0  0  0  0
    9.2637   -4.8607   25.8240 O   0  0  0  0  0  0  0  0  0  0  0  0
   13.0002    4.0175   22.7265 Cl  0  0  0  0  0  0  0  0  0  0  0  0
    3.6274    2.0126   21.6300 H   0  0  0  0  0  0  0  0  0  0  0  0
    3.2732    2.7875   19.3199 H   0  0  0  0  0  0  0  0  0  0  0  0
    8.7415    5.7384   24.3065 H   0  0  0  0  0  0  0  0  0  0  0  0
    5.4878    0.4645   22.1722 H   0  0  0  0  0  0  0  0  0  0  0  0
    7.7267    3.4945   24.5294 H   0  0  0  0  0  0  0  0  0  0  0  0
    7.5962   -0.7776   24.7980 H   0  0  0  0  0  0  0  0  0  0  0  0
   11.0395   -2.1844   22.6346 H   0  0  0  0  0  0  0  0  0  0  0  0
    4.7853    2.0674   17.4815 H   0  0  0  0  0  0  0  0  0  0  0  0
    7.5664   -2.8672   26.1058 H   0  0  0  0  0  0  0  0  0  0  0  0
   11.0120   -4.2666   23.9463 H   0  0  0  0  0  0  0  0  0  0  0  0
   11.0663    5.9816   23.5122 H   0  0  0  0  0  0  0  0  0  0  0  0
   11.3846    1.6989   23.1523 H   0  0  0  0  0  0  0  0  0  0  0  0
    8.3330   -5.9643   27.3030 H   0  0  0  0  0  0  0  0  0  0  0  0
    7.2584   -4.9198   26.3219 H   0  0  0  0  0  0  0  0  0  0  0  0
    8.3402   -4.1974   27.5418 H   0  0  0  0  0  0  0  0  0  0  0  0
    8.9708    0.7434   25.0308 H   0  0  0  0  0  0  0  0  0  0  0  0
    7.7972    1.1781   23.8117 H   0  0  0  0  0  0  0  0  0  0  0  0
   10.5743    0.2174   22.9808 H   0  0  0  0  0  0  0  0  0  0  0  0
    7.1015    0.3608   17.0505 H   0  0  0  0  0  0  0  0  0  0  0  0
    8.1201   -1.8087   21.3560 H   0  0  0  0  0  0  0  0  0  0  0  0
  1  2  1  0  0  0  0
  1  4  2  0  0  0  0
  2  8  2  0  0  0  0
  3  5  2  0  0  0  0
  3 11  1  0  0  0  0
  4 13  1  0  0  0  0
  5 15  1  0  0  0  0
  6  9  2  0  0  0  0
  6 14  1  0  0  0  0
  7 10  1  0  0  0  0
  7 14  2  0  0  0  0
  8 16  1  0  0  0  0
  9 17  1  0  0  0  0
 10 17  2  0  0  0  0
 11 18  2  0  0  0  0
 12 15  2  0  0  0  0
 12 18  1  0  0  0  0
 13 16  2  0  0  0  0
 13 19  1  0  0  0  0
 14 23  1  0  0  0  0
 15 22  1  0  0  0  0
 16 25  1  0  0  0  0
 17 28  1  0  0  0  0
 18 29  1  0  0  0  0
 19 24  2  0  0  0  0
 19 26  1  0  0  0  0
 20 23  1  0  0  0  0
 20 26  1  0  0  0  0
 20 27  2  0  0  0  0
 21 28  1  0  0  0  0
 22 23  1  6  0  0  0
 24 25  1  0  0  0  0
  1 30  1  0  0  0  0
  2 31  1  0  0  0  0
  3 32  1  0  0  0  0
  4 33  1  0  0  0  0
  5 34  1  0  0  0  0
  6 35  1  0  0  0  0
  7 36  1  0  0  0  0
  8 37  1  0  0  0  0
  9 38  1  0  0  0  0
 10 39  1  0  0  0  0
 11 40  1  0  0  0  0
 12 41  1  0  0  0  0
 21 42  1  0  0  0  0
 21 43  1  0  0  0  0
 21 44  1  0  0  0  0
 22 45  1  0  0  0  0
 22 46  1  0  0  0  0
 23 47  1  0  0  0  0
 25 48  1  0  0  0  0
 26 49  1  0  0  0  0
M  END
> <clash_score>
0

> <docking_score>
-9.365130424499512

> <overlap_score>
0.8616358041763306

$$$$
BENZO_243_1
  -OEChem-08232013493D

 49 52  0     1  0  0  0  0  0999 V2000
    4.2970    1.6690   20.8430 C   0  0  0  0  0  0  0  0  0  0  0  0
    4.0980    2.1130   19.5350 C   0  0  0  0  0  0  0  0  0  0  0  0
    5.3360    0.8000   21.1530 C   0  0  0  0  0  0  0  0  0  0  0  0
    8.3510   -1.5420   24.6110 C   0  0  0  0  0  0  0  0  0  0  0  0
   10.2760   -2.3270   23.4020 C   0  0  0  0  0  0  0  0  0  0  0  0
    4.9400    1.7060   18.5060 C   0  0  0  0  0  0  0  0  0  0  0  0
    8.3310   -2.7170   25.3430 C   0  0  0  0  0  0  0  0  0  0  0  0
   10.2570   -3.5000   24.1350 C   0  0  0  0  0  0  0  0  0  0  0  0
   10.2235    2.9023   23.6242 C   0  0  0  0  0  0  0  0  0  0  0  0
   12.2091    2.6870   22.7043 C   0  0  0  0  0  0  0  0  0  0  0  0
    6.1600    0.3870   20.1140 C   0  0  0  0  0  0  0  0  0  0  0  0
    9.3300   -1.3350   23.6390 C   0  0  0  0  0  0  0  0  0  0  0  0
   11.1370    1.9470   23.1397 C   0  0  0  0  0  0  0  0  0  0  0  0
    5.9810    0.8330   18.8060 C   0  0  0  0  0  0  0  0  0  0  0  0
    9.2850   -3.7090   25.1090 C   0  0  0  0  0  0  0  0  0  0  0  0
    7.2210   -0.4620   20.0350 C   0  0  0  0  0  0  0  0  0  0  0  0
    8.9510    0.1280   21.6880 C   0  0  0  0  0  0  0  0  0  0  0  0
   12.7031    5.1430   22.6555 C   0  0  0  0  0  0  0  0  0  0  0  0
    8.2361   -4.9968   26.8044 C   0  0  0  0  0  0  0  0  0  0  0  0
   10.9777    0.4443   23.1075 C   0  0  0  0  0  0  0  0  0  0  0  0
    9.4200   -0.0840   22.9530 C   0  0  1  0  0  0  0  0  0  0  0  0
   10.6758    4.1536   23.5079 N   0  0  0  0  0  0  0  0  0  0  0  0
    7.6830   -0.5170   18.7600 N   0  0  0  0  0  0  0  0  0  0  0  0
    6.9440    0.2550   18.0100 N   0  0  0  0  0  0  0  0  0  0  0  0
   11.8853    3.9898   22.9453 N   0  0  0  0  0  0  0  0  0  0  0  0
    8.0810   -0.9750   21.0820 N   0  0  0  0  0  0  0  0  0  0  0  0
    9.1870    1.1500   21.0630 O   0  0  0  0  0  0  0  0  0  0  0  0
    9.2637   -4.8607   25.8240 O   0  0  0  0  0  0  0  0  0  0  0  0
    3.6274    2.0126   21.6300 H   0  0  0  0  0  0  0  0  0  0  0  0
    3.2732    2.7875   19.3199 H   0  0  0  0  0  0  0  0  0  0  0  0
    5.4878    0.4645   22.1722 H   0  0  0  0  0  0  0  0  0  0  0  0
    7.5962   -0.7776   24.7980 H   0  0  0  0  0  0  0  0  0  0  0  0
   11.0395   -2.1844   22.6346 H   0  0  0  0  0  0  0  0  0  0  0  0
    4.7853    2.0674   17.4815 H   0  0  0  0  0  0  0  0  0  0  0  0
    7.5664   -2.8672   26.1058 H   0  0  0  0  0  0  0  0  0  0  0  0
   11.0120   -4.2666   23.9463 H   0  0  0  0  0  0  0  0  0  0  0  0
    9.2470    2.7411   24.0585 H   0  0  0  0  0  0  0  0  0  0  0  0
   13.1519    2.4044   22.2557 H   0  0  0  0  0  0  0  0  0  0  0  0
   12.4640    5.4803   21.6435 H   0  0  0  0  0  0  0  0  0  0  0  0
   12.4902    5.9323   23.3818 H   0  0  0  0  0  0  0  0  0  0  0  0
   13.7583    4.8651   22.7277 H   0  0  0  0  0  0  0  0  0  0  0  0
    8.3330   -5.9643   27.3030 H   0  0  0  0  0  0  0  0  0  0  0  0
    7.2584   -4.9198   26.3219 H   0  0  0  0  0  0  0  0  0  0  0  0
    8.3402   -4.1974   27.5418 H   0  0  0  0  0  0  0  0  0  0  0  0
   11.5363    0.0387   22.2539 H   0  0  0  0  0  0  0  0  0  0  0  0
   11.4704    0.0336   23.9998 H   0  0  0  0  0  0  0  0  0  0  0  0
    8.9182    0.7194   23.6789 H   0  0  0  0  0  0  0  0  0  0  0  0
    7.1015    0.3608   17.0505 H   0  0  0  0  0  0  0  0  0  0  0  0
    8.1201   -1.8087   21.3560 H   0  0  0  0  0  0  0  0  0  0  0  0
  1  2  1  0  0  0  0
  1  3  2  0  0  0  0
  2  6  2  0  0  0  0
  3 11  1  0  0  0  0
  4  7  2  0  0  0  0
  4 12  1  0  0  0  0
  5  8  1  0  0  0  0
  5 12  2  0  0  0  0
  6 14  1  0  0  0  0
  7 15  1  0  0  0  0
  8 15  2  0  0  0  0
  9 13  1  0  0  0  0
  9 22  2  0  0  0  0
 10 13  2  0  0  0  0
 10 25  1  0  0  0  0
 11 14  2  0  0  0  0
 11 16  1  0  0  0  0
 12 21  1  0  0  0  0
 13 20  1  0  0  0  0
 14 24  1  0  0  0  0
 15 28  1  0  0  0  0
 16 23  2  0  0  0  0
 16 26  1  0  0  0  0
 17 21  1  0  0  0  0
 17 26  1  0  0  0  0
 17 27  2  0  0  0  0
 18 25  1  0  0  0  0
 19 28  1  0  0  0  0
 20 21  1  1  0  0  0
 22 25  1  0  0  0  0
 23 24  1  0  0  0  0
  1 29  1  0  0  0  0
  2 30  1  0  0  0  0
  3 31  1  0  0  0  0
  4 32  1  0  0  0  0
  5 33  1  0  0  0  0
  6 34  1  0  0  0  0
  7 35  1  0  0  0  0
  8 36  1  0  0  0  0
  9 37  1  0  0  0  0
 10 38  1  0  0  0  0
 18 39  1  0  0  0  0
 18 40  1  0  0  0  0
 18 41  1  0  0  0  0
 19 42  1  0  0  0  0
 19 43  1  0  0  0  0
 19 44  1  0  0  0  0
 20 45  1  0  0  0  0
 20 46  1  0  0  0  0
 21 47  1  0  0  0  0
 24 48  1  0  0  0  0
 26 49  1  0  0  0  0
M  END
> <clash_score>
0

> <docking_score>
-9.901690483093262

> <overlap_score>
0.9200305342674255

$$$$
BENZO_243_2
  -OEChem-08232013493D

 49 52  0     1  0  0  0  0  0999 V2000
    4.2970    1.6690   20.8430 C   0  0  0  0  0  0  0  0  0  0  0  0
    4.0980    2.1130   19.5350 C   0  0  0  0  0  0  0  0  0  0  0  0
    5.3360    0.8000   21.1530 C   0  0  0  0  0  0  0  0  0  0  0  0
    8.3510   -1.5420   24.6110 C   0  0  0  0  0  0  0  0  0  0  0  0
   10.2760   -2.3270   23.4020 C   0  0  0  0  0  0  0  0  0  0  0  0
    4.9400    1.7060   18.5060 C   0  0  0  0  0  0  0  0  0  0  0  0
    8.3310   -2.7170   25.3430 C   0  0  0  0  0  0  0  0  0  0  0  0
   10.2570   -3.5000   24.1350 C   0  0  0  0  0  0  0  0  0  0  0  0
   10.7939    2.7770   23.4177 C   0  0  0  0  0  0  0  0  0  0  0  0
    8.9123    3.6676   24.1257 C   0  0  0  0  0  0  0  0  0  0  0  0
    6.1600    0.3870   20.1140 C   0  0  0  0  0  0  0  0  0  0  0  0
    9.3300   -1.3350   23.6390 C   0  0  0  0  0  0  0  0  0  0  0  0
    9.4950    2.4539   23.8539 C   0  0  0  0  0  0  0  0  0  0  0  0
    5.9810    0.8330   18.8060 C   0  0  0  0  0  0  0  0  0  0  0  0
    9.2850   -3.7090   25.1090 C   0  0  0  0  0  0  0  0  0  0  0  0
    7.2210   -0.4620   20.0350 C   0  0  0  0  0  0  0  0  0  0  0  0
    8.9510    0.1280   21.6880 C   0  0  0  0  0  0  0  0  0  0  0  0
    9.7138    6.0371   23.9775 C   0  0  0  0  0  0  0  0  0  0  0  0
    8.2361   -4.9968   26.8044 C   0  0  0  0  0  0  0  0  0  0  0  0
    8.8771    1.0813   23.9905 C   0  0  0  0  0  0  0  0  0  0  0  0
    9.4200   -0.0840   22.9530 C   0  0  2  0  0  0  0  0  0  0  0  0
   11.0232    4.0928   23.4110 N   0  0  0  0  0  0  0  0  0  0  0  0
    7.6830   -0.5170   18.7600 N   0  0  0  0  0  0  0  0  0  0  0  0
    6.9440    0.2550   18.0100 N   0  0  0  0  0  0  0  0  0  0  0  0
    9.8605    4.6073   23.8463 N   0  0  0  0  0  0  0  0  0  0  0  0
    8.0810   -0.9750   21.0820 N   0  0  0  0  0  0  0  0  0  0  0  0
    9.1870    1.1500   21.0630 O   0  0  0  0  0  0  0  0  0  0  0  0
    9.2637   -4.8607   25.8240 O   0  0  0  0  0  0  0  0  0  0  0  0
    3.6274    2.0126   21.6300 H   0  0  0  0  0  0  0  0  0  0  0  0
    3.2732    2.7875   19.3199 H   0  0  0  0  0  0  0  0  0  0  0  0
    5.4878    0.4645   22.1722 H   0  0  0  0  0  0  0  0  0  0  0  0
    7.5962   -0.7776   24.7980 H   0  0  0  0  0  0  0  0  0  0  0  0
   11.0395   -2.1844   22.6346 H   0  0  0  0  0  0  0  0  0  0  0  0
    4.7853    2.0674   17.4815 H   0  0  0  0  0  0  0  0  0  0  0  0
    7.5664   -2.8672   26.1058 H   0  0  0  0  0  0  0  0  0  0  0  0
   11.0120   -4.2666   23.9463 H   0  0  0  0  0  0  0  0  0  0  0  0
   11.5843    2.1103   23.1031 H   0  0  0  0  0  0  0  0  0  0  0  0
    7.9277    3.9360   24.4839 H   0  0  0  0  0  0  0  0  0  0  0  0
   10.0225    6.3165   24.9883 H   0  0  0  0  0  0  0  0  0  0  0  0
   10.3410    6.5371   23.2342 H   0  0  0  0  0  0  0  0  0  0  0  0
    8.6688    6.3103   23.8064 H   0  0  0  0  0  0  0  0  0  0  0  0
    8.3330   -5.9643   27.3030 H   0  0  0  0  0  0  0  0  0  0  0  0
    7.2584   -4.9198   26.3219 H   0  0  0  0  0  0  0  0  0  0  0  0
    8.3402   -4.1974   27.5418 H   0  0  0  0  0  0  0  0  0  0  0  0
    8.9708    0.7434   25.0308 H   0  0  0  0  0  0  0  0  0  0  0  0
    7.7972    1.1781   23.8117 H   0  0  0  0  0  0  0  0  0  0  0  0
   10.5743    0.2174   22.9808 H   0  0  0  0  0  0  0  0  0  0  0  0
    7.1015    0.3608   17.0505 H   0  0  0  0  0  0  0  0  0  0  0  0
    8.1201   -1.8087   21.3560 H   0  0  0  0  0  0  0  0  0  0  0  0
  1  2  1  0  0  0  0
  1  3  2  0  0  0  0
  2  6  2  0  0  0  0
  3 11  1  0  0  0  0
  4  7  2  0  0  0  0
  4 12  1  0  0  0  0
  5  8  1  0  0  0  0
  5 12  2  0  0  0  0
  6 14  1  0  0  0  0
  7 15  1  0  0  0  0
  8 15  2  0  0  0  0
  9 13  1  0  0  0  0
  9 22  2  0  0  0  0
 10 13  2  0  0  0  0
 10 25  1  0  0  0  0
 11 14  2  0  0  0  0
 11 16  1  0  0  0  0
 12 21  1  0  0  0  0
 13 20  1  0  0  0  0
 14 24  1  0  0  0  0
 15 28  1  0  0  0  0
 16 23  2  0  0  0  0
 16 26  1  0  0  0  0
 17 21  1  0  0  0  0
 17 26  1  0  0  0  0
 17 27  2  0  0  0  0
 18 25  1  0  0  0  0
 19 28  1  0  0  0  0
 20 21  1  6  0  0  0
 22 25  1  0  0  0  0
 23 24  1  0  0  0  0
  1 29  1  0  0  0  0
  2 30  1  0  0  0  0
  3 31  1  0  0  0  0
  4 32  1  0  0  0  0
  5 33  1  0  0  0  0
  6 34  1  0  0  0  0
  7 35  1  0  0  0  0
  8 36  1  0  0  0  0
  9 37  1  0  0  0  0
 10 38  1  0  0  0  0
 18 39  1  0  0  0  0
 18 40  1  0  0  0  0
 18 41  1  0  0  0  0
 19 42  1  0  0  0  0
 19 43  1  0  0  0  0
 19 44  1  0  0  0  0
 20 45  1  0  0  0  0
 20 46  1  0  0  0  0
 21 47  1  0  0  0  0
 24 48  1  0  0  0  0
 26 49  1  0  0  0  0
M  END
> <clash_score>
0

> <docking_score>
-8.706003189086914

> <overlap_score>
0.8466095924377441

$$$$
BENZO_245_1
  -OEChem-08232013493D

 59 63  0     1  0  0  0  0  0999 V2000
   10.6052    5.0071   23.5715 C   0  0  0  0  0  0  0  0  0  0  0  0
    4.2970    1.6690   20.8430 C   0  0  0  0  0  0  0  0  0  0  0  0
    9.2931    4.8684   24.0241 C   0  0  0  0  0  0  0  0  0  0  0  0
   11.3561    3.8758   23.2522 C   0  0  0  0  0  0  0  0  0  0  0  0
    4.0980    2.1130   19.5350 C   0  0  0  0  0  0  0  0  0  0  0  0
    5.3360    0.8000   21.1530 C   0  0  0  0  0  0  0  0  0  0  0  0
    8.7320    3.5984   24.1577 C   0  0  0  0  0  0  0  0  0  0  0  0
   10.7950    2.6058   23.3858 C   0  0  0  0  0  0  0  0  0  0  0  0
    8.3510   -1.5420   24.6110 C   0  0  0  0  0  0  0  0  0  0  0  0
   10.2760   -2.3270   23.4020 C   0  0  0  0  0  0  0  0  0  0  0  0
    4.9400    1.7060   18.5060 C   0  0  0  0  0  0  0  0  0  0  0  0
    8.3310   -2.7170   25.3430 C   0  0  0  0  0  0  0  0  0  0  0  0
   10.2570   -3.5000   24.1350 C   0  0  0  0  0  0  0  0  0  0  0  0
    6.1600    0.3870   20.1140 C   0  0  0  0  0  0  0  0  0  0  0  0
    9.4830    2.4670   23.8385 C   0  0  0  0  0  0  0  0  0  0  0  0
    9.3300   -1.3350   23.6390 C   0  0  0  0  0  0  0  0  0  0  0  0
    5.9810    0.8330   18.8060 C   0  0  0  0  0  0  0  0  0  0  0  0
    9.2850   -3.7090   25.1090 C   0  0  0  0  0  0  0  0  0  0  0  0
    7.2210   -0.4620   20.0350 C   0  0  0  0  0  0  0  0  0  0  0  0
    8.0643   -5.4721   26.3672 C   0  0  0  0  0  0  0  0  0  0  0  0
    8.9510    0.1280   21.6880 C   0  0  0  0  0  0  0  0  0  0  0  0
    8.2649   -6.7591   27.1477 C   0  0  0  0  0  0  0  0  0  0  0  0
    9.4073   -6.6157   28.1377 C   0  0  0  0  0  0  0  0  0  0  0  0
   10.6967   -6.1489   27.4694 C   0  0  0  0  0  0  0  0  0  0  0  0
   10.4950   -5.7059   26.0212 C   0  0  0  0  0  0  0  0  0  0  0  0
    8.8757    1.0906   23.9832 C   0  0  0  0  0  0  0  0  0  0  0  0
    9.4200   -0.0840   22.9530 C   0  0  1  0  0  0  0  0  0  0  0  0
    7.6830   -0.5170   18.7600 N   0  0  0  0  0  0  0  0  0  0  0  0
    6.9440    0.2550   18.0100 N   0  0  0  0  0  0  0  0  0  0  0  0
    9.2624   -4.9267   25.8634 N   0  0  0  0  0  0  0  0  0  0  0  0
    8.0810   -0.9750   21.0820 N   0  0  0  0  0  0  0  0  0  0  0  0
    6.9247   -5.0497   26.1749 O   0  0  0  0  0  0  0  0  0  0  0  0
    9.1870    1.1500   21.0630 O   0  0  0  0  0  0  0  0  0  0  0  0
   11.0415    5.9962   23.4663 H   0  0  0  0  0  0  0  0  0  0  0  0
    3.6274    2.0126   21.6300 H   0  0  0  0  0  0  0  0  0  0  0  0
    8.7079    5.7493   24.2717 H   0  0  0  0  0  0  0  0  0  0  0  0
   12.3773    3.9835   22.8987 H   0  0  0  0  0  0  0  0  0  0  0  0
    3.2732    2.7875   19.3199 H   0  0  0  0  0  0  0  0  0  0  0  0
    5.4878    0.4645   22.1722 H   0  0  0  0  0  0  0  0  0  0  0  0
    7.7090    3.4999   24.5113 H   0  0  0  0  0  0  0  0  0  0  0  0
   11.3876    1.7300   23.1348 H   0  0  0  0  0  0  0  0  0  0  0  0
    7.5948   -0.7783   24.7966 H   0  0  0  0  0  0  0  0  0  0  0  0
   11.0389   -2.1844   22.6342 H   0  0  0  0  0  0  0  0  0  0  0  0
    4.7853    2.0674   17.4815 H   0  0  0  0  0  0  0  0  0  0  0  0
    7.5642   -2.8624   26.1050 H   0  0  0  0  0  0  0  0  0  0  0  0
   11.0137   -4.2649   23.9418 H   0  0  0  0  0  0  0  0  0  0  0  0
    7.3543   -6.9829   27.6818 H   0  0  0  0  0  0  0  0  0  0  0  0
    8.4783   -7.5436   26.4372 H   0  0  0  0  0  0  0  0  0  0  0  0
    9.1257   -5.9021   28.9399 H   0  0  0  0  0  0  0  0  0  0  0  0
    9.5814   -7.5840   28.6486 H   0  0  0  0  0  0  0  0  0  0  0  0
   11.1319   -5.3094   28.0513 H   0  0  0  0  0  0  0  0  0  0  0  0
   11.4591   -6.9570   27.5118 H   0  0  0  0  0  0  0  0  0  0  0  0
   11.3214   -5.0711   25.7158 H   0  0  0  0  0  0  0  0  0  0  0  0
   10.4496   -6.5786   25.3788 H   0  0  0  0  0  0  0  0  0  0  0  0
    8.9639    0.7632   25.0273 H   0  0  0  0  0  0  0  0  0  0  0  0
    7.7964    1.1765   23.7950 H   0  0  0  0  0  0  0  0  0  0  0  0
   10.5749    0.2253   22.9765 H   0  0  0  0  0  0  0  0  0  0  0  0
    7.1015    0.3608   17.0505 H   0  0  0  0  0  0  0  0  0  0  0  0
    8.1354   -1.7990   21.3694 H   0  0  0  0  0  0  0  0  0  0  0  0
  1  3  1  0  0  0  0
  1  4  2  0  0  0  0
  2  5  1  0  0  0  0
  2  6  2  0  0  0  0
  3  7  2  0  0  0  0
  4  8  1  0  0  0  0
  5 11  2  0  0  0  0
  6 14  1  0  0  0  0
  7 15  1  0  0  0  0
  8 15  2  0  0  0  0
  9 12  2  0  0  0  0
  9 16  1  0  0  0  0
 10 13  1  0  0  0  0
 10 16  2  0  0  0  0
 11 17  1  0  0  0  0
 12 18  1  0  0  0  0
 13 18  2  0  0  0  0
 14 17  2  0  0  0  0
 14 19  1  0  0  0  0
 15 26  1  0  0  0  0
 16 27  1  0  0  0  0
 17 29  1  0  0  0  0
 18 30  1  0  0  0  0
 19 28  2  0  0  0  0
 19 31  1  0  0  0  0
 20 22  1  0  0  0  0
 20 30  1  0  0  0  0
 20 32  2  0  0  0  0
 21 27  1  1  0  0  0
 21 31  1  0  0  0  0
 21 33  2  0  0  0  0
 22 23  1  0  0  0  0
 23 24  1  0  0  0  0
 24 25  1  0  0  0  0
 25 30  1  0  0  0  0
 26 27  1  0  0  0  0
 28 29  1  0  0  0  0
  1 34  1  0  0  0  0
  2 35  1  0  0  0  0
  3 36  1  0  0  0  0
  4 37  1  0  0  0  0
  5 38  1  0  0  0  0
  6 39  1  0  0  0  0
  7 40  1  0  0  0  0
  8 41  1  0  0  0  0
  9 42  1  0  0  0  0
 10 43  1  0  0  0  0
 11 44  1  0  0  0  0
 12 45  1  0  0  0  0
 13 46  1  0  0  0  0
 22 47  1  0  0  0  0
 22 48  1  0  0  0  0
 23 49  1  0  0  0  0
 23 50  1  0  0  0  0
 24 51  1  0  0  0  0
 24 52  1  0  0  0  0
 25 53  1  0  0  0  0
 25 54  1  0  0  0  0
 26 55  1  0  0  0  0
 26 56  1  0  0  0  0
 27 57  1  0  0  0  0
 29 58  1  0  0  0  0
 31 59  1  0  0  0  0
M  END
> <clash_score>
1.2728248649063287

> <docking_score>
-7.287991523742676

> <overlap_score>
0.8745534420013428

$$$$
BENZO_245_2
  -OEChem-08232013493D

 59 63  0     1  0  0  0  0  0999 V2000
   11.4307    4.7297   23.1590 C   0  0  0  0  0  0  0  0  0  0  0  0
    4.2970    1.6690   20.8430 C   0  0  0  0  0  0  0  0  0  0  0  0
   12.4501    3.9274   22.6463 C   0  0  0  0  0  0  0  0  0  0  0  0
   10.2648    4.1449   23.6534 C   0  0  0  0  0  0  0  0  0  0  0  0
    4.0980    2.1130   19.5350 C   0  0  0  0  0  0  0  0  0  0  0  0
    5.3360    0.8000   21.1530 C   0  0  0  0  0  0  0  0  0  0  0  0
   12.3036    2.5404   22.6280 C   0  0  0  0  0  0  0  0  0  0  0  0
   10.1183    2.7579   23.6350 C   0  0  0  0  0  0  0  0  0  0  0  0
    8.3510   -1.5420   24.6110 C   0  0  0  0  0  0  0  0  0  0  0  0
   10.2760   -2.3270   23.4020 C   0  0  0  0  0  0  0  0  0  0  0  0
    4.9400    1.7060   18.5060 C   0  0  0  0  0  0  0  0  0  0  0  0
    8.3310   -2.7170   25.3430 C   0  0  0  0  0  0  0  0  0  0  0  0
   10.2570   -3.5000   24.1350 C   0  0  0  0  0  0  0  0  0  0  0  0
    6.1600    0.3870   20.1140 C   0  0  0  0  0  0  0  0  0  0  0  0
   11.1377    1.9556   23.1223 C   0  0  0  0  0  0  0  0  0  0  0  0
    9.3300   -1.3350   23.6390 C   0  0  0  0  0  0  0  0  0  0  0  0
    5.9810    0.8330   18.8060 C   0  0  0  0  0  0  0  0  0  0  0  0
    9.2850   -3.7090   25.1090 C   0  0  0  0  0  0  0  0  0  0  0  0
    7.2210   -0.4620   20.0350 C   0  0  0  0  0  0  0  0  0  0  0  0
    8.0643   -5.4721   26.3672 C   0  0  0  0  0  0  0  0  0  0  0  0
    8.9510    0.1280   21.6880 C   0  0  0  0  0  0  0  0  0  0  0  0
    8.2649   -6.7591   27.1477 C   0  0  0  0  0  0  0  0  0  0  0  0
    9.4073   -6.6157   28.1377 C   0  0  0  0  0  0  0  0  0  0  0  0
   10.6967   -6.1489   27.4694 C   0  0  0  0  0  0  0  0  0  0  0  0
   10.4950   -5.7059   26.0212 C   0  0  0  0  0  0  0  0  0  0  0  0
   10.9782    0.4527   23.1025 C   0  0  0  0  0  0  0  0  0  0  0  0
    9.4200   -0.0840   22.9530 C   0  0  2  0  0  0  0  0  0  0  0  0
    7.6830   -0.5170   18.7600 N   0  0  0  0  0  0  0  0  0  0  0  0
    6.9440    0.2550   18.0100 N   0  0  0  0  0  0  0  0  0  0  0  0
    9.2624   -4.9267   25.8634 N   0  0  0  0  0  0  0  0  0  0  0  0
    8.0810   -0.9750   21.0820 N   0  0  0  0  0  0  0  0  0  0  0  0
    6.9247   -5.0497   26.1749 O   0  0  0  0  0  0  0  0  0  0  0  0
    9.1870    1.1500   21.0630 O   0  0  0  0  0  0  0  0  0  0  0  0
   11.5455    5.8096   23.1744 H   0  0  0  0  0  0  0  0  0  0  0  0
    3.6274    2.0126   21.6300 H   0  0  0  0  0  0  0  0  0  0  0  0
   13.3585    4.3825   22.2623 H   0  0  0  0  0  0  0  0  0  0  0  0
    9.4714    4.7691   24.0536 H   0  0  0  0  0  0  0  0  0  0  0  0
    3.2732    2.7875   19.3199 H   0  0  0  0  0  0  0  0  0  0  0  0
    5.4878    0.4645   22.1722 H   0  0  0  0  0  0  0  0  0  0  0  0
   13.1030    1.9232   22.2264 H   0  0  0  0  0  0  0  0  0  0  0  0
    9.2064    2.3111   24.0222 H   0  0  0  0  0  0  0  0  0  0  0  0
    7.5948   -0.7783   24.7966 H   0  0  0  0  0  0  0  0  0  0  0  0
   11.0389   -2.1844   22.6342 H   0  0  0  0  0  0  0  0  0  0  0  0
    4.7853    2.0674   17.4815 H   0  0  0  0  0  0  0  0  0  0  0  0
    7.5642   -2.8624   26.1050 H   0  0  0  0  0  0  0  0  0  0  0  0
   11.0137   -4.2649   23.9418 H   0  0  0  0  0  0  0  0  0  0  0  0
    7.3543   -6.9829   27.6818 H   0  0  0  0  0  0  0  0  0  0  0  0
    8.4783   -7.5436   26.4372 H   0  0  0  0  0  0  0  0  0  0  0  0
    9.1257   -5.9021   28.9399 H   0  0  0  0  0  0  0  0  0  0  0  0
    9.5814   -7.5840   28.6486 H   0  0  0  0  0  0  0  0  0  0  0  0
   11.1319   -5.3094   28.0513 H   0  0  0  0  0  0  0  0  0  0  0  0
   11.4591   -6.9570   27.5118 H   0  0  0  0  0  0  0  0  0  0  0  0
   11.3214   -5.0711   25.7158 H   0  0  0  0  0  0  0  0  0  0  0  0
   10.4496   -6.5786   25.3788 H   0  0  0  0  0  0  0  0  0  0  0  0
   11.5374    0.0399   22.2527 H   0  0  0  0  0  0  0  0  0  0  0  0
   11.4700    0.0494   23.9985 H   0  0  0  0  0  0  0  0  0  0  0  0
    8.9187    0.7273   23.6745 H   0  0  0  0  0  0  0  0  0  0  0  0
    7.1015    0.3608   17.0505 H   0  0  0  0  0  0  0  0  0  0  0  0
    8.1354   -1.7990   21.3694 H   0  0  0  0  0  0  0  0  0  0  0  0
  1  3  1  0  0  0  0
  1  4  2  0  0  0  0
  2  5  1  0  0  0  0
  2  6  2  0  0  0  0
  3  7  2  0  0  0  0
  4  8  1  0  0  0  0
  5 11  2  0  0  0  0
  6 14  1  0  0  0  0
  7 15  1  0  0  0  0
  8 15  2  0  0  0  0
  9 12  2  0  0  0  0
  9 16  1  0  0  0  0
 10 13  1  0  0  0  0
 10 16  2  0  0  0  0
 11 17  1  0  0  0  0
 12 18  1  0  0  0  0
 13 18  2  0  0  0  0
 14 17  2  0  0  0  0
 14 19  1  0  0  0  0
 15 26  1  0  0  0  0
 16 27  1  0  0  0  0
 17 29  1  0  0  0  0
 18 30  1  0  0  0  0
 19 28  2  0  0  0  0
 19 31  1  0  0  0  0
 20 22  1  0  0  0  0
 20 30  1  0  0  0  0
 20 32  2  0  0  0  0
 21 27  1  6  0  0  0
 21 31  1  0  0  0  0
 21 33  2  0  0  0  0
 22 23  1  0  0  0  0
 23 24  1  0  0  0  0
 24 25  1  0  0  0  0
 25 30  1  0  0  0  0
 26 27  1  0  0  0  0
 28 29  1  0  0  0  0
  1 34  1  0  0  0  0
  2 35  1  0  0  0  0
  3 36  1  0  0  0  0
  4 37  1  0  0  0  0
  5 38  1  0  0  0  0
  6 39  1  0  0  0  0
  7 40  1  0  0  0  0
  8 41  1  0  0  0  0
  9 42  1  0  0  0  0
 10 43  1  0  0  0  0
 11 44  1  0  0  0  0
 12 45  1  0  0  0  0
 13 46  1  0  0  0  0
 22 47  1  0  0  0  0
 22 48  1  0  0  0  0
 23 49  1  0  0  0  0
 23 50  1  0  0  0  0
 24 51  1  0  0  0  0
 24 52  1  0  0  0  0
 25 53  1  0  0  0  0
 25 54  1  0  0  0  0
 26 55  1  0  0  0  0
 26 56  1  0  0  0  0
 27 57  1  0  0  0  0
 29 58  1  0  0  0  0
 31 59  1  0  0  0  0
M  END
> <clash_score>
1.2728248649063287

> <docking_score>
-8.393966674804688

> <overlap_score>
0.9460457563400269

$$$$
BENZO_244_1
  -OEChem-08232013493D

 56 60  0     1  0  0  0  0  0999 V2000
    4.2970    1.6690   20.8430 C   0  0  0  0  0  0  0  0  0  0  0  0
    4.0980    2.1130   19.5350 C   0  0  0  0  0  0  0  0  0  0  0  0
    5.3360    0.8000   21.1530 C   0  0  0  0  0  0  0  0  0  0  0  0
    8.3510   -1.5420   24.6110 C   0  0  0  0  0  0  0  0  0  0  0  0
   10.2760   -2.3270   23.4020 C   0  0  0  0  0  0  0  0  0  0  0  0
    4.9400    1.7060   18.5060 C   0  0  0  0  0  0  0  0  0  0  0  0
    8.3310   -2.7170   25.3430 C   0  0  0  0  0  0  0  0  0  0  0  0
   10.2570   -3.5000   24.1350 C   0  0  0  0  0  0  0  0  0  0  0  0
   10.8518    2.7022   23.5205 C   0  0  0  0  0  0  0  0  0  0  0  0
   11.1431    4.0467   23.4499 C   0  0  0  0  0  0  0  0  0  0  0  0
    8.7801    3.6410   23.9990 C   0  0  0  0  0  0  0  0  0  0  0  0
    6.1600    0.3870   20.1140 C   0  0  0  0  0  0  0  0  0  0  0  0
    9.3300   -1.3350   23.6390 C   0  0  0  0  0  0  0  0  0  0  0  0
    9.4830    2.4670   23.8385 C   0  0  0  0  0  0  0  0  0  0  0  0
    5.9810    0.8330   18.8060 C   0  0  0  0  0  0  0  0  0  0  0  0
    9.2850   -3.7090   25.1090 C   0  0  0  0  0  0  0  0  0  0  0  0
    7.2210   -0.4620   20.0350 C   0  0  0  0  0  0  0  0  0  0  0  0
    8.0643   -5.4721   26.3672 C   0  0  0  0  0  0  0  0  0  0  0  0
    8.9510    0.1280   21.6880 C   0  0  0  0  0  0  0  0  0  0  0  0
    8.2649   -6.7591   27.1477 C   0  0  0  0  0  0  0  0  0  0  0  0
    9.4073   -6.6157   28.1377 C   0  0  0  0  0  0  0  0  0  0  0  0
   10.6967   -6.1489   27.4694 C   0  0  0  0  0  0  0  0  0  0  0  0
   10.4950   -5.7059   26.0212 C   0  0  0  0  0  0  0  0  0  0  0  0
    8.8757    1.0906   23.9832 C   0  0  0  0  0  0  0  0  0  0  0  0
    9.4200   -0.0840   22.9530 C   0  0  1  0  0  0  0  0  0  0  0  0
    7.6830   -0.5170   18.7600 N   0  0  0  0  0  0  0  0  0  0  0  0
    6.9440    0.2550   18.0100 N   0  0  0  0  0  0  0  0  0  0  0  0
    9.2624   -4.9267   25.8634 N   0  0  0  0  0  0  0  0  0  0  0  0
    8.0810   -0.9750   21.0820 N   0  0  0  0  0  0  0  0  0  0  0  0
    6.9247   -5.0497   26.1749 O   0  0  0  0  0  0  0  0  0  0  0  0
    9.1870    1.1500   21.0630 O   0  0  0  0  0  0  0  0  0  0  0  0
    9.7696    5.0191   23.7663 S   0  0  0  0  0  0  0  0  0  0  0  0
    3.6274    2.0126   21.6300 H   0  0  0  0  0  0  0  0  0  0  0  0
    3.2732    2.7875   19.3199 H   0  0  0  0  0  0  0  0  0  0  0  0
    5.4878    0.4645   22.1722 H   0  0  0  0  0  0  0  0  0  0  0  0
    7.5948   -0.7783   24.7966 H   0  0  0  0  0  0  0  0  0  0  0  0
   11.0389   -2.1844   22.6342 H   0  0  0  0  0  0  0  0  0  0  0  0
    4.7853    2.0674   17.4815 H   0  0  0  0  0  0  0  0  0  0  0  0
    7.5642   -2.8624   26.1050 H   0  0  0  0  0  0  0  0  0  0  0  0
   11.0137   -4.2649   23.9418 H   0  0  0  0  0  0  0  0  0  0  0  0
   11.5890    1.9273   23.3518 H   0  0  0  0  0  0  0  0  0  0  0  0
   12.0968    4.5045   23.2284 H   0  0  0  0  0  0  0  0  0  0  0  0
    7.7335    3.7598   24.2428 H   0  0  0  0  0  0  0  0  0  0  0  0
    7.3543   -6.9829   27.6818 H   0  0  0  0  0  0  0  0  0  0  0  0
    8.4783   -7.5436   26.4372 H   0  0  0  0  0  0  0  0  0  0  0  0
    9.1257   -5.9021   28.9399 H   0  0  0  0  0  0  0  0  0  0  0  0
    9.5814   -7.5840   28.6486 H   0  0  0  0  0  0  0  0  0  0  0  0
   11.1319   -5.3094   28.0513 H   0  0  0  0  0  0  0  0  0  0  0  0
   11.4591   -6.9570   27.5118 H   0  0  0  0  0  0  0  0  0  0  0  0
   11.3214   -5.0711   25.7158 H   0  0  0  0  0  0  0  0  0  0  0  0
   10.4496   -6.5786   25.3788 H   0  0  0  0  0  0  0  0  0  0  0  0
    8.9639    0.7632   25.0273 H   0  0  0  0  0  0  0  0  0  0  0  0
    7.7964    1.1765   23.7950 H   0  0  0  0  0  0  0  0  0  0  0  0
   10.5749    0.2253   22.9765 H   0  0  0  0  0  0  0  0  0  0  0  0
    7.1015    0.3608   17.0505 H   0  0  0  0  0  0  0  0  0  0  0  0
    8.1354   -1.7990   21.3694 H   0  0  0  0  0  0  0  0  0  0  0  0
  1  2  1  0  0  0  0
  1  3  2  0  0  0  0
  2  6  2  0  0  0  0
  3 12  1  0  0  0  0
  4  7  2  0  0  0  0
  4 13  1  0  0  0  0
  5  8  1  0  0  0  0
  5 13  2  0  0  0  0
  6 15  1  0  0  0  0
  7 16  1  0  0  0  0
  8 16  2  0  0  0  0
  9 10  2  0  0  0  0
  9 14  1  0  0  0  0
 10 32  1  0  0  0  0
 11 14  2  0  0  0  0
 11 32  1  0  0  0  0
 12 15  2  0  0  0  0
 12 17  1  0  0  0  0
 13 25  1  0  0  0  0
 14 24  1  0  0  0  0
 15 27  1  0  0  0  0
 16 28  1  0  0  0  0
 17 26  2  0  0  0  0
 17 29  1  0  0  0  0
 18 20  1  0  0  0  0
 18 28  1  0  0  0  0
 18 30  2  0  0  0  0
 19 25  1  1  0  0  0
 19 29  1  0  0  0  0
 19 31  2  0  0  0  0
 20 21  1  0  0  0  0
 21 22  1  0  0  0  0
 22 23  1  0  0  0  0
 23 28  1  0  0  0  0
 24 25  1  0  0  0  0
 26 27  1  0  0  0  0
  1 33  1  0  0  0  0
  2 34  1  0  0  0  0
  3 35  1  0  0  0  0
  4 36  1  0  0  0  0
  5 37  1  0  0  0  0
  6 38  1  0  0  0  0
  7 39  1  0  0  0  0
  8 40  1  0  0  0  0
  9 41  1  0  0  0  0
 10 42  1  0  0  0  0
 11 43  1  0  0  0  0
 20 44  1  0  0  0  0
 20 45  1  0  0  0  0
 21 46  1  0  0  0  0
 21 47  1  0  0  0  0
 22 48  1  0  0  0  0
 22 49  1  0  0  0  0
 23 50  1  0  0  0  0
 23 51  1  0  0  0  0
 24 52  1  0  0  0  0
 24 53  1  0  0  0  0
 25 54  1  0  0  0  0
 27 55  1  0  0  0  0
 29 56  1  0  0  0  0
M  END
> <clash_score>
1.2728248649063287

> <docking_score>
-7.007455825805664

> <overlap_score>
0.8719334602355957

$$$$
BENZO_244_2
  -OEChem-08232013493D

 56 60  0     1  0  0  0  0  0999 V2000
    4.2970    1.6690   20.8430 C   0  0  0  0  0  0  0  0  0  0  0  0
    4.0980    2.1130   19.5350 C   0  0  0  0  0  0  0  0  0  0  0  0
    5.3360    0.8000   21.1530 C   0  0  0  0  0  0  0  0  0  0  0  0
    8.3510   -1.5420   24.6110 C   0  0  0  0  0  0  0  0  0  0  0  0
   10.2760   -2.3270   23.4020 C   0  0  0  0  0  0  0  0  0  0  0  0
    4.9400    1.7060   18.5060 C   0  0  0  0  0  0  0  0  0  0  0  0
    8.3310   -2.7170   25.3430 C   0  0  0  0  0  0  0  0  0  0  0  0
   10.2570   -3.5000   24.1350 C   0  0  0  0  0  0  0  0  0  0  0  0
   11.9035    2.6860   22.1682 C   0  0  0  0  0  0  0  0  0  0  0  0
   11.8836    4.0408   22.4166 C   0  0  0  0  0  0  0  0  0  0  0  0
   10.5617    2.7801   24.0638 C   0  0  0  0  0  0  0  0  0  0  0  0
    6.1600    0.3870   20.1140 C   0  0  0  0  0  0  0  0  0  0  0  0
    9.3300   -1.3350   23.6390 C   0  0  0  0  0  0  0  0  0  0  0  0
   11.1377    1.9556   23.1223 C   0  0  0  0  0  0  0  0  0  0  0  0
    5.9810    0.8330   18.8060 C   0  0  0  0  0  0  0  0  0  0  0  0
    9.2850   -3.7090   25.1090 C   0  0  0  0  0  0  0  0  0  0  0  0
    7.2210   -0.4620   20.0350 C   0  0  0  0  0  0  0  0  0  0  0  0
    8.0643   -5.4721   26.3672 C   0  0  0  0  0  0  0  0  0  0  0  0
    8.9510    0.1280   21.6880 C   0  0  0  0  0  0  0  0  0  0  0  0
    8.2649   -6.7591   27.1477 C   0  0  0  0  0  0  0  0  0  0  0  0
    9.4073   -6.6157   28.1377 C   0  0  0  0  0  0  0  0  0  0  0  0
   10.6967   -6.1489   27.4694 C   0  0  0  0  0  0  0  0  0  0  0  0
   10.4950   -5.7059   26.0212 C   0  0  0  0  0  0  0  0  0  0  0  0
   10.9782    0.4527   23.1025 C   0  0  0  0  0  0  0  0  0  0  0  0
    9.4200   -0.0840   22.9530 C   0  0  2  0  0  0  0  0  0  0  0  0
    7.6830   -0.5170   18.7600 N   0  0  0  0  0  0  0  0  0  0  0  0
    6.9440    0.2550   18.0100 N   0  0  0  0  0  0  0  0  0  0  0  0
    9.2624   -4.9267   25.8634 N   0  0  0  0  0  0  0  0  0  0  0  0
    8.0810   -0.9750   21.0820 N   0  0  0  0  0  0  0  0  0  0  0  0
    6.9247   -5.0497   26.1749 O   0  0  0  0  0  0  0  0  0  0  0  0
    9.1870    1.1500   21.0630 O   0  0  0  0  0  0  0  0  0  0  0  0
   10.9445    4.4274   23.7954 S   0  0  0  0  0  0  0  0  0  0  0  0
    3.6274    2.0126   21.6300 H   0  0  0  0  0  0  0  0  0  0  0  0
    3.2732    2.7875   19.3199 H   0  0  0  0  0  0  0  0  0  0  0  0
    5.4878    0.4645   22.1722 H   0  0  0  0  0  0  0  0  0  0  0  0
    7.5948   -0.7783   24.7966 H   0  0  0  0  0  0  0  0  0  0  0  0
   11.0389   -2.1844   22.6342 H   0  0  0  0  0  0  0  0  0  0  0  0
    4.7853    2.0674   17.4815 H   0  0  0  0  0  0  0  0  0  0  0  0
    7.5642   -2.8624   26.1050 H   0  0  0  0  0  0  0  0  0  0  0  0
   11.0137   -4.2649   23.9418 H   0  0  0  0  0  0  0  0  0  0  0  0
   12.4436    2.2440   21.3404 H   0  0  0  0  0  0  0  0  0  0  0  0
   12.3760    4.8219   21.8549 H   0  0  0  0  0  0  0  0  0  0  0  0
    9.9349    2.4980   24.8984 H   0  0  0  0  0  0  0  0  0  0  0  0
    7.3543   -6.9829   27.6818 H   0  0  0  0  0  0  0  0  0  0  0  0
    8.4783   -7.5436   26.4372 H   0  0  0  0  0  0  0  0  0  0  0  0
    9.1257   -5.9021   28.9399 H   0  0  0  0  0  0  0  0  0  0  0  0
    9.5814   -7.5840   28.6486 H   0  0  0  0  0  0  0  0  0  0  0  0
   11.1319   -5.3094   28.0513 H   0  0  0  0  0  0  0  0  0  0  0  0
   11.4591   -6.9570   27.5118 H   0  0  0  0  0  0  0  0  0  0  0  0
   11.3214   -5.0711   25.7158 H   0  0  0  0  0  0  0  0  0  0  0  0
   10.4496   -6.5786   25.3788 H   0  0  0  0  0  0  0  0  0  0  0  0
   11.5374    0.0399   22.2527 H   0  0  0  0  0  0  0  0  0  0  0  0
   11.4700    0.0494   23.9985 H   0  0  0  0  0  0  0  0  0  0  0  0
    8.9187    0.7273   23.6745 H   0  0  0  0  0  0  0  0  0  0  0  0
    7.1015    0.3608   17.0505 H   0  0  0  0  0  0  0  0  0  0  0  0
    8.1354   -1.7990   21.3694 H   0  0  0  0  0  0  0  0  0  0  0  0
  1  2  1  0  0  0  0
  1  3  2  0  0  0  0
  2  6  2  0  0  0  0
  3 12  1  0  0  0  0
  4  7  2  0  0  0  0
  4 13  1  0  0  0  0
  5  8  1  0  0  0  0
  5 13  2  0  0  0  0
  6 15  1  0  0  0  0
  7 16  1  0  0  0  0
  8 16  2  0  0  0  0
  9 10  2  0  0  0  0
  9 14  1  0  0  0  0
 10 32  1  0  0  0  0
 11 14  2  0  0  0  0
 11 32  1  0  0  0  0
 12 15  2  0  0  0  0
 12 17  1  0  0  0  0
 13 25  1  0  0  0  0
 14 24  1  0  0  0  0
 15 27  1  0  0  0  0
 16 28  1  0  0  0  0
 17 26  2  0  0  0  0
 17 29  1  0  0  0  0
 18 20  1  0  0  0  0
 18 28  1  0  0  0  0
 18 30  2  0  0  0  0
 19 25  1  6  0  0  0
 19 29  1  0  0  0  0
 19 31  2  0  0  0  0
 20 21  1  0  0  0  0
 21 22  1  0  0  0  0
 22 23  1  0  0  0  0
 23 28  1  0  0  0  0
 24 25  1  0  0  0  0
 26 27  1  0  0  0  0
  1 33  1  0  0  0  0
  2 34  1  0  0  0  0
  3 35  1  0  0  0  0
  4 36  1  0  0  0  0
  5 37  1  0  0  0  0
  6 38  1  0  0  0  0
  7 39  1  0  0  0  0
  8 40  1  0  0  0  0
  9 41  1  0  0  0  0
 10 42  1  0  0  0  0
 11 43  1  0  0  0  0
 20 44  1  0  0  0  0
 20 45  1  0  0  0  0
 21 46  1  0  0  0  0
 21 47  1  0  0  0  0
 22 48  1  0  0  0  0
 22 49  1  0  0  0  0
 23 50  1  0  0  0  0
 23 51  1  0  0  0  0
 24 52  1  0  0  0  0
 24 53  1  0  0  0  0
 25 54  1  0  0  0  0
 27 55  1  0  0  0  0
 29 56  1  0  0  0  0
M  END
> <clash_score>
1.2728248649063287

> <docking_score>
-6.956630706787109

> <overlap_score>
0.9351983666419983

$$$$
BENZO_246_1
  -OEChem-08232013493D

 59 63  0     1  0  0  0  0  0999 V2000
    4.2970    1.6690   20.8430 C   0  0  0  0  0  0  0  0  0  0  0  0
    4.0980    2.1130   19.5350 C   0  0  0  0  0  0  0  0  0  0  0  0
    9.2914    4.8680   24.0266 C   0  0  0  0  0  0  0  0  0  0  0  0
    5.3360    0.8000   21.1530 C   0  0  0  0  0  0  0  0  0  0  0  0
    8.7312    3.5975   24.1588 C   0  0  0  0  0  0  0  0  0  0  0  0
    8.3510   -1.5420   24.6110 C   0  0  0  0  0  0  0  0  0  0  0  0
   10.2760   -2.3270   23.4020 C   0  0  0  0  0  0  0  0  0  0  0  0
    4.9400    1.7060   18.5060 C   0  0  0  0  0  0  0  0  0  0  0  0
    8.3310   -2.7170   25.3430 C   0  0  0  0  0  0  0  0  0  0  0  0
   10.2570   -3.5000   24.1350 C   0  0  0  0  0  0  0  0  0  0  0  0
   10.6034    5.0082   23.5739 C   0  0  0  0  0  0  0  0  0  0  0  0
   10.7949    2.6071   23.3859 C   0  0  0  0  0  0  0  0  0  0  0  0
    6.1600    0.3870   20.1140 C   0  0  0  0  0  0  0  0  0  0  0  0
    9.3300   -1.3350   23.6390 C   0  0  0  0  0  0  0  0  0  0  0  0
    9.4830    2.4670   23.8385 C   0  0  0  0  0  0  0  0  0  0  0  0
    5.9810    0.8330   18.8060 C   0  0  0  0  0  0  0  0  0  0  0  0
    9.2850   -3.7090   25.1090 C   0  0  0  0  0  0  0  0  0  0  0  0
   11.3551    3.8777   23.2536 C   0  0  0  0  0  0  0  0  0  0  0  0
    7.2210   -0.4620   20.0350 C   0  0  0  0  0  0  0  0  0  0  0  0
    8.0643   -5.4721   26.3672 C   0  0  0  0  0  0  0  0  0  0  0  0
    8.9510    0.1280   21.6880 C   0  0  0  0  0  0  0  0  0  0  0  0
    8.2649   -6.7591   27.1477 C   0  0  0  0  0  0  0  0  0  0  0  0
    9.4073   -6.6157   28.1377 C   0  0  0  0  0  0  0  0  0  0  0  0
   10.6967   -6.1489   27.4694 C   0  0  0  0  0  0  0  0  0  0  0  0
   10.4950   -5.7059   26.0212 C   0  0  0  0  0  0  0  0  0  0  0  0
    8.8757    1.0906   23.9832 C   0  0  0  0  0  0  0  0  0  0  0  0
    9.4200   -0.0840   22.9530 C   0  0  1  0  0  0  0  0  0  0  0  0
    7.6830   -0.5170   18.7600 N   0  0  0  0  0  0  0  0  0  0  0  0
    6.9440    0.2550   18.0100 N   0  0  0  0  0  0  0  0  0  0  0  0
    9.2624   -4.9267   25.8634 N   0  0  0  0  0  0  0  0  0  0  0  0
    8.0810   -0.9750   21.0820 N   0  0  0  0  0  0  0  0  0  0  0  0
    6.9247   -5.0497   26.1749 O   0  0  0  0  0  0  0  0  0  0  0  0
    9.1870    1.1500   21.0630 O   0  0  0  0  0  0  0  0  0  0  0  0
   12.9741    4.0512   22.6963 Cl  0  0  0  0  0  0  0  0  0  0  0  0
    3.6274    2.0126   21.6300 H   0  0  0  0  0  0  0  0  0  0  0  0
    3.2732    2.7875   19.3199 H   0  0  0  0  0  0  0  0  0  0  0  0
    8.7057    5.7480   24.2763 H   0  0  0  0  0  0  0  0  0  0  0  0
    5.4878    0.4645   22.1722 H   0  0  0  0  0  0  0  0  0  0  0  0
    7.7083    3.4977   24.5123 H   0  0  0  0  0  0  0  0  0  0  0  0
    7.5948   -0.7783   24.7966 H   0  0  0  0  0  0  0  0  0  0  0  0
   11.0389   -2.1844   22.6342 H   0  0  0  0  0  0  0  0  0  0  0  0
    4.7853    2.0674   17.4815 H   0  0  0  0  0  0  0  0  0  0  0  0
    7.5642   -2.8624   26.1050 H   0  0  0  0  0  0  0  0  0  0  0  0
   11.0137   -4.2649   23.9418 H   0  0  0  0  0  0  0  0  0  0  0  0
   11.0271    6.0046   23.4760 H   0  0  0  0  0  0  0  0  0  0  0  0
   11.3767    1.7227   23.1369 H   0  0  0  0  0  0  0  0  0  0  0  0
    7.3543   -6.9829   27.6818 H   0  0  0  0  0  0  0  0  0  0  0  0
    8.4783   -7.5436   26.4372 H   0  0  0  0  0  0  0  0  0  0  0  0
    9.1257   -5.9021   28.9399 H   0  0  0  0  0  0  0  0  0  0  0  0
    9.5814   -7.5840   28.6486 H   0  0  0  0  0  0  0  0  0  0  0  0
   11.1319   -5.3094   28.0513 H   0  0  0  0  0  0  0  0  0  0  0  0
   11.4591   -6.9570   27.5118 H   0  0  0  0  0  0  0  0  0  0  0  0
   11.3214   -5.0711   25.7158 H   0  0  0  0  0  0  0  0  0  0  0  0
   10.4496   -6.5786   25.3788 H   0  0  0  0  0  0  0  0  0  0  0  0
    8.9639    0.7632   25.0273 H   0  0  0  0  0  0  0  0  0  0  0  0
    7.7964    1.1765   23.7950 H   0  0  0  0  0  0  0  0  0  0  0  0
   10.5749    0.2253   22.9765 H   0  0  0  0  0  0  0  0  0  0  0  0
    7.1015    0.3608   17.0505 H   0  0  0  0  0  0  0  0  0  0  0  0
    8.1354   -1.7990   21.3694 H   0  0  0  0  0  0  0  0  0  0  0  0
  1  2  1  0  0  0  0
  1  4  2  0  0  0  0
  2  8  2  0  0  0  0
  3  5  2  0  0  0  0
  3 11  1  0  0  0  0
  4 13  1  0  0  0  0
  5 15  1  0  0  0  0
  6  9  2  0  0  0  0
  6 14  1  0  0  0  0
  7 10  1  0  0  0  0
  7 14  2  0  0  0  0
  8 16  1  0  0  0  0
  9 17  1  0  0  0  0
 10 17  2  0  0  0  0
 11 18  2  0  0  0  0
 12 15  2  0  0  0  0
 12 18  1  0  0  0  0
 13 16  2  0  0  0  0
 13 19  1  0  0  0  0
 14 27  1  0  0  0  0
 15 26  1  0  0  0  0
 16 29  1  0  0  0  0
 17 30  1  0  0  0  0
 18 34  1  0  0  0  0
 19 28  2  0  0  0  0
 19 31  1  0  0  0  0
 20 22  1  0  0  0  0
 20 30  1  0  0  0  0
 20 32  2  0  0  0  0
 21 27  1  1  0  0  0
 21 31  1  0  0  0  0
 21 33  2  0  0  0  0
 22 23  1  0  0  0  0
 23 24  1  0  0  0  0
 24 25  1  0  0  0  0
 25 30  1  0  0  0  0
 26 27  1  0  0  0  0
 28 29  1  0  0  0  0
  1 35  1  0  0  0  0
  2 36  1  0  0  0  0
  3 37  1  0  0  0  0
  4 38  1  0  0  0  0
  5 39  1  0  0  0  0
  6 40  1  0  0  0  0
  7 41  1  0  0  0  0
  8 42  1  0  0  0  0
  9 43  1  0  0  0  0
 10 44  1  0  0  0  0
 11 45  1  0  0  0  0
 12 46  1  0  0  0  0
 22 47  1  0  0  0  0
 22 48  1  0  0  0  0
 23 49  1  0  0  0  0
 23 50  1  0  0  0  0
 24 51  1  0  0  0  0
 24 52  1  0  0  0  0
 25 53  1  0  0  0  0
 25 54  1  0  0  0  0
 26 55  1  0  0  0  0
 26 56  1  0  0  0  0
 27 57  1  0  0  0  0
 29 58  1  0  0  0  0
 31 59  1  0  0  0  0
M  END
> <clash_score>
1.2728248649063287

> <docking_score>
-7.835028648376465

> <overlap_score>
0.8818500638008118

$$$$
BENZO_246_2
  -OEChem-08232013493D

 59 63  0     1  0  0  0  0  0999 V2000
    4.2970    1.6690   20.8430 C   0  0  0  0  0  0  0  0  0  0  0  0
    4.0980    2.1130   19.5350 C   0  0  0  0  0  0  0  0  0  0  0  0
   10.2658    4.1447   23.6556 C   0  0  0  0  0  0  0  0  0  0  0  0
    5.3360    0.8000   21.1530 C   0  0  0  0  0  0  0  0  0  0  0  0
   10.1187    2.7577   23.6360 C   0  0  0  0  0  0  0  0  0  0  0  0
    8.3510   -1.5420   24.6110 C   0  0  0  0  0  0  0  0  0  0  0  0
   10.2760   -2.3270   23.4020 C   0  0  0  0  0  0  0  0  0  0  0  0
    4.9400    1.7060   18.5060 C   0  0  0  0  0  0  0  0  0  0  0  0
    8.3310   -2.7170   25.3430 C   0  0  0  0  0  0  0  0  0  0  0  0
   10.2570   -3.5000   24.1350 C   0  0  0  0  0  0  0  0  0  0  0  0
   11.4318    4.7295   23.1615 C   0  0  0  0  0  0  0  0  0  0  0  0
   12.3037    2.5404   22.6282 C   0  0  0  0  0  0  0  0  0  0  0  0
    6.1600    0.3870   20.1140 C   0  0  0  0  0  0  0  0  0  0  0  0
    9.3300   -1.3350   23.6390 C   0  0  0  0  0  0  0  0  0  0  0  0
   11.1377    1.9556   23.1223 C   0  0  0  0  0  0  0  0  0  0  0  0
    5.9810    0.8330   18.8060 C   0  0  0  0  0  0  0  0  0  0  0  0
    9.2850   -3.7090   25.1090 C   0  0  0  0  0  0  0  0  0  0  0  0
   12.4507    3.9273   22.6478 C   0  0  0  0  0  0  0  0  0  0  0  0
    7.2210   -0.4620   20.0350 C   0  0  0  0  0  0  0  0  0  0  0  0
    8.0643   -5.4721   26.3672 C   0  0  0  0  0  0  0  0  0  0  0  0
    8.9510    0.1280   21.6880 C   0  0  0  0  0  0  0  0  0  0  0  0
    8.2649   -6.7591   27.1477 C   0  0  0  0  0  0  0  0  0  0  0  0
    9.4073   -6.6157   28.1377 C   0  0  0  0  0  0  0  0  0  0  0  0
   10.6967   -6.1489   27.4694 C   0  0  0  0  0  0  0  0  0  0  0  0
   10.4950   -5.7059   26.0212 C   0  0  0  0  0  0  0  0  0  0  0  0
   10.9782    0.4527   23.1025 C   0  0  0  0  0  0  0  0  0  0  0  0
    9.4200   -0.0840   22.9530 C   0  0  2  0  0  0  0  0  0  0  0  0
    7.6830   -0.5170   18.7600 N   0  0  0  0  0  0  0  0  0  0  0  0
    6.9440    0.2550   18.0100 N   0  0  0  0  0  0  0  0  0  0  0  0
    9.2624   -4.9267   25.8634 N   0  0  0  0  0  0  0  0  0  0  0  0
    8.0810   -0.9750   21.0820 N   0  0  0  0  0  0  0  0  0  0  0  0
    6.9247   -5.0497   26.1749 O   0  0  0  0  0  0  0  0  0  0  0  0
    9.1870    1.1500   21.0630 O   0  0  0  0  0  0  0  0  0  0  0  0
   13.8895    4.6494   22.0393 Cl  0  0  0  0  0  0  0  0  0  0  0  0
    3.6274    2.0126   21.6300 H   0  0  0  0  0  0  0  0  0  0  0  0
    3.2732    2.7875   19.3199 H   0  0  0  0  0  0  0  0  0  0  0  0
    9.4721    4.7689   24.0559 H   0  0  0  0  0  0  0  0  0  0  0  0
    5.4878    0.4645   22.1722 H   0  0  0  0  0  0  0  0  0  0  0  0
    9.2068    2.3107   24.0232 H   0  0  0  0  0  0  0  0  0  0  0  0
    7.5948   -0.7783   24.7966 H   0  0  0  0  0  0  0  0  0  0  0  0
   11.0389   -2.1844   22.6342 H   0  0  0  0  0  0  0  0  0  0  0  0
    4.7853    2.0674   17.4815 H   0  0  0  0  0  0  0  0  0  0  0  0
    7.5642   -2.8624   26.1050 H   0  0  0  0  0  0  0  0  0  0  0  0
   11.0137   -4.2649   23.9418 H   0  0  0  0  0  0  0  0  0  0  0  0
   11.5327    5.8118   23.1834 H   0  0  0  0  0  0  0  0  0  0  0  0
   13.0951    1.9106   22.2282 H   0  0  0  0  0  0  0  0  0  0  0  0
    7.3543   -6.9829   27.6818 H   0  0  0  0  0  0  0  0  0  0  0  0
    8.4783   -7.5436   26.4372 H   0  0  0  0  0  0  0  0  0  0  0  0
    9.1257   -5.9021   28.9399 H   0  0  0  0  0  0  0  0  0  0  0  0
    9.5814   -7.5840   28.6486 H   0  0  0  0  0  0  0  0  0  0  0  0
   11.1319   -5.3094   28.0513 H   0  0  0  0  0  0  0  0  0  0  0  0
   11.4591   -6.9570   27.5118 H   0  0  0  0  0  0  0  0  0  0  0  0
   11.3214   -5.0711   25.7158 H   0  0  0  0  0  0  0  0  0  0  0  0
   10.4496   -6.5786   25.3788 H   0  0  0  0  0  0  0  0  0  0  0  0
   11.5374    0.0399   22.2527 H   0  0  0  0  0  0  0  0  0  0  0  0
   11.4700    0.0494   23.9985 H   0  0  0  0  0  0  0  0  0  0  0  0
    8.9187    0.7273   23.6745 H   0  0  0  0  0  0  0  0  0  0  0  0
    7.1015    0.3608   17.0505 H   0  0  0  0  0  0  0  0  0  0  0  0
    8.1354   -1.7990   21.3694 H   0  0  0  0  0  0  0  0  0  0  0  0
  1  2  1  0  0  0  0
  1  4  2  0  0  0  0
  2  8  2  0  0  0  0
  3  5  2  0  0  0  0
  3 11  1  0  0  0  0
  4 13  1  0  0  0  0
  5 15  1  0  0  0  0
  6  9  2  0  0  0  0
  6 14  1  0  0  0  0
  7 10  1  0  0  0  0
  7 14  2  0  0  0  0
  8 16  1  0  0  0  0
  9 17  1  0  0  0  0
 10 17  2  0  0  0  0
 11 18  2  0  0  0  0
 12 15  2  0  0  0  0
 12 18  1  0  0  0  0
 13 16  2  0  0  0  0
 13 19  1  0  0  0  0
 14 27  1  0  0  0  0
 15 26  1  0  0  0  0
 16 29  1  0  0  0  0
 17 30  1  0  0  0  0
 18 34  1  0  0  0  0
 19 28  2  0  0  0  0
 19 31  1  0  0  0  0
 20 22  1  0  0  0  0
 20 30  1  0  0  0  0
 20 32  2  0  0  0  0
 21 27  1  6  0  0  0
 21 31  1  0  0  0  0
 21 33  2  0  0  0  0
 22 23  1  0  0  0  0
 23 24  1  0  0  0  0
 24 25  1  0  0  0  0
 25 30  1  0  0  0  0
 26 27  1  0  0  0  0
 28 29  1  0  0  0  0
  1 35  1  0  0  0  0
  2 36  1  0  0  0  0
  3 37  1  0  0  0  0
  4 38  1  0  0  0  0
  5 39  1  0  0  0  0
  6 40  1  0  0  0  0
  7 41  1  0  0  0  0
  8 42  1  0  0  0  0
  9 43  1  0  0  0  0
 10 44  1  0  0  0  0
 11 45  1  0  0  0  0
 12 46  1  0  0  0  0
 22 47  1  0  0  0  0
 22 48  1  0  0  0  0
 23 49  1  0  0  0  0
 23 50  1  0  0  0  0
 24 51  1  0  0  0  0
 24 52  1  0  0  0  0
 25 53  1  0  0  0  0
 25 54  1  0  0  0  0
 26 55  1  0  0  0  0
 26 56  1  0  0  0  0
 27 57  1  0  0  0  0
 29 58  1  0  0  0  0
 31 59  1  0  0  0  0
M  END
> <clash_score>
1.2728248649063287

> <docking_score>
-8.8165922164917

> <overlap_score>
0.946629524230957

$$$$
BENZO_247_1
  -OEChem-08232013493D

 59 63  0     1  0  0  0  0  0999 V2000
    4.2970    1.6690   20.8430 C   0  0  0  0  0  0  0  0  0  0  0  0
    4.0980    2.1130   19.5350 C   0  0  0  0  0  0  0  0  0  0  0  0
    5.3360    0.8000   21.1530 C   0  0  0  0  0  0  0  0  0  0  0  0
    8.3510   -1.5420   24.6110 C   0  0  0  0  0  0  0  0  0  0  0  0
   10.2760   -2.3270   23.4020 C   0  0  0  0  0  0  0  0  0  0  0  0
    4.9400    1.7060   18.5060 C   0  0  0  0  0  0  0  0  0  0  0  0
    8.3310   -2.7170   25.3430 C   0  0  0  0  0  0  0  0  0  0  0  0
   10.2570   -3.5000   24.1350 C   0  0  0  0  0  0  0  0  0  0  0  0
   10.2246    2.9150   23.5994 C   0  0  0  0  0  0  0  0  0  0  0  0
   12.2096    2.6918   22.6803 C   0  0  0  0  0  0  0  0  0  0  0  0
    6.1600    0.3870   20.1140 C   0  0  0  0  0  0  0  0  0  0  0  0
    9.3300   -1.3350   23.6390 C   0  0  0  0  0  0  0  0  0  0  0  0
   11.1377    1.9556   23.1223 C   0  0  0  0  0  0  0  0  0  0  0  0
    5.9810    0.8330   18.8060 C   0  0  0  0  0  0  0  0  0  0  0  0
    9.2850   -3.7090   25.1090 C   0  0  0  0  0  0  0  0  0  0  0  0
    7.2210   -0.4620   20.0350 C   0  0  0  0  0  0  0  0  0  0  0  0
    8.0643   -5.4721   26.3672 C   0  0  0  0  0  0  0  0  0  0  0  0
    8.9510    0.1280   21.6880 C   0  0  0  0  0  0  0  0  0  0  0  0
    8.2649   -6.7591   27.1477 C   0  0  0  0  0  0  0  0  0  0  0  0
    9.4073   -6.6157   28.1377 C   0  0  0  0  0  0  0  0  0  0  0  0
   10.6967   -6.1489   27.4694 C   0  0  0  0  0  0  0  0  0  0  0  0
   10.4950   -5.7059   26.0212 C   0  0  0  0  0  0  0  0  0  0  0  0
   12.7040    5.1473   22.6111 C   0  0  0  0  0  0  0  0  0  0  0  0
   10.9782    0.4527   23.1025 C   0  0  0  0  0  0  0  0  0  0  0  0
    9.4200   -0.0840   22.9530 C   0  0  1  0  0  0  0  0  0  0  0  0
   10.6770    4.1653   23.4725 N   0  0  0  0  0  0  0  0  0  0  0  0
    7.6830   -0.5170   18.7600 N   0  0  0  0  0  0  0  0  0  0  0  0
    6.9440    0.2550   18.0100 N   0  0  0  0  0  0  0  0  0  0  0  0
   11.8861    3.9966   22.9108 N   0  0  0  0  0  0  0  0  0  0  0  0
    9.2624   -4.9267   25.8634 N   0  0  0  0  0  0  0  0  0  0  0  0
    8.0810   -0.9750   21.0820 N   0  0  0  0  0  0  0  0  0  0  0  0
    6.9247   -5.0497   26.1749 O   0  0  0  0  0  0  0  0  0  0  0  0
    9.1870    1.1500   21.0630 O   0  0  0  0  0  0  0  0  0  0  0  0
    3.6274    2.0126   21.6300 H   0  0  0  0  0  0  0  0  0  0  0  0
    3.2732    2.7875   19.3199 H   0  0  0  0  0  0  0  0  0  0  0  0
    5.4878    0.4645   22.1722 H   0  0  0  0  0  0  0  0  0  0  0  0
    7.5948   -0.7783   24.7966 H   0  0  0  0  0  0  0  0  0  0  0  0
   11.0389   -2.1844   22.6342 H   0  0  0  0  0  0  0  0  0  0  0  0
    4.7853    2.0674   17.4815 H   0  0  0  0  0  0  0  0  0  0  0  0
    7.5642   -2.8624   26.1050 H   0  0  0  0  0  0  0  0  0  0  0  0
   11.0137   -4.2649   23.9418 H   0  0  0  0  0  0  0  0  0  0  0  0
    9.2482    2.7575   24.0354 H   0  0  0  0  0  0  0  0  0  0  0  0
   13.1522    2.4055   22.2336 H   0  0  0  0  0  0  0  0  0  0  0  0
    7.3543   -6.9829   27.6818 H   0  0  0  0  0  0  0  0  0  0  0  0
    8.4783   -7.5436   26.4372 H   0  0  0  0  0  0  0  0  0  0  0  0
    9.1257   -5.9021   28.9399 H   0  0  0  0  0  0  0  0  0  0  0  0
    9.5814   -7.5840   28.6486 H   0  0  0  0  0  0  0  0  0  0  0  0
   11.1319   -5.3094   28.0513 H   0  0  0  0  0  0  0  0  0  0  0  0
   11.4591   -6.9570   27.5118 H   0  0  0  0  0  0  0  0  0  0  0  0
   11.3214   -5.0711   25.7158 H   0  0  0  0  0  0  0  0  0  0  0  0
   10.4496   -6.5786   25.3788 H   0  0  0  0  0  0  0  0  0  0  0  0
   12.4645    5.4764   21.5965 H   0  0  0  0  0  0  0  0  0  0  0  0
   12.4916    5.9425   23.3310 H   0  0  0  0  0  0  0  0  0  0  0  0
   13.7592    4.8698   22.6850 H   0  0  0  0  0  0  0  0  0  0  0  0
   11.5374    0.0399   22.2527 H   0  0  0  0  0  0  0  0  0  0  0  0
   11.4700    0.0494   23.9985 H   0  0  0  0  0  0  0  0  0  0  0  0
    8.9187    0.7273   23.6745 H   0  0  0  0  0  0  0  0  0  0  0  0
    7.1015    0.3608   17.0505 H   0  0  0  0  0  0  0  0  0  0  0  0
    8.1354   -1.7990   21.3694 H   0  0  0  0  0  0  0  0  0  0  0  0
  1  2  1  0  0  0  0
  1  3  2  0  0  0  0
  2  6  2  0  0  0  0
  3 11  1  0  0  0  0
  4  7  2  0  0  0  0
  4 12  1  0  0  0  0
  5  8  1  0  0  0  0
  5 12  2  0  0  0  0
  6 14  1  0  0  0  0
  7 15  1  0  0  0  0
  8 15  2  0  0  0  0
  9 13  1  0  0  0  0
  9 26  2  0  0  0  0
 10 13  2  0  0  0  0
 10 29  1  0  0  0  0
 11 14  2  0  0  0  0
 11 16  1  0  0  0  0
 12 25  1  0  0  0  0
 13 24  1  0  0  0  0
 14 28  1  0  0  0  0
 15 30  1  0  0  0  0
 16 27  2  0  0  0  0
 16 31  1  0  0  0  0
 17 19  1  0  0  0  0
 17 30  1  0  0  0  0
 17 32  2  0  0  0  0
 18 25  1  0  0  0  0
 18 31  1  0  0  0  0
 18 33  2  0  0  0  0
 19 20  1  0  0  0  0
 20 21  1  0  0  0  0
 21 22  1  0  0  0  0
 22 30  1  0  0  0  0
 23 29  1  0  0  0  0
 24 25  1  1  0  0  0
 26 29  1  0  0  0  0
 27 28  1  0  0  0  0
  1 34  1  0  0  0  0
  2 35  1  0  0  0  0
  3 36  1  0  0  0  0
  4 37  1  0  0  0  0
  5 38  1  0  0  0  0
  6 39  1  0  0  0  0
  7 40  1  0  0  0  0
  8 41  1  0  0  0  0
  9 42  1  0  0  0  0
 10 43  1  0  0  0  0
 19 44  1  0  0  0  0
 19 45  1  0  0  0  0
 20 46  1  0  0  0  0
 20 47  1  0  0  0  0
 21 48  1  0  0  0  0
 21 49  1  0  0  0  0
 22 50  1  0  0  0  0
 22 51  1  0  0  0  0
 23 52  1  0  0  0  0
 23 53  1  0  0  0  0
 23 54  1  0  0  0  0
 24 55  1  0  0  0  0
 24 56  1  0  0  0  0
 25 57  1  0  0  0  0
 28 58  1  0  0  0  0
 31 59  1  0  0  0  0
M  END
> <clash_score>
1.2728248649063287

> <docking_score>
-8.34345817565918

> <overlap_score>
0.9406476020812988

$$$$
BENZO_247_2
  -OEChem-08232013493D

 59 63  0     1  0  0  0  0  0999 V2000
    4.2970    1.6690   20.8430 C   0  0  0  0  0  0  0  0  0  0  0  0
    4.0980    2.1130   19.5350 C   0  0  0  0  0  0  0  0  0  0  0  0
    5.3360    0.8000   21.1530 C   0  0  0  0  0  0  0  0  0  0  0  0
    8.3510   -1.5420   24.6110 C   0  0  0  0  0  0  0  0  0  0  0  0
   10.2760   -2.3270   23.4020 C   0  0  0  0  0  0  0  0  0  0  0  0
    4.9400    1.7060   18.5060 C   0  0  0  0  0  0  0  0  0  0  0  0
    8.3310   -2.7170   25.3430 C   0  0  0  0  0  0  0  0  0  0  0  0
   10.2570   -3.5000   24.1350 C   0  0  0  0  0  0  0  0  0  0  0  0
   10.7785    2.7976   23.3981 C   0  0  0  0  0  0  0  0  0  0  0  0
    8.8917    3.6777   24.1054 C   0  0  0  0  0  0  0  0  0  0  0  0
    6.1600    0.3870   20.1140 C   0  0  0  0  0  0  0  0  0  0  0  0
    9.3300   -1.3350   23.6390 C   0  0  0  0  0  0  0  0  0  0  0  0
    9.4830    2.4670   23.8385 C   0  0  0  0  0  0  0  0  0  0  0  0
    5.9810    0.8330   18.8060 C   0  0  0  0  0  0  0  0  0  0  0  0
    9.2850   -3.7090   25.1090 C   0  0  0  0  0  0  0  0  0  0  0  0
    7.2210   -0.4620   20.0350 C   0  0  0  0  0  0  0  0  0  0  0  0
    8.0643   -5.4721   26.3672 C   0  0  0  0  0  0  0  0  0  0  0  0
    8.9510    0.1280   21.6880 C   0  0  0  0  0  0  0  0  0  0  0  0
    8.2649   -6.7591   27.1477 C   0  0  0  0  0  0  0  0  0  0  0  0
    9.4073   -6.6157   28.1377 C   0  0  0  0  0  0  0  0  0  0  0  0
   10.6967   -6.1489   27.4694 C   0  0  0  0  0  0  0  0  0  0  0  0
   10.4950   -5.7059   26.0212 C   0  0  0  0  0  0  0  0  0  0  0  0
    9.6751    6.0523   23.9438 C   0  0  0  0  0  0  0  0  0  0  0  0
    8.8757    1.0906   23.9832 C   0  0  0  0  0  0  0  0  0  0  0  0
    9.4200   -0.0840   22.9530 C   0  0  2  0  0  0  0  0  0  0  0  0
   10.9980    4.1151   23.3844 N   0  0  0  0  0  0  0  0  0  0  0  0
    7.6830   -0.5170   18.7600 N   0  0  0  0  0  0  0  0  0  0  0  0
    6.9440    0.2550   18.0100 N   0  0  0  0  0  0  0  0  0  0  0  0
    9.8323    4.6230   23.8195 N   0  0  0  0  0  0  0  0  0  0  0  0
    9.2624   -4.9267   25.8634 N   0  0  0  0  0  0  0  0  0  0  0  0
    8.0810   -0.9750   21.0820 N   0  0  0  0  0  0  0  0  0  0  0  0
    6.9247   -5.0497   26.1749 O   0  0  0  0  0  0  0  0  0  0  0  0
    9.1870    1.1500   21.0630 O   0  0  0  0  0  0  0  0  0  0  0  0
    3.6274    2.0126   21.6300 H   0  0  0  0  0  0  0  0  0  0  0  0
    3.2732    2.7875   19.3199 H   0  0  0  0  0  0  0  0  0  0  0  0
    5.4878    0.4645   22.1722 H   0  0  0  0  0  0  0  0  0  0  0  0
    7.5948   -0.7783   24.7966 H   0  0  0  0  0  0  0  0  0  0  0  0
   11.0389   -2.1844   22.6342 H   0  0  0  0  0  0  0  0  0  0  0  0
    4.7853    2.0674   17.4815 H   0  0  0  0  0  0  0  0  0  0  0  0
    7.5642   -2.8624   26.1050 H   0  0  0  0  0  0  0  0  0  0  0  0
   11.0137   -4.2649   23.9418 H   0  0  0  0  0  0  0  0  0  0  0  0
   11.5733    2.1353   23.0852 H   0  0  0  0  0  0  0  0  0  0  0  0
    7.9058    3.9405   24.4643 H   0  0  0  0  0  0  0  0  0  0  0  0
    7.3543   -6.9829   27.6818 H   0  0  0  0  0  0  0  0  0  0  0  0
    8.4783   -7.5436   26.4372 H   0  0  0  0  0  0  0  0  0  0  0  0
    9.1257   -5.9021   28.9399 H   0  0  0  0  0  0  0  0  0  0  0  0
    9.5814   -7.5840   28.6486 H   0  0  0  0  0  0  0  0  0  0  0  0
   11.1319   -5.3094   28.0513 H   0  0  0  0  0  0  0  0  0  0  0  0
   11.4591   -6.9570   27.5118 H   0  0  0  0  0  0  0  0  0  0  0  0
   11.3214   -5.0711   25.7158 H   0  0  0  0  0  0  0  0  0  0  0  0
   10.4496   -6.5786   25.3788 H   0  0  0  0  0  0  0  0  0  0  0  0
    9.9837    6.3390   24.9526 H   0  0  0  0  0  0  0  0  0  0  0  0
   10.2971    6.5534   23.1968 H   0  0  0  0  0  0  0  0  0  0  0  0
    8.6278    6.3169   23.7735 H   0  0  0  0  0  0  0  0  0  0  0  0
    8.9639    0.7632   25.0273 H   0  0  0  0  0  0  0  0  0  0  0  0
    7.7964    1.1765   23.7950 H   0  0  0  0  0  0  0  0  0  0  0  0
   10.5749    0.2253   22.9765 H   0  0  0  0  0  0  0  0  0  0  0  0
    7.1015    0.3608   17.0505 H   0  0  0  0  0  0  0  0  0  0  0  0
    8.1354   -1.7990   21.3694 H   0  0  0  0  0  0  0  0  0  0  0  0
  1  2  1  0  0  0  0
  1  3  2  0  0  0  0
  2  6  2  0  0  0  0
  3 11  1  0  0  0  0
  4  7  2  0  0  0  0
  4 12  1  0  0  0  0
  5  8  1  0  0  0  0
  5 12  2  0  0  0  0
  6 14  1  0  0  0  0
  7 15  1  0  0  0  0
  8 15  2  0  0  0  0
  9 13  1  0  0  0  0
  9 26  2  0  0  0  0
 10 13  2  0  0  0  0
 10 29  1  0  0  0  0
 11 14  2  0  0  0  0
 11 16  1  0  0  0  0
 12 25  1  0  0  0  0
 13 24  1  0  0  0  0
 14 28  1  0  0  0  0
 15 30  1  0  0  0  0
 16 27  2  0  0  0  0
 16 31  1  0  0  0  0
 17 19  1  0  0  0  0
 17 30  1  0  0  0  0
 17 32  2  0  0  0  0
 18 25  1  0  0  0  0
 18 31  1  0  0  0  0
 18 33  2  0  0  0  0
 19 20  1  0  0  0  0
 20 21  1  0  0  0  0
 21 22  1  0  0  0  0
 22 30  1  0  0  0  0
 23 29  1  0  0  0  0
 24 25  1  6  0  0  0
 26 29  1  0  0  0  0
 27 28  1  0  0  0  0
  1 34  1  0  0  0  0
  2 35  1  0  0  0  0
  3 36  1  0  0  0  0
  4 37  1  0  0  0  0
  5 38  1  0  0  0  0
  6 39  1  0  0  0  0
  7 40  1  0  0  0  0
  8 41  1  0  0  0  0
  9 42  1  0  0  0  0
 10 43  1  0  0  0  0
 19 44  1  0  0  0  0
 19 45  1  0  0  0  0
 20 46  1  0  0  0  0
 20 47  1  0  0  0  0
 21 48  1  0  0  0  0
 21 49  1  0  0  0  0
 22 50  1  0  0  0  0
 22 51  1  0  0  0  0
 23 52  1  0  0  0  0
 23 53  1  0  0  0  0
 23 54  1  0  0  0  0
 24 55  1  0  0  0  0
 24 56  1  0  0  0  0
 25 57  1  0  0  0  0
 28 58  1  0  0  0  0
 31 59  1  0  0  0  0
M  END
> <clash_score>
1.2728248649063287

> <docking_score>
-7.138671875

> <overlap_score>
0.8674866557121277

$$$$
BENZO_249_2
  -OEChem-08232013493D

 58 62  0     1  0  0  0  0  0999 V2000
   11.4307    4.7297   23.1589 C   0  0  0  0  0  0  0  0  0  0  0  0
    4.2970    1.6690   20.8430 C   0  0  0  0  0  0  0  0  0  0  0  0
   12.4501    3.9274   22.6463 C   0  0  0  0  0  0  0  0  0  0  0  0
   10.2648    4.1449   23.6533 C   0  0  0  0  0  0  0  0  0  0  0  0
    4.0980    2.1130   19.5350 C   0  0  0  0  0  0  0  0  0  0  0  0
    5.3360    0.8000   21.1530 C   0  0  0  0  0  0  0  0  0  0  0  0
   12.3036    2.5404   22.6279 C   0  0  0  0  0  0  0  0  0  0  0  0
   10.1183    2.7579   23.6349 C   0  0  0  0  0  0  0  0  0  0  0  0
    8.3510   -1.5420   24.6110 C   0  0  0  0  0  0  0  0  0  0  0  0
   10.2760   -2.3270   23.4020 C   0  0  0  0  0  0  0  0  0  0  0  0
    4.9400    1.7060   18.5060 C   0  0  0  0  0  0  0  0  0  0  0  0
    8.3310   -2.7170   25.3430 C   0  0  0  0  0  0  0  0  0  0  0  0
   10.2570   -3.5000   24.1350 C   0  0  0  0  0  0  0  0  0  0  0  0
    6.1600    0.3870   20.1140 C   0  0  0  0  0  0  0  0  0  0  0  0
   11.1377    1.9556   23.1223 C   0  0  0  0  0  0  0  0  0  0  0  0
    9.3300   -1.3350   23.6390 C   0  0  0  0  0  0  0  0  0  0  0  0
    5.9810    0.8330   18.8060 C   0  0  0  0  0  0  0  0  0  0  0  0
    9.2850   -3.7090   25.1090 C   0  0  0  0  0  0  0  0  0  0  0  0
    7.2210   -0.4620   20.0350 C   0  0  0  0  0  0  0  0  0  0  0  0
    8.9510    0.1280   21.6880 C   0  0  0  0  0  0  0  0  0  0  0  0
    8.7671   -4.9535   27.2147 C   0  0  0  0  0  0  0  0  0  0  0  0
    9.3066   -6.1865   25.1649 C   0  0  0  0  0  0  0  0  0  0  0  0
    7.3847   -5.5970   27.2000 C   0  0  0  0  0  0  0  0  0  0  0  0
    7.9070   -6.7999   25.2264 C   0  0  0  0  0  0  0  0  0  0  0  0
   10.9782    0.4528   23.1025 C   0  0  0  0  0  0  0  0  0  0  0  0
    9.4200   -0.0840   22.9530 C   0  0  2  0  0  0  0  0  0  0  0  0
    7.6830   -0.5170   18.7600 N   0  0  0  0  0  0  0  0  0  0  0  0
    6.9440    0.2550   18.0100 N   0  0  0  0  0  0  0  0  0  0  0  0
    9.2641   -4.8845   25.8388 N   0  0  0  0  0  0  0  0  0  0  0  0
    8.0810   -0.9750   21.0820 N   0  0  0  0  0  0  0  0  0  0  0  0
    9.1870    1.1500   21.0630 O   0  0  0  0  0  0  0  0  0  0  0  0
    7.4533   -6.8877   26.5818 O   0  0  0  0  0  0  0  0  0  0  0  0
   11.5455    5.8096   23.1743 H   0  0  0  0  0  0  0  0  0  0  0  0
    3.6274    2.0126   21.6300 H   0  0  0  0  0  0  0  0  0  0  0  0
   13.3585    4.3825   22.2623 H   0  0  0  0  0  0  0  0  0  0  0  0
    9.4714    4.7691   24.0535 H   0  0  0  0  0  0  0  0  0  0  0  0
    3.2732    2.7875   19.3199 H   0  0  0  0  0  0  0  0  0  0  0  0
    5.4878    0.4645   22.1722 H   0  0  0  0  0  0  0  0  0  0  0  0
   13.1030    1.9232   22.2264 H   0  0  0  0  0  0  0  0  0  0  0  0
    9.2064    2.3111   24.0221 H   0  0  0  0  0  0  0  0  0  0  0  0
    7.5957   -0.7779   24.7973 H   0  0  0  0  0  0  0  0  0  0  0  0
   11.0384   -2.1852   22.6338 H   0  0  0  0  0  0  0  0  0  0  0  0
    4.7853    2.0674   17.4815 H   0  0  0  0  0  0  0  0  0  0  0  0
    7.5634   -2.8637   26.1037 H   0  0  0  0  0  0  0  0  0  0  0  0
   11.0139   -4.2645   23.9419 H   0  0  0  0  0  0  0  0  0  0  0  0
    8.7013   -3.9575   27.6574 H   0  0  0  0  0  0  0  0  0  0  0  0
    9.4480   -5.5636   27.8142 H   0  0  0  0  0  0  0  0  0  0  0  0
   10.0131   -6.8375   25.6814 H   0  0  0  0  0  0  0  0  0  0  0  0
    9.6116   -6.0794   24.1250 H   0  0  0  0  0  0  0  0  0  0  0  0
    7.0306   -5.7388   28.2232 H   0  0  0  0  0  0  0  0  0  0  0  0
    6.6546   -4.9740   26.6757 H   0  0  0  0  0  0  0  0  0  0  0  0
    7.1892   -6.2226   24.6319 H   0  0  0  0  0  0  0  0  0  0  0  0
    7.9315   -7.8151   24.8187 H   0  0  0  0  0  0  0  0  0  0  0  0
   11.5374    0.0399   22.2527 H   0  0  0  0  0  0  0  0  0  0  0  0
   11.4700    0.0494   23.9985 H   0  0  0  0  0  0  0  0  0  0  0  0
    8.9187    0.7273   23.6745 H   0  0  0  0  0  0  0  0  0  0  0  0
    7.1015    0.3608   17.0505 H   0  0  0  0  0  0  0  0  0  0  0  0
    8.1354   -1.7990   21.3694 H   0  0  0  0  0  0  0  0  0  0  0  0
  1  3  1  0  0  0  0
  1  4  2  0  0  0  0
  2  5  1  0  0  0  0
  2  6  2  0  0  0  0
  3  7  2  0  0  0  0
  4  8  1  0  0  0  0
  5 11  2  0  0  0  0
  6 14  1  0  0  0  0
  7 15  1  0  0  0  0
  8 15  2  0  0  0  0
  9 12  2  0  0  0  0
  9 16  1  0  0  0  0
 10 13  1  0  0  0  0
 10 16  2  0  0  0  0
 11 17  1  0  0  0  0
 12 18  1  0  0  0  0
 13 18  2  0  0  0  0
 14 17  2  0  0  0  0
 14 19  1  0  0  0  0
 15 25  1  0  0  0  0
 16 26  1  0  0  0  0
 17 28  1  0  0  0  0
 18 29  1  0  0  0  0
 19 27  2  0  0  0  0
 19 30  1  0  0  0  0
 20 26  1  6  0  0  0
 20 30  1  0  0  0  0
 20 31  2  0  0  0  0
 21 23  1  0  0  0  0
 21 29  1  0  0  0  0
 22 24  1  0  0  0  0
 22 29  1  0  0  0  0
 23 32  1  0  0  0  0
 24 32  1  0  0  0  0
 25 26  1  0  0  0  0
 27 28  1  0  0  0  0
  1 33  1  0  0  0  0
  2 34  1  0  0  0  0
  3 35  1  0  0  0  0
  4 36  1  0  0  0  0
  5 37  1  0  0  0  0
  6 38  1  0  0  0  0
  7 39  1  0  0  0  0
  8 40  1  0  0  0  0
  9 41  1  0  0  0  0
 10 42  1  0  0  0  0
 11 43  1  0  0  0  0
 12 44  1  0  0  0  0
 13 45  1  0  0  0  0
 21 46  1  0  0  0  0
 21 47  1  0  0  0  0
 22 48  1  0  0  0  0
 22 49  1  0  0  0  0
 23 50  1  0  0  0  0
 23 51  1  0  0  0  0
 24 52  1  0  0  0  0
 24 53  1  0  0  0  0
 25 54  1  0  0  0  0
 25 55  1  0  0  0  0
 26 56  1  0  0  0  0
 28 57  1  0  0  0  0
 30 58  1  0  0  0  0
M  END
> <clash_score>
0

> <docking_score>
-9.629911422729492

> <overlap_score>
0.9464921355247498

$$$$
BENZO_249_1
  -OEChem-08232013493D

 58 62  0     1  0  0  0  0  0999 V2000
   10.6051    5.0072   23.5714 C   0  0  0  0  0  0  0  0  0  0  0  0
    4.2970    1.6690   20.8430 C   0  0  0  0  0  0  0  0  0  0  0  0
    9.2931    4.8685   24.0240 C   0  0  0  0  0  0  0  0  0  0  0  0
   11.3561    3.8759   23.2522 C   0  0  0  0  0  0  0  0  0  0  0  0
    4.0980    2.1130   19.5350 C   0  0  0  0  0  0  0  0  0  0  0  0
    5.3360    0.8000   21.1530 C   0  0  0  0  0  0  0  0  0  0  0  0
    8.7320    3.5984   24.1576 C   0  0  0  0  0  0  0  0  0  0  0  0
   10.7950    2.6058   23.3857 C   0  0  0  0  0  0  0  0  0  0  0  0
    8.3510   -1.5420   24.6110 C   0  0  0  0  0  0  0  0  0  0  0  0
   10.2760   -2.3270   23.4020 C   0  0  0  0  0  0  0  0  0  0  0  0
    4.9400    1.7060   18.5060 C   0  0  0  0  0  0  0  0  0  0  0  0
    8.3310   -2.7170   25.3430 C   0  0  0  0  0  0  0  0  0  0  0  0
   10.2570   -3.5000   24.1350 C   0  0  0  0  0  0  0  0  0  0  0  0
    6.1600    0.3870   20.1140 C   0  0  0  0  0  0  0  0  0  0  0  0
    9.4829    2.4671   23.8384 C   0  0  0  0  0  0  0  0  0  0  0  0
    9.3300   -1.3350   23.6390 C   0  0  0  0  0  0  0  0  0  0  0  0
    5.9810    0.8330   18.8060 C   0  0  0  0  0  0  0  0  0  0  0  0
    9.2850   -3.7090   25.1090 C   0  0  0  0  0  0  0  0  0  0  0  0
    7.2210   -0.4620   20.0350 C   0  0  0  0  0  0  0  0  0  0  0  0
    8.9510    0.1280   21.6880 C   0  0  0  0  0  0  0  0  0  0  0  0
    8.7671   -4.9535   27.2147 C   0  0  0  0  0  0  0  0  0  0  0  0
    9.3066   -6.1865   25.1649 C   0  0  0  0  0  0  0  0  0  0  0  0
    7.3847   -5.5970   27.2000 C   0  0  0  0  0  0  0  0  0  0  0  0
    7.9070   -6.7999   25.2264 C   0  0  0  0  0  0  0  0  0  0  0  0
    8.8757    1.0906   23.9831 C   0  0  0  0  0  0  0  0  0  0  0  0
    9.4200   -0.0840   22.9530 C   0  0  1  0  0  0  0  0  0  0  0  0
    7.6830   -0.5170   18.7600 N   0  0  0  0  0  0  0  0  0  0  0  0
    6.9440    0.2550   18.0100 N   0  0  0  0  0  0  0  0  0  0  0  0
    9.2641   -4.8845   25.8388 N   0  0  0  0  0  0  0  0  0  0  0  0
    8.0810   -0.9750   21.0820 N   0  0  0  0  0  0  0  0  0  0  0  0
    9.1870    1.1500   21.0630 O   0  0  0  0  0  0  0  0  0  0  0  0
    7.4533   -6.8877   26.5818 O   0  0  0  0  0  0  0  0  0  0  0  0
   11.0414    5.9962   23.4662 H   0  0  0  0  0  0  0  0  0  0  0  0
    3.6274    2.0126   21.6300 H   0  0  0  0  0  0  0  0  0  0  0  0
    8.7078    5.7493   24.2716 H   0  0  0  0  0  0  0  0  0  0  0  0
   12.3772    3.9835   22.8987 H   0  0  0  0  0  0  0  0  0  0  0  0
    3.2732    2.7875   19.3199 H   0  0  0  0  0  0  0  0  0  0  0  0
    5.4878    0.4645   22.1722 H   0  0  0  0  0  0  0  0  0  0  0  0
    7.7090    3.4999   24.5112 H   0  0  0  0  0  0  0  0  0  0  0  0
   11.3876    1.7301   23.1348 H   0  0  0  0  0  0  0  0  0  0  0  0
    7.5957   -0.7779   24.7973 H   0  0  0  0  0  0  0  0  0  0  0  0
   11.0384   -2.1852   22.6338 H   0  0  0  0  0  0  0  0  0  0  0  0
    4.7853    2.0674   17.4815 H   0  0  0  0  0  0  0  0  0  0  0  0
    7.5634   -2.8637   26.1037 H   0  0  0  0  0  0  0  0  0  0  0  0
   11.0139   -4.2645   23.9419 H   0  0  0  0  0  0  0  0  0  0  0  0
    8.7013   -3.9575   27.6574 H   0  0  0  0  0  0  0  0  0  0  0  0
    9.4480   -5.5636   27.8142 H   0  0  0  0  0  0  0  0  0  0  0  0
   10.0131   -6.8375   25.6814 H   0  0  0  0  0  0  0  0  0  0  0  0
    9.6116   -6.0794   24.1250 H   0  0  0  0  0  0  0  0  0  0  0  0
    7.0306   -5.7388   28.2232 H   0  0  0  0  0  0  0  0  0  0  0  0
    6.6546   -4.9740   26.6757 H   0  0  0  0  0  0  0  0  0  0  0  0
    7.1892   -6.2226   24.6319 H   0  0  0  0  0  0  0  0  0  0  0  0
    7.9315   -7.8151   24.8187 H   0  0  0  0  0  0  0  0  0  0  0  0
    8.9639    0.7632   25.0273 H   0  0  0  0  0  0  0  0  0  0  0  0
    7.7964    1.1765   23.7949 H   0  0  0  0  0  0  0  0  0  0  0  0
   10.5749    0.2253   22.9765 H   0  0  0  0  0  0  0  0  0  0  0  0
    7.1015    0.3608   17.0505 H   0  0  0  0  0  0  0  0  0  0  0  0
    8.1354   -1.7990   21.3694 H   0  0  0  0  0  0  0  0  0  0  0  0
  1  3  1  0  0  0  0
  1  4  2  0  0  0  0
  2  5  1  0  0  0  0
  2  6  2  0  0  0  0
  3  7  2  0  0  0  0
  4  8  1  0  0  0  0
  5 11  2  0  0  0  0
  6 14  1  0  0  0  0
  7 15  1  0  0  0  0
  8 15  2  0  0  0  0
  9 12  2  0  0  0  0
  9 16  1  0  0  0  0
 10 13  1  0  0  0  0
 10 16  2  0  0  0  0
 11 17  1  0  0  0  0
 12 18  1  0  0  0  0
 13 18  2  0  0  0  0
 14 17  2  0  0  0  0
 14 19  1  0  0  0  0
 15 25  1  0  0  0  0
 16 26  1  0  0  0  0
 17 28  1  0  0  0  0
 18 29  1  0  0  0  0
 19 27  2  0  0  0  0
 19 30  1  0  0  0  0
 20 26  1  1  0  0  0
 20 30  1  0  0  0  0
 20 31  2  0  0  0  0
 21 23  1  0  0  0  0
 21 29  1  0  0  0  0
 22 24  1  0  0  0  0
 22 29  1  0  0  0  0
 23 32  1  0  0  0  0
 24 32  1  0  0  0  0
 25 26  1  0  0  0  0
 27 28  1  0  0  0  0
  1 33  1  0  0  0  0
  2 34  1  0  0  0  0
  3 35  1  0  0  0  0
  4 36  1  0  0  0  0
  5 37  1  0  0  0  0
  6 38  1  0  0  0  0
  7 39  1  0  0  0  0
  8 40  1  0  0  0  0
  9 41  1  0  0  0  0
 10 42  1  0  0  0  0
 11 43  1  0  0  0  0
 12 44  1  0  0  0  0
 13 45  1  0  0  0  0
 21 46  1  0  0  0  0
 21 47  1  0  0  0  0
 22 48  1  0  0  0  0
 22 49  1  0  0  0  0
 23 50  1  0  0  0  0
 23 51  1  0  0  0  0
 24 52  1  0  0  0  0
 24 53  1  0  0  0  0
 25 54  1  0  0  0  0
 25 55  1  0  0  0  0
 26 56  1  0  0  0  0
 28 57  1  0  0  0  0
 30 58  1  0  0  0  0
M  END
> <clash_score>
0

> <docking_score>
-8.523990631103516

> <overlap_score>
0.8748704791069031

$$$$
BENZO_248_1
  -OEChem-08232013493D

 55 59  0     1  0  0  0  0  0999 V2000
    4.2970    1.6690   20.8430 C   0  0  0  0  0  0  0  0  0  0  0  0
    4.0980    2.1130   19.5350 C   0  0  0  0  0  0  0  0  0  0  0  0
    5.3360    0.8000   21.1530 C   0  0  0  0  0  0  0  0  0  0  0  0
    8.3510   -1.5420   24.6110 C   0  0  0  0  0  0  0  0  0  0  0  0
   10.2760   -2.3270   23.4020 C   0  0  0  0  0  0  0  0  0  0  0  0
    4.9400    1.7060   18.5060 C   0  0  0  0  0  0  0  0  0  0  0  0
    8.3310   -2.7170   25.3430 C   0  0  0  0  0  0  0  0  0  0  0  0
   10.2570   -3.5000   24.1350 C   0  0  0  0  0  0  0  0  0  0  0  0
   10.8518    2.7022   23.5205 C   0  0  0  0  0  0  0  0  0  0  0  0
   11.1431    4.0467   23.4499 C   0  0  0  0  0  0  0  0  0  0  0  0
    8.7801    3.6410   23.9989 C   0  0  0  0  0  0  0  0  0  0  0  0
    6.1600    0.3870   20.1140 C   0  0  0  0  0  0  0  0  0  0  0  0
    9.3300   -1.3350   23.6390 C   0  0  0  0  0  0  0  0  0  0  0  0
    9.4829    2.4671   23.8384 C   0  0  0  0  0  0  0  0  0  0  0  0
    5.9810    0.8330   18.8060 C   0  0  0  0  0  0  0  0  0  0  0  0
    9.2850   -3.7090   25.1090 C   0  0  0  0  0  0  0  0  0  0  0  0
    7.2210   -0.4620   20.0350 C   0  0  0  0  0  0  0  0  0  0  0  0
    8.9510    0.1280   21.6880 C   0  0  0  0  0  0  0  0  0  0  0  0
    8.7671   -4.9535   27.2147 C   0  0  0  0  0  0  0  0  0  0  0  0
    9.3066   -6.1865   25.1649 C   0  0  0  0  0  0  0  0  0  0  0  0
    7.3847   -5.5970   27.2000 C   0  0  0  0  0  0  0  0  0  0  0  0
    7.9070   -6.7999   25.2264 C   0  0  0  0  0  0  0  0  0  0  0  0
    8.8757    1.0906   23.9831 C   0  0  0  0  0  0  0  0  0  0  0  0
    9.4200   -0.0840   22.9530 C   0  0  1  0  0  0  0  0  0  0  0  0
    7.6830   -0.5170   18.7600 N   0  0  0  0  0  0  0  0  0  0  0  0
    6.9440    0.2550   18.0100 N   0  0  0  0  0  0  0  0  0  0  0  0
    9.2641   -4.8845   25.8388 N   0  0  0  0  0  0  0  0  0  0  0  0
    8.0810   -0.9750   21.0820 N   0  0  0  0  0  0  0  0  0  0  0  0
    9.1870    1.1500   21.0630 O   0  0  0  0  0  0  0  0  0  0  0  0
    7.4533   -6.8877   26.5818 O   0  0  0  0  0  0  0  0  0  0  0  0
    9.7695    5.0191   23.7662 S   0  0  0  0  0  0  0  0  0  0  0  0
    3.6274    2.0126   21.6300 H   0  0  0  0  0  0  0  0  0  0  0  0
    3.2732    2.7875   19.3199 H   0  0  0  0  0  0  0  0  0  0  0  0
    5.4878    0.4645   22.1722 H   0  0  0  0  0  0  0  0  0  0  0  0
    7.5957   -0.7779   24.7973 H   0  0  0  0  0  0  0  0  0  0  0  0
   11.0384   -2.1852   22.6338 H   0  0  0  0  0  0  0  0  0  0  0  0
    4.7853    2.0674   17.4815 H   0  0  0  0  0  0  0  0  0  0  0  0
    7.5634   -2.8637   26.1037 H   0  0  0  0  0  0  0  0  0  0  0  0
   11.0139   -4.2645   23.9419 H   0  0  0  0  0  0  0  0  0  0  0  0
   11.5890    1.9274   23.3518 H   0  0  0  0  0  0  0  0  0  0  0  0
   12.0968    4.5045   23.2284 H   0  0  0  0  0  0  0  0  0  0  0  0
    7.7334    3.7598   24.2427 H   0  0  0  0  0  0  0  0  0  0  0  0
    8.7013   -3.9575   27.6574 H   0  0  0  0  0  0  0  0  0  0  0  0
    9.4480   -5.5636   27.8142 H   0  0  0  0  0  0  0  0  0  0  0  0
   10.0131   -6.8375   25.6814 H   0  0  0  0  0  0  0  0  0  0  0  0
    9.6116   -6.0794   24.1250 H   0  0  0  0  0  0  0  0  0  0  0  0
    7.0306   -5.7388   28.2232 H   0  0  0  0  0  0  0  0  0  0  0  0
    6.6546   -4.9740   26.6757 H   0  0  0  0  0  0  0  0  0  0  0  0
    7.1892   -6.2226   24.6319 H   0  0  0  0  0  0  0  0  0  0  0  0
    7.9315   -7.8151   24.8187 H   0  0  0  0  0  0  0  0  0  0  0  0
    8.9639    0.7632   25.0273 H   0  0  0  0  0  0  0  0  0  0  0  0
    7.7964    1.1765   23.7949 H   0  0  0  0  0  0  0  0  0  0  0  0
   10.5749    0.2253   22.9765 H   0  0  0  0  0  0  0  0  0  0  0  0
    7.1015    0.3608   17.0505 H   0  0  0  0  0  0  0  0  0  0  0  0
    8.1354   -1.7990   21.3694 H   0  0  0  0  0  0  0  0  0  0  0  0
  1  2  1  0  0  0  0
  1  3  2  0  0  0  0
  2  6  2  0  0  0  0
  3 12  1  0  0  0  0
  4  7  2  0  0  0  0
  4 13  1  0  0  0  0
  5  8  1  0  0  0  0
  5 13  2  0  0  0  0
  6 15  1  0  0  0  0
  7 16  1  0  0  0  0
  8 16  2  0  0  0  0
  9 10  2  0  0  0  0
  9 14  1  0  0  0  0
 10 31  1  0  0  0  0
 11 14  2  0  0  0  0
 11 31  1  0  0  0  0
 12 15  2  0  0  0  0
 12 17  1  0  0  0  0
 13 24  1  0  0  0  0
 14 23  1  0  0  0  0
 15 26  1  0  0  0  0
 16 27  1  0  0  0  0
 17 25  2  0  0  0  0
 17 28  1  0  0  0  0
 18 24  1  1  0  0  0
 18 28  1  0  0  0  0
 18 29  2  0  0  0  0
 19 21  1  0  0  0  0
 19 27  1  0  0  0  0
 20 22  1  0  0  0  0
 20 27  1  0  0  0  0
 21 30  1  0  0  0  0
 22 30  1  0  0  0  0
 23 24  1  0  0  0  0
 25 26  1  0  0  0  0
  1 32  1  0  0  0  0
  2 33  1  0  0  0  0
  3 34  1  0  0  0  0
  4 35  1  0  0  0  0
  5 36  1  0  0  0  0
  6 37  1  0  0  0  0
  7 38  1  0  0  0  0
  8 39  1  0  0  0  0
  9 40  1  0  0  0  0
 10 41  1  0  0  0  0
 11 42  1  0  0  0  0
 19 43  1  0  0  0  0
 19 44  1  0  0  0  0
 20 45  1  0  0  0  0
 20 46  1  0  0  0  0
 21 47  1  0  0  0  0
 21 48  1  0  0  0  0
 22 49  1  0  0  0  0
 22 50  1  0  0  0  0
 23 51  1  0  0  0  0
 23 52  1  0  0  0  0
 24 53  1  0  0  0  0
 26 54  1  0  0  0  0
 28 55  1  0  0  0  0
M  END
> <clash_score>
0

> <docking_score>
-8.243438720703125

> <overlap_score>
0.8722468018531799

$$$$
BENZO_248_2
  -OEChem-08232013493D

 55 59  0     1  0  0  0  0  0999 V2000
    4.2970    1.6690   20.8430 C   0  0  0  0  0  0  0  0  0  0  0  0
    4.0980    2.1130   19.5350 C   0  0  0  0  0  0  0  0  0  0  0  0
    5.3360    0.8000   21.1530 C   0  0  0  0  0  0  0  0  0  0  0  0
    8.3510   -1.5420   24.6110 C   0  0  0  0  0  0  0  0  0  0  0  0
   10.2760   -2.3270   23.4020 C   0  0  0  0  0  0  0  0  0  0  0  0
    4.9400    1.7060   18.5060 C   0  0  0  0  0  0  0  0  0  0  0  0
    8.3310   -2.7170   25.3430 C   0  0  0  0  0  0  0  0  0  0  0  0
   10.2570   -3.5000   24.1350 C   0  0  0  0  0  0  0  0  0  0  0  0
   11.9035    2.6860   22.1682 C   0  0  0  0  0  0  0  0  0  0  0  0
   11.8836    4.0408   22.4165 C   0  0  0  0  0  0  0  0  0  0  0  0
   10.5617    2.7801   24.0637 C   0  0  0  0  0  0  0  0  0  0  0  0
    6.1600    0.3870   20.1140 C   0  0  0  0  0  0  0  0  0  0  0  0
    9.3300   -1.3350   23.6390 C   0  0  0  0  0  0  0  0  0  0  0  0
   11.1377    1.9556   23.1223 C   0  0  0  0  0  0  0  0  0  0  0  0
    5.9810    0.8330   18.8060 C   0  0  0  0  0  0  0  0  0  0  0  0
    9.2850   -3.7090   25.1090 C   0  0  0  0  0  0  0  0  0  0  0  0
    7.2210   -0.4620   20.0350 C   0  0  0  0  0  0  0  0  0  0  0  0
    8.9510    0.1280   21.6880 C   0  0  0  0  0  0  0  0  0  0  0  0
    8.7671   -4.9535   27.2147 C   0  0  0  0  0  0  0  0  0  0  0  0
    9.3066   -6.1865   25.1649 C   0  0  0  0  0  0  0  0  0  0  0  0
    7.3847   -5.5970   27.2000 C   0  0  0  0  0  0  0  0  0  0  0  0
    7.9070   -6.7999   25.2264 C   0  0  0  0  0  0  0  0  0  0  0  0
   10.9782    0.4528   23.1025 C   0  0  0  0  0  0  0  0  0  0  0  0
    9.4200   -0.0840   22.9530 C   0  0  2  0  0  0  0  0  0  0  0  0
    7.6830   -0.5170   18.7600 N   0  0  0  0  0  0  0  0  0  0  0  0
    6.9440    0.2550   18.0100 N   0  0  0  0  0  0  0  0  0  0  0  0
    9.2641   -4.8845   25.8388 N   0  0  0  0  0  0  0  0  0  0  0  0
    8.0810   -0.9750   21.0820 N   0  0  0  0  0  0  0  0  0  0  0  0
    9.1870    1.1500   21.0630 O   0  0  0  0  0  0  0  0  0  0  0  0
    7.4533   -6.8877   26.5818 O   0  0  0  0  0  0  0  0  0  0  0  0
   10.9445    4.4275   23.7953 S   0  0  0  0  0  0  0  0  0  0  0  0
    3.6274    2.0126   21.6300 H   0  0  0  0  0  0  0  0  0  0  0  0
    3.2732    2.7875   19.3199 H   0  0  0  0  0  0  0  0  0  0  0  0
    5.4878    0.4645   22.1722 H   0  0  0  0  0  0  0  0  0  0  0  0
    7.5957   -0.7779   24.7973 H   0  0  0  0  0  0  0  0  0  0  0  0
   11.0384   -2.1852   22.6338 H   0  0  0  0  0  0  0  0  0  0  0  0
    4.7853    2.0674   17.4815 H   0  0  0  0  0  0  0  0  0  0  0  0
    7.5634   -2.8637   26.1037 H   0  0  0  0  0  0  0  0  0  0  0  0
   11.0139   -4.2645   23.9419 H   0  0  0  0  0  0  0  0  0  0  0  0
   12.4436    2.2440   21.3404 H   0  0  0  0  0  0  0  0  0  0  0  0
   12.3760    4.8219   21.8548 H   0  0  0  0  0  0  0  0  0  0  0  0
    9.9349    2.4981   24.8983 H   0  0  0  0  0  0  0  0  0  0  0  0
    8.7013   -3.9575   27.6574 H   0  0  0  0  0  0  0  0  0  0  0  0
    9.4480   -5.5636   27.8142 H   0  0  0  0  0  0  0  0  0  0  0  0
   10.0131   -6.8375   25.6814 H   0  0  0  0  0  0  0  0  0  0  0  0
    9.6116   -6.0794   24.1250 H   0  0  0  0  0  0  0  0  0  0  0  0
    7.0306   -5.7388   28.2232 H   0  0  0  0  0  0  0  0  0  0  0  0
    6.6546   -4.9740   26.6757 H   0  0  0  0  0  0  0  0  0  0  0  0
    7.1892   -6.2226   24.6319 H   0  0  0  0  0  0  0  0  0  0  0  0
    7.9315   -7.8151   24.8187 H   0  0  0  0  0  0  0  0  0  0  0  0
   11.5374    0.0399   22.2527 H   0  0  0  0  0  0  0  0  0  0  0  0
   11.4700    0.0494   23.9985 H   0  0  0  0  0  0  0  0  0  0  0  0
    8.9187    0.7273   23.6745 H   0  0  0  0  0  0  0  0  0  0  0  0
    7.1015    0.3608   17.0505 H   0  0  0  0  0  0  0  0  0  0  0  0
    8.1354   -1.7990   21.3694 H   0  0  0  0  0  0  0  0  0  0  0  0
  1  2  1  0  0  0  0
  1  3  2  0  0  0  0
  2  6  2  0  0  0  0
  3 12  1  0  0  0  0
  4  7  2  0  0  0  0
  4 13  1  0  0  0  0
  5  8  1  0  0  0  0
  5 13  2  0  0  0  0
  6 15  1  0  0  0  0
  7 16  1  0  0  0  0
  8 16  2  0  0  0  0
  9 10  2  0  0  0  0
  9 14  1  0  0  0  0
 10 31  1  0  0  0  0
 11 14  2  0  0  0  0
 11 31  1  0  0  0  0
 12 15  2  0  0  0  0
 12 17  1  0  0  0  0
 13 24  1  0  0  0  0
 14 23  1  0  0  0  0
 15 26  1  0  0  0  0
 16 27  1  0  0  0  0
 17 25  2  0  0  0  0
 17 28  1  0  0  0  0
 18 24  1  6  0  0  0
 18 28  1  0  0  0  0
 18 29  2  0  0  0  0
 19 21  1  0  0  0  0
 19 27  1  0  0  0  0
 20 22  1  0  0  0  0
 20 27  1  0  0  0  0
 21 30  1  0  0  0  0
 22 30  1  0  0  0  0
 23 24  1  0  0  0  0
 25 26  1  0  0  0  0
  1 32  1  0  0  0  0
  2 33  1  0  0  0  0
  3 34  1  0  0  0  0
  4 35  1  0  0  0  0
  5 36  1  0  0  0  0
  6 37  1  0  0  0  0
  7 38  1  0  0  0  0
  8 39  1  0  0  0  0
  9 40  1  0  0  0  0
 10 41  1  0  0  0  0
 11 42  1  0  0  0  0
 19 43  1  0  0  0  0
 19 44  1  0  0  0  0
 20 45  1  0  0  0  0
 20 46  1  0  0  0  0
 21 47  1  0  0  0  0
 21 48  1  0  0  0  0
 22 49  1  0  0  0  0
 22 50  1  0  0  0  0
 23 51  1  0  0  0  0
 23 52  1  0  0  0  0
 24 53  1  0  0  0  0
 26 54  1  0  0  0  0
 28 55  1  0  0  0  0
M  END
> <clash_score>
0

> <docking_score>
-8.192642211914062

> <overlap_score>
0.9356263279914856

$$$$
BENZO_253_1
  -OEChem-08232013493D

 52 55  0     1  0  0  0  0  0999 V2000
   11.4296    4.7207   23.1993 C   0  0  0  0  0  0  0  0  0  0  0  0
   12.4494    3.9228   22.6806 C   0  0  0  0  0  0  0  0  0  0  0  0
   10.2636    4.1317   23.6883 C   0  0  0  0  0  0  0  0  0  0  0  0
   12.3031    2.5360   22.6508 C   0  0  0  0  0  0  0  0  0  0  0  0
   10.1173    2.7449   23.6585 C   0  0  0  0  0  0  0  0  0  0  0  0
    8.3510   -1.5420   24.6110 C   0  0  0  0  0  0  0  0  0  0  0  0
   10.2760   -2.3270   23.4020 C   0  0  0  0  0  0  0  0  0  0  0  0
    8.3310   -2.7170   25.3430 C   0  0  0  0  0  0  0  0  0  0  0  0
   10.2570   -3.5000   24.1350 C   0  0  0  0  0  0  0  0  0  0  0  0
   11.1370    1.9470   23.1397 C   0  0  0  0  0  0  0  0  0  0  0  0
    9.3300   -1.3350   23.6390 C   0  0  0  0  0  0  0  0  0  0  0  0
    9.2850   -3.7090   25.1090 C   0  0  0  0  0  0  0  0  0  0  0  0
    6.1600    0.3870   20.1140 C   0  0  0  0  0  0  0  0  0  0  0  0
    7.2210   -0.4620   20.0350 C   0  0  0  0  0  0  0  0  0  0  0  0
    5.3360    0.8000   21.1530 C   0  0  0  0  0  0  0  0  0  0  0  0
    4.2970    1.6690   20.8430 C   0  0  0  0  0  0  0  0  0  0  0  0
    4.0980    2.1130   19.5350 C   0  0  0  0  0  0  0  0  0  0  0  0
    4.9400    1.7060   18.5060 C   0  0  0  0  0  0  0  0  0  0  0  0
    8.9510    0.1280   21.6880 C   0  0  0  0  0  0  0  0  0  0  0  0
    8.2517   -5.1170   26.8651 C   0  0  0  0  0  0  0  0  0  0  0  0
   10.2445   -5.9404   25.6004 C   0  0  0  0  0  0  0  0  0  0  0  0
   10.9777    0.4443   23.1075 C   0  0  0  0  0  0  0  0  0  0  0  0
    9.4200   -0.0840   22.9530 C   0  0  1  0  0  0  0  0  0  0  0  0
    7.6830   -0.5170   18.7600 N   0  0  0  0  0  0  0  0  0  0  0  0
    6.9440    0.2550   18.0100 N   0  0  0  0  0  0  0  0  0  0  0  0
    5.9810    0.8330   18.8060 N   0  0  0  0  0  0  0  0  0  0  0  0
    8.0810   -0.9750   21.0820 N   0  0  0  0  0  0  0  0  0  0  0  0
    9.2638   -4.9025   25.8500 N   0  0  0  0  0  0  0  0  0  0  0  0
    9.1870    1.1500   21.0630 O   0  0  0  0  0  0  0  0  0  0  0  0
   11.5443    5.8005   23.2237 H   0  0  0  0  0  0  0  0  0  0  0  0
   13.3579    4.3812   22.3008 H   0  0  0  0  0  0  0  0  0  0  0  0
    9.4699    4.7525   24.0932 H   0  0  0  0  0  0  0  0  0  0  0  0
   13.1028    1.9222   22.2446 H   0  0  0  0  0  0  0  0  0  0  0  0
    9.2052    2.2948   24.0415 H   0  0  0  0  0  0  0  0  0  0  0  0
    7.5957   -0.7779   24.7973 H   0  0  0  0  0  0  0  0  0  0  0  0
   11.0384   -2.1852   22.6338 H   0  0  0  0  0  0  0  0  0  0  0  0
    7.5634   -2.8637   26.1037 H   0  0  0  0  0  0  0  0  0  0  0  0
   11.0139   -4.2645   23.9419 H   0  0  0  0  0  0  0  0  0  0  0  0
    5.4735    0.4758   22.1644 H   0  0  0  0  0  0  0  0  0  0  0  0
    3.6415    1.9967   21.6408 H   0  0  0  0  0  0  0  0  0  0  0  0
    3.2720    2.7926   19.2921 H   0  0  0  0  0  0  0  0  0  0  0  0
    4.8119    2.0418   17.5005 H   0  0  0  0  0  0  0  0  0  0  0  0
    8.4017   -6.1022   27.3308 H   0  0  0  0  0  0  0  0  0  0  0  0
    8.3305   -4.3329   27.6326 H   0  0  0  0  0  0  0  0  0  0  0  0
    7.2545   -5.0782   26.4024 H   0  0  0  0  0  0  0  0  0  0  0  0
   10.0621   -6.7882   26.2771 H   0  0  0  0  0  0  0  0  0  0  0  0
   10.1619   -6.2795   24.5573 H   0  0  0  0  0  0  0  0  0  0  0  0
   11.2540   -5.5409   25.7773 H   0  0  0  0  0  0  0  0  0  0  0  0
   11.5363    0.0387   22.2539 H   0  0  0  0  0  0  0  0  0  0  0  0
   11.4704    0.0336   23.9998 H   0  0  0  0  0  0  0  0  0  0  0  0
    8.9182    0.7194   23.6789 H   0  0  0  0  0  0  0  0  0  0  0  0
    8.1159   -1.8115   21.3524 H   0  0  0  0  0  0  0  0  0  0  0  0
  1  2  1  0  0  0  0
  1  3  2  0  0  0  0
  2  4  2  0  0  0  0
  3  5  1  0  0  0  0
  4 10  1  0  0  0  0
  5 10  2  0  0  0  0
  6  8  2  0  0  0  0
  6 11  1  0  0  0  0
  7  9  1  0  0  0  0
  7 11  2  0  0  0  0
  8 12  1  0  0  0  0
  9 12  2  0  0  0  0
 10 22  1  0  0  0  0
 11 23  1  0  0  0  0
 12 28  1  0  0  0  0
 13 14  2  0  0  0  0
 13 15  1  0  0  0  0
 13 26  1  0  0  0  0
 14 24  1  0  0  0  0
 14 27  1  0  0  0  0
 15 16  2  0  0  0  0
 16 17  1  0  0  0  0
 17 18  2  0  0  0  0
 18 26  1  0  0  0  0
 19 23  1  0  0  0  0
 19 27  1  0  0  0  0
 19 29  2  0  0  0  0
 20 28  1  0  0  0  0
 21 28  1  0  0  0  0
 22 23  1  1  0  0  0
 24 25  2  0  0  0  0
 25 26  1  0  0  0  0
  1 30  1  0  0  0  0
  2 31  1  0  0  0  0
  3 32  1  0  0  0  0
  4 33  1  0  0  0  0
  5 34  1  0  0  0  0
  6 35  1  0  0  0  0
  7 36  1  0  0  0  0
  8 37  1  0  0  0  0
  9 38  1  0  0  0  0
 15 39  1  0  0  0  0
 16 40  1  0  0  0  0
 17 41  1  0  0  0  0
 18 42  1  0  0  0  0
 20 43  1  0  0  0  0
 20 44  1  0  0  0  0
 20 45  1  0  0  0  0
 21 46  1  0  0  0  0
 21 47  1  0  0  0  0
 21 48  1  0  0  0  0
 22 49  1  0  0  0  0
 22 50  1  0  0  0  0
 23 51  1  0  0  0  0
 27 52  1  0  0  0  0
M  END
> <clash_score>
0

> <docking_score>
-11.865304946899414

> <overlap_score>
0.9330849647521973

$$$$
BENZO_250_1
  -OEChem-08232013493D

 58 62  0     1  0  0  0  0  0999 V2000
    4.2970    1.6690   20.8430 C   0  0  0  0  0  0  0  0  0  0  0  0
    4.0980    2.1130   19.5350 C   0  0  0  0  0  0  0  0  0  0  0  0
    9.2913    4.8680   24.0265 C   0  0  0  0  0  0  0  0  0  0  0  0
    5.3360    0.8000   21.1530 C   0  0  0  0  0  0  0  0  0  0  0  0
    8.7312    3.5975   24.1588 C   0  0  0  0  0  0  0  0  0  0  0  0
    8.3510   -1.5420   24.6110 C   0  0  0  0  0  0  0  0  0  0  0  0
   10.2760   -2.3270   23.4020 C   0  0  0  0  0  0  0  0  0  0  0  0
    4.9400    1.7060   18.5060 C   0  0  0  0  0  0  0  0  0  0  0  0
    8.3310   -2.7170   25.3430 C   0  0  0  0  0  0  0  0  0  0  0  0
   10.2570   -3.5000   24.1350 C   0  0  0  0  0  0  0  0  0  0  0  0
   10.6033    5.0082   23.5739 C   0  0  0  0  0  0  0  0  0  0  0  0
   10.7949    2.6072   23.3858 C   0  0  0  0  0  0  0  0  0  0  0  0
    6.1600    0.3870   20.1140 C   0  0  0  0  0  0  0  0  0  0  0  0
    9.3300   -1.3350   23.6390 C   0  0  0  0  0  0  0  0  0  0  0  0
    9.4829    2.4671   23.8384 C   0  0  0  0  0  0  0  0  0  0  0  0
    5.9810    0.8330   18.8060 C   0  0  0  0  0  0  0  0  0  0  0  0
    9.2850   -3.7090   25.1090 C   0  0  0  0  0  0  0  0  0  0  0  0
   11.3551    3.8778   23.2536 C   0  0  0  0  0  0  0  0  0  0  0  0
    7.2210   -0.4620   20.0350 C   0  0  0  0  0  0  0  0  0  0  0  0
    8.9510    0.1280   21.6880 C   0  0  0  0  0  0  0  0  0  0  0  0
    8.7671   -4.9535   27.2147 C   0  0  0  0  0  0  0  0  0  0  0  0
    9.3066   -6.1865   25.1649 C   0  0  0  0  0  0  0  0  0  0  0  0
    7.3847   -5.5970   27.2000 C   0  0  0  0  0  0  0  0  0  0  0  0
    7.9070   -6.7999   25.2264 C   0  0  0  0  0  0  0  0  0  0  0  0
    8.8757    1.0906   23.9831 C   0  0  0  0  0  0  0  0  0  0  0  0
    9.4200   -0.0840   22.9530 C   0  0  1  0  0  0  0  0  0  0  0  0
    7.6830   -0.5170   18.7600 N   0  0  0  0  0  0  0  0  0  0  0  0
    6.9440    0.2550   18.0100 N   0  0  0  0  0  0  0  0  0  0  0  0
    9.2641   -4.8845   25.8388 N   0  0  0  0  0  0  0  0  0  0  0  0
    8.0810   -0.9750   21.0820 N   0  0  0  0  0  0  0  0  0  0  0  0
    9.1870    1.1500   21.0630 O   0  0  0  0  0  0  0  0  0  0  0  0
    7.4533   -6.8877   26.5818 O   0  0  0  0  0  0  0  0  0  0  0  0
   12.9740    4.0513   22.6963 Cl  0  0  0  0  0  0  0  0  0  0  0  0
    3.6274    2.0126   21.6300 H   0  0  0  0  0  0  0  0  0  0  0  0
    3.2732    2.7875   19.3199 H   0  0  0  0  0  0  0  0  0  0  0  0
    8.7057    5.7481   24.2762 H   0  0  0  0  0  0  0  0  0  0  0  0
    5.4878    0.4645   22.1722 H   0  0  0  0  0  0  0  0  0  0  0  0
    7.7082    3.4977   24.5123 H   0  0  0  0  0  0  0  0  0  0  0  0
    7.5957   -0.7779   24.7973 H   0  0  0  0  0  0  0  0  0  0  0  0
   11.0384   -2.1852   22.6338 H   0  0  0  0  0  0  0  0  0  0  0  0
    4.7853    2.0674   17.4815 H   0  0  0  0  0  0  0  0  0  0  0  0
    7.5634   -2.8637   26.1037 H   0  0  0  0  0  0  0  0  0  0  0  0
   11.0139   -4.2645   23.9419 H   0  0  0  0  0  0  0  0  0  0  0  0
   11.0270    6.0047   23.4760 H   0  0  0  0  0  0  0  0  0  0  0  0
   11.3767    1.7227   23.1369 H   0  0  0  0  0  0  0  0  0  0  0  0
    8.7013   -3.9575   27.6574 H   0  0  0  0  0  0  0  0  0  0  0  0
    9.4480   -5.5636   27.8142 H   0  0  0  0  0  0  0  0  0  0  0  0
   10.0131   -6.8375   25.6814 H   0  0  0  0  0  0  0  0  0  0  0  0
    9.6116   -6.0794   24.1250 H   0  0  0  0  0  0  0  0  0  0  0  0
    7.0306   -5.7388   28.2232 H   0  0  0  0  0  0  0  0  0  0  0  0
    6.6546   -4.9740   26.6757 H   0  0  0  0  0  0  0  0  0  0  0  0
    7.1892   -6.2226   24.6319 H   0  0  0  0  0  0  0  0  0  0  0  0
    7.9315   -7.8151   24.8187 H   0  0  0  0  0  0  0  0  0  0  0  0
    8.9639    0.7632   25.0273 H   0  0  0  0  0  0  0  0  0  0  0  0
    7.7964    1.1765   23.7949 H   0  0  0  0  0  0  0  0  0  0  0  0
   10.5749    0.2253   22.9765 H   0  0  0  0  0  0  0  0  0  0  0  0
    7.1015    0.3608   17.0505 H   0  0  0  0  0  0  0  0  0  0  0  0
    8.1354   -1.7990   21.3694 H   0  0  0  0  0  0  0  0  0  0  0  0
  1  2  1  0  0  0  0
  1  4  2  0  0  0  0
  2  8  2  0  0  0  0
  3  5  2  0  0  0  0
  3 11  1  0  0  0  0
  4 13  1  0  0  0  0
  5 15  1  0  0  0  0
  6  9  2  0  0  0  0
  6 14  1  0  0  0  0
  7 10  1  0  0  0  0
  7 14  2  0  0  0  0
  8 16  1  0  0  0  0
  9 17  1  0  0  0  0
 10 17  2  0  0  0  0
 11 18  2  0  0  0  0
 12 15  2  0  0  0  0
 12 18  1  0  0  0  0
 13 16  2  0  0  0  0
 13 19  1  0  0  0  0
 14 26  1  0  0  0  0
 15 25  1  0  0  0  0
 16 28  1  0  0  0  0
 17 29  1  0  0  0  0
 18 33  1  0  0  0  0
 19 27  2  0  0  0  0
 19 30  1  0  0  0  0
 20 26  1  1  0  0  0
 20 30  1  0  0  0  0
 20 31  2  0  0  0  0
 21 23  1  0  0  0  0
 21 29  1  0  0  0  0
 22 24  1  0  0  0  0
 22 29  1  0  0  0  0
 23 32  1  0  0  0  0
 24 32  1  0  0  0  0
 25 26  1  0  0  0  0
 27 28  1  0  0  0  0
  1 34  1  0  0  0  0
  2 35  1  0  0  0  0
  3 36  1  0  0  0  0
  4 37  1  0  0  0  0
  5 38  1  0  0  0  0
  6 39  1  0  0  0  0
  7 40  1  0  0  0  0
  8 41  1  0  0  0  0
  9 42  1  0  0  0  0
 10 43  1  0  0  0  0
 11 44  1  0  0  0  0
 12 45  1  0  0  0  0
 21 46  1  0  0  0  0
 21 47  1  0  0  0  0
 22 48  1  0  0  0  0
 22 49  1  0  0  0  0
 23 50  1  0  0  0  0
 23 51  1  0  0  0  0
 24 52  1  0  0  0  0
 24 53  1  0  0  0  0
 25 54  1  0  0  0  0
 25 55  1  0  0  0  0
 26 56  1  0  0  0  0
 28 57  1  0  0  0  0
 30 58  1  0  0  0  0
M  END
> <clash_score>
0

> <docking_score>
-9.071043014526367

> <overlap_score>
0.8821789622306824

$$$$
BENZO_250_2
  -OEChem-08232013493D

 58 62  0     1  0  0  0  0  0999 V2000
    4.2970    1.6690   20.8430 C   0  0  0  0  0  0  0  0  0  0  0  0
    4.0980    2.1130   19.5350 C   0  0  0  0  0  0  0  0  0  0  0  0
   10.2658    4.1447   23.6556 C   0  0  0  0  0  0  0  0  0  0  0  0
    5.3360    0.8000   21.1530 C   0  0  0  0  0  0  0  0  0  0  0  0
   10.1187    2.7578   23.6359 C   0  0  0  0  0  0  0  0  0  0  0  0
    8.3510   -1.5420   24.6110 C   0  0  0  0  0  0  0  0  0  0  0  0
   10.2760   -2.3270   23.4020 C   0  0  0  0  0  0  0  0  0  0  0  0
    4.9400    1.7060   18.5060 C   0  0  0  0  0  0  0  0  0  0  0  0
    8.3310   -2.7170   25.3430 C   0  0  0  0  0  0  0  0  0  0  0  0
   10.2570   -3.5000   24.1350 C   0  0  0  0  0  0  0  0  0  0  0  0
   11.4317    4.7295   23.1614 C   0  0  0  0  0  0  0  0  0  0  0  0
   12.3037    2.5404   22.6281 C   0  0  0  0  0  0  0  0  0  0  0  0
    6.1600    0.3870   20.1140 C   0  0  0  0  0  0  0  0  0  0  0  0
    9.3300   -1.3350   23.6390 C   0  0  0  0  0  0  0  0  0  0  0  0
   11.1377    1.9556   23.1223 C   0  0  0  0  0  0  0  0  0  0  0  0
    5.9810    0.8330   18.8060 C   0  0  0  0  0  0  0  0  0  0  0  0
    9.2850   -3.7090   25.1090 C   0  0  0  0  0  0  0  0  0  0  0  0
   12.4507    3.9274   22.6477 C   0  0  0  0  0  0  0  0  0  0  0  0
    7.2210   -0.4620   20.0350 C   0  0  0  0  0  0  0  0  0  0  0  0
    8.9510    0.1280   21.6880 C   0  0  0  0  0  0  0  0  0  0  0  0
    8.7671   -4.9535   27.2147 C   0  0  0  0  0  0  0  0  0  0  0  0
    9.3066   -6.1865   25.1649 C   0  0  0  0  0  0  0  0  0  0  0  0
    7.3847   -5.5970   27.2000 C   0  0  0  0  0  0  0  0  0  0  0  0
    7.9070   -6.7999   25.2264 C   0  0  0  0  0  0  0  0  0  0  0  0
   10.9782    0.4528   23.1025 C   0  0  0  0  0  0  0  0  0  0  0  0
    9.4200   -0.0840   22.9530 C   0  0  2  0  0  0  0  0  0  0  0  0
    7.6830   -0.5170   18.7600 N   0  0  0  0  0  0  0  0  0  0  0  0
    6.9440    0.2550   18.0100 N   0  0  0  0  0  0  0  0  0  0  0  0
    9.2641   -4.8845   25.8388 N   0  0  0  0  0  0  0  0  0  0  0  0
    8.0810   -0.9750   21.0820 N   0  0  0  0  0  0  0  0  0  0  0  0
    9.1870    1.1500   21.0630 O   0  0  0  0  0  0  0  0  0  0  0  0
    7.4533   -6.8877   26.5818 O   0  0  0  0  0  0  0  0  0  0  0  0
   13.8895    4.6494   22.0392 Cl  0  0  0  0  0  0  0  0  0  0  0  0
    3.6274    2.0126   21.6300 H   0  0  0  0  0  0  0  0  0  0  0  0
    3.2732    2.7875   19.3199 H   0  0  0  0  0  0  0  0  0  0  0  0
    9.4721    4.7690   24.0558 H   0  0  0  0  0  0  0  0  0  0  0  0
    5.4878    0.4645   22.1722 H   0  0  0  0  0  0  0  0  0  0  0  0
    9.2068    2.3107   24.0232 H   0  0  0  0  0  0  0  0  0  0  0  0
    7.5957   -0.7779   24.7973 H   0  0  0  0  0  0  0  0  0  0  0  0
   11.0384   -2.1852   22.6338 H   0  0  0  0  0  0  0  0  0  0  0  0
    4.7853    2.0674   17.4815 H   0  0  0  0  0  0  0  0  0  0  0  0
    7.5634   -2.8637   26.1037 H   0  0  0  0  0  0  0  0  0  0  0  0
   11.0139   -4.2645   23.9419 H   0  0  0  0  0  0  0  0  0  0  0  0
   11.5327    5.8118   23.1833 H   0  0  0  0  0  0  0  0  0  0  0  0
   13.0951    1.9106   22.2282 H   0  0  0  0  0  0  0  0  0  0  0  0
    8.7013   -3.9575   27.6574 H   0  0  0  0  0  0  0  0  0  0  0  0
    9.4480   -5.5636   27.8142 H   0  0  0  0  0  0  0  0  0  0  0  0
   10.0131   -6.8375   25.6814 H   0  0  0  0  0  0  0  0  0  0  0  0
    9.6116   -6.0794   24.1250 H   0  0  0  0  0  0  0  0  0  0  0  0
    7.0306   -5.7388   28.2232 H   0  0  0  0  0  0  0  0  0  0  0  0
    6.6546   -4.9740   26.6757 H   0  0  0  0  0  0  0  0  0  0  0  0
    7.1892   -6.2226   24.6319 H   0  0  0  0  0  0  0  0  0  0  0  0
    7.9315   -7.8151   24.8187 H   0  0  0  0  0  0  0  0  0  0  0  0
   11.5374    0.0399   22.2527 H   0  0  0  0  0  0  0  0  0  0  0  0
   11.4700    0.0494   23.9985 H   0  0  0  0  0  0  0  0  0  0  0  0
    8.9187    0.7273   23.6745 H   0  0  0  0  0  0  0  0  0  0  0  0
    7.1015    0.3608   17.0505 H   0  0  0  0  0  0  0  0  0  0  0  0
    8.1354   -1.7990   21.3694 H   0  0  0  0  0  0  0  0  0  0  0  0
  1  2  1  0  0  0  0
  1  4  2  0  0  0  0
  2  8  2  0  0  0  0
  3  5  2  0  0  0  0
  3 11  1  0  0  0  0
  4 13  1  0  0  0  0
  5 15  1  0  0  0  0
  6  9  2  0  0  0  0
  6 14  1  0  0  0  0
  7 10  1  0  0  0  0
  7 14  2  0  0  0  0
  8 16  1  0  0  0  0
  9 17  1  0  0  0  0
 10 17  2  0  0  0  0
 11 18  2  0  0  0  0
 12 15  2  0  0  0  0
 12 18  1  0  0  0  0
 13 16  2  0  0  0  0
 13 19  1  0  0  0  0
 14 26  1  0  0  0  0
 15 25  1  0  0  0  0
 16 28  1  0  0  0  0
 17 29  1  0  0  0  0
 18 33  1  0  0  0  0
 19 27  2  0  0  0  0
 19 30  1  0  0  0  0
 20 26  1  6  0  0  0
 20 30  1  0  0  0  0
 20 31  2  0  0  0  0
 21 23  1  0  0  0  0
 21 29  1  0  0  0  0
 22 24  1  0  0  0  0
 22 29  1  0  0  0  0
 23 32  1  0  0  0  0
 24 32  1  0  0  0  0
 25 26  1  0  0  0  0
 27 28  1  0  0  0  0
  1 34  1  0  0  0  0
  2 35  1  0  0  0  0
  3 36  1  0  0  0  0
  4 37  1  0  0  0  0
  5 38  1  0  0  0  0
  6 39  1  0  0  0  0
  7 40  1  0  0  0  0
  8 41  1  0  0  0  0
  9 42  1  0  0  0  0
 10 43  1  0  0  0  0
 11 44  1  0  0  0  0
 12 45  1  0  0  0  0
 21 46  1  0  0  0  0
 21 47  1  0  0  0  0
 22 48  1  0  0  0  0
 22 49  1  0  0  0  0
 23 50  1  0  0  0  0
 23 51  1  0  0  0  0
 24 52  1  0  0  0  0
 24 53  1  0  0  0  0
 25 54  1  0  0  0  0
 25 55  1  0  0  0  0
 26 56  1  0  0  0  0
 28 57  1  0  0  0  0
 30 58  1  0  0  0  0
M  END
> <clash_score>
0

> <docking_score>
-10.052530288696289

> <overlap_score>
0.9470763206481934

$$$$
BENZO_253_2
  -OEChem-08232013493D

 52 55  0     1  0  0  0  0  0999 V2000
   10.6367    4.9868   23.6018 C   0  0  0  0  0  0  0  0  0  0  0  0
    9.3228    4.8557   24.0511 C   0  0  0  0  0  0  0  0  0  0  0  0
   11.3798    3.8515   23.2784 C   0  0  0  0  0  0  0  0  0  0  0  0
    8.7519    3.5893   24.1772 C   0  0  0  0  0  0  0  0  0  0  0  0
   10.8090    2.5851   23.4045 C   0  0  0  0  0  0  0  0  0  0  0  0
    8.3510   -1.5420   24.6110 C   0  0  0  0  0  0  0  0  0  0  0  0
   10.2760   -2.3270   23.4020 C   0  0  0  0  0  0  0  0  0  0  0  0
    8.3310   -2.7170   25.3430 C   0  0  0  0  0  0  0  0  0  0  0  0
   10.2570   -3.5000   24.1350 C   0  0  0  0  0  0  0  0  0  0  0  0
    9.4950    2.4539   23.8539 C   0  0  0  0  0  0  0  0  0  0  0  0
    9.3300   -1.3350   23.6390 C   0  0  0  0  0  0  0  0  0  0  0  0
    9.2850   -3.7090   25.1090 C   0  0  0  0  0  0  0  0  0  0  0  0
    6.1600    0.3870   20.1140 C   0  0  0  0  0  0  0  0  0  0  0  0
    7.2210   -0.4620   20.0350 C   0  0  0  0  0  0  0  0  0  0  0  0
    5.3360    0.8000   21.1530 C   0  0  0  0  0  0  0  0  0  0  0  0
    4.2970    1.6690   20.8430 C   0  0  0  0  0  0  0  0  0  0  0  0
    4.0980    2.1130   19.5350 C   0  0  0  0  0  0  0  0  0  0  0  0
    4.9400    1.7060   18.5060 C   0  0  0  0  0  0  0  0  0  0  0  0
    8.9510    0.1280   21.6880 C   0  0  0  0  0  0  0  0  0  0  0  0
    8.2517   -5.1170   26.8651 C   0  0  0  0  0  0  0  0  0  0  0  0
   10.2445   -5.9404   25.6004 C   0  0  0  0  0  0  0  0  0  0  0  0
    8.8771    1.0813   23.9905 C   0  0  0  0  0  0  0  0  0  0  0  0
    9.4200   -0.0840   22.9530 C   0  0  2  0  0  0  0  0  0  0  0  0
    7.6830   -0.5170   18.7600 N   0  0  0  0  0  0  0  0  0  0  0  0
    6.9440    0.2550   18.0100 N   0  0  0  0  0  0  0  0  0  0  0  0
    5.9810    0.8330   18.8060 N   0  0  0  0  0  0  0  0  0  0  0  0
    8.0810   -0.9750   21.0820 N   0  0  0  0  0  0  0  0  0  0  0  0
    9.2638   -4.9025   25.8500 N   0  0  0  0  0  0  0  0  0  0  0  0
    9.1870    1.1500   21.0630 O   0  0  0  0  0  0  0  0  0  0  0  0
   11.0806    5.9731   23.5024 H   0  0  0  0  0  0  0  0  0  0  0  0
    8.7437    5.7397   24.3019 H   0  0  0  0  0  0  0  0  0  0  0  0
   12.4025    3.9533   22.9274 H   0  0  0  0  0  0  0  0  0  0  0  0
    7.7275    3.4967   24.5283 H   0  0  0  0  0  0  0  0  0  0  0  0
   11.3955    1.7061   23.1503 H   0  0  0  0  0  0  0  0  0  0  0  0
    7.5957   -0.7779   24.7973 H   0  0  0  0  0  0  0  0  0  0  0  0
   11.0384   -2.1852   22.6338 H   0  0  0  0  0  0  0  0  0  0  0  0
    7.5634   -2.8637   26.1037 H   0  0  0  0  0  0  0  0  0  0  0  0
   11.0139   -4.2645   23.9419 H   0  0  0  0  0  0  0  0  0  0  0  0
    5.4735    0.4758   22.1644 H   0  0  0  0  0  0  0  0  0  0  0  0
    3.6415    1.9967   21.6408 H   0  0  0  0  0  0  0  0  0  0  0  0
    3.2720    2.7926   19.2921 H   0  0  0  0  0  0  0  0  0  0  0  0
    4.8119    2.0418   17.5005 H   0  0  0  0  0  0  0  0  0  0  0  0
    8.4017   -6.1022   27.3308 H   0  0  0  0  0  0  0  0  0  0  0  0
    8.3305   -4.3329   27.6326 H   0  0  0  0  0  0  0  0  0  0  0  0
    7.2545   -5.0782   26.4024 H   0  0  0  0  0  0  0  0  0  0  0  0
   10.0621   -6.7882   26.2771 H   0  0  0  0  0  0  0  0  0  0  0  0
   10.1619   -6.2795   24.5573 H   0  0  0  0  0  0  0  0  0  0  0  0
   11.2540   -5.5409   25.7773 H   0  0  0  0  0  0  0  0  0  0  0  0
    8.9708    0.7434   25.0308 H   0  0  0  0  0  0  0  0  0  0  0  0
    7.7972    1.1781   23.8117 H   0  0  0  0  0  0  0  0  0  0  0  0
   10.5743    0.2174   22.9808 H   0  0  0  0  0  0  0  0  0  0  0  0
    8.1159   -1.8115   21.3524 H   0  0  0  0  0  0  0  0  0  0  0  0
  1  2  1  0  0  0  0
  1  3  2  0  0  0  0
  2  4  2  0  0  0  0
  3  5  1  0  0  0  0
  4 10  1  0  0  0  0
  5 10  2  0  0  0  0
  6  8  2  0  0  0  0
  6 11  1  0  0  0  0
  7  9  1  0  0  0  0
  7 11  2  0  0  0  0
  8 12  1  0  0  0  0
  9 12  2  0  0  0  0
 10 22  1  0  0  0  0
 11 23  1  0  0  0  0
 12 28  1  0  0  0  0
 13 14  2  0  0  0  0
 13 15  1  0  0  0  0
 13 26  1  0  0  0  0
 14 24  1  0  0  0  0
 14 27  1  0  0  0  0
 15 16  2  0  0  0  0
 16 17  1  0  0  0  0
 17 18  2  0  0  0  0
 18 26  1  0  0  0  0
 19 23  1  0  0  0  0
 19 27  1  0  0  0  0
 19 29  2  0  0  0  0
 20 28  1  0  0  0  0
 21 28  1  0  0  0  0
 22 23  1  6  0  0  0
 24 25  2  0  0  0  0
 25 26  1  0  0  0  0
  1 30  1  0  0  0  0
  2 31  1  0  0  0  0
  3 32  1  0  0  0  0
  4 33  1  0  0  0  0
  5 34  1  0  0  0  0
  6 35  1  0  0  0  0
  7 36  1  0  0  0  0
  8 37  1  0  0  0  0
  9 38  1  0  0  0  0
 15 39  1  0  0  0  0
 16 40  1  0  0  0  0
 17 41  1  0  0  0  0
 18 42  1  0  0  0  0
 20 43  1  0  0  0  0
 20 44  1  0  0  0  0
 20 45  1  0  0  0  0
 21 46  1  0  0  0  0
 21 47  1  0  0  0  0
 21 48  1  0  0  0  0
 22 49  1  0  0  0  0
 22 50  1  0  0  0  0
 23 51  1  0  0  0  0
 27 52  1  0  0  0  0
M  END
> <clash_score>
0

> <docking_score>
-10.750675201416016

> <overlap_score>
0.8615368604660034

$$$$
BENZO_251_2
  -OEChem-08232013493D

 58 62  0     1  0  0  0  0  0999 V2000
    4.2970    1.6690   20.8430 C   0  0  0  0  0  0  0  0  0  0  0  0
    4.0980    2.1130   19.5350 C   0  0  0  0  0  0  0  0  0  0  0  0
    5.3360    0.8000   21.1530 C   0  0  0  0  0  0  0  0  0  0  0  0
    8.3510   -1.5420   24.6110 C   0  0  0  0  0  0  0  0  0  0  0  0
   10.2760   -2.3270   23.4020 C   0  0  0  0  0  0  0  0  0  0  0  0
    4.9400    1.7060   18.5060 C   0  0  0  0  0  0  0  0  0  0  0  0
    8.3310   -2.7170   25.3430 C   0  0  0  0  0  0  0  0  0  0  0  0
   10.2570   -3.5000   24.1350 C   0  0  0  0  0  0  0  0  0  0  0  0
   10.7785    2.7977   23.3980 C   0  0  0  0  0  0  0  0  0  0  0  0
    8.8916    3.6777   24.1053 C   0  0  0  0  0  0  0  0  0  0  0  0
    6.1600    0.3870   20.1140 C   0  0  0  0  0  0  0  0  0  0  0  0
    9.3300   -1.3350   23.6390 C   0  0  0  0  0  0  0  0  0  0  0  0
    9.4829    2.4671   23.8384 C   0  0  0  0  0  0  0  0  0  0  0  0
    5.9810    0.8330   18.8060 C   0  0  0  0  0  0  0  0  0  0  0  0
    9.2850   -3.7090   25.1090 C   0  0  0  0  0  0  0  0  0  0  0  0
    7.2210   -0.4620   20.0350 C   0  0  0  0  0  0  0  0  0  0  0  0
    8.9510    0.1280   21.6880 C   0  0  0  0  0  0  0  0  0  0  0  0
    8.7671   -4.9535   27.2147 C   0  0  0  0  0  0  0  0  0  0  0  0
    9.3066   -6.1865   25.1649 C   0  0  0  0  0  0  0  0  0  0  0  0
    7.3847   -5.5970   27.2000 C   0  0  0  0  0  0  0  0  0  0  0  0
    7.9070   -6.7999   25.2264 C   0  0  0  0  0  0  0  0  0  0  0  0
    9.6751    6.0523   23.9437 C   0  0  0  0  0  0  0  0  0  0  0  0
    8.8757    1.0906   23.9831 C   0  0  0  0  0  0  0  0  0  0  0  0
    9.4200   -0.0840   22.9530 C   0  0  2  0  0  0  0  0  0  0  0  0
   10.9979    4.1151   23.3843 N   0  0  0  0  0  0  0  0  0  0  0  0
    7.6830   -0.5170   18.7600 N   0  0  0  0  0  0  0  0  0  0  0  0
    6.9440    0.2550   18.0100 N   0  0  0  0  0  0  0  0  0  0  0  0
    9.8322    4.6230   23.8194 N   0  0  0  0  0  0  0  0  0  0  0  0
    9.2641   -4.8845   25.8388 N   0  0  0  0  0  0  0  0  0  0  0  0
    8.0810   -0.9750   21.0820 N   0  0  0  0  0  0  0  0  0  0  0  0
    9.1870    1.1500   21.0630 O   0  0  0  0  0  0  0  0  0  0  0  0
    7.4533   -6.8877   26.5818 O   0  0  0  0  0  0  0  0  0  0  0  0
    3.6274    2.0126   21.6300 H   0  0  0  0  0  0  0  0  0  0  0  0
    3.2732    2.7875   19.3199 H   0  0  0  0  0  0  0  0  0  0  0  0
    5.4878    0.4645   22.1722 H   0  0  0  0  0  0  0  0  0  0  0  0
    7.5957   -0.7779   24.7973 H   0  0  0  0  0  0  0  0  0  0  0  0
   11.0384   -2.1852   22.6338 H   0  0  0  0  0  0  0  0  0  0  0  0
    4.7853    2.0674   17.4815 H   0  0  0  0  0  0  0  0  0  0  0  0
    7.5634   -2.8637   26.1037 H   0  0  0  0  0  0  0  0  0  0  0  0
   11.0139   -4.2645   23.9419 H   0  0  0  0  0  0  0  0  0  0  0  0
   11.5733    2.1354   23.0851 H   0  0  0  0  0  0  0  0  0  0  0  0
    7.9057    3.9405   24.4642 H   0  0  0  0  0  0  0  0  0  0  0  0
    8.7013   -3.9575   27.6574 H   0  0  0  0  0  0  0  0  0  0  0  0
    9.4480   -5.5636   27.8142 H   0  0  0  0  0  0  0  0  0  0  0  0
   10.0131   -6.8375   25.6814 H   0  0  0  0  0  0  0  0  0  0  0  0
    9.6116   -6.0794   24.1250 H   0  0  0  0  0  0  0  0  0  0  0  0
    7.0306   -5.7388   28.2232 H   0  0  0  0  0  0  0  0  0  0  0  0
    6.6546   -4.9740   26.6757 H   0  0  0  0  0  0  0  0  0  0  0  0
    7.1892   -6.2226   24.6319 H   0  0  0  0  0  0  0  0  0  0  0  0
    7.9315   -7.8151   24.8187 H   0  0  0  0  0  0  0  0  0  0  0  0
    9.9837    6.3391   24.9525 H   0  0  0  0  0  0  0  0  0  0  0  0
   10.2970    6.5534   23.1967 H   0  0  0  0  0  0  0  0  0  0  0  0
    8.6277    6.3169   23.7734 H   0  0  0  0  0  0  0  0  0  0  0  0
    8.9639    0.7632   25.0273 H   0  0  0  0  0  0  0  0  0  0  0  0
    7.7964    1.1765   23.7949 H   0  0  0  0  0  0  0  0  0  0  0  0
   10.5749    0.2253   22.9765 H   0  0  0  0  0  0  0  0  0  0  0  0
    7.1015    0.3608   17.0505 H   0  0  0  0  0  0  0  0  0  0  0  0
    8.1354   -1.7990   21.3694 H   0  0  0  0  0  0  0  0  0  0  0  0
  1  2  1  0  0  0  0
  1  3  2  0  0  0  0
  2  6  2  0  0  0  0
  3 11  1  0  0  0  0
  4  7  2  0  0  0  0
  4 12  1  0  0  0  0
  5  8  1  0  0  0  0
  5 12  2  0  0  0  0
  6 14  1  0  0  0  0
  7 15  1  0  0  0  0
  8 15  2  0  0  0  0
  9 13  1  0  0  0  0
  9 25  2  0  0  0  0
 10 13  2  0  0  0  0
 10 28  1  0  0  0  0
 11 14  2  0  0  0  0
 11 16  1  0  0  0  0
 12 24  1  0  0  0  0
 13 23  1  0  0  0  0
 14 27  1  0  0  0  0
 15 29  1  0  0  0  0
 16 26  2  0  0  0  0
 16 30  1  0  0  0  0
 17 24  1  0  0  0  0
 17 30  1  0  0  0  0
 17 31  2  0  0  0  0
 18 20  1  0  0  0  0
 18 29  1  0  0  0  0
 19 21  1  0  0  0  0
 19 29  1  0  0  0  0
 20 32  1  0  0  0  0
 21 32  1  0  0  0  0
 22 28  1  0  0  0  0
 23 24  1  6  0  0  0
 25 28  1  0  0  0  0
 26 27  1  0  0  0  0
  1 33  1  0  0  0  0
  2 34  1  0  0  0  0
  3 35  1  0  0  0  0
  4 36  1  0  0  0  0
  5 37  1  0  0  0  0
  6 38  1  0  0  0  0
  7 39  1  0  0  0  0
  8 40  1  0  0  0  0
  9 41  1  0  0  0  0
 10 42  1  0  0  0  0
 18 43  1  0  0  0  0
 18 44  1  0  0  0  0
 19 45  1  0  0  0  0
 19 46  1  0  0  0  0
 20 47  1  0  0  0  0
 20 48  1  0  0  0  0
 21 49  1  0  0  0  0
 21 50  1  0  0  0  0
 22 51  1  0  0  0  0
 22 52  1  0  0  0  0
 22 53  1  0  0  0  0
 23 54  1  0  0  0  0
 23 55  1  0  0  0  0
 24 56  1  0  0  0  0
 27 57  1  0  0  0  0
 30 58  1  0  0  0  0
M  END
> <clash_score>
0

> <docking_score>
-8.374617576599121

> <overlap_score>
0.8677912950515747

$$$$
BENZO_252_2
  -OEChem-08232013493D

 49 52  0     1  0  0  0  0  0999 V2000
    8.3510   -1.5420   24.6110 C   0  0  0  0  0  0  0  0  0  0  0  0
   10.2760   -2.3270   23.4020 C   0  0  0  0  0  0  0  0  0  0  0  0
    8.3310   -2.7170   25.3430 C   0  0  0  0  0  0  0  0  0  0  0  0
   10.2570   -3.5000   24.1350 C   0  0  0  0  0  0  0  0  0  0  0  0
   10.8633    2.6804   23.5273 C   0  0  0  0  0  0  0  0  0  0  0  0
   11.1655    4.0230   23.4669 C   0  0  0  0  0  0  0  0  0  0  0  0
    8.8035    3.6322   24.0309 C   0  0  0  0  0  0  0  0  0  0  0  0
    9.3300   -1.3350   23.6390 C   0  0  0  0  0  0  0  0  0  0  0  0
    9.4950    2.4539   23.8539 C   0  0  0  0  0  0  0  0  0  0  0  0
    9.2850   -3.7090   25.1090 C   0  0  0  0  0  0  0  0  0  0  0  0
    6.1600    0.3870   20.1140 C   0  0  0  0  0  0  0  0  0  0  0  0
    7.2210   -0.4620   20.0350 C   0  0  0  0  0  0  0  0  0  0  0  0
    5.3360    0.8000   21.1530 C   0  0  0  0  0  0  0  0  0  0  0  0
    4.2970    1.6690   20.8430 C   0  0  0  0  0  0  0  0  0  0  0  0
    4.0980    2.1130   19.5350 C   0  0  0  0  0  0  0  0  0  0  0  0
    4.9400    1.7060   18.5060 C   0  0  0  0  0  0  0  0  0  0  0  0
    8.9510    0.1280   21.6880 C   0  0  0  0  0  0  0  0  0  0  0  0
    8.2517   -5.1170   26.8651 C   0  0  0  0  0  0  0  0  0  0  0  0
   10.2445   -5.9404   25.6004 C   0  0  0  0  0  0  0  0  0  0  0  0
    8.8771    1.0813   23.9905 C   0  0  0  0  0  0  0  0  0  0  0  0
    9.4200   -0.0840   22.9530 C   0  0  2  0  0  0  0  0  0  0  0  0
    7.6830   -0.5170   18.7600 N   0  0  0  0  0  0  0  0  0  0  0  0
    6.9440    0.2550   18.0100 N   0  0  0  0  0  0  0  0  0  0  0  0
    5.9810    0.8330   18.8060 N   0  0  0  0  0  0  0  0  0  0  0  0
    8.0810   -0.9750   21.0820 N   0  0  0  0  0  0  0  0  0  0  0  0
    9.2638   -4.9025   25.8500 N   0  0  0  0  0  0  0  0  0  0  0  0
    9.1870    1.1500   21.0630 O   0  0  0  0  0  0  0  0  0  0  0  0
    9.8028    5.0040   23.8033 S   0  0  0  0  0  0  0  0  0  0  0  0
    7.5957   -0.7779   24.7973 H   0  0  0  0  0  0  0  0  0  0  0  0
   11.0384   -2.1852   22.6338 H   0  0  0  0  0  0  0  0  0  0  0  0
    7.5634   -2.8637   26.1037 H   0  0  0  0  0  0  0  0  0  0  0  0
   11.0139   -4.2645   23.9419 H   0  0  0  0  0  0  0  0  0  0  0  0
   11.5925    1.9010   23.3455 H   0  0  0  0  0  0  0  0  0  0  0  0
   12.1213    4.4748   23.2422 H   0  0  0  0  0  0  0  0  0  0  0  0
    7.7599    3.7576   24.2842 H   0  0  0  0  0  0  0  0  0  0  0  0
    5.4735    0.4758   22.1644 H   0  0  0  0  0  0  0  0  0  0  0  0
    3.6415    1.9967   21.6408 H   0  0  0  0  0  0  0  0  0  0  0  0
    3.2720    2.7926   19.2921 H   0  0  0  0  0  0  0  0  0  0  0  0
    4.8119    2.0418   17.5005 H   0  0  0  0  0  0  0  0  0  0  0  0
    8.4017   -6.1022   27.3308 H   0  0  0  0  0  0  0  0  0  0  0  0
    8.3305   -4.3329   27.6326 H   0  0  0  0  0  0  0  0  0  0  0  0
    7.2545   -5.0782   26.4024 H   0  0  0  0  0  0  0  0  0  0  0  0
   10.0621   -6.7882   26.2771 H   0  0  0  0  0  0  0  0  0  0  0  0
   10.1619   -6.2795   24.5573 H   0  0  0  0  0  0  0  0  0  0  0  0
   11.2540   -5.5409   25.7773 H   0  0  0  0  0  0  0  0  0  0  0  0
    8.9708    0.7434   25.0308 H   0  0  0  0  0  0  0  0  0  0  0  0
    7.7972    1.1781   23.8117 H   0  0  0  0  0  0  0  0  0  0  0  0
   10.5743    0.2174   22.9808 H   0  0  0  0  0  0  0  0  0  0  0  0
    8.1159   -1.8115   21.3524 H   0  0  0  0  0  0  0  0  0  0  0  0
  1  3  2  0  0  0  0
  1  8  1  0  0  0  0
  2  4  1  0  0  0  0
  2  8  2  0  0  0  0
  3 10  1  0  0  0  0
  4 10  2  0  0  0  0
  5  6  2  0  0  0  0
  5  9  1  0  0  0  0
  6 28  1  0  0  0  0
  7  9  2  0  0  0  0
  7 28  1  0  0  0  0
  8 21  1  0  0  0  0
  9 20  1  0  0  0  0
 10 26  1  0  0  0  0
 11 12  2  0  0  0  0
 11 13  1  0  0  0  0
 11 24  1  0  0  0  0
 12 22  1  0  0  0  0
 12 25  1  0  0  0  0
 13 14  2  0  0  0  0
 14 15  1  0  0  0  0
 15 16  2  0  0  0  0
 16 24  1  0  0  0  0
 17 21  1  0  0  0  0
 17 25  1  0  0  0  0
 17 27  2  0  0  0  0
 18 26  1  0  0  0  0
 19 26  1  0  0  0  0
 20 21  1  6  0  0  0
 22 23  2  0  0  0  0
 23 24  1  0  0  0  0
  1 29  1  0  0  0  0
  2 30  1  0  0  0  0
  3 31  1  0  0  0  0
  4 32  1  0  0  0  0
  5 33  1  0  0  0  0
  6 34  1  0  0  0  0
  7 35  1  0  0  0  0
 13 36  1  0  0  0  0
 14 37  1  0  0  0  0
 15 38  1  0  0  0  0
 16 39  1  0  0  0  0
 18 40  1  0  0  0  0
 18 41  1  0  0  0  0
 18 42  1  0  0  0  0
 19 43  1  0  0  0  0
 19 44  1  0  0  0  0
 19 45  1  0  0  0  0
 20 46  1  0  0  0  0
 20 47  1  0  0  0  0
 21 48  1  0  0  0  0
 25 49  1  0  0  0  0
M  END
> <clash_score>
0

> <docking_score>
-10.474039077758789

> <overlap_score>
0.8587740659713745

$$$$
BENZO_252_1
  -OEChem-08232013493D

 49 52  0     1  0  0  0  0  0999 V2000
    8.3510   -1.5420   24.6110 C   0  0  0  0  0  0  0  0  0  0  0  0
   10.2760   -2.3270   23.4020 C   0  0  0  0  0  0  0  0  0  0  0  0
    8.3310   -2.7170   25.3430 C   0  0  0  0  0  0  0  0  0  0  0  0
   10.2570   -3.5000   24.1350 C   0  0  0  0  0  0  0  0  0  0  0  0
   11.9019    2.6854   22.1912 C   0  0  0  0  0  0  0  0  0  0  0  0
   11.8820    4.0381   22.4508 C   0  0  0  0  0  0  0  0  0  0  0  0
   10.5617    2.7635   24.0885 C   0  0  0  0  0  0  0  0  0  0  0  0
    9.3300   -1.3350   23.6390 C   0  0  0  0  0  0  0  0  0  0  0  0
   11.1370    1.9470   23.1397 C   0  0  0  0  0  0  0  0  0  0  0  0
    9.2850   -3.7090   25.1090 C   0  0  0  0  0  0  0  0  0  0  0  0
    6.1600    0.3870   20.1140 C   0  0  0  0  0  0  0  0  0  0  0  0
    7.2210   -0.4620   20.0350 C   0  0  0  0  0  0  0  0  0  0  0  0
    5.3360    0.8000   21.1530 C   0  0  0  0  0  0  0  0  0  0  0  0
    4.2970    1.6690   20.8430 C   0  0  0  0  0  0  0  0  0  0  0  0
    4.0980    2.1130   19.5350 C   0  0  0  0  0  0  0  0  0  0  0  0
    4.9400    1.7060   18.5060 C   0  0  0  0  0  0  0  0  0  0  0  0
    8.9510    0.1280   21.6880 C   0  0  0  0  0  0  0  0  0  0  0  0
    8.2517   -5.1170   26.8651 C   0  0  0  0  0  0  0  0  0  0  0  0
   10.2445   -5.9404   25.6004 C   0  0  0  0  0  0  0  0  0  0  0  0
   10.9777    0.4443   23.1075 C   0  0  0  0  0  0  0  0  0  0  0  0
    9.4200   -0.0840   22.9530 C   0  0  1  0  0  0  0  0  0  0  0  0
    7.6830   -0.5170   18.7600 N   0  0  0  0  0  0  0  0  0  0  0  0
    6.9440    0.2550   18.0100 N   0  0  0  0  0  0  0  0  0  0  0  0
    5.9810    0.8330   18.8060 N   0  0  0  0  0  0  0  0  0  0  0  0
    8.0810   -0.9750   21.0820 N   0  0  0  0  0  0  0  0  0  0  0  0
    9.2638   -4.9025   25.8500 N   0  0  0  0  0  0  0  0  0  0  0  0
    9.1870    1.1500   21.0630 O   0  0  0  0  0  0  0  0  0  0  0  0
   10.9440    4.4131   23.8335 S   0  0  0  0  0  0  0  0  0  0  0  0
    7.5957   -0.7779   24.7973 H   0  0  0  0  0  0  0  0  0  0  0  0
   11.0384   -2.1852   22.6338 H   0  0  0  0  0  0  0  0  0  0  0  0
    7.5634   -2.8637   26.1037 H   0  0  0  0  0  0  0  0  0  0  0  0
   11.0139   -4.2645   23.9419 H   0  0  0  0  0  0  0  0  0  0  0  0
   12.4414    2.2505   21.3593 H   0  0  0  0  0  0  0  0  0  0  0  0
   12.3738    4.8240   21.8953 H   0  0  0  0  0  0  0  0  0  0  0  0
    9.9357    2.4743   24.9213 H   0  0  0  0  0  0  0  0  0  0  0  0
    5.4735    0.4758   22.1644 H   0  0  0  0  0  0  0  0  0  0  0  0
    3.6415    1.9967   21.6408 H   0  0  0  0  0  0  0  0  0  0  0  0
    3.2720    2.7926   19.2921 H   0  0  0  0  0  0  0  0  0  0  0  0
    4.8119    2.0418   17.5005 H   0  0  0  0  0  0  0  0  0  0  0  0
    8.4017   -6.1022   27.3308 H   0  0  0  0  0  0  0  0  0  0  0  0
    8.3305   -4.3329   27.6326 H   0  0  0  0  0  0  0  0  0  0  0  0
    7.2545   -5.0782   26.4024 H   0  0  0  0  0  0  0  0  0  0  0  0
   10.0621   -6.7882   26.2771 H   0  0  0  0  0  0  0  0  0  0  0  0
   10.1619   -6.2795   24.5573 H   0  0  0  0  0  0  0  0  0  0  0  0
   11.2540   -5.5409   25.7773 H   0  0  0  0  0  0  0  0  0  0  0  0
   11.5363    0.0387   22.2539 H   0  0  0  0  0  0  0  0  0  0  0  0
   11.4704    0.0336   23.9998 H   0  0  0  0  0  0  0  0  0  0  0  0
    8.9182    0.7194   23.6789 H   0  0  0  0  0  0  0  0  0  0  0  0
    8.1159   -1.8115   21.3524 H   0  0  0  0  0  0  0  0  0  0  0  0
  1  3  2  0  0  0  0
  1  8  1  0  0  0  0
  2  4  1  0  0  0  0
  2  8  2  0  0  0  0
  3 10  1  0  0  0  0
  4 10  2  0  0  0  0
  5  6  2  0  0  0  0
  5  9  1  0  0  0  0
  6 28  1  0  0  0  0
  7  9  2  0  0  0  0
  7 28  1  0  0  0  0
  8 21  1  0  0  0  0
  9 20  1  0  0  0  0
 10 26  1  0  0  0  0
 11 12  2  0  0  0  0
 11 13  1  0  0  0  0
 11 24  1  0  0  0  0
 12 22  1  0  0  0  0
 12 25  1  0  0  0  0
 13 14  2  0  0  0  0
 14 15  1  0  0  0  0
 15 16  2  0  0  0  0
 16 24  1  0  0  0  0
 17 21  1  0  0  0  0
 17 25  1  0  0  0  0
 17 27  2  0  0  0  0
 18 26  1  0  0  0  0
 19 26  1  0  0  0  0
 20 21  1  1  0  0  0
 22 23  2  0  0  0  0
 23 24  1  0  0  0  0
  1 29  1  0  0  0  0
  2 30  1  0  0  0  0
  3 31  1  0  0  0  0
  4 32  1  0  0  0  0
  5 33  1  0  0  0  0
  6 34  1  0  0  0  0
  7 35  1  0  0  0  0
 13 36  1  0  0  0  0
 14 37  1  0  0  0  0
 15 38  1  0  0  0  0
 16 39  1  0  0  0  0
 18 40  1  0  0  0  0
 18 41  1  0  0  0  0
 18 42  1  0  0  0  0
 19 43  1  0  0  0  0
 19 44  1  0  0  0  0
 19 45  1  0  0  0  0
 20 46  1  0  0  0  0
 20 47  1  0  0  0  0
 21 48  1  0  0  0  0
 25 49  1  0  0  0  0
M  END
> <clash_score>
0

> <docking_score>
-10.406490325927734

> <overlap_score>
0.9221581816673279

$$$$
BENZO_251_1
  -OEChem-08232013493D

 58 62  0     1  0  0  0  0  0999 V2000
    4.2970    1.6690   20.8430 C   0  0  0  0  0  0  0  0  0  0  0  0
    4.0980    2.1130   19.5350 C   0  0  0  0  0  0  0  0  0  0  0  0
    5.3360    0.8000   21.1530 C   0  0  0  0  0  0  0  0  0  0  0  0
    8.3510   -1.5420   24.6110 C   0  0  0  0  0  0  0  0  0  0  0  0
   10.2760   -2.3270   23.4020 C   0  0  0  0  0  0  0  0  0  0  0  0
    4.9400    1.7060   18.5060 C   0  0  0  0  0  0  0  0  0  0  0  0
    8.3310   -2.7170   25.3430 C   0  0  0  0  0  0  0  0  0  0  0  0
   10.2570   -3.5000   24.1350 C   0  0  0  0  0  0  0  0  0  0  0  0
   10.2246    2.9150   23.5993 C   0  0  0  0  0  0  0  0  0  0  0  0
   12.2096    2.6918   22.6802 C   0  0  0  0  0  0  0  0  0  0  0  0
    6.1600    0.3870   20.1140 C   0  0  0  0  0  0  0  0  0  0  0  0
    9.3300   -1.3350   23.6390 C   0  0  0  0  0  0  0  0  0  0  0  0
   11.1377    1.9556   23.1223 C   0  0  0  0  0  0  0  0  0  0  0  0
    5.9810    0.8330   18.8060 C   0  0  0  0  0  0  0  0  0  0  0  0
    9.2850   -3.7090   25.1090 C   0  0  0  0  0  0  0  0  0  0  0  0
    7.2210   -0.4620   20.0350 C   0  0  0  0  0  0  0  0  0  0  0  0
    8.9510    0.1280   21.6880 C   0  0  0  0  0  0  0  0  0  0  0  0
    8.7671   -4.9535   27.2147 C   0  0  0  0  0  0  0  0  0  0  0  0
    9.3066   -6.1865   25.1649 C   0  0  0  0  0  0  0  0  0  0  0  0
    7.3847   -5.5970   27.2000 C   0  0  0  0  0  0  0  0  0  0  0  0
    7.9070   -6.7999   25.2264 C   0  0  0  0  0  0  0  0  0  0  0  0
   12.7040    5.1473   22.6110 C   0  0  0  0  0  0  0  0  0  0  0  0
   10.9782    0.4528   23.1025 C   0  0  0  0  0  0  0  0  0  0  0  0
    9.4200   -0.0840   22.9530 C   0  0  1  0  0  0  0  0  0  0  0  0
   10.6770    4.1653   23.4725 N   0  0  0  0  0  0  0  0  0  0  0  0
    7.6830   -0.5170   18.7600 N   0  0  0  0  0  0  0  0  0  0  0  0
    6.9440    0.2550   18.0100 N   0  0  0  0  0  0  0  0  0  0  0  0
   11.8861    3.9966   22.9107 N   0  0  0  0  0  0  0  0  0  0  0  0
    9.2641   -4.8845   25.8388 N   0  0  0  0  0  0  0  0  0  0  0  0
    8.0810   -0.9750   21.0820 N   0  0  0  0  0  0  0  0  0  0  0  0
    9.1870    1.1500   21.0630 O   0  0  0  0  0  0  0  0  0  0  0  0
    7.4533   -6.8877   26.5818 O   0  0  0  0  0  0  0  0  0  0  0  0
    3.6274    2.0126   21.6300 H   0  0  0  0  0  0  0  0  0  0  0  0
    3.2732    2.7875   19.3199 H   0  0  0  0  0  0  0  0  0  0  0  0
    5.4878    0.4645   22.1722 H   0  0  0  0  0  0  0  0  0  0  0  0
    7.5957   -0.7779   24.7973 H   0  0  0  0  0  0  0  0  0  0  0  0
   11.0384   -2.1852   22.6338 H   0  0  0  0  0  0  0  0  0  0  0  0
    4.7853    2.0674   17.4815 H   0  0  0  0  0  0  0  0  0  0  0  0
    7.5634   -2.8637   26.1037 H   0  0  0  0  0  0  0  0  0  0  0  0
   11.0139   -4.2645   23.9419 H   0  0  0  0  0  0  0  0  0  0  0  0
    9.2482    2.7576   24.0354 H   0  0  0  0  0  0  0  0  0  0  0  0
   13.1522    2.4055   22.2336 H   0  0  0  0  0  0  0  0  0  0  0  0
    8.7013   -3.9575   27.6574 H   0  0  0  0  0  0  0  0  0  0  0  0
    9.4480   -5.5636   27.8142 H   0  0  0  0  0  0  0  0  0  0  0  0
   10.0131   -6.8375   25.6814 H   0  0  0  0  0  0  0  0  0  0  0  0
    9.6116   -6.0794   24.1250 H   0  0  0  0  0  0  0  0  0  0  0  0
    7.0306   -5.7388   28.2232 H   0  0  0  0  0  0  0  0  0  0  0  0
    6.6546   -4.9740   26.6757 H   0  0  0  0  0  0  0  0  0  0  0  0
    7.1892   -6.2226   24.6319 H   0  0  0  0  0  0  0  0  0  0  0  0
    7.9315   -7.8151   24.8187 H   0  0  0  0  0  0  0  0  0  0  0  0
   12.4645    5.4764   21.5964 H   0  0  0  0  0  0  0  0  0  0  0  0
   12.4916    5.9426   23.3309 H   0  0  0  0  0  0  0  0  0  0  0  0
   13.7592    4.8699   22.6849 H   0  0  0  0  0  0  0  0  0  0  0  0
   11.5374    0.0399   22.2527 H   0  0  0  0  0  0  0  0  0  0  0  0
   11.4700    0.0494   23.9985 H   0  0  0  0  0  0  0  0  0  0  0  0
    8.9187    0.7273   23.6745 H   0  0  0  0  0  0  0  0  0  0  0  0
    7.1015    0.3608   17.0505 H   0  0  0  0  0  0  0  0  0  0  0  0
    8.1354   -1.7990   21.3694 H   0  0  0  0  0  0  0  0  0  0  0  0
  1  2  1  0  0  0  0
  1  3  2  0  0  0  0
  2  6  2  0  0  0  0
  3 11  1  0  0  0  0
  4  7  2  0  0  0  0
  4 12  1  0  0  0  0
  5  8  1  0  0  0  0
  5 12  2  0  0  0  0
  6 14  1  0  0  0  0
  7 15  1  0  0  0  0
  8 15  2  0  0  0  0
  9 13  1  0  0  0  0
  9 25  2  0  0  0  0
 10 13  2  0  0  0  0
 10 28  1  0  0  0  0
 11 14  2  0  0  0  0
 11 16  1  0  0  0  0
 12 24  1  0  0  0  0
 13 23  1  0  0  0  0
 14 27  1  0  0  0  0
 15 29  1  0  0  0  0
 16 26  2  0  0  0  0
 16 30  1  0  0  0  0
 17 24  1  0  0  0  0
 17 30  1  0  0  0  0
 17 31  2  0  0  0  0
 18 20  1  0  0  0  0
 18 29  1  0  0  0  0
 19 21  1  0  0  0  0
 19 29  1  0  0  0  0
 20 32  1  0  0  0  0
 21 32  1  0  0  0  0
 22 28  1  0  0  0  0
 23 24  1  1  0  0  0
 25 28  1  0  0  0  0
 26 27  1  0  0  0  0
  1 33  1  0  0  0  0
  2 34  1  0  0  0  0
  3 35  1  0  0  0  0
  4 36  1  0  0  0  0
  5 37  1  0  0  0  0
  6 38  1  0  0  0  0
  7 39  1  0  0  0  0
  8 40  1  0  0  0  0
  9 41  1  0  0  0  0
 10 42  1  0  0  0  0
 18 43  1  0  0  0  0
 18 44  1  0  0  0  0
 19 45  1  0  0  0  0
 19 46  1  0  0  0  0
 20 47  1  0  0  0  0
 20 48  1  0  0  0  0
 21 49  1  0  0  0  0
 21 50  1  0  0  0  0
 22 51  1  0  0  0  0
 22 52  1  0  0  0  0
 22 53  1  0  0  0  0
 23 54  1  0  0  0  0
 23 55  1  0  0  0  0
 24 56  1  0  0  0  0
 27 57  1  0  0  0  0
 30 58  1  0  0  0  0
M  END
> <clash_score>
0

> <docking_score>
-9.579425811767578

> <overlap_score>
0.9410843849182129

$$$$
BENZO_255_1
  -OEChem-08232013493D

 52 55  0     1  0  0  0  0  0999 V2000
    8.3510   -1.5420   24.6110 C   0  0  0  0  0  0  0  0  0  0  0  0
   10.2760   -2.3270   23.4020 C   0  0  0  0  0  0  0  0  0  0  0  0
    8.3310   -2.7170   25.3430 C   0  0  0  0  0  0  0  0  0  0  0  0
   10.2570   -3.5000   24.1350 C   0  0  0  0  0  0  0  0  0  0  0  0
   10.2235    2.9023   23.6242 C   0  0  0  0  0  0  0  0  0  0  0  0
   12.2091    2.6870   22.7043 C   0  0  0  0  0  0  0  0  0  0  0  0
    9.3300   -1.3350   23.6390 C   0  0  0  0  0  0  0  0  0  0  0  0
   11.1370    1.9470   23.1397 C   0  0  0  0  0  0  0  0  0  0  0  0
    9.2850   -3.7090   25.1090 C   0  0  0  0  0  0  0  0  0  0  0  0
    6.1600    0.3870   20.1140 C   0  0  0  0  0  0  0  0  0  0  0  0
    7.2210   -0.4620   20.0350 C   0  0  0  0  0  0  0  0  0  0  0  0
    5.3360    0.8000   21.1530 C   0  0  0  0  0  0  0  0  0  0  0  0
    4.2970    1.6690   20.8430 C   0  0  0  0  0  0  0  0  0  0  0  0
    4.0980    2.1130   19.5350 C   0  0  0  0  0  0  0  0  0  0  0  0
    4.9400    1.7060   18.5060 C   0  0  0  0  0  0  0  0  0  0  0  0
    8.9510    0.1280   21.6880 C   0  0  0  0  0  0  0  0  0  0  0  0
   12.7031    5.1430   22.6555 C   0  0  0  0  0  0  0  0  0  0  0  0
    8.2517   -5.1170   26.8651 C   0  0  0  0  0  0  0  0  0  0  0  0
   10.2445   -5.9404   25.6004 C   0  0  0  0  0  0  0  0  0  0  0  0
   10.9777    0.4443   23.1075 C   0  0  0  0  0  0  0  0  0  0  0  0
    9.4200   -0.0840   22.9530 C   0  0  1  0  0  0  0  0  0  0  0  0
   10.6758    4.1536   23.5079 N   0  0  0  0  0  0  0  0  0  0  0  0
    7.6830   -0.5170   18.7600 N   0  0  0  0  0  0  0  0  0  0  0  0
    6.9440    0.2550   18.0100 N   0  0  0  0  0  0  0  0  0  0  0  0
   11.8853    3.9898   22.9453 N   0  0  0  0  0  0  0  0  0  0  0  0
    5.9810    0.8330   18.8060 N   0  0  0  0  0  0  0  0  0  0  0  0
    8.0810   -0.9750   21.0820 N   0  0  0  0  0  0  0  0  0  0  0  0
    9.2638   -4.9025   25.8500 N   0  0  0  0  0  0  0  0  0  0  0  0
    9.1870    1.1500   21.0630 O   0  0  0  0  0  0  0  0  0  0  0  0
    7.5957   -0.7779   24.7973 H   0  0  0  0  0  0  0  0  0  0  0  0
   11.0384   -2.1852   22.6338 H   0  0  0  0  0  0  0  0  0  0  0  0
    7.5634   -2.8637   26.1037 H   0  0  0  0  0  0  0  0  0  0  0  0
   11.0139   -4.2645   23.9419 H   0  0  0  0  0  0  0  0  0  0  0  0
    9.2470    2.7411   24.0585 H   0  0  0  0  0  0  0  0  0  0  0  0
   13.1519    2.4044   22.2558 H   0  0  0  0  0  0  0  0  0  0  0  0
    5.4735    0.4758   22.1644 H   0  0  0  0  0  0  0  0  0  0  0  0
    3.6415    1.9967   21.6408 H   0  0  0  0  0  0  0  0  0  0  0  0
    3.2720    2.7926   19.2921 H   0  0  0  0  0  0  0  0  0  0  0  0
    4.8119    2.0418   17.5005 H   0  0  0  0  0  0  0  0  0  0  0  0
   12.4640    5.4803   21.6435 H   0  0  0  0  0  0  0  0  0  0  0  0
   12.4902    5.9323   23.3818 H   0  0  0  0  0  0  0  0  0  0  0  0
   13.7583    4.8651   22.7277 H   0  0  0  0  0  0  0  0  0  0  0  0
    8.4017   -6.1022   27.3308 H   0  0  0  0  0  0  0  0  0  0  0  0
    8.3305   -4.3329   27.6326 H   0  0  0  0  0  0  0  0  0  0  0  0
    7.2545   -5.0782   26.4024 H   0  0  0  0  0  0  0  0  0  0  0  0
   10.0621   -6.7882   26.2771 H   0  0  0  0  0  0  0  0  0  0  0  0
   10.1619   -6.2795   24.5573 H   0  0  0  0  0  0  0  0  0  0  0  0
   11.2540   -5.5409   25.7773 H   0  0  0  0  0  0  0  0  0  0  0  0
   11.5363    0.0387   22.2539 H   0  0  0  0  0  0  0  0  0  0  0  0
   11.4704    0.0336   23.9998 H   0  0  0  0  0  0  0  0  0  0  0  0
    8.9182    0.7194   23.6789 H   0  0  0  0  0  0  0  0  0  0  0  0
    8.1159   -1.8115   21.3524 H   0  0  0  0  0  0  0  0  0  0  0  0
  1  3  2  0  0  0  0
  1  7  1  0  0  0  0
  2  4  1  0  0  0  0
  2  7  2  0  0  0  0
  3  9  1  0  0  0  0
  4  9  2  0  0  0  0
  5  8  1  0  0  0  0
  5 22  2  0  0  0  0
  6  8  2  0  0  0  0
  6 25  1  0  0  0  0
  7 21  1  0  0  0  0
  8 20  1  0  0  0  0
  9 28  1  0  0  0  0
 10 11  2  0  0  0  0
 10 12  1  0  0  0  0
 10 26  1  0  0  0  0
 11 23  1  0  0  0  0
 11 27  1  0  0  0  0
 12 13  2  0  0  0  0
 13 14  1  0  0  0  0
 14 15  2  0  0  0  0
 15 26  1  0  0  0  0
 16 21  1  0  0  0  0
 16 27  1  0  0  0  0
 16 29  2  0  0  0  0
 17 25  1  0  0  0  0
 18 28  1  0  0  0  0
 19 28  1  0  0  0  0
 20 21  1  1  0  0  0
 22 25  1  0  0  0  0
 23 24  2  0  0  0  0
 24 26  1  0  0  0  0
  1 30  1  0  0  0  0
  2 31  1  0  0  0  0
  3 32  1  0  0  0  0
  4 33  1  0  0  0  0
  5 34  1  0  0  0  0
  6 35  1  0  0  0  0
 12 36  1  0  0  0  0
 13 37  1  0  0  0  0
 14 38  1  0  0  0  0
 15 39  1  0  0  0  0
 17 40  1  0  0  0  0
 17 41  1  0  0  0  0
 17 42  1  0  0  0  0
 18 43  1  0  0  0  0
 18 44  1  0  0  0  0
 18 45  1  0  0  0  0
 19 46  1  0  0  0  0
 19 47  1  0  0  0  0
 19 48  1  0  0  0  0
 20 49  1  0  0  0  0
 20 50  1  0  0  0  0
 21 51  1  0  0  0  0
 27 52  1  0  0  0  0
M  END
> <clash_score>
0

> <docking_score>
-11.821784019470215

> <overlap_score>
0.9275813698768616

$$$$
BENZO_255_2
  -OEChem-08232013493D

 52 55  0     1  0  0  0  0  0999 V2000
    8.3510   -1.5420   24.6110 C   0  0  0  0  0  0  0  0  0  0  0  0
   10.2760   -2.3270   23.4020 C   0  0  0  0  0  0  0  0  0  0  0  0
    8.3310   -2.7170   25.3430 C   0  0  0  0  0  0  0  0  0  0  0  0
   10.2570   -3.5000   24.1350 C   0  0  0  0  0  0  0  0  0  0  0  0
   10.7939    2.7770   23.4177 C   0  0  0  0  0  0  0  0  0  0  0  0
    8.9123    3.6676   24.1257 C   0  0  0  0  0  0  0  0  0  0  0  0
    9.3300   -1.3350   23.6390 C   0  0  0  0  0  0  0  0  0  0  0  0
    9.4950    2.4539   23.8539 C   0  0  0  0  0  0  0  0  0  0  0  0
    9.2850   -3.7090   25.1090 C   0  0  0  0  0  0  0  0  0  0  0  0
    6.1600    0.3870   20.1140 C   0  0  0  0  0  0  0  0  0  0  0  0
    7.2210   -0.4620   20.0350 C   0  0  0  0  0  0  0  0  0  0  0  0
    5.3360    0.8000   21.1530 C   0  0  0  0  0  0  0  0  0  0  0  0
    4.2970    1.6690   20.8430 C   0  0  0  0  0  0  0  0  0  0  0  0
    4.0980    2.1130   19.5350 C   0  0  0  0  0  0  0  0  0  0  0  0
    4.9400    1.7060   18.5060 C   0  0  0  0  0  0  0  0  0  0  0  0
    8.9510    0.1280   21.6880 C   0  0  0  0  0  0  0  0  0  0  0  0
    9.7138    6.0370   23.9775 C   0  0  0  0  0  0  0  0  0  0  0  0
    8.2517   -5.1170   26.8651 C   0  0  0  0  0  0  0  0  0  0  0  0
   10.2445   -5.9404   25.6004 C   0  0  0  0  0  0  0  0  0  0  0  0
    8.8771    1.0813   23.9905 C   0  0  0  0  0  0  0  0  0  0  0  0
    9.4200   -0.0840   22.9530 C   0  0  2  0  0  0  0  0  0  0  0  0
   11.0232    4.0928   23.4110 N   0  0  0  0  0  0  0  0  0  0  0  0
    7.6830   -0.5170   18.7600 N   0  0  0  0  0  0  0  0  0  0  0  0
    6.9440    0.2550   18.0100 N   0  0  0  0  0  0  0  0  0  0  0  0
    9.8605    4.6073   23.8463 N   0  0  0  0  0  0  0  0  0  0  0  0
    5.9810    0.8330   18.8060 N   0  0  0  0  0  0  0  0  0  0  0  0
    8.0810   -0.9750   21.0820 N   0  0  0  0  0  0  0  0  0  0  0  0
    9.2638   -4.9025   25.8500 N   0  0  0  0  0  0  0  0  0  0  0  0
    9.1870    1.1500   21.0630 O   0  0  0  0  0  0  0  0  0  0  0  0
    7.5957   -0.7779   24.7973 H   0  0  0  0  0  0  0  0  0  0  0  0
   11.0384   -2.1852   22.6338 H   0  0  0  0  0  0  0  0  0  0  0  0
    7.5634   -2.8637   26.1037 H   0  0  0  0  0  0  0  0  0  0  0  0
   11.0139   -4.2645   23.9419 H   0  0  0  0  0  0  0  0  0  0  0  0
   11.5843    2.1103   23.1031 H   0  0  0  0  0  0  0  0  0  0  0  0
    7.9277    3.9360   24.4839 H   0  0  0  0  0  0  0  0  0  0  0  0
    5.4735    0.4758   22.1644 H   0  0  0  0  0  0  0  0  0  0  0  0
    3.6415    1.9967   21.6408 H   0  0  0  0  0  0  0  0  0  0  0  0
    3.2720    2.7926   19.2921 H   0  0  0  0  0  0  0  0  0  0  0  0
    4.8119    2.0418   17.5005 H   0  0  0  0  0  0  0  0  0  0  0  0
   10.0225    6.3165   24.9883 H   0  0  0  0  0  0  0  0  0  0  0  0
   10.3410    6.5371   23.2342 H   0  0  0  0  0  0  0  0  0  0  0  0
    8.6688    6.3103   23.8064 H   0  0  0  0  0  0  0  0  0  0  0  0
    8.4017   -6.1022   27.3308 H   0  0  0  0  0  0  0  0  0  0  0  0
    8.3305   -4.3329   27.6326 H   0  0  0  0  0  0  0  0  0  0  0  0
    7.2545   -5.0782   26.4024 H   0  0  0  0  0  0  0  0  0  0  0  0
   10.0621   -6.7882   26.2771 H   0  0  0  0  0  0  0  0  0  0  0  0
   10.1619   -6.2795   24.5573 H   0  0  0  0  0  0  0  0  0  0  0  0
   11.2540   -5.5409   25.7773 H   0  0  0  0  0  0  0  0  0  0  0  0
    8.9708    0.7434   25.0308 H   0  0  0  0  0  0  0  0  0  0  0  0
    7.7972    1.1781   23.8117 H   0  0  0  0  0  0  0  0  0  0  0  0
   10.5743    0.2174   22.9808 H   0  0  0  0  0  0  0  0  0  0  0  0
    8.1159   -1.8115   21.3524 H   0  0  0  0  0  0  0  0  0  0  0  0
  1  3  2  0  0  0  0
  1  7  1  0  0  0  0
  2  4  1  0  0  0  0
  2  7  2  0  0  0  0
  3  9  1  0  0  0  0
  4  9  2  0  0  0  0
  5  8  1  0  0  0  0
  5 22  2  0  0  0  0
  6  8  2  0  0  0  0
  6 25  1  0  0  0  0
  7 21  1  0  0  0  0
  8 20  1  0  0  0  0
  9 28  1  0  0  0  0
 10 11  2  0  0  0  0
 10 12  1  0  0  0  0
 10 26  1  0  0  0  0
 11 23  1  0  0  0  0
 11 27  1  0  0  0  0
 12 13  2  0  0  0  0
 13 14  1  0  0  0  0
 14 15  2  0  0  0  0
 15 26  1  0  0  0  0
 16 21  1  0  0  0  0
 16 27  1  0  0  0  0
 16 29  2  0  0  0  0
 17 25  1  0  0  0  0
 18 28  1  0  0  0  0
 19 28  1  0  0  0  0
 20 21  1  6  0  0  0
 22 25  1  0  0  0  0
 23 24  2  0  0  0  0
 24 26  1  0  0  0  0
  1 30  1  0  0  0  0
  2 31  1  0  0  0  0
  3 32  1  0  0  0  0
  4 33  1  0  0  0  0
  5 34  1  0  0  0  0
  6 35  1  0  0  0  0
 12 36  1  0  0  0  0
 13 37  1  0  0  0  0
 14 38  1  0  0  0  0
 15 39  1  0  0  0  0
 17 40  1  0  0  0  0
 17 41  1  0  0  0  0
 17 42  1  0  0  0  0
 18 43  1  0  0  0  0
 18 44  1  0  0  0  0
 18 45  1  0  0  0  0
 19 46  1  0  0  0  0
 19 47  1  0  0  0  0
 19 48  1  0  0  0  0
 20 49  1  0  0  0  0
 20 50  1  0  0  0  0
 21 51  1  0  0  0  0
 27 52  1  0  0  0  0
M  END
> <clash_score>
0

> <docking_score>
-10.626099586486816

> <overlap_score>
0.8542816638946533

$$$$
BENZO_254_1
  -OEChem-08232013493D

 52 55  0     1  0  0  0  0  0999 V2000
   10.2645    4.1315   23.6906 C   0  0  0  0  0  0  0  0  0  0  0  0
   10.1177    2.7447   23.6595 C   0  0  0  0  0  0  0  0  0  0  0  0
    8.3510   -1.5420   24.6110 C   0  0  0  0  0  0  0  0  0  0  0  0
   10.2760   -2.3270   23.4020 C   0  0  0  0  0  0  0  0  0  0  0  0
    8.3310   -2.7170   25.3430 C   0  0  0  0  0  0  0  0  0  0  0  0
   10.2570   -3.5000   24.1350 C   0  0  0  0  0  0  0  0  0  0  0  0
   11.4306    4.7205   23.2018 C   0  0  0  0  0  0  0  0  0  0  0  0
   12.3032    2.5360   22.6510 C   0  0  0  0  0  0  0  0  0  0  0  0
    9.3300   -1.3350   23.6390 C   0  0  0  0  0  0  0  0  0  0  0  0
   11.1370    1.9470   23.1397 C   0  0  0  0  0  0  0  0  0  0  0  0
    9.2850   -3.7090   25.1090 C   0  0  0  0  0  0  0  0  0  0  0  0
   12.4500    3.9228   22.6821 C   0  0  0  0  0  0  0  0  0  0  0  0
    6.1600    0.3870   20.1140 C   0  0  0  0  0  0  0  0  0  0  0  0
    7.2210   -0.4620   20.0350 C   0  0  0  0  0  0  0  0  0  0  0  0
    5.3360    0.8000   21.1530 C   0  0  0  0  0  0  0  0  0  0  0  0
    4.2970    1.6690   20.8430 C   0  0  0  0  0  0  0  0  0  0  0  0
    4.0980    2.1130   19.5350 C   0  0  0  0  0  0  0  0  0  0  0  0
    4.9400    1.7060   18.5060 C   0  0  0  0  0  0  0  0  0  0  0  0
    8.9510    0.1280   21.6880 C   0  0  0  0  0  0  0  0  0  0  0  0
    8.2517   -5.1170   26.8651 C   0  0  0  0  0  0  0  0  0  0  0  0
   10.2445   -5.9404   25.6004 C   0  0  0  0  0  0  0  0  0  0  0  0
   10.9777    0.4443   23.1075 C   0  0  0  0  0  0  0  0  0  0  0  0
    9.4200   -0.0840   22.9530 C   0  0  1  0  0  0  0  0  0  0  0  0
    7.6830   -0.5170   18.7600 N   0  0  0  0  0  0  0  0  0  0  0  0
    6.9440    0.2550   18.0100 N   0  0  0  0  0  0  0  0  0  0  0  0
    5.9810    0.8330   18.8060 N   0  0  0  0  0  0  0  0  0  0  0  0
    8.0810   -0.9750   21.0820 N   0  0  0  0  0  0  0  0  0  0  0  0
    9.2638   -4.9025   25.8500 N   0  0  0  0  0  0  0  0  0  0  0  0
    9.1870    1.1500   21.0630 O   0  0  0  0  0  0  0  0  0  0  0  0
   13.8890    4.6500   22.0802 Cl  0  0  0  0  0  0  0  0  0  0  0  0
    9.4706    4.7523   24.0955 H   0  0  0  0  0  0  0  0  0  0  0  0
    9.2057    2.2944   24.0426 H   0  0  0  0  0  0  0  0  0  0  0  0
    7.5957   -0.7779   24.7973 H   0  0  0  0  0  0  0  0  0  0  0  0
   11.0384   -2.1852   22.6338 H   0  0  0  0  0  0  0  0  0  0  0  0
    7.5634   -2.8637   26.1037 H   0  0  0  0  0  0  0  0  0  0  0  0
   11.0139   -4.2645   23.9419 H   0  0  0  0  0  0  0  0  0  0  0  0
   11.5314    5.8026   23.2326 H   0  0  0  0  0  0  0  0  0  0  0  0
   13.0949    1.9096   22.2463 H   0  0  0  0  0  0  0  0  0  0  0  0
    5.4735    0.4758   22.1644 H   0  0  0  0  0  0  0  0  0  0  0  0
    3.6415    1.9967   21.6408 H   0  0  0  0  0  0  0  0  0  0  0  0
    3.2720    2.7926   19.2921 H   0  0  0  0  0  0  0  0  0  0  0  0
    4.8119    2.0418   17.5005 H   0  0  0  0  0  0  0  0  0  0  0  0
    8.4017   -6.1022   27.3308 H   0  0  0  0  0  0  0  0  0  0  0  0
    8.3305   -4.3329   27.6326 H   0  0  0  0  0  0  0  0  0  0  0  0
    7.2545   -5.0782   26.4024 H   0  0  0  0  0  0  0  0  0  0  0  0
   10.0621   -6.7882   26.2771 H   0  0  0  0  0  0  0  0  0  0  0  0
   10.1619   -6.2795   24.5573 H   0  0  0  0  0  0  0  0  0  0  0  0
   11.2540   -5.5409   25.7773 H   0  0  0  0  0  0  0  0  0  0  0  0
   11.5363    0.0387   22.2539 H   0  0  0  0  0  0  0  0  0  0  0  0
   11.4704    0.0336   23.9998 H   0  0  0  0  0  0  0  0  0  0  0  0
    8.9182    0.7194   23.6789 H   0  0  0  0  0  0  0  0  0  0  0  0
    8.1159   -1.8115   21.3524 H   0  0  0  0  0  0  0  0  0  0  0  0
  1  2  2  0  0  0  0
  1  7  1  0  0  0  0
  2 10  1  0  0  0  0
  3  5  2  0  0  0  0
  3  9  1  0  0  0  0
  4  6  1  0  0  0  0
  4  9  2  0  0  0  0
  5 11  1  0  0  0  0
  6 11  2  0  0  0  0
  7 12  2  0  0  0  0
  8 10  2  0  0  0  0
  8 12  1  0  0  0  0
  9 23  1  0  0  0  0
 10 22  1  0  0  0  0
 11 28  1  0  0  0  0
 12 30  1  0  0  0  0
 13 14  2  0  0  0  0
 13 15  1  0  0  0  0
 13 26  1  0  0  0  0
 14 24  1  0  0  0  0
 14 27  1  0  0  0  0
 15 16  2  0  0  0  0
 16 17  1  0  0  0  0
 17 18  2  0  0  0  0
 18 26  1  0  0  0  0
 19 23  1  0  0  0  0
 19 27  1  0  0  0  0
 19 29  2  0  0  0  0
 20 28  1  0  0  0  0
 21 28  1  0  0  0  0
 22 23  1  1  0  0  0
 24 25  2  0  0  0  0
 25 26  1  0  0  0  0
  1 31  1  0  0  0  0
  2 32  1  0  0  0  0
  3 33  1  0  0  0  0
  4 34  1  0  0  0  0
  5 35  1  0  0  0  0
  6 36  1  0  0  0  0
  7 37  1  0  0  0  0
  8 38  1  0  0  0  0
 15 39  1  0  0  0  0
 16 40  1  0  0  0  0
 17 41  1  0  0  0  0
 18 42  1  0  0  0  0
 20 43  1  0  0  0  0
 20 44  1  0  0  0  0
 20 45  1  0  0  0  0
 21 46  1  0  0  0  0
 21 47  1  0  0  0  0
 21 48  1  0  0  0  0
 22 49  1  0  0  0  0
 22 50  1  0  0  0  0
 23 51  1  0  0  0  0
 27 52  1  0  0  0  0
M  END
> <clash_score>
0

> <docking_score>
-12.29310417175293

> <overlap_score>
0.9337264895439148

$$$$
BENZO_254_2
  -OEChem-08232013493D

 52 55  0     1  0  0  0  0  0999 V2000
    9.3211    4.8553   24.0536 C   0  0  0  0  0  0  0  0  0  0  0  0
    8.7511    3.5884   24.1784 C   0  0  0  0  0  0  0  0  0  0  0  0
    8.3510   -1.5420   24.6110 C   0  0  0  0  0  0  0  0  0  0  0  0
   10.2760   -2.3270   23.4020 C   0  0  0  0  0  0  0  0  0  0  0  0
    8.3310   -2.7170   25.3430 C   0  0  0  0  0  0  0  0  0  0  0  0
   10.2570   -3.5000   24.1350 C   0  0  0  0  0  0  0  0  0  0  0  0
   10.6349    4.9878   23.6042 C   0  0  0  0  0  0  0  0  0  0  0  0
   10.8089    2.5864   23.4046 C   0  0  0  0  0  0  0  0  0  0  0  0
    9.3300   -1.3350   23.6390 C   0  0  0  0  0  0  0  0  0  0  0  0
    9.4950    2.4539   23.8539 C   0  0  0  0  0  0  0  0  0  0  0  0
    9.2850   -3.7090   25.1090 C   0  0  0  0  0  0  0  0  0  0  0  0
   11.3788    3.8534   23.2798 C   0  0  0  0  0  0  0  0  0  0  0  0
    6.1600    0.3870   20.1140 C   0  0  0  0  0  0  0  0  0  0  0  0
    7.2210   -0.4620   20.0350 C   0  0  0  0  0  0  0  0  0  0  0  0
    5.3360    0.8000   21.1530 C   0  0  0  0  0  0  0  0  0  0  0  0
    4.2970    1.6690   20.8430 C   0  0  0  0  0  0  0  0  0  0  0  0
    4.0980    2.1130   19.5350 C   0  0  0  0  0  0  0  0  0  0  0  0
    4.9400    1.7060   18.5060 C   0  0  0  0  0  0  0  0  0  0  0  0
    8.9510    0.1280   21.6880 C   0  0  0  0  0  0  0  0  0  0  0  0
    8.2517   -5.1170   26.8651 C   0  0  0  0  0  0  0  0  0  0  0  0
   10.2445   -5.9404   25.6004 C   0  0  0  0  0  0  0  0  0  0  0  0
    8.8771    1.0813   23.9905 C   0  0  0  0  0  0  0  0  0  0  0  0
    9.4200   -0.0840   22.9530 C   0  0  2  0  0  0  0  0  0  0  0  0
    7.6830   -0.5170   18.7600 N   0  0  0  0  0  0  0  0  0  0  0  0
    6.9440    0.2550   18.0100 N   0  0  0  0  0  0  0  0  0  0  0  0
    5.9810    0.8330   18.8060 N   0  0  0  0  0  0  0  0  0  0  0  0
    8.0810   -0.9750   21.0820 N   0  0  0  0  0  0  0  0  0  0  0  0
    9.2638   -4.9025   25.8500 N   0  0  0  0  0  0  0  0  0  0  0  0
    9.1870    1.1500   21.0630 O   0  0  0  0  0  0  0  0  0  0  0  0
   13.0002    4.0175   22.7265 Cl  0  0  0  0  0  0  0  0  0  0  0  0
    8.7415    5.7384   24.3065 H   0  0  0  0  0  0  0  0  0  0  0  0
    7.7267    3.4945   24.5294 H   0  0  0  0  0  0  0  0  0  0  0  0
    7.5957   -0.7779   24.7973 H   0  0  0  0  0  0  0  0  0  0  0  0
   11.0384   -2.1852   22.6338 H   0  0  0  0  0  0  0  0  0  0  0  0
    7.5634   -2.8637   26.1037 H   0  0  0  0  0  0  0  0  0  0  0  0
   11.0139   -4.2645   23.9419 H   0  0  0  0  0  0  0  0  0  0  0  0
   11.0663    5.9816   23.5122 H   0  0  0  0  0  0  0  0  0  0  0  0
   11.3846    1.6989   23.1523 H   0  0  0  0  0  0  0  0  0  0  0  0
    5.4735    0.4758   22.1644 H   0  0  0  0  0  0  0  0  0  0  0  0
    3.6415    1.9967   21.6408 H   0  0  0  0  0  0  0  0  0  0  0  0
    3.2720    2.7926   19.2921 H   0  0  0  0  0  0  0  0  0  0  0  0
    4.8119    2.0418   17.5005 H   0  0  0  0  0  0  0  0  0  0  0  0
    8.4017   -6.1022   27.3308 H   0  0  0  0  0  0  0  0  0  0  0  0
    8.3305   -4.3329   27.6326 H   0  0  0  0  0  0  0  0  0  0  0  0
    7.2545   -5.0782   26.4024 H   0  0  0  0  0  0  0  0  0  0  0  0
   10.0621   -6.7882   26.2771 H   0  0  0  0  0  0  0  0  0  0  0  0
   10.1619   -6.2795   24.5573 H   0  0  0  0  0  0  0  0  0  0  0  0
   11.2540   -5.5409   25.7773 H   0  0  0  0  0  0  0  0  0  0  0  0
    8.9708    0.7434   25.0308 H   0  0  0  0  0  0  0  0  0  0  0  0
    7.7972    1.1781   23.8117 H   0  0  0  0  0  0  0  0  0  0  0  0
   10.5743    0.2174   22.9808 H   0  0  0  0  0  0  0  0  0  0  0  0
    8.1159   -1.8115   21.3524 H   0  0  0  0  0  0  0  0  0  0  0  0
  1  2  2  0  0  0  0
  1  7  1  0  0  0  0
  2 10  1  0  0  0  0
  3  5  2  0  0  0  0
  3  9  1  0  0  0  0
  4  6  1  0  0  0  0
  4  9  2  0  0  0  0
  5 11  1  0  0  0  0
  6 11  2  0  0  0  0
  7 12  2  0  0  0  0
  8 10  2  0  0  0  0
  8 12  1  0  0  0  0
  9 23  1  0  0  0  0
 10 22  1  0  0  0  0
 11 28  1  0  0  0  0
 12 30  1  0  0  0  0
 13 14  2  0  0  0  0
 13 15  1  0  0  0  0
 13 26  1  0  0  0  0
 14 24  1  0  0  0  0
 14 27  1  0  0  0  0
 15 16  2  0  0  0  0
 16 17  1  0  0  0  0
 17 18  2  0  0  0  0
 18 26  1  0  0  0  0
 19 23  1  0  0  0  0
 19 27  1  0  0  0  0
 19 29  2  0  0  0  0
 20 28  1  0  0  0  0
 21 28  1  0  0  0  0
 22 23  1  6  0  0  0
 24 25  2  0  0  0  0
 25 26  1  0  0  0  0
  1 31  1  0  0  0  0
  2 32  1  0  0  0  0
  3 33  1  0  0  0  0
  4 34  1  0  0  0  0
  5 35  1  0  0  0  0
  6 36  1  0  0  0  0
  7 37  1  0  0  0  0
  8 38  1  0  0  0  0
 15 39  1  0  0  0  0
 16 40  1  0  0  0  0
 17 41  1  0  0  0  0
 18 42  1  0  0  0  0
 20 43  1  0  0  0  0
 20 44  1  0  0  0  0
 20 45  1  0  0  0  0
 21 46  1  0  0  0  0
 21 47  1  0  0  0  0
 21 48  1  0  0  0  0
 22 49  1  0  0  0  0
 22 50  1  0  0  0  0
 23 51  1  0  0  0  0
 27 52  1  0  0  0  0
M  END
> <clash_score>
0

> <docking_score>
-11.285223007202148

> <overlap_score>
0.8692746758460999

$$$$
BENZO_257_1
  -OEChem-08232013493D

 54 57  0     1  0  0  0  0  0999 V2000
   11.4296    4.7207   23.1993 C   0  0  0  0  0  0  0  0  0  0  0  0
   12.4494    3.9228   22.6806 C   0  0  0  0  0  0  0  0  0  0  0  0
   10.2636    4.1317   23.6883 C   0  0  0  0  0  0  0  0  0  0  0  0
   12.3031    2.5360   22.6508 C   0  0  0  0  0  0  0  0  0  0  0  0
   10.1173    2.7449   23.6585 C   0  0  0  0  0  0  0  0  0  0  0  0
    8.3510   -1.5420   24.6110 C   0  0  0  0  0  0  0  0  0  0  0  0
   10.2760   -2.3270   23.4020 C   0  0  0  0  0  0  0  0  0  0  0  0
    8.3310   -2.7170   25.3430 C   0  0  0  0  0  0  0  0  0  0  0  0
   10.2570   -3.5000   24.1350 C   0  0  0  0  0  0  0  0  0  0  0  0
   11.1370    1.9470   23.1397 C   0  0  0  0  0  0  0  0  0  0  0  0
    9.3300   -1.3350   23.6390 C   0  0  0  0  0  0  0  0  0  0  0  0
    9.2850   -3.7090   25.1090 C   0  0  0  0  0  0  0  0  0  0  0  0
    6.1600    0.3870   20.1140 C   0  0  0  0  0  0  0  0  0  0  0  0
    7.2210   -0.4620   20.0350 C   0  0  0  0  0  0  0  0  0  0  0  0
    5.3360    0.8000   21.1530 C   0  0  0  0  0  0  0  0  0  0  0  0
    4.2970    1.6690   20.8430 C   0  0  0  0  0  0  0  0  0  0  0  0
    4.0980    2.1130   19.5350 C   0  0  0  0  0  0  0  0  0  0  0  0
    4.9400    1.7060   18.5060 C   0  0  0  0  0  0  0  0  0  0  0  0
    8.1545   -5.5464   26.4002 C   0  0  0  0  0  0  0  0  0  0  0  0
    8.9510    0.1280   21.6880 C   0  0  0  0  0  0  0  0  0  0  0  0
    9.2318   -7.8282   26.2032 C   0  0  0  0  0  0  0  0  0  0  0  0
   10.9777    0.4443   23.1075 C   0  0  0  0  0  0  0  0  0  0  0  0
    8.5753   -6.8162   27.1251 C   0  0  0  0  0  0  0  0  0  0  0  0
    9.4200   -0.0840   22.9530 C   0  0  1  0  0  0  0  0  0  0  0  0
    7.6830   -0.5170   18.7600 N   0  0  0  0  0  0  0  0  0  0  0  0
    6.9440    0.2550   18.0100 N   0  0  0  0  0  0  0  0  0  0  0  0
    5.9810    0.8330   18.8060 N   0  0  0  0  0  0  0  0  0  0  0  0
    9.2630   -4.8903   25.8409 N   0  0  0  0  0  0  0  0  0  0  0  0
    8.0810   -0.9750   21.0820 N   0  0  0  0  0  0  0  0  0  0  0  0
    6.9828   -5.1884   26.3422 O   0  0  0  0  0  0  0  0  0  0  0  0
    9.1870    1.1500   21.0630 O   0  0  0  0  0  0  0  0  0  0  0  0
   11.5443    5.8005   23.2237 H   0  0  0  0  0  0  0  0  0  0  0  0
   13.3579    4.3812   22.3008 H   0  0  0  0  0  0  0  0  0  0  0  0
    9.4699    4.7525   24.0932 H   0  0  0  0  0  0  0  0  0  0  0  0
   13.1028    1.9222   22.2446 H   0  0  0  0  0  0  0  0  0  0  0  0
    9.2052    2.2948   24.0415 H   0  0  0  0  0  0  0  0  0  0  0  0
    7.5948   -0.7783   24.7966 H   0  0  0  0  0  0  0  0  0  0  0  0
   11.0389   -2.1844   22.6342 H   0  0  0  0  0  0  0  0  0  0  0  0
    7.5642   -2.8624   26.1050 H   0  0  0  0  0  0  0  0  0  0  0  0
   11.0137   -4.2649   23.9418 H   0  0  0  0  0  0  0  0  0  0  0  0
    5.4735    0.4758   22.1644 H   0  0  0  0  0  0  0  0  0  0  0  0
    3.6415    1.9967   21.6408 H   0  0  0  0  0  0  0  0  0  0  0  0
    3.2720    2.7926   19.2921 H   0  0  0  0  0  0  0  0  0  0  0  0
    4.8119    2.0418   17.5005 H   0  0  0  0  0  0  0  0  0  0  0  0
    8.5555   -8.1182   25.3924 H   0  0  0  0  0  0  0  0  0  0  0  0
    9.5048   -8.7299   26.7599 H   0  0  0  0  0  0  0  0  0  0  0  0
   10.1405   -7.4169   25.7514 H   0  0  0  0  0  0  0  0  0  0  0  0
   11.5363    0.0387   22.2539 H   0  0  0  0  0  0  0  0  0  0  0  0
   11.4704    0.0336   23.9998 H   0  0  0  0  0  0  0  0  0  0  0  0
    9.2732   -6.5444   27.9254 H   0  0  0  0  0  0  0  0  0  0  0  0
    7.6874   -7.2638   27.5862 H   0  0  0  0  0  0  0  0  0  0  0  0
    8.9182    0.7194   23.6789 H   0  0  0  0  0  0  0  0  0  0  0  0
   10.1701   -5.3456   25.9953 H   0  0  0  0  0  0  0  0  0  0  0  0
    8.1159   -1.8115   21.3524 H   0  0  0  0  0  0  0  0  0  0  0  0
  1  2  1  0  0  0  0
  1  3  2  0  0  0  0
  2  4  2  0  0  0  0
  3  5  1  0  0  0  0
  4 10  1  0  0  0  0
  5 10  2  0  0  0  0
  6  8  2  0  0  0  0
  6 11  1  0  0  0  0
  7  9  1  0  0  0  0
  7 11  2  0  0  0  0
  8 12  1  0  0  0  0
  9 12  2  0  0  0  0
 10 22  1  0  0  0  0
 11 24  1  0  0  0  0
 12 28  1  0  0  0  0
 13 14  2  0  0  0  0
 13 15  1  0  0  0  0
 13 27  1  0  0  0  0
 14 25  1  0  0  0  0
 14 29  1  0  0  0  0
 15 16  2  0  0  0  0
 16 17  1  0  0  0  0
 17 18  2  0  0  0  0
 18 27  1  0  0  0  0
 19 23  1  0  0  0  0
 19 28  1  0  0  0  0
 19 30  2  0  0  0  0
 20 24  1  0  0  0  0
 20 29  1  0  0  0  0
 20 31  2  0  0  0  0
 21 23  1  0  0  0  0
 22 24  1  1  0  0  0
 25 26  2  0  0  0  0
 26 27  1  0  0  0  0
  1 32  1  0  0  0  0
  2 33  1  0  0  0  0
  3 34  1  0  0  0  0
  4 35  1  0  0  0  0
  5 36  1  0  0  0  0
  6 37  1  0  0  0  0
  7 38  1  0  0  0  0
  8 39  1  0  0  0  0
  9 40  1  0  0  0  0
 15 41  1  0  0  0  0
 16 42  1  0  0  0  0
 17 43  1  0  0  0  0
 18 44  1  0  0  0  0
 21 45  1  0  0  0  0
 21 46  1  0  0  0  0
 21 47  1  0  0  0  0
 22 48  1  0  0  0  0
 22 49  1  0  0  0  0
 23 50  1  0  0  0  0
 23 51  1  0  0  0  0
 24 52  1  0  0  0  0
 28 53  1  0  0  0  0
 29 54  1  0  0  0  0
M  END
> <clash_score>
1.2356441633489261

> <docking_score>
-9.965533256530762

> <overlap_score>
0.9388341903686523

$$$$
BENZO_257_2
  -OEChem-08232013493D

 54 57  0     1  0  0  0  0  0999 V2000
   10.6367    4.9868   23.6018 C   0  0  0  0  0  0  0  0  0  0  0  0
    9.3228    4.8557   24.0511 C   0  0  0  0  0  0  0  0  0  0  0  0
   11.3798    3.8515   23.2784 C   0  0  0  0  0  0  0  0  0  0  0  0
    8.7519    3.5893   24.1772 C   0  0  0  0  0  0  0  0  0  0  0  0
   10.8090    2.5851   23.4045 C   0  0  0  0  0  0  0  0  0  0  0  0
    8.3510   -1.5420   24.6110 C   0  0  0  0  0  0  0  0  0  0  0  0
   10.2760   -2.3270   23.4020 C   0  0  0  0  0  0  0  0  0  0  0  0
    8.3310   -2.7170   25.3430 C   0  0  0  0  0  0  0  0  0  0  0  0
   10.2570   -3.5000   24.1350 C   0  0  0  0  0  0  0  0  0  0  0  0
    9.4950    2.4539   23.8539 C   0  0  0  0  0  0  0  0  0  0  0  0
    9.3300   -1.3350   23.6390 C   0  0  0  0  0  0  0  0  0  0  0  0
    9.2850   -3.7090   25.1090 C   0  0  0  0  0  0  0  0  0  0  0  0
    6.1600    0.3870   20.1140 C   0  0  0  0  0  0  0  0  0  0  0  0
    7.2210   -0.4620   20.0350 C   0  0  0  0  0  0  0  0  0  0  0  0
    5.3360    0.8000   21.1530 C   0  0  0  0  0  0  0  0  0  0  0  0
    4.2970    1.6690   20.8430 C   0  0  0  0  0  0  0  0  0  0  0  0
    4.0980    2.1130   19.5350 C   0  0  0  0  0  0  0  0  0  0  0  0
    4.9400    1.7060   18.5060 C   0  0  0  0  0  0  0  0  0  0  0  0
    8.1545   -5.5464   26.4002 C   0  0  0  0  0  0  0  0  0  0  0  0
    8.9510    0.1280   21.6880 C   0  0  0  0  0  0  0  0  0  0  0  0
    9.2318   -7.8282   26.2032 C   0  0  0  0  0  0  0  0  0  0  0  0
    8.8771    1.0813   23.9905 C   0  0  0  0  0  0  0  0  0  0  0  0
    8.5753   -6.8162   27.1251 C   0  0  0  0  0  0  0  0  0  0  0  0
    9.4200   -0.0840   22.9530 C   0  0  2  0  0  0  0  0  0  0  0  0
    7.6830   -0.5170   18.7600 N   0  0  0  0  0  0  0  0  0  0  0  0
    6.9440    0.2550   18.0100 N   0  0  0  0  0  0  0  0  0  0  0  0
    5.9810    0.8330   18.8060 N   0  0  0  0  0  0  0  0  0  0  0  0
    9.2630   -4.8903   25.8409 N   0  0  0  0  0  0  0  0  0  0  0  0
    8.0810   -0.9750   21.0820 N   0  0  0  0  0  0  0  0  0  0  0  0
    6.9828   -5.1884   26.3422 O   0  0  0  0  0  0  0  0  0  0  0  0
    9.1870    1.1500   21.0630 O   0  0  0  0  0  0  0  0  0  0  0  0
   11.0806    5.9731   23.5024 H   0  0  0  0  0  0  0  0  0  0  0  0
    8.7437    5.7397   24.3019 H   0  0  0  0  0  0  0  0  0  0  0  0
   12.4025    3.9533   22.9274 H   0  0  0  0  0  0  0  0  0  0  0  0
    7.7275    3.4967   24.5283 H   0  0  0  0  0  0  0  0  0  0  0  0
   11.3955    1.7061   23.1503 H   0  0  0  0  0  0  0  0  0  0  0  0
    7.5948   -0.7783   24.7966 H   0  0  0  0  0  0  0  0  0  0  0  0
   11.0389   -2.1844   22.6342 H   0  0  0  0  0  0  0  0  0  0  0  0
    7.5642   -2.8624   26.1050 H   0  0  0  0  0  0  0  0  0  0  0  0
   11.0137   -4.2649   23.9418 H   0  0  0  0  0  0  0  0  0  0  0  0
    5.4735    0.4758   22.1644 H   0  0  0  0  0  0  0  0  0  0  0  0
    3.6415    1.9967   21.6408 H   0  0  0  0  0  0  0  0  0  0  0  0
    3.2720    2.7926   19.2921 H   0  0  0  0  0  0  0  0  0  0  0  0
    4.8119    2.0418   17.5005 H   0  0  0  0  0  0  0  0  0  0  0  0
    8.5555   -8.1182   25.3924 H   0  0  0  0  0  0  0  0  0  0  0  0
    9.5048   -8.7299   26.7599 H   0  0  0  0  0  0  0  0  0  0  0  0
   10.1405   -7.4169   25.7514 H   0  0  0  0  0  0  0  0  0  0  0  0
    8.9708    0.7434   25.0308 H   0  0  0  0  0  0  0  0  0  0  0  0
    7.7972    1.1781   23.8117 H   0  0  0  0  0  0  0  0  0  0  0  0
    9.2732   -6.5444   27.9254 H   0  0  0  0  0  0  0  0  0  0  0  0
    7.6874   -7.2638   27.5862 H   0  0  0  0  0  0  0  0  0  0  0  0
   10.5743    0.2174   22.9808 H   0  0  0  0  0  0  0  0  0  0  0  0
   10.1701   -5.3456   25.9953 H   0  0  0  0  0  0  0  0  0  0  0  0
    8.1159   -1.8115   21.3524 H   0  0  0  0  0  0  0  0  0  0  0  0
  1  2  1  0  0  0  0
  1  3  2  0  0  0  0
  2  4  2  0  0  0  0
  3  5  1  0  0  0  0
  4 10  1  0  0  0  0
  5 10  2  0  0  0  0
  6  8  2  0  0  0  0
  6 11  1  0  0  0  0
  7  9  1  0  0  0  0
  7 11  2  0  0  0  0
  8 12  1  0  0  0  0
  9 12  2  0  0  0  0
 10 22  1  0  0  0  0
 11 24  1  0  0  0  0
 12 28  1  0  0  0  0
 13 14  2  0  0  0  0
 13 15  1  0  0  0  0
 13 27  1  0  0  0  0
 14 25  1  0  0  0  0
 14 29  1  0  0  0  0
 15 16  2  0  0  0  0
 16 17  1  0  0  0  0
 17 18  2  0  0  0  0
 18 27  1  0  0  0  0
 19 23  1  0  0  0  0
 19 28  1  0  0  0  0
 19 30  2  0  0  0  0
 20 24  1  0  0  0  0
 20 29  1  0  0  0  0
 20 31  2  0  0  0  0
 21 23  1  0  0  0  0
 22 24  1  6  0  0  0
 25 26  2  0  0  0  0
 26 27  1  0  0  0  0
  1 32  1  0  0  0  0
  2 33  1  0  0  0  0
  3 34  1  0  0  0  0
  4 35  1  0  0  0  0
  5 36  1  0  0  0  0
  6 37  1  0  0  0  0
  7 38  1  0  0  0  0
  8 39  1  0  0  0  0
  9 40  1  0  0  0  0
 15 41  1  0  0  0  0
 16 42  1  0  0  0  0
 17 43  1  0  0  0  0
 18 44  1  0  0  0  0
 21 45  1  0  0  0  0
 21 46  1  0  0  0  0
 21 47  1  0  0  0  0
 22 48  1  0  0  0  0
 22 49  1  0  0  0  0
 23 50  1  0  0  0  0
 23 51  1  0  0  0  0
 24 52  1  0  0  0  0
 28 53  1  0  0  0  0
 29 54  1  0  0  0  0
M  END
> <clash_score>
1.2356441633489261

> <docking_score>
-8.85090446472168

> <overlap_score>
0.8675312995910645

$$$$
BENZO_256_2
  -OEChem-08232013493D

 51 54  0     1  0  0  0  0  0999 V2000
    8.3510   -1.5420   24.6110 C   0  0  0  0  0  0  0  0  0  0  0  0
   10.2760   -2.3270   23.4020 C   0  0  0  0  0  0  0  0  0  0  0  0
    8.3310   -2.7170   25.3430 C   0  0  0  0  0  0  0  0  0  0  0  0
   10.2570   -3.5000   24.1350 C   0  0  0  0  0  0  0  0  0  0  0  0
   10.8633    2.6804   23.5273 C   0  0  0  0  0  0  0  0  0  0  0  0
   11.1655    4.0230   23.4669 C   0  0  0  0  0  0  0  0  0  0  0  0
    8.8035    3.6322   24.0309 C   0  0  0  0  0  0  0  0  0  0  0  0
    9.3300   -1.3350   23.6390 C   0  0  0  0  0  0  0  0  0  0  0  0
    9.4950    2.4539   23.8539 C   0  0  0  0  0  0  0  0  0  0  0  0
    9.2850   -3.7090   25.1090 C   0  0  0  0  0  0  0  0  0  0  0  0
    6.1600    0.3870   20.1140 C   0  0  0  0  0  0  0  0  0  0  0  0
    7.2210   -0.4620   20.0350 C   0  0  0  0  0  0  0  0  0  0  0  0
    5.3360    0.8000   21.1530 C   0  0  0  0  0  0  0  0  0  0  0  0
    4.2970    1.6690   20.8430 C   0  0  0  0  0  0  0  0  0  0  0  0
    4.0980    2.1130   19.5350 C   0  0  0  0  0  0  0  0  0  0  0  0
    4.9400    1.7060   18.5060 C   0  0  0  0  0  0  0  0  0  0  0  0
    8.1545   -5.5464   26.4002 C   0  0  0  0  0  0  0  0  0  0  0  0
    8.9510    0.1280   21.6880 C   0  0  0  0  0  0  0  0  0  0  0  0
    9.2318   -7.8282   26.2032 C   0  0  0  0  0  0  0  0  0  0  0  0
    8.8771    1.0813   23.9905 C   0  0  0  0  0  0  0  0  0  0  0  0
    8.5753   -6.8162   27.1251 C   0  0  0  0  0  0  0  0  0  0  0  0
    9.4200   -0.0840   22.9530 C   0  0  2  0  0  0  0  0  0  0  0  0
    7.6830   -0.5170   18.7600 N   0  0  0  0  0  0  0  0  0  0  0  0
    6.9440    0.2550   18.0100 N   0  0  0  0  0  0  0  0  0  0  0  0
    5.9810    0.8330   18.8060 N   0  0  0  0  0  0  0  0  0  0  0  0
    9.2630   -4.8903   25.8409 N   0  0  0  0  0  0  0  0  0  0  0  0
    8.0810   -0.9750   21.0820 N   0  0  0  0  0  0  0  0  0  0  0  0
    6.9828   -5.1884   26.3422 O   0  0  0  0  0  0  0  0  0  0  0  0
    9.1870    1.1500   21.0630 O   0  0  0  0  0  0  0  0  0  0  0  0
    9.8028    5.0040   23.8033 S   0  0  0  0  0  0  0  0  0  0  0  0
    7.5948   -0.7783   24.7966 H   0  0  0  0  0  0  0  0  0  0  0  0
   11.0389   -2.1844   22.6342 H   0  0  0  0  0  0  0  0  0  0  0  0
    7.5642   -2.8624   26.1050 H   0  0  0  0  0  0  0  0  0  0  0  0
   11.0137   -4.2649   23.9418 H   0  0  0  0  0  0  0  0  0  0  0  0
   11.5925    1.9010   23.3455 H   0  0  0  0  0  0  0  0  0  0  0  0
   12.1213    4.4748   23.2422 H   0  0  0  0  0  0  0  0  0  0  0  0
    7.7599    3.7576   24.2842 H   0  0  0  0  0  0  0  0  0  0  0  0
    5.4735    0.4758   22.1644 H   0  0  0  0  0  0  0  0  0  0  0  0
    3.6415    1.9967   21.6408 H   0  0  0  0  0  0  0  0  0  0  0  0
    3.2720    2.7926   19.2921 H   0  0  0  0  0  0  0  0  0  0  0  0
    4.8119    2.0418   17.5005 H   0  0  0  0  0  0  0  0  0  0  0  0
    8.5555   -8.1182   25.3924 H   0  0  0  0  0  0  0  0  0  0  0  0
    9.5048   -8.7299   26.7599 H   0  0  0  0  0  0  0  0  0  0  0  0
   10.1405   -7.4169   25.7514 H   0  0  0  0  0  0  0  0  0  0  0  0
    8.9708    0.7434   25.0308 H   0  0  0  0  0  0  0  0  0  0  0  0
    7.7972    1.1781   23.8117 H   0  0  0  0  0  0  0  0  0  0  0  0
    9.2732   -6.5444   27.9254 H   0  0  0  0  0  0  0  0  0  0  0  0
    7.6874   -7.2638   27.5862 H   0  0  0  0  0  0  0  0  0  0  0  0
   10.5743    0.2174   22.9808 H   0  0  0  0  0  0  0  0  0  0  0  0
   10.1701   -5.3456   25.9953 H   0  0  0  0  0  0  0  0  0  0  0  0
    8.1159   -1.8115   21.3524 H   0  0  0  0  0  0  0  0  0  0  0  0
  1  3  2  0  0  0  0
  1  8  1  0  0  0  0
  2  4  1  0  0  0  0
  2  8  2  0  0  0  0
  3 10  1  0  0  0  0
  4 10  2  0  0  0  0
  5  6  2  0  0  0  0
  5  9  1  0  0  0  0
  6 30  1  0  0  0  0
  7  9  2  0  0  0  0
  7 30  1  0  0  0  0
  8 22  1  0  0  0  0
  9 20  1  0  0  0  0
 10 26  1  0  0  0  0
 11 12  2  0  0  0  0
 11 13  1  0  0  0  0
 11 25  1  0  0  0  0
 12 23  1  0  0  0  0
 12 27  1  0  0  0  0
 13 14  2  0  0  0  0
 14 15  1  0  0  0  0
 15 16  2  0  0  0  0
 16 25  1  0  0  0  0
 17 21  1  0  0  0  0
 17 26  1  0  0  0  0
 17 28  2  0  0  0  0
 18 22  1  0  0  0  0
 18 27  1  0  0  0  0
 18 29  2  0  0  0  0
 19 21  1  0  0  0  0
 20 22  1  6  0  0  0
 23 24  2  0  0  0  0
 24 25  1  0  0  0  0
  1 31  1  0  0  0  0
  2 32  1  0  0  0  0
  3 33  1  0  0  0  0
  4 34  1  0  0  0  0
  5 35  1  0  0  0  0
  6 36  1  0  0  0  0
  7 37  1  0  0  0  0
 13 38  1  0  0  0  0
 14 39  1  0  0  0  0
 15 40  1  0  0  0  0
 16 41  1  0  0  0  0
 19 42  1  0  0  0  0
 19 43  1  0  0  0  0
 19 44  1  0  0  0  0
 20 45  1  0  0  0  0
 20 46  1  0  0  0  0
 21 47  1  0  0  0  0
 21 48  1  0  0  0  0
 22 49  1  0  0  0  0
 26 50  1  0  0  0  0
 27 51  1  0  0  0  0
M  END
> <clash_score>
1.2356441633489261

> <docking_score>
-8.57426643371582

> <overlap_score>
0.8647925853729248

$$$$
BENZO_256_1
  -OEChem-08232013493D

 51 54  0     1  0  0  0  0  0999 V2000
    8.3510   -1.5420   24.6110 C   0  0  0  0  0  0  0  0  0  0  0  0
   10.2760   -2.3270   23.4020 C   0  0  0  0  0  0  0  0  0  0  0  0
    8.3310   -2.7170   25.3430 C   0  0  0  0  0  0  0  0  0  0  0  0
   10.2570   -3.5000   24.1350 C   0  0  0  0  0  0  0  0  0  0  0  0
   11.9019    2.6854   22.1912 C   0  0  0  0  0  0  0  0  0  0  0  0
   11.8820    4.0381   22.4508 C   0  0  0  0  0  0  0  0  0  0  0  0
   10.5617    2.7635   24.0885 C   0  0  0  0  0  0  0  0  0  0  0  0
    9.3300   -1.3350   23.6390 C   0  0  0  0  0  0  0  0  0  0  0  0
   11.1370    1.9470   23.1397 C   0  0  0  0  0  0  0  0  0  0  0  0
    9.2850   -3.7090   25.1090 C   0  0  0  0  0  0  0  0  0  0  0  0
    6.1600    0.3870   20.1140 C   0  0  0  0  0  0  0  0  0  0  0  0
    7.2210   -0.4620   20.0350 C   0  0  0  0  0  0  0  0  0  0  0  0
    5.3360    0.8000   21.1530 C   0  0  0  0  0  0  0  0  0  0  0  0
    4.2970    1.6690   20.8430 C   0  0  0  0  0  0  0  0  0  0  0  0
    4.0980    2.1130   19.5350 C   0  0  0  0  0  0  0  0  0  0  0  0
    4.9400    1.7060   18.5060 C   0  0  0  0  0  0  0  0  0  0  0  0
    8.1545   -5.5464   26.4002 C   0  0  0  0  0  0  0  0  0  0  0  0
    8.9510    0.1280   21.6880 C   0  0  0  0  0  0  0  0  0  0  0  0
    9.2318   -7.8282   26.2032 C   0  0  0  0  0  0  0  0  0  0  0  0
   10.9777    0.4443   23.1075 C   0  0  0  0  0  0  0  0  0  0  0  0
    8.5753   -6.8162   27.1251 C   0  0  0  0  0  0  0  0  0  0  0  0
    9.4200   -0.0840   22.9530 C   0  0  1  0  0  0  0  0  0  0  0  0
    7.6830   -0.5170   18.7600 N   0  0  0  0  0  0  0  0  0  0  0  0
    6.9440    0.2550   18.0100 N   0  0  0  0  0  0  0  0  0  0  0  0
    5.9810    0.8330   18.8060 N   0  0  0  0  0  0  0  0  0  0  0  0
    9.2630   -4.8903   25.8409 N   0  0  0  0  0  0  0  0  0  0  0  0
    8.0810   -0.9750   21.0820 N   0  0  0  0  0  0  0  0  0  0  0  0
    6.9828   -5.1884   26.3422 O   0  0  0  0  0  0  0  0  0  0  0  0
    9.1870    1.1500   21.0630 O   0  0  0  0  0  0  0  0  0  0  0  0
   10.9440    4.4131   23.8335 S   0  0  0  0  0  0  0  0  0  0  0  0
    7.5948   -0.7783   24.7966 H   0  0  0  0  0  0  0  0  0  0  0  0
   11.0389   -2.1844   22.6342 H   0  0  0  0  0  0  0  0  0  0  0  0
    7.5642   -2.8624   26.1050 H   0  0  0  0  0  0  0  0  0  0  0  0
   11.0137   -4.2649   23.9418 H   0  0  0  0  0  0  0  0  0  0  0  0
   12.4414    2.2505   21.3593 H   0  0  0  0  0  0  0  0  0  0  0  0
   12.3738    4.8240   21.8953 H   0  0  0  0  0  0  0  0  0  0  0  0
    9.9357    2.4743   24.9213 H   0  0  0  0  0  0  0  0  0  0  0  0
    5.4735    0.4758   22.1644 H   0  0  0  0  0  0  0  0  0  0  0  0
    3.6415    1.9967   21.6408 H   0  0  0  0  0  0  0  0  0  0  0  0
    3.2720    2.7926   19.2921 H   0  0  0  0  0  0  0  0  0  0  0  0
    4.8119    2.0418   17.5005 H   0  0  0  0  0  0  0  0  0  0  0  0
    8.5555   -8.1182   25.3924 H   0  0  0  0  0  0  0  0  0  0  0  0
    9.5048   -8.7299   26.7599 H   0  0  0  0  0  0  0  0  0  0  0  0
   10.1405   -7.4169   25.7514 H   0  0  0  0  0  0  0  0  0  0  0  0
   11.5363    0.0387   22.2539 H   0  0  0  0  0  0  0  0  0  0  0  0
   11.4704    0.0336   23.9998 H   0  0  0  0  0  0  0  0  0  0  0  0
    9.2732   -6.5444   27.9254 H   0  0  0  0  0  0  0  0  0  0  0  0
    7.6874   -7.2638   27.5862 H   0  0  0  0  0  0  0  0  0  0  0  0
    8.9182    0.7194   23.6789 H   0  0  0  0  0  0  0  0  0  0  0  0
   10.1701   -5.3456   25.9953 H   0  0  0  0  0  0  0  0  0  0  0  0
    8.1159   -1.8115   21.3524 H   0  0  0  0  0  0  0  0  0  0  0  0
  1  3  2  0  0  0  0
  1  8  1  0  0  0  0
  2  4  1  0  0  0  0
  2  8  2  0  0  0  0
  3 10  1  0  0  0  0
  4 10  2  0  0  0  0
  5  6  2  0  0  0  0
  5  9  1  0  0  0  0
  6 30  1  0  0  0  0
  7  9  2  0  0  0  0
  7 30  1  0  0  0  0
  8 22  1  0  0  0  0
  9 20  1  0  0  0  0
 10 26  1  0  0  0  0
 11 12  2  0  0  0  0
 11 13  1  0  0  0  0
 11 25  1  0  0  0  0
 12 23  1  0  0  0  0
 12 27  1  0  0  0  0
 13 14  2  0  0  0  0
 14 15  1  0  0  0  0
 15 16  2  0  0  0  0
 16 25  1  0  0  0  0
 17 21  1  0  0  0  0
 17 26  1  0  0  0  0
 17 28  2  0  0  0  0
 18 22  1  0  0  0  0
 18 27  1  0  0  0  0
 18 29  2  0  0  0  0
 19 21  1  0  0  0  0
 20 22  1  1  0  0  0
 23 24  2  0  0  0  0
 24 25  1  0  0  0  0
  1 31  1  0  0  0  0
  2 32  1  0  0  0  0
  3 33  1  0  0  0  0
  4 34  1  0  0  0  0
  5 35  1  0  0  0  0
  6 36  1  0  0  0  0
  7 37  1  0  0  0  0
 13 38  1  0  0  0  0
 14 39  1  0  0  0  0
 15 40  1  0  0  0  0
 16 41  1  0  0  0  0
 19 42  1  0  0  0  0
 19 43  1  0  0  0  0
 19 44  1  0  0  0  0
 20 45  1  0  0  0  0
 20 46  1  0  0  0  0
 21 47  1  0  0  0  0
 21 48  1  0  0  0  0
 22 49  1  0  0  0  0
 26 50  1  0  0  0  0
 27 51  1  0  0  0  0
M  END
> <clash_score>
1.2356441633489261

> <docking_score>
-8.506721496582031

> <overlap_score>
0.9279587864875793

$$$$
BENZO_258_2
  -OEChem-08232013493D

 54 57  0     1  0  0  0  0  0999 V2000
    9.3211    4.8553   24.0536 C   0  0  0  0  0  0  0  0  0  0  0  0
    8.7511    3.5884   24.1784 C   0  0  0  0  0  0  0  0  0  0  0  0
    8.3510   -1.5420   24.6110 C   0  0  0  0  0  0  0  0  0  0  0  0
   10.2760   -2.3270   23.4020 C   0  0  0  0  0  0  0  0  0  0  0  0
    8.3310   -2.7170   25.3430 C   0  0  0  0  0  0  0  0  0  0  0  0
   10.2570   -3.5000   24.1350 C   0  0  0  0  0  0  0  0  0  0  0  0
   10.6349    4.9878   23.6042 C   0  0  0  0  0  0  0  0  0  0  0  0
   10.8089    2.5864   23.4046 C   0  0  0  0  0  0  0  0  0  0  0  0
    9.3300   -1.3350   23.6390 C   0  0  0  0  0  0  0  0  0  0  0  0
    9.4950    2.4539   23.8539 C   0  0  0  0  0  0  0  0  0  0  0  0
    9.2850   -3.7090   25.1090 C   0  0  0  0  0  0  0  0  0  0  0  0
   11.3788    3.8534   23.2798 C   0  0  0  0  0  0  0  0  0  0  0  0
    6.1600    0.3870   20.1140 C   0  0  0  0  0  0  0  0  0  0  0  0
    7.2210   -0.4620   20.0350 C   0  0  0  0  0  0  0  0  0  0  0  0
    5.3360    0.8000   21.1530 C   0  0  0  0  0  0  0  0  0  0  0  0
    4.2970    1.6690   20.8430 C   0  0  0  0  0  0  0  0  0  0  0  0
    4.0980    2.1130   19.5350 C   0  0  0  0  0  0  0  0  0  0  0  0
    4.9400    1.7060   18.5060 C   0  0  0  0  0  0  0  0  0  0  0  0
    8.3661   -5.2701   26.8525 C   0  0  0  0  0  0  0  0  0  0  0  0
    8.9510    0.1280   21.6880 C   0  0  0  0  0  0  0  0  0  0  0  0
    7.9661   -7.7622   26.6647 C   0  0  0  0  0  0  0  0  0  0  0  0
    8.8771    1.0813   23.9905 C   0  0  0  0  0  0  0  0  0  0  0  0
    8.7012   -6.6519   27.3940 C   0  0  0  0  0  0  0  0  0  0  0  0
    9.4200   -0.0840   22.9530 C   0  0  2  0  0  0  0  0  0  0  0  0
    7.6830   -0.5170   18.7600 N   0  0  0  0  0  0  0  0  0  0  0  0
    6.9440    0.2550   18.0100 N   0  0  0  0  0  0  0  0  0  0  0  0
    5.9810    0.8330   18.8060 N   0  0  0  0  0  0  0  0  0  0  0  0
    9.2630   -4.8903   25.8409 N   0  0  0  0  0  0  0  0  0  0  0  0
    8.0810   -0.9750   21.0820 N   0  0  0  0  0  0  0  0  0  0  0  0
    7.4216   -4.6151   27.2807 O   0  0  0  0  0  0  0  0  0  0  0  0
    9.1870    1.1500   21.0630 O   0  0  0  0  0  0  0  0  0  0  0  0
   13.0002    4.0175   22.7265 Cl  0  0  0  0  0  0  0  0  0  0  0  0
    8.7415    5.7384   24.3065 H   0  0  0  0  0  0  0  0  0  0  0  0
    7.7267    3.4945   24.5294 H   0  0  0  0  0  0  0  0  0  0  0  0
    7.5948   -0.7783   24.7966 H   0  0  0  0  0  0  0  0  0  0  0  0
   11.0389   -2.1844   22.6342 H   0  0  0  0  0  0  0  0  0  0  0  0
    7.5642   -2.8624   26.1050 H   0  0  0  0  0  0  0  0  0  0  0  0
   11.0137   -4.2649   23.9418 H   0  0  0  0  0  0  0  0  0  0  0  0
   11.0663    5.9816   23.5122 H   0  0  0  0  0  0  0  0  0  0  0  0
   11.3846    1.6989   23.1523 H   0  0  0  0  0  0  0  0  0  0  0  0
    5.4735    0.4758   22.1644 H   0  0  0  0  0  0  0  0  0  0  0  0
    3.6415    1.9967   21.6408 H   0  0  0  0  0  0  0  0  0  0  0  0
    3.2720    2.7926   19.2921 H   0  0  0  0  0  0  0  0  0  0  0  0
    4.8119    2.0418   17.5005 H   0  0  0  0  0  0  0  0  0  0  0  0
    6.8816   -7.6310   26.7395 H   0  0  0  0  0  0  0  0  0  0  0  0
    8.2233   -8.7354   27.0939 H   0  0  0  0  0  0  0  0  0  0  0  0
    8.2300   -7.7764   25.6021 H   0  0  0  0  0  0  0  0  0  0  0  0
    8.9708    0.7434   25.0308 H   0  0  0  0  0  0  0  0  0  0  0  0
    7.7972    1.1781   23.8117 H   0  0  0  0  0  0  0  0  0  0  0  0
    9.7822   -6.8081   27.3029 H   0  0  0  0  0  0  0  0  0  0  0  0
    8.4425   -6.6801   28.4588 H   0  0  0  0  0  0  0  0  0  0  0  0
   10.5743    0.2174   22.9808 H   0  0  0  0  0  0  0  0  0  0  0  0
    9.9933   -5.5764   25.6176 H   0  0  0  0  0  0  0  0  0  0  0  0
    8.1159   -1.8115   21.3524 H   0  0  0  0  0  0  0  0  0  0  0  0
  1  2  2  0  0  0  0
  1  7  1  0  0  0  0
  2 10  1  0  0  0  0
  3  5  2  0  0  0  0
  3  9  1  0  0  0  0
  4  6  1  0  0  0  0
  4  9  2  0  0  0  0
  5 11  1  0  0  0  0
  6 11  2  0  0  0  0
  7 12  2  0  0  0  0
  8 10  2  0  0  0  0
  8 12  1  0  0  0  0
  9 24  1  0  0  0  0
 10 22  1  0  0  0  0
 11 28  1  0  0  0  0
 12 32  1  0  0  0  0
 13 14  2  0  0  0  0
 13 15  1  0  0  0  0
 13 27  1  0  0  0  0
 14 25  1  0  0  0  0
 14 29  1  0  0  0  0
 15 16  2  0  0  0  0
 16 17  1  0  0  0  0
 17 18  2  0  0  0  0
 18 27  1  0  0  0  0
 19 23  1  0  0  0  0
 19 28  1  0  0  0  0
 19 30  2  0  0  0  0
 20 24  1  0  0  0  0
 20 29  1  0  0  0  0
 20 31  2  0  0  0  0
 21 23  1  0  0  0  0
 22 24  1  6  0  0  0
 25 26  2  0  0  0  0
 26 27  1  0  0  0  0
  1 33  1  0  0  0  0
  2 34  1  0  0  0  0
  3 35  1  0  0  0  0
  4 36  1  0  0  0  0
  5 37  1  0  0  0  0
  6 38  1  0  0  0  0
  7 39  1  0  0  0  0
  8 40  1  0  0  0  0
 15 41  1  0  0  0  0
 16 42  1  0  0  0  0
 17 43  1  0  0  0  0
 18 44  1  0  0  0  0
 21 45  1  0  0  0  0
 21 46  1  0  0  0  0
 21 47  1  0  0  0  0
 22 48  1  0  0  0  0
 22 49  1  0  0  0  0
 23 50  1  0  0  0  0
 23 51  1  0  0  0  0
 24 52  1  0  0  0  0
 28 53  1  0  0  0  0
 29 54  1  0  0  0  0
M  END
> <clash_score>
0.7808399504628928

> <docking_score>
-9.113073348999023

> <overlap_score>
0.876568615436554

$$$$
BENZO_258_1
  -OEChem-08232013493D

 54 57  0     1  0  0  0  0  0999 V2000
   10.2645    4.1315   23.6906 C   0  0  0  0  0  0  0  0  0  0  0  0
   10.1177    2.7447   23.6595 C   0  0  0  0  0  0  0  0  0  0  0  0
    8.3510   -1.5420   24.6110 C   0  0  0  0  0  0  0  0  0  0  0  0
   10.2760   -2.3270   23.4020 C   0  0  0  0  0  0  0  0  0  0  0  0
    8.3310   -2.7170   25.3430 C   0  0  0  0  0  0  0  0  0  0  0  0
   10.2570   -3.5000   24.1350 C   0  0  0  0  0  0  0  0  0  0  0  0
   11.4306    4.7205   23.2018 C   0  0  0  0  0  0  0  0  0  0  0  0
   12.3032    2.5360   22.6510 C   0  0  0  0  0  0  0  0  0  0  0  0
    9.3300   -1.3350   23.6390 C   0  0  0  0  0  0  0  0  0  0  0  0
   11.1370    1.9470   23.1397 C   0  0  0  0  0  0  0  0  0  0  0  0
    9.2850   -3.7090   25.1090 C   0  0  0  0  0  0  0  0  0  0  0  0
   12.4500    3.9228   22.6821 C   0  0  0  0  0  0  0  0  0  0  0  0
    6.1600    0.3870   20.1140 C   0  0  0  0  0  0  0  0  0  0  0  0
    7.2210   -0.4620   20.0350 C   0  0  0  0  0  0  0  0  0  0  0  0
    5.3360    0.8000   21.1530 C   0  0  0  0  0  0  0  0  0  0  0  0
    4.2970    1.6690   20.8430 C   0  0  0  0  0  0  0  0  0  0  0  0
    4.0980    2.1130   19.5350 C   0  0  0  0  0  0  0  0  0  0  0  0
    4.9400    1.7060   18.5060 C   0  0  0  0  0  0  0  0  0  0  0  0
    8.3661   -5.2701   26.8525 C   0  0  0  0  0  0  0  0  0  0  0  0
    8.9510    0.1280   21.6880 C   0  0  0  0  0  0  0  0  0  0  0  0
    7.9661   -7.7622   26.6647 C   0  0  0  0  0  0  0  0  0  0  0  0
   10.9777    0.4443   23.1075 C   0  0  0  0  0  0  0  0  0  0  0  0
    8.7012   -6.6519   27.3940 C   0  0  0  0  0  0  0  0  0  0  0  0
    9.4200   -0.0840   22.9530 C   0  0  1  0  0  0  0  0  0  0  0  0
    7.6830   -0.5170   18.7600 N   0  0  0  0  0  0  0  0  0  0  0  0
    6.9440    0.2550   18.0100 N   0  0  0  0  0  0  0  0  0  0  0  0
    5.9810    0.8330   18.8060 N   0  0  0  0  0  0  0  0  0  0  0  0
    9.2630   -4.8903   25.8409 N   0  0  0  0  0  0  0  0  0  0  0  0
    8.0810   -0.9750   21.0820 N   0  0  0  0  0  0  0  0  0  0  0  0
    7.4216   -4.6151   27.2807 O   0  0  0  0  0  0  0  0  0  0  0  0
    9.1870    1.1500   21.0630 O   0  0  0  0  0  0  0  0  0  0  0  0
   13.8890    4.6500   22.0802 Cl  0  0  0  0  0  0  0  0  0  0  0  0
    9.4706    4.7523   24.0955 H   0  0  0  0  0  0  0  0  0  0  0  0
    9.2057    2.2944   24.0426 H   0  0  0  0  0  0  0  0  0  0  0  0
    7.5948   -0.7783   24.7966 H   0  0  0  0  0  0  0  0  0  0  0  0
   11.0389   -2.1844   22.6342 H   0  0  0  0  0  0  0  0  0  0  0  0
    7.5642   -2.8624   26.1050 H   0  0  0  0  0  0  0  0  0  0  0  0
   11.0137   -4.2649   23.9418 H   0  0  0  0  0  0  0  0  0  0  0  0
   11.5314    5.8026   23.2326 H   0  0  0  0  0  0  0  0  0  0  0  0
   13.0949    1.9096   22.2463 H   0  0  0  0  0  0  0  0  0  0  0  0
    5.4735    0.4758   22.1644 H   0  0  0  0  0  0  0  0  0  0  0  0
    3.6415    1.9967   21.6408 H   0  0  0  0  0  0  0  0  0  0  0  0
    3.2720    2.7926   19.2921 H   0  0  0  0  0  0  0  0  0  0  0  0
    4.8119    2.0418   17.5005 H   0  0  0  0  0  0  0  0  0  0  0  0
    6.8816   -7.6310   26.7395 H   0  0  0  0  0  0  0  0  0  0  0  0
    8.2233   -8.7354   27.0939 H   0  0  0  0  0  0  0  0  0  0  0  0
    8.2300   -7.7764   25.6021 H   0  0  0  0  0  0  0  0  0  0  0  0
   11.5363    0.0387   22.2539 H   0  0  0  0  0  0  0  0  0  0  0  0
   11.4704    0.0336   23.9998 H   0  0  0  0  0  0  0  0  0  0  0  0
    9.7822   -6.8081   27.3029 H   0  0  0  0  0  0  0  0  0  0  0  0
    8.4425   -6.6801   28.4588 H   0  0  0  0  0  0  0  0  0  0  0  0
    8.9182    0.7194   23.6789 H   0  0  0  0  0  0  0  0  0  0  0  0
    9.9933   -5.5764   25.6176 H   0  0  0  0  0  0  0  0  0  0  0  0
    8.1159   -1.8115   21.3524 H   0  0  0  0  0  0  0  0  0  0  0  0
  1  2  2  0  0  0  0
  1  7  1  0  0  0  0
  2 10  1  0  0  0  0
  3  5  2  0  0  0  0
  3  9  1  0  0  0  0
  4  6  1  0  0  0  0
  4  9  2  0  0  0  0
  5 11  1  0  0  0  0
  6 11  2  0  0  0  0
  7 12  2  0  0  0  0
  8 10  2  0  0  0  0
  8 12  1  0  0  0  0
  9 24  1  0  0  0  0
 10 22  1  0  0  0  0
 11 28  1  0  0  0  0
 12 32  1  0  0  0  0
 13 14  2  0  0  0  0
 13 15  1  0  0  0  0
 13 27  1  0  0  0  0
 14 25  1  0  0  0  0
 14 29  1  0  0  0  0
 15 16  2  0  0  0  0
 16 17  1  0  0  0  0
 17 18  2  0  0  0  0
 18 27  1  0  0  0  0
 19 23  1  0  0  0  0
 19 28  1  0  0  0  0
 19 30  2  0  0  0  0
 20 24  1  0  0  0  0
 20 29  1  0  0  0  0
 20 31  2  0  0  0  0
 21 23  1  0  0  0  0
 22 24  1  1  0  0  0
 25 26  2  0  0  0  0
 26 27  1  0  0  0  0
  1 33  1  0  0  0  0
  2 34  1  0  0  0  0
  3 35  1  0  0  0  0
  4 36  1  0  0  0  0
  5 37  1  0  0  0  0
  6 38  1  0  0  0  0
  7 39  1  0  0  0  0
  8 40  1  0  0  0  0
 15 41  1  0  0  0  0
 16 42  1  0  0  0  0
 17 43  1  0  0  0  0
 18 44  1  0  0  0  0
 21 45  1  0  0  0  0
 21 46  1  0  0  0  0
 21 47  1  0  0  0  0
 22 48  1  0  0  0  0
 22 49  1  0  0  0  0
 23 50  1  0  0  0  0
 23 51  1  0  0  0  0
 24 52  1  0  0  0  0
 28 53  1  0  0  0  0
 29 54  1  0  0  0  0
M  END
> <clash_score>
0.7808399504628928

> <docking_score>
-10.120951652526855

> <overlap_score>
0.9407992959022522

$$$$
BENZO_260_1
  -OEChem-08232013493D

 56 60  0     1  0  0  0  0  0999 V2000
    8.3510   -1.5420   24.6110 C   0  0  0  0  0  0  0  0  0  0  0  0
   10.2760   -2.3270   23.4020 C   0  0  0  0  0  0  0  0  0  0  0  0
    8.3310   -2.7170   25.3430 C   0  0  0  0  0  0  0  0  0  0  0  0
   10.2570   -3.5000   24.1350 C   0  0  0  0  0  0  0  0  0  0  0  0
   10.8518    2.7022   23.5205 C   0  0  0  0  0  0  0  0  0  0  0  0
   11.1431    4.0467   23.4499 C   0  0  0  0  0  0  0  0  0  0  0  0
    8.7801    3.6410   23.9989 C   0  0  0  0  0  0  0  0  0  0  0  0
    9.3300   -1.3350   23.6390 C   0  0  0  0  0  0  0  0  0  0  0  0
    9.4829    2.4671   23.8384 C   0  0  0  0  0  0  0  0  0  0  0  0
    9.2850   -3.7090   25.1090 C   0  0  0  0  0  0  0  0  0  0  0  0
    6.1600    0.3870   20.1140 C   0  0  0  0  0  0  0  0  0  0  0  0
    7.2210   -0.4620   20.0350 C   0  0  0  0  0  0  0  0  0  0  0  0
    5.3360    0.8000   21.1530 C   0  0  0  0  0  0  0  0  0  0  0  0
    4.2970    1.6690   20.8430 C   0  0  0  0  0  0  0  0  0  0  0  0
    4.0980    2.1130   19.5350 C   0  0  0  0  0  0  0  0  0  0  0  0
    4.9400    1.7060   18.5060 C   0  0  0  0  0  0  0  0  0  0  0  0
    8.9510    0.1280   21.6880 C   0  0  0  0  0  0  0  0  0  0  0  0
    7.3211   -6.8875   26.5227 C   0  0  0  0  0  0  0  0  0  0  0  0
    7.3523   -5.5278   27.2244 C   0  0  0  0  0  0  0  0  0  0  0  0
    7.9422   -6.8107   25.1261 C   0  0  0  0  0  0  0  0  0  0  0  0
    8.7641   -4.9418   27.2163 C   0  0  0  0  0  0  0  0  0  0  0  0
    9.3411   -6.1879   25.1670 C   0  0  0  0  0  0  0  0  0  0  0  0
    8.8757    1.0906   23.9831 C   0  0  0  0  0  0  0  0  0  0  0  0
    9.4200   -0.0840   22.9530 C   0  0  1  0  0  0  0  0  0  0  0  0
    7.6830   -0.5170   18.7600 N   0  0  0  0  0  0  0  0  0  0  0  0
    6.9440    0.2550   18.0100 N   0  0  0  0  0  0  0  0  0  0  0  0
    5.9810    0.8330   18.8060 N   0  0  0  0  0  0  0  0  0  0  0  0
    9.2641   -4.8861   25.8398 N   0  0  0  0  0  0  0  0  0  0  0  0
    8.0810   -0.9750   21.0820 N   0  0  0  0  0  0  0  0  0  0  0  0
    9.1870    1.1500   21.0630 O   0  0  0  0  0  0  0  0  0  0  0  0
    9.7695    5.0191   23.7662 S   0  0  0  0  0  0  0  0  0  0  0  0
    7.5957   -0.7779   24.7973 H   0  0  0  0  0  0  0  0  0  0  0  0
   11.0384   -2.1852   22.6338 H   0  0  0  0  0  0  0  0  0  0  0  0
    7.5634   -2.8637   26.1037 H   0  0  0  0  0  0  0  0  0  0  0  0
   11.0139   -4.2645   23.9419 H   0  0  0  0  0  0  0  0  0  0  0  0
   11.5890    1.9274   23.3518 H   0  0  0  0  0  0  0  0  0  0  0  0
   12.0968    4.5045   23.2284 H   0  0  0  0  0  0  0  0  0  0  0  0
    7.7334    3.7598   24.2427 H   0  0  0  0  0  0  0  0  0  0  0  0
    5.4735    0.4758   22.1644 H   0  0  0  0  0  0  0  0  0  0  0  0
    3.6415    1.9967   21.6408 H   0  0  0  0  0  0  0  0  0  0  0  0
    3.2720    2.7926   19.2920 H   0  0  0  0  0  0  0  0  0  0  0  0
    4.8119    2.0418   17.5005 H   0  0  0  0  0  0  0  0  0  0  0  0
    7.8644   -7.6283   27.1289 H   0  0  0  0  0  0  0  0  0  0  0  0
    6.2830   -7.2423   26.4478 H   0  0  0  0  0  0  0  0  0  0  0  0
    6.6663   -4.8405   26.7221 H   0  0  0  0  0  0  0  0  0  0  0  0
    7.0062   -5.6400   28.2540 H   0  0  0  0  0  0  0  0  0  0  0  0
    8.0018   -7.8160   24.6962 H   0  0  0  0  0  0  0  0  0  0  0  0
    7.2963   -6.2182   24.4678 H   0  0  0  0  0  0  0  0  0  0  0  0
    8.7322   -3.9404   27.6532 H   0  0  0  0  0  0  0  0  0  0  0  0
    9.4260   -5.5610   27.8283 H   0  0  0  0  0  0  0  0  0  0  0  0
   10.0249   -6.8474   25.7028 H   0  0  0  0  0  0  0  0  0  0  0  0
    9.7015   -6.0700   24.1446 H   0  0  0  0  0  0  0  0  0  0  0  0
    8.9639    0.7632   25.0273 H   0  0  0  0  0  0  0  0  0  0  0  0
    7.7964    1.1765   23.7949 H   0  0  0  0  0  0  0  0  0  0  0  0
   10.5749    0.2253   22.9765 H   0  0  0  0  0  0  0  0  0  0  0  0
    8.1354   -1.7990   21.3694 H   0  0  0  0  0  0  0  0  0  0  0  0
  1  3  2  0  0  0  0
  1  8  1  0  0  0  0
  2  4  1  0  0  0  0
  2  8  2  0  0  0  0
  3 10  1  0  0  0  0
  4 10  2  0  0  0  0
  5  6  2  0  0  0  0
  5  9  1  0  0  0  0
  6 31  1  0  0  0  0
  7  9  2  0  0  0  0
  7 31  1  0  0  0  0
  8 24  1  0  0  0  0
  9 23  1  0  0  0  0
 10 28  1  0  0  0  0
 11 12  2  0  0  0  0
 11 13  1  0  0  0  0
 11 27  1  0  0  0  0
 12 25  1  0  0  0  0
 12 29  1  0  0  0  0
 13 14  2  0  0  0  0
 14 15  1  0  0  0  0
 15 16  2  0  0  0  0
 16 27  1  0  0  0  0
 17 24  1  1  0  0  0
 17 29  1  0  0  0  0
 17 30  2  0  0  0  0
 18 19  1  0  0  0  0
 18 20  1  0  0  0  0
 19 21  1  0  0  0  0
 20 22  1  0  0  0  0
 21 28  1  0  0  0  0
 22 28  1  0  0  0  0
 23 24  1  0  0  0  0
 25 26  2  0  0  0  0
 26 27  1  0  0  0  0
  1 32  1  0  0  0  0
  2 33  1  0  0  0  0
  3 34  1  0  0  0  0
  4 35  1  0  0  0  0
  5 36  1  0  0  0  0
  6 37  1  0  0  0  0
  7 38  1  0  0  0  0
 13 39  1  0  0  0  0
 14 40  1  0  0  0  0
 15 41  1  0  0  0  0
 16 42  1  0  0  0  0
 18 43  1  0  0  0  0
 18 44  1  0  0  0  0
 19 45  1  0  0  0  0
 19 46  1  0  0  0  0
 20 47  1  0  0  0  0
 20 48  1  0  0  0  0
 21 49  1  0  0  0  0
 21 50  1  0  0  0  0
 22 51  1  0  0  0  0
 22 52  1  0  0  0  0
 23 53  1  0  0  0  0
 23 54  1  0  0  0  0
 24 55  1  0  0  0  0
 29 56  1  0  0  0  0
M  END
> <clash_score>
0

> <docking_score>
-9.148247718811035

> <overlap_score>
0.8712783455848694

$$$$
BENZO_260_2
  -OEChem-08232013493D

 56 60  0     1  0  0  0  0  0999 V2000
    8.3510   -1.5420   24.6110 C   0  0  0  0  0  0  0  0  0  0  0  0
   10.2760   -2.3270   23.4020 C   0  0  0  0  0  0  0  0  0  0  0  0
    8.3310   -2.7170   25.3430 C   0  0  0  0  0  0  0  0  0  0  0  0
   10.2570   -3.5000   24.1350 C   0  0  0  0  0  0  0  0  0  0  0  0
   11.9035    2.6860   22.1682 C   0  0  0  0  0  0  0  0  0  0  0  0
   11.8836    4.0408   22.4165 C   0  0  0  0  0  0  0  0  0  0  0  0
   10.5617    2.7801   24.0637 C   0  0  0  0  0  0  0  0  0  0  0  0
    9.3300   -1.3350   23.6390 C   0  0  0  0  0  0  0  0  0  0  0  0
   11.1377    1.9556   23.1223 C   0  0  0  0  0  0  0  0  0  0  0  0
    9.2850   -3.7090   25.1090 C   0  0  0  0  0  0  0  0  0  0  0  0
    6.1600    0.3870   20.1140 C   0  0  0  0  0  0  0  0  0  0  0  0
    7.2210   -0.4620   20.0350 C   0  0  0  0  0  0  0  0  0  0  0  0
    5.3360    0.8000   21.1530 C   0  0  0  0  0  0  0  0  0  0  0  0
    4.2970    1.6690   20.8430 C   0  0  0  0  0  0  0  0  0  0  0  0
    4.0980    2.1130   19.5350 C   0  0  0  0  0  0  0  0  0  0  0  0
    4.9400    1.7060   18.5060 C   0  0  0  0  0  0  0  0  0  0  0  0
    8.9510    0.1280   21.6880 C   0  0  0  0  0  0  0  0  0  0  0  0
    7.3211   -6.8875   26.5227 C   0  0  0  0  0  0  0  0  0  0  0  0
    7.3523   -5.5278   27.2244 C   0  0  0  0  0  0  0  0  0  0  0  0
    7.9422   -6.8107   25.1261 C   0  0  0  0  0  0  0  0  0  0  0  0
    8.7641   -4.9418   27.2163 C   0  0  0  0  0  0  0  0  0  0  0  0
    9.3411   -6.1879   25.1670 C   0  0  0  0  0  0  0  0  0  0  0  0
   10.9782    0.4528   23.1025 C   0  0  0  0  0  0  0  0  0  0  0  0
    9.4200   -0.0840   22.9530 C   0  0  2  0  0  0  0  0  0  0  0  0
    7.6830   -0.5170   18.7600 N   0  0  0  0  0  0  0  0  0  0  0  0
    6.9440    0.2550   18.0100 N   0  0  0  0  0  0  0  0  0  0  0  0
    5.9810    0.8330   18.8060 N   0  0  0  0  0  0  0  0  0  0  0  0
    9.2641   -4.8861   25.8398 N   0  0  0  0  0  0  0  0  0  0  0  0
    8.0810   -0.9750   21.0820 N   0  0  0  0  0  0  0  0  0  0  0  0
    9.1870    1.1500   21.0630 O   0  0  0  0  0  0  0  0  0  0  0  0
   10.9445    4.4275   23.7953 S   0  0  0  0  0  0  0  0  0  0  0  0
    7.5957   -0.7779   24.7973 H   0  0  0  0  0  0  0  0  0  0  0  0
   11.0384   -2.1852   22.6338 H   0  0  0  0  0  0  0  0  0  0  0  0
    7.5634   -2.8637   26.1037 H   0  0  0  0  0  0  0  0  0  0  0  0
   11.0139   -4.2645   23.9419 H   0  0  0  0  0  0  0  0  0  0  0  0
   12.4436    2.2440   21.3404 H   0  0  0  0  0  0  0  0  0  0  0  0
   12.3760    4.8219   21.8548 H   0  0  0  0  0  0  0  0  0  0  0  0
    9.9349    2.4981   24.8983 H   0  0  0  0  0  0  0  0  0  0  0  0
    5.4735    0.4758   22.1644 H   0  0  0  0  0  0  0  0  0  0  0  0
    3.6415    1.9967   21.6408 H   0  0  0  0  0  0  0  0  0  0  0  0
    3.2720    2.7926   19.2921 H   0  0  0  0  0  0  0  0  0  0  0  0
    4.8119    2.0418   17.5005 H   0  0  0  0  0  0  0  0  0  0  0  0
    7.8644   -7.6283   27.1289 H   0  0  0  0  0  0  0  0  0  0  0  0
    6.2830   -7.2423   26.4478 H   0  0  0  0  0  0  0  0  0  0  0  0
    6.6663   -4.8405   26.7221 H   0  0  0  0  0  0  0  0  0  0  0  0
    7.0062   -5.6400   28.2540 H   0  0  0  0  0  0  0  0  0  0  0  0
    8.0018   -7.8160   24.6962 H   0  0  0  0  0  0  0  0  0  0  0  0
    7.2963   -6.2182   24.4678 H   0  0  0  0  0  0  0  0  0  0  0  0
    8.7322   -3.9404   27.6532 H   0  0  0  0  0  0  0  0  0  0  0  0
    9.4260   -5.5610   27.8283 H   0  0  0  0  0  0  0  0  0  0  0  0
   10.0249   -6.8474   25.7028 H   0  0  0  0  0  0  0  0  0  0  0  0
    9.7015   -6.0700   24.1446 H   0  0  0  0  0  0  0  0  0  0  0  0
   11.5374    0.0399   22.2527 H   0  0  0  0  0  0  0  0  0  0  0  0
   11.4700    0.0494   23.9985 H   0  0  0  0  0  0  0  0  0  0  0  0
    8.9187    0.7273   23.6745 H   0  0  0  0  0  0  0  0  0  0  0  0
    8.1354   -1.7990   21.3694 H   0  0  0  0  0  0  0  0  0  0  0  0
  1  3  2  0  0  0  0
  1  8  1  0  0  0  0
  2  4  1  0  0  0  0
  2  8  2  0  0  0  0
  3 10  1  0  0  0  0
  4 10  2  0  0  0  0
  5  6  2  0  0  0  0
  5  9  1  0  0  0  0
  6 31  1  0  0  0  0
  7  9  2  0  0  0  0
  7 31  1  0  0  0  0
  8 24  1  0  0  0  0
  9 23  1  0  0  0  0
 10 28  1  0  0  0  0
 11 12  2  0  0  0  0
 11 13  1  0  0  0  0
 11 27  1  0  0  0  0
 12 25  1  0  0  0  0
 12 29  1  0  0  0  0
 13 14  2  0  0  0  0
 14 15  1  0  0  0  0
 15 16  2  0  0  0  0
 16 27  1  0  0  0  0
 17 24  1  6  0  0  0
 17 29  1  0  0  0  0
 17 30  2  0  0  0  0
 18 19  1  0  0  0  0
 18 20  1  0  0  0  0
 19 21  1  0  0  0  0
 20 22  1  0  0  0  0
 21 28  1  0  0  0  0
 22 28  1  0  0  0  0
 23 24  1  0  0  0  0
 25 26  2  0  0  0  0
 26 27  1  0  0  0  0
  1 32  1  0  0  0  0
  2 33  1  0  0  0  0
  3 34  1  0  0  0  0
  4 35  1  0  0  0  0
  5 36  1  0  0  0  0
  6 37  1  0  0  0  0
  7 38  1  0  0  0  0
 13 39  1  0  0  0  0
 14 40  1  0  0  0  0
 15 41  1  0  0  0  0
 16 42  1  0  0  0  0
 18 43  1  0  0  0  0
 18 44  1  0  0  0  0
 19 45  1  0  0  0  0
 19 46  1  0  0  0  0
 20 47  1  0  0  0  0
 20 48  1  0  0  0  0
 21 49  1  0  0  0  0
 21 50  1  0  0  0  0
 22 51  1  0  0  0  0
 22 52  1  0  0  0  0
 23 53  1  0  0  0  0
 23 54  1  0  0  0  0
 24 55  1  0  0  0  0
 29 56  1  0  0  0  0
M  END
> <clash_score>
0

> <docking_score>
-9.09745979309082

> <overlap_score>
0.9346765875816345

$$$$
BENZO_261_2
  -OEChem-08232013493D

 59 63  0     1  0  0  0  0  0999 V2000
   11.4307    4.7297   23.1589 C   0  0  0  0  0  0  0  0  0  0  0  0
   12.4501    3.9274   22.6463 C   0  0  0  0  0  0  0  0  0  0  0  0
   10.2648    4.1449   23.6533 C   0  0  0  0  0  0  0  0  0  0  0  0
   12.3036    2.5404   22.6279 C   0  0  0  0  0  0  0  0  0  0  0  0
   10.1183    2.7579   23.6349 C   0  0  0  0  0  0  0  0  0  0  0  0
    8.3510   -1.5420   24.6110 C   0  0  0  0  0  0  0  0  0  0  0  0
   10.2760   -2.3270   23.4020 C   0  0  0  0  0  0  0  0  0  0  0  0
    8.3310   -2.7170   25.3430 C   0  0  0  0  0  0  0  0  0  0  0  0
   10.2570   -3.5000   24.1350 C   0  0  0  0  0  0  0  0  0  0  0  0
   11.1377    1.9556   23.1223 C   0  0  0  0  0  0  0  0  0  0  0  0
    9.3300   -1.3350   23.6390 C   0  0  0  0  0  0  0  0  0  0  0  0
    9.2850   -3.7090   25.1090 C   0  0  0  0  0  0  0  0  0  0  0  0
    6.1600    0.3870   20.1140 C   0  0  0  0  0  0  0  0  0  0  0  0
    7.2210   -0.4620   20.0350 C   0  0  0  0  0  0  0  0  0  0  0  0
    5.3360    0.8000   21.1530 C   0  0  0  0  0  0  0  0  0  0  0  0
    4.2970    1.6690   20.8430 C   0  0  0  0  0  0  0  0  0  0  0  0
    4.0980    2.1130   19.5350 C   0  0  0  0  0  0  0  0  0  0  0  0
    4.9400    1.7060   18.5060 C   0  0  0  0  0  0  0  0  0  0  0  0
    8.9510    0.1280   21.6880 C   0  0  0  0  0  0  0  0  0  0  0  0
    7.3211   -6.8875   26.5227 C   0  0  0  0  0  0  0  0  0  0  0  0
    7.3523   -5.5278   27.2244 C   0  0  0  0  0  0  0  0  0  0  0  0
    7.9422   -6.8107   25.1261 C   0  0  0  0  0  0  0  0  0  0  0  0
    8.7641   -4.9418   27.2163 C   0  0  0  0  0  0  0  0  0  0  0  0
    9.3411   -6.1879   25.1670 C   0  0  0  0  0  0  0  0  0  0  0  0
   10.9782    0.4528   23.1025 C   0  0  0  0  0  0  0  0  0  0  0  0
    9.4200   -0.0840   22.9530 C   0  0  2  0  0  0  0  0  0  0  0  0
    7.6830   -0.5170   18.7600 N   0  0  0  0  0  0  0  0  0  0  0  0
    6.9440    0.2550   18.0100 N   0  0  0  0  0  0  0  0  0  0  0  0
    5.9810    0.8330   18.8060 N   0  0  0  0  0  0  0  0  0  0  0  0
    9.2641   -4.8861   25.8398 N   0  0  0  0  0  0  0  0  0  0  0  0
    8.0810   -0.9750   21.0820 N   0  0  0  0  0  0  0  0  0  0  0  0
    9.1870    1.1500   21.0630 O   0  0  0  0  0  0  0  0  0  0  0  0
   11.5455    5.8096   23.1743 H   0  0  0  0  0  0  0  0  0  0  0  0
   13.3585    4.3825   22.2623 H   0  0  0  0  0  0  0  0  0  0  0  0
    9.4714    4.7691   24.0535 H   0  0  0  0  0  0  0  0  0  0  0  0
   13.1031    1.9232   22.2264 H   0  0  0  0  0  0  0  0  0  0  0  0
    9.2064    2.3111   24.0221 H   0  0  0  0  0  0  0  0  0  0  0  0
    7.5957   -0.7779   24.7973 H   0  0  0  0  0  0  0  0  0  0  0  0
   11.0384   -2.1852   22.6338 H   0  0  0  0  0  0  0  0  0  0  0  0
    7.5634   -2.8637   26.1037 H   0  0  0  0  0  0  0  0  0  0  0  0
   11.0139   -4.2645   23.9419 H   0  0  0  0  0  0  0  0  0  0  0  0
    5.4735    0.4758   22.1644 H   0  0  0  0  0  0  0  0  0  0  0  0
    3.6415    1.9967   21.6408 H   0  0  0  0  0  0  0  0  0  0  0  0
    3.2720    2.7926   19.2921 H   0  0  0  0  0  0  0  0  0  0  0  0
    4.8119    2.0418   17.5005 H   0  0  0  0  0  0  0  0  0  0  0  0
    7.8644   -7.6283   27.1289 H   0  0  0  0  0  0  0  0  0  0  0  0
    6.2830   -7.2423   26.4478 H   0  0  0  0  0  0  0  0  0  0  0  0
    6.6663   -4.8405   26.7221 H   0  0  0  0  0  0  0  0  0  0  0  0
    7.0062   -5.6400   28.2540 H   0  0  0  0  0  0  0  0  0  0  0  0
    8.0018   -7.8160   24.6962 H   0  0  0  0  0  0  0  0  0  0  0  0
    7.2963   -6.2182   24.4678 H   0  0  0  0  0  0  0  0  0  0  0  0
    8.7322   -3.9404   27.6532 H   0  0  0  0  0  0  0  0  0  0  0  0
    9.4260   -5.5610   27.8283 H   0  0  0  0  0  0  0  0  0  0  0  0
   10.0249   -6.8474   25.7028 H   0  0  0  0  0  0  0  0  0  0  0  0
    9.7015   -6.0700   24.1446 H   0  0  0  0  0  0  0  0  0  0  0  0
   11.5374    0.0399   22.2527 H   0  0  0  0  0  0  0  0  0  0  0  0
   11.4700    0.0494   23.9985 H   0  0  0  0  0  0  0  0  0  0  0  0
    8.9187    0.7273   23.6745 H   0  0  0  0  0  0  0  0  0  0  0  0
    8.1354   -1.7990   21.3694 H   0  0  0  0  0  0  0  0  0  0  0  0
  1  2  1  0  0  0  0
  1  3  2  0  0  0  0
  2  4  2  0  0  0  0
  3  5  1  0  0  0  0
  4 10  1  0  0  0  0
  5 10  2  0  0  0  0
  6  8  2  0  0  0  0
  6 11  1  0  0  0  0
  7  9  1  0  0  0  0
  7 11  2  0  0  0  0
  8 12  1  0  0  0  0
  9 12  2  0  0  0  0
 10 25  1  0  0  0  0
 11 26  1  0  0  0  0
 12 30  1  0  0  0  0
 13 14  2  0  0  0  0
 13 15  1  0  0  0  0
 13 29  1  0  0  0  0
 14 27  1  0  0  0  0
 14 31  1  0  0  0  0
 15 16  2  0  0  0  0
 16 17  1  0  0  0  0
 17 18  2  0  0  0  0
 18 29  1  0  0  0  0
 19 26  1  6  0  0  0
 19 31  1  0  0  0  0
 19 32  2  0  0  0  0
 20 21  1  0  0  0  0
 20 22  1  0  0  0  0
 21 23  1  0  0  0  0
 22 24  1  0  0  0  0
 23 30  1  0  0  0  0
 24 30  1  0  0  0  0
 25 26  1  0  0  0  0
 27 28  2  0  0  0  0
 28 29  1  0  0  0  0
  1 33  1  0  0  0  0
  2 34  1  0  0  0  0
  3 35  1  0  0  0  0
  4 36  1  0  0  0  0
  5 37  1  0  0  0  0
  6 38  1  0  0  0  0
  7 39  1  0  0  0  0
  8 40  1  0  0  0  0
  9 41  1  0  0  0  0
 15 42  1  0  0  0  0
 16 43  1  0  0  0  0
 17 44  1  0  0  0  0
 18 45  1  0  0  0  0
 20 46  1  0  0  0  0
 20 47  1  0  0  0  0
 21 48  1  0  0  0  0
 21 49  1  0  0  0  0
 22 50  1  0  0  0  0
 22 51  1  0  0  0  0
 23 52  1  0  0  0  0
 23 53  1  0  0  0  0
 24 54  1  0  0  0  0
 24 55  1  0  0  0  0
 25 56  1  0  0  0  0
 25 57  1  0  0  0  0
 26 58  1  0  0  0  0
 31 59  1  0  0  0  0
M  END
> <clash_score>
0

> <docking_score>
-10.53474235534668

> <overlap_score>
0.9455479383468628

$$$$
BENZO_261_1
  -OEChem-08232013493D

 59 63  0     1  0  0  0  0  0999 V2000
   10.6051    5.0072   23.5714 C   0  0  0  0  0  0  0  0  0  0  0  0
    9.2931    4.8685   24.0240 C   0  0  0  0  0  0  0  0  0  0  0  0
   11.3561    3.8759   23.2522 C   0  0  0  0  0  0  0  0  0  0  0  0
    8.7320    3.5984   24.1576 C   0  0  0  0  0  0  0  0  0  0  0  0
   10.7950    2.6058   23.3857 C   0  0  0  0  0  0  0  0  0  0  0  0
    8.3510   -1.5420   24.6110 C   0  0  0  0  0  0  0  0  0  0  0  0
   10.2760   -2.3270   23.4020 C   0  0  0  0  0  0  0  0  0  0  0  0
    8.3310   -2.7170   25.3430 C   0  0  0  0  0  0  0  0  0  0  0  0
   10.2570   -3.5000   24.1350 C   0  0  0  0  0  0  0  0  0  0  0  0
    9.4829    2.4671   23.8384 C   0  0  0  0  0  0  0  0  0  0  0  0
    9.3300   -1.3350   23.6390 C   0  0  0  0  0  0  0  0  0  0  0  0
    9.2850   -3.7090   25.1090 C   0  0  0  0  0  0  0  0  0  0  0  0
    6.1600    0.3870   20.1140 C   0  0  0  0  0  0  0  0  0  0  0  0
    7.2210   -0.4620   20.0350 C   0  0  0  0  0  0  0  0  0  0  0  0
    5.3360    0.8000   21.1530 C   0  0  0  0  0  0  0  0  0  0  0  0
    4.2970    1.6690   20.8430 C   0  0  0  0  0  0  0  0  0  0  0  0
    4.0980    2.1130   19.5350 C   0  0  0  0  0  0  0  0  0  0  0  0
    4.9400    1.7060   18.5060 C   0  0  0  0  0  0  0  0  0  0  0  0
    8.9510    0.1280   21.6880 C   0  0  0  0  0  0  0  0  0  0  0  0
    7.3211   -6.8875   26.5227 C   0  0  0  0  0  0  0  0  0  0  0  0
    7.3523   -5.5278   27.2244 C   0  0  0  0  0  0  0  0  0  0  0  0
    7.9422   -6.8107   25.1261 C   0  0  0  0  0  0  0  0  0  0  0  0
    8.7641   -4.9418   27.2163 C   0  0  0  0  0  0  0  0  0  0  0  0
    9.3411   -6.1879   25.1670 C   0  0  0  0  0  0  0  0  0  0  0  0
    8.8757    1.0906   23.9831 C   0  0  0  0  0  0  0  0  0  0  0  0
    9.4200   -0.0840   22.9530 C   0  0  1  0  0  0  0  0  0  0  0  0
    7.6830   -0.5170   18.7600 N   0  0  0  0  0  0  0  0  0  0  0  0
    6.9440    0.2550   18.0100 N   0  0  0  0  0  0  0  0  0  0  0  0
    5.9810    0.8330   18.8060 N   0  0  0  0  0  0  0  0  0  0  0  0
    9.2641   -4.8861   25.8398 N   0  0  0  0  0  0  0  0  0  0  0  0
    8.0810   -0.9750   21.0820 N   0  0  0  0  0  0  0  0  0  0  0  0
    9.1870    1.1500   21.0630 O   0  0  0  0  0  0  0  0  0  0  0  0
   11.0414    5.9962   23.4662 H   0  0  0  0  0  0  0  0  0  0  0  0
    8.7078    5.7493   24.2716 H   0  0  0  0  0  0  0  0  0  0  0  0
   12.3772    3.9835   22.8987 H   0  0  0  0  0  0  0  0  0  0  0  0
    7.7090    3.4999   24.5112 H   0  0  0  0  0  0  0  0  0  0  0  0
   11.3876    1.7301   23.1348 H   0  0  0  0  0  0  0  0  0  0  0  0
    7.5957   -0.7779   24.7973 H   0  0  0  0  0  0  0  0  0  0  0  0
   11.0384   -2.1852   22.6338 H   0  0  0  0  0  0  0  0  0  0  0  0
    7.5634   -2.8637   26.1037 H   0  0  0  0  0  0  0  0  0  0  0  0
   11.0139   -4.2645   23.9419 H   0  0  0  0  0  0  0  0  0  0  0  0
    5.4735    0.4758   22.1644 H   0  0  0  0  0  0  0  0  0  0  0  0
    3.6415    1.9967   21.6408 H   0  0  0  0  0  0  0  0  0  0  0  0
    3.2720    2.7926   19.2920 H   0  0  0  0  0  0  0  0  0  0  0  0
    4.8119    2.0418   17.5005 H   0  0  0  0  0  0  0  0  0  0  0  0
    7.8644   -7.6283   27.1289 H   0  0  0  0  0  0  0  0  0  0  0  0
    6.2830   -7.2423   26.4478 H   0  0  0  0  0  0  0  0  0  0  0  0
    6.6663   -4.8405   26.7221 H   0  0  0  0  0  0  0  0  0  0  0  0
    7.0062   -5.6400   28.2540 H   0  0  0  0  0  0  0  0  0  0  0  0
    8.0018   -7.8160   24.6962 H   0  0  0  0  0  0  0  0  0  0  0  0
    7.2963   -6.2182   24.4678 H   0  0  0  0  0  0  0  0  0  0  0  0
    8.7322   -3.9404   27.6532 H   0  0  0  0  0  0  0  0  0  0  0  0
    9.4260   -5.5610   27.8283 H   0  0  0  0  0  0  0  0  0  0  0  0
   10.0249   -6.8474   25.7028 H   0  0  0  0  0  0  0  0  0  0  0  0
    9.7015   -6.0700   24.1446 H   0  0  0  0  0  0  0  0  0  0  0  0
    8.9639    0.7632   25.0273 H   0  0  0  0  0  0  0  0  0  0  0  0
    7.7964    1.1765   23.7949 H   0  0  0  0  0  0  0  0  0  0  0  0
   10.5749    0.2253   22.9765 H   0  0  0  0  0  0  0  0  0  0  0  0
    8.1354   -1.7990   21.3694 H   0  0  0  0  0  0  0  0  0  0  0  0
  1  2  1  0  0  0  0
  1  3  2  0  0  0  0
  2  4  2  0  0  0  0
  3  5  1  0  0  0  0
  4 10  1  0  0  0  0
  5 10  2  0  0  0  0
  6  8  2  0  0  0  0
  6 11  1  0  0  0  0
  7  9  1  0  0  0  0
  7 11  2  0  0  0  0
  8 12  1  0  0  0  0
  9 12  2  0  0  0  0
 10 25  1  0  0  0  0
 11 26  1  0  0  0  0
 12 30  1  0  0  0  0
 13 14  2  0  0  0  0
 13 15  1  0  0  0  0
 13 29  1  0  0  0  0
 14 27  1  0  0  0  0
 14 31  1  0  0  0  0
 15 16  2  0  0  0  0
 16 17  1  0  0  0  0
 17 18  2  0  0  0  0
 18 29  1  0  0  0  0
 19 26  1  1  0  0  0
 19 31  1  0  0  0  0
 19 32  2  0  0  0  0
 20 21  1  0  0  0  0
 20 22  1  0  0  0  0
 21 23  1  0  0  0  0
 22 24  1  0  0  0  0
 23 30  1  0  0  0  0
 24 30  1  0  0  0  0
 25 26  1  0  0  0  0
 27 28  2  0  0  0  0
 28 29  1  0  0  0  0
  1 33  1  0  0  0  0
  2 34  1  0  0  0  0
  3 35  1  0  0  0  0
  4 36  1  0  0  0  0
  5 37  1  0  0  0  0
  6 38  1  0  0  0  0
  7 39  1  0  0  0  0
  8 40  1  0  0  0  0
  9 41  1  0  0  0  0
 15 42  1  0  0  0  0
 16 43  1  0  0  0  0
 17 44  1  0  0  0  0
 18 45  1  0  0  0  0
 20 46  1  0  0  0  0
 20 47  1  0  0  0  0
 21 48  1  0  0  0  0
 21 49  1  0  0  0  0
 22 50  1  0  0  0  0
 22 51  1  0  0  0  0
 23 52  1  0  0  0  0
 23 53  1  0  0  0  0
 24 54  1  0  0  0  0
 24 55  1  0  0  0  0
 25 56  1  0  0  0  0
 25 57  1  0  0  0  0
 26 58  1  0  0  0  0
 31 59  1  0  0  0  0
M  END
> <clash_score>
0

> <docking_score>
-9.428800582885742

> <overlap_score>
0.8739050030708313

$$$$
BENZO_259_2
  -OEChem-08232013493D

 54 57  0     1  0  0  0  0  0999 V2000
    8.3510   -1.5420   24.6110 C   0  0  0  0  0  0  0  0  0  0  0  0
   10.2760   -2.3270   23.4020 C   0  0  0  0  0  0  0  0  0  0  0  0
    8.3310   -2.7170   25.3430 C   0  0  0  0  0  0  0  0  0  0  0  0
   10.2570   -3.5000   24.1350 C   0  0  0  0  0  0  0  0  0  0  0  0
   10.7939    2.7770   23.4177 C   0  0  0  0  0  0  0  0  0  0  0  0
    8.9123    3.6676   24.1257 C   0  0  0  0  0  0  0  0  0  0  0  0
    9.3300   -1.3350   23.6390 C   0  0  0  0  0  0  0  0  0  0  0  0
    9.4950    2.4539   23.8539 C   0  0  0  0  0  0  0  0  0  0  0  0
    9.2850   -3.7090   25.1090 C   0  0  0  0  0  0  0  0  0  0  0  0
    6.1600    0.3870   20.1140 C   0  0  0  0  0  0  0  0  0  0  0  0
    7.2210   -0.4620   20.0350 C   0  0  0  0  0  0  0  0  0  0  0  0
    5.3360    0.8000   21.1530 C   0  0  0  0  0  0  0  0  0  0  0  0
    4.2970    1.6690   20.8430 C   0  0  0  0  0  0  0  0  0  0  0  0
    4.0980    2.1130   19.5350 C   0  0  0  0  0  0  0  0  0  0  0  0
    4.9400    1.7060   18.5060 C   0  0  0  0  0  0  0  0  0  0  0  0
    8.1545   -5.5464   26.4002 C   0  0  0  0  0  0  0  0  0  0  0  0
    8.9510    0.1280   21.6880 C   0  0  0  0  0  0  0  0  0  0  0  0
    9.2318   -7.8282   26.2032 C   0  0  0  0  0  0  0  0  0  0  0  0
    9.7138    6.0370   23.9775 C   0  0  0  0  0  0  0  0  0  0  0  0
    8.8771    1.0813   23.9905 C   0  0  0  0  0  0  0  0  0  0  0  0
    8.5753   -6.8162   27.1251 C   0  0  0  0  0  0  0  0  0  0  0  0
    9.4200   -0.0840   22.9530 C   0  0  2  0  0  0  0  0  0  0  0  0
   11.0232    4.0928   23.4110 N   0  0  0  0  0  0  0  0  0  0  0  0
    7.6830   -0.5170   18.7600 N   0  0  0  0  0  0  0  0  0  0  0  0
    6.9440    0.2550   18.0100 N   0  0  0  0  0  0  0  0  0  0  0  0
    9.8605    4.6073   23.8463 N   0  0  0  0  0  0  0  0  0  0  0  0
    5.9810    0.8330   18.8060 N   0  0  0  0  0  0  0  0  0  0  0  0
    9.2630   -4.8903   25.8409 N   0  0  0  0  0  0  0  0  0  0  0  0
    8.0810   -0.9750   21.0820 N   0  0  0  0  0  0  0  0  0  0  0  0
    6.9828   -5.1884   26.3422 O   0  0  0  0  0  0  0  0  0  0  0  0
    9.1870    1.1500   21.0630 O   0  0  0  0  0  0  0  0  0  0  0  0
    7.5948   -0.7783   24.7966 H   0  0  0  0  0  0  0  0  0  0  0  0
   11.0389   -2.1844   22.6342 H   0  0  0  0  0  0  0  0  0  0  0  0
    7.5642   -2.8624   26.1050 H   0  0  0  0  0  0  0  0  0  0  0  0
   11.0137   -4.2649   23.9418 H   0  0  0  0  0  0  0  0  0  0  0  0
   11.5843    2.1103   23.1031 H   0  0  0  0  0  0  0  0  0  0  0  0
    7.9277    3.9360   24.4839 H   0  0  0  0  0  0  0  0  0  0  0  0
    5.4735    0.4758   22.1644 H   0  0  0  0  0  0  0  0  0  0  0  0
    3.6415    1.9967   21.6408 H   0  0  0  0  0  0  0  0  0  0  0  0
    3.2720    2.7926   19.2921 H   0  0  0  0  0  0  0  0  0  0  0  0
    4.8119    2.0418   17.5005 H   0  0  0  0  0  0  0  0  0  0  0  0
    8.5555   -8.1182   25.3924 H   0  0  0  0  0  0  0  0  0  0  0  0
    9.5048   -8.7299   26.7599 H   0  0  0  0  0  0  0  0  0  0  0  0
   10.1405   -7.4169   25.7514 H   0  0  0  0  0  0  0  0  0  0  0  0
   10.0225    6.3165   24.9883 H   0  0  0  0  0  0  0  0  0  0  0  0
   10.3410    6.5371   23.2342 H   0  0  0  0  0  0  0  0  0  0  0  0
    8.6688    6.3103   23.8064 H   0  0  0  0  0  0  0  0  0  0  0  0
    8.9708    0.7434   25.0308 H   0  0  0  0  0  0  0  0  0  0  0  0
    7.7972    1.1781   23.8117 H   0  0  0  0  0  0  0  0  0  0  0  0
    9.2732   -6.5444   27.9254 H   0  0  0  0  0  0  0  0  0  0  0  0
    7.6874   -7.2638   27.5862 H   0  0  0  0  0  0  0  0  0  0  0  0
   10.5743    0.2174   22.9808 H   0  0  0  0  0  0  0  0  0  0  0  0
   10.1701   -5.3456   25.9953 H   0  0  0  0  0  0  0  0  0  0  0  0
    8.1159   -1.8115   21.3524 H   0  0  0  0  0  0  0  0  0  0  0  0
  1  3  2  0  0  0  0
  1  7  1  0  0  0  0
  2  4  1  0  0  0  0
  2  7  2  0  0  0  0
  3  9  1  0  0  0  0
  4  9  2  0  0  0  0
  5  8  1  0  0  0  0
  5 23  2  0  0  0  0
  6  8  2  0  0  0  0
  6 26  1  0  0  0  0
  7 22  1  0  0  0  0
  8 20  1  0  0  0  0
  9 28  1  0  0  0  0
 10 11  2  0  0  0  0
 10 12  1  0  0  0  0
 10 27  1  0  0  0  0
 11 24  1  0  0  0  0
 11 29  1  0  0  0  0
 12 13  2  0  0  0  0
 13 14  1  0  0  0  0
 14 15  2  0  0  0  0
 15 27  1  0  0  0  0
 16 21  1  0  0  0  0
 16 28  1  0  0  0  0
 16 30  2  0  0  0  0
 17 22  1  0  0  0  0
 17 29  1  0  0  0  0
 17 31  2  0  0  0  0
 18 21  1  0  0  0  0
 19 26  1  0  0  0  0
 20 22  1  6  0  0  0
 23 26  1  0  0  0  0
 24 25  2  0  0  0  0
 25 27  1  0  0  0  0
  1 32  1  0  0  0  0
  2 33  1  0  0  0  0
  3 34  1  0  0  0  0
  4 35  1  0  0  0  0
  5 36  1  0  0  0  0
  6 37  1  0  0  0  0
 12 38  1  0  0  0  0
 13 39  1  0  0  0  0
 14 40  1  0  0  0  0
 15 41  1  0  0  0  0
 18 42  1  0  0  0  0
 18 43  1  0  0  0  0
 18 44  1  0  0  0  0
 19 45  1  0  0  0  0
 19 46  1  0  0  0  0
 19 47  1  0  0  0  0
 20 48  1  0  0  0  0
 20 49  1  0  0  0  0
 21 50  1  0  0  0  0
 21 51  1  0  0  0  0
 22 52  1  0  0  0  0
 28 53  1  0  0  0  0
 29 54  1  0  0  0  0
M  END
> <clash_score>
1.2356441633489261

> <docking_score>
-8.72632884979248

> <overlap_score>
0.8602992296218872

$$$$
BENZO_259_1
  -OEChem-08232013493D

 54 57  0     1  0  0  0  0  0999 V2000
    8.3510   -1.5420   24.6110 C   0  0  0  0  0  0  0  0  0  0  0  0
   10.2760   -2.3270   23.4020 C   0  0  0  0  0  0  0  0  0  0  0  0
    8.3310   -2.7170   25.3430 C   0  0  0  0  0  0  0  0  0  0  0  0
   10.2570   -3.5000   24.1350 C   0  0  0  0  0  0  0  0  0  0  0  0
   10.2235    2.9023   23.6242 C   0  0  0  0  0  0  0  0  0  0  0  0
   12.2091    2.6870   22.7043 C   0  0  0  0  0  0  0  0  0  0  0  0
    9.3300   -1.3350   23.6390 C   0  0  0  0  0  0  0  0  0  0  0  0
   11.1370    1.9470   23.1397 C   0  0  0  0  0  0  0  0  0  0  0  0
    9.2850   -3.7090   25.1090 C   0  0  0  0  0  0  0  0  0  0  0  0
    6.1600    0.3870   20.1140 C   0  0  0  0  0  0  0  0  0  0  0  0
    7.2210   -0.4620   20.0350 C   0  0  0  0  0  0  0  0  0  0  0  0
    5.3360    0.8000   21.1530 C   0  0  0  0  0  0  0  0  0  0  0  0
    4.2970    1.6690   20.8430 C   0  0  0  0  0  0  0  0  0  0  0  0
    4.0980    2.1130   19.5350 C   0  0  0  0  0  0  0  0  0  0  0  0
    4.9400    1.7060   18.5060 C   0  0  0  0  0  0  0  0  0  0  0  0
    8.1545   -5.5464   26.4002 C   0  0  0  0  0  0  0  0  0  0  0  0
    8.9510    0.1280   21.6880 C   0  0  0  0  0  0  0  0  0  0  0  0
    9.2318   -7.8282   26.2032 C   0  0  0  0  0  0  0  0  0  0  0  0
   12.7031    5.1430   22.6555 C   0  0  0  0  0  0  0  0  0  0  0  0
   10.9777    0.4443   23.1075 C   0  0  0  0  0  0  0  0  0  0  0  0
    8.5753   -6.8162   27.1251 C   0  0  0  0  0  0  0  0  0  0  0  0
    9.4200   -0.0840   22.9530 C   0  0  1  0  0  0  0  0  0  0  0  0
   10.6758    4.1536   23.5079 N   0  0  0  0  0  0  0  0  0  0  0  0
    7.6830   -0.5170   18.7600 N   0  0  0  0  0  0  0  0  0  0  0  0
    6.9440    0.2550   18.0100 N   0  0  0  0  0  0  0  0  0  0  0  0
   11.8853    3.9898   22.9453 N   0  0  0  0  0  0  0  0  0  0  0  0
    5.9810    0.8330   18.8060 N   0  0  0  0  0  0  0  0  0  0  0  0
    9.2630   -4.8903   25.8409 N   0  0  0  0  0  0  0  0  0  0  0  0
    8.0810   -0.9750   21.0820 N   0  0  0  0  0  0  0  0  0  0  0  0
    6.9828   -5.1884   26.3422 O   0  0  0  0  0  0  0  0  0  0  0  0
    9.1870    1.1500   21.0630 O   0  0  0  0  0  0  0  0  0  0  0  0
    7.5948   -0.7783   24.7966 H   0  0  0  0  0  0  0  0  0  0  0  0
   11.0389   -2.1844   22.6342 H   0  0  0  0  0  0  0  0  0  0  0  0
    7.5642   -2.8624   26.1050 H   0  0  0  0  0  0  0  0  0  0  0  0
   11.0137   -4.2649   23.9418 H   0  0  0  0  0  0  0  0  0  0  0  0
    9.2470    2.7411   24.0585 H   0  0  0  0  0  0  0  0  0  0  0  0
   13.1519    2.4044   22.2558 H   0  0  0  0  0  0  0  0  0  0  0  0
    5.4735    0.4758   22.1644 H   0  0  0  0  0  0  0  0  0  0  0  0
    3.6415    1.9967   21.6408 H   0  0  0  0  0  0  0  0  0  0  0  0
    3.2720    2.7926   19.2921 H   0  0  0  0  0  0  0  0  0  0  0  0
    4.8119    2.0418   17.5005 H   0  0  0  0  0  0  0  0  0  0  0  0
    8.5555   -8.1182   25.3924 H   0  0  0  0  0  0  0  0  0  0  0  0
    9.5048   -8.7299   26.7599 H   0  0  0  0  0  0  0  0  0  0  0  0
   10.1405   -7.4169   25.7514 H   0  0  0  0  0  0  0  0  0  0  0  0
   12.4640    5.4803   21.6435 H   0  0  0  0  0  0  0  0  0  0  0  0
   12.4902    5.9323   23.3818 H   0  0  0  0  0  0  0  0  0  0  0  0
   13.7583    4.8651   22.7277 H   0  0  0  0  0  0  0  0  0  0  0  0
   11.5363    0.0387   22.2539 H   0  0  0  0  0  0  0  0  0  0  0  0
   11.4704    0.0336   23.9998 H   0  0  0  0  0  0  0  0  0  0  0  0
    9.2732   -6.5444   27.9254 H   0  0  0  0  0  0  0  0  0  0  0  0
    7.6874   -7.2638   27.5862 H   0  0  0  0  0  0  0  0  0  0  0  0
    8.9182    0.7194   23.6789 H   0  0  0  0  0  0  0  0  0  0  0  0
   10.1701   -5.3456   25.9953 H   0  0  0  0  0  0  0  0  0  0  0  0
    8.1159   -1.8115   21.3524 H   0  0  0  0  0  0  0  0  0  0  0  0
  1  3  2  0  0  0  0
  1  7  1  0  0  0  0
  2  4  1  0  0  0  0
  2  7  2  0  0  0  0
  3  9  1  0  0  0  0
  4  9  2  0  0  0  0
  5  8  1  0  0  0  0
  5 23  2  0  0  0  0
  6  8  2  0  0  0  0
  6 26  1  0  0  0  0
  7 22  1  0  0  0  0
  8 20  1  0  0  0  0
  9 28  1  0  0  0  0
 10 11  2  0  0  0  0
 10 12  1  0  0  0  0
 10 27  1  0  0  0  0
 11 24  1  0  0  0  0
 11 29  1  0  0  0  0
 12 13  2  0  0  0  0
 13 14  1  0  0  0  0
 14 15  2  0  0  0  0
 15 27  1  0  0  0  0
 16 21  1  0  0  0  0
 16 28  1  0  0  0  0
 16 30  2  0  0  0  0
 17 22  1  0  0  0  0
 17 29  1  0  0  0  0
 17 31  2  0  0  0  0
 18 21  1  0  0  0  0
 19 26  1  0  0  0  0
 20 22  1  1  0  0  0
 23 26  1  0  0  0  0
 24 25  2  0  0  0  0
 25 27  1  0  0  0  0
  1 32  1  0  0  0  0
  2 33  1  0  0  0  0
  3 34  1  0  0  0  0
  4 35  1  0  0  0  0
  5 36  1  0  0  0  0
  6 37  1  0  0  0  0
 12 38  1  0  0  0  0
 13 39  1  0  0  0  0
 14 40  1  0  0  0  0
 15 41  1  0  0  0  0
 18 42  1  0  0  0  0
 18 43  1  0  0  0  0
 18 44  1  0  0  0  0
 19 45  1  0  0  0  0
 19 46  1  0  0  0  0
 19 47  1  0  0  0  0
 20 48  1  0  0  0  0
 20 49  1  0  0  0  0
 21 50  1  0  0  0  0
 21 51  1  0  0  0  0
 22 52  1  0  0  0  0
 28 53  1  0  0  0  0
 29 54  1  0  0  0  0
M  END
> <clash_score>
1.2356441633489261

> <docking_score>
-9.922011375427246

> <overlap_score>
0.9333475828170776

$$$$
BENZO_265_1
  -OEChem-08232013493D

 47 50  0     1  0  0  0  0  0999 V2000
   11.4296    4.7207   23.1993 C   0  0  0  0  0  0  0  0  0  0  0  0
   12.4494    3.9228   22.6806 C   0  0  0  0  0  0  0  0  0  0  0  0
   10.2636    4.1317   23.6883 C   0  0  0  0  0  0  0  0  0  0  0  0
   12.3031    2.5360   22.6508 C   0  0  0  0  0  0  0  0  0  0  0  0
   10.1173    2.7449   23.6585 C   0  0  0  0  0  0  0  0  0  0  0  0
    8.3310   -2.7170   25.3430 C   0  0  0  0  0  0  0  0  0  0  0  0
   10.2570   -3.5000   24.1350 C   0  0  0  0  0  0  0  0  0  0  0  0
    8.3510   -1.5420   24.6110 C   0  0  0  0  0  0  0  0  0  0  0  0
   10.2760   -2.3270   23.4020 C   0  0  0  0  0  0  0  0  0  0  0  0
    9.2850   -3.7090   25.1090 C   0  0  0  0  0  0  0  0  0  0  0  0
   11.1370    1.9470   23.1397 C   0  0  0  0  0  0  0  0  0  0  0  0
    9.3300   -1.3350   23.6390 C   0  0  0  0  0  0  0  0  0  0  0  0
    6.1600    0.3870   20.1140 C   0  0  0  0  0  0  0  0  0  0  0  0
    7.2210   -0.4620   20.0350 C   0  0  0  0  0  0  0  0  0  0  0  0
    5.3360    0.8000   21.1530 C   0  0  0  0  0  0  0  0  0  0  0  0
    4.2970    1.6690   20.8430 C   0  0  0  0  0  0  0  0  0  0  0  0
    4.0980    2.1130   19.5350 C   0  0  0  0  0  0  0  0  0  0  0  0
    4.9400    1.7060   18.5060 C   0  0  0  0  0  0  0  0  0  0  0  0
    8.9510    0.1280   21.6880 C   0  0  0  0  0  0  0  0  0  0  0  0
    9.2618   -4.9724   25.8910 C   0  0  0  0  0  0  0  0  0  0  0  0
   10.9777    0.4443   23.1075 C   0  0  0  0  0  0  0  0  0  0  0  0
    9.4200   -0.0840   22.9530 C   0  0  1  0  0  0  0  0  0  0  0  0
    7.6830   -0.5170   18.7600 N   0  0  0  0  0  0  0  0  0  0  0  0
    6.9440    0.2550   18.0100 N   0  0  0  0  0  0  0  0  0  0  0  0
    5.9810    0.8330   18.8060 N   0  0  0  0  0  0  0  0  0  0  0  0
    8.0810   -0.9750   21.0820 N   0  0  0  0  0  0  0  0  0  0  0  0
    9.1870    1.1500   21.0630 O   0  0  0  0  0  0  0  0  0  0  0  0
   11.5443    5.8005   23.2237 H   0  0  0  0  0  0  0  0  0  0  0  0
   13.3579    4.3812   22.3008 H   0  0  0  0  0  0  0  0  0  0  0  0
    9.4699    4.7525   24.0932 H   0  0  0  0  0  0  0  0  0  0  0  0
   13.1028    1.9222   22.2446 H   0  0  0  0  0  0  0  0  0  0  0  0
    9.2052    2.2948   24.0415 H   0  0  0  0  0  0  0  0  0  0  0  0
    7.5655   -2.8644   26.1055 H   0  0  0  0  0  0  0  0  0  0  0  0
   11.0125   -4.2662   23.9435 H   0  0  0  0  0  0  0  0  0  0  0  0
    7.5953   -0.7782   24.7971 H   0  0  0  0  0  0  0  0  0  0  0  0
   11.0394   -2.1837   22.6349 H   0  0  0  0  0  0  0  0  0  0  0  0
    5.4735    0.4758   22.1644 H   0  0  0  0  0  0  0  0  0  0  0  0
    3.6415    1.9967   21.6408 H   0  0  0  0  0  0  0  0  0  0  0  0
    3.2720    2.7926   19.2921 H   0  0  0  0  0  0  0  0  0  0  0  0
    4.8119    2.0418   17.5005 H   0  0  0  0  0  0  0  0  0  0  0  0
    8.6408   -5.7227   25.3864 H   0  0  0  0  0  0  0  0  0  0  0  0
   10.2726   -5.3829   26.0135 H   0  0  0  0  0  0  0  0  0  0  0  0
    8.8606   -4.8102   26.9000 H   0  0  0  0  0  0  0  0  0  0  0  0
   11.5363    0.0387   22.2539 H   0  0  0  0  0  0  0  0  0  0  0  0
   11.4704    0.0336   23.9998 H   0  0  0  0  0  0  0  0  0  0  0  0
    8.9182    0.7194   23.6789 H   0  0  0  0  0  0  0  0  0  0  0  0
    8.1159   -1.8115   21.3524 H   0  0  0  0  0  0  0  0  0  0  0  0
  1  2  1  0  0  0  0
  1  3  2  0  0  0  0
  2  4  2  0  0  0  0
  3  5  1  0  0  0  0
  4 11  1  0  0  0  0
  5 11  2  0  0  0  0
  6  8  2  0  0  0  0
  6 10  1  0  0  0  0
  7  9  1  0  0  0  0
  7 10  2  0  0  0  0
  8 12  1  0  0  0  0
  9 12  2  0  0  0  0
 10 20  1  0  0  0  0
 11 21  1  0  0  0  0
 12 22  1  0  0  0  0
 13 14  2  0  0  0  0
 13 15  1  0  0  0  0
 13 25  1  0  0  0  0
 14 23  1  0  0  0  0
 14 26  1  0  0  0  0
 15 16  2  0  0  0  0
 16 17  1  0  0  0  0
 17 18  2  0  0  0  0
 18 25  1  0  0  0  0
 19 22  1  0  0  0  0
 19 26  1  0  0  0  0
 19 27  2  0  0  0  0
 21 22  1  1  0  0  0
 23 24  2  0  0  0  0
 24 25  1  0  0  0  0
  1 28  1  0  0  0  0
  2 29  1  0  0  0  0
  3 30  1  0  0  0  0
  4 31  1  0  0  0  0
  5 32  1  0  0  0  0
  6 33  1  0  0  0  0
  7 34  1  0  0  0  0
  8 35  1  0  0  0  0
  9 36  1  0  0  0  0
 15 37  1  0  0  0  0
 16 38  1  0  0  0  0
 17 39  1  0  0  0  0
 18 40  1  0  0  0  0
 20 41  1  0  0  0  0
 20 42  1  0  0  0  0
 20 43  1  0  0  0  0
 21 44  1  0  0  0  0
 21 45  1  0  0  0  0
 22 46  1  0  0  0  0
 26 47  1  0  0  0  0
M  END
> <clash_score>
0

> <docking_score>
-11.536786079406738

> <overlap_score>
0.9015265107154846

$$$$
BENZO_265_2
  -OEChem-08232013493D

 47 50  0     1  0  0  0  0  0999 V2000
   10.6367    4.9868   23.6018 C   0  0  0  0  0  0  0  0  0  0  0  0
    9.3228    4.8557   24.0511 C   0  0  0  0  0  0  0  0  0  0  0  0
   11.3798    3.8515   23.2784 C   0  0  0  0  0  0  0  0  0  0  0  0
    8.7519    3.5893   24.1772 C   0  0  0  0  0  0  0  0  0  0  0  0
   10.8090    2.5851   23.4045 C   0  0  0  0  0  0  0  0  0  0  0  0
    8.3310   -2.7170   25.3430 C   0  0  0  0  0  0  0  0  0  0  0  0
   10.2570   -3.5000   24.1350 C   0  0  0  0  0  0  0  0  0  0  0  0
    8.3510   -1.5420   24.6110 C   0  0  0  0  0  0  0  0  0  0  0  0
   10.2760   -2.3270   23.4020 C   0  0  0  0  0  0  0  0  0  0  0  0
    9.2850   -3.7090   25.1090 C   0  0  0  0  0  0  0  0  0  0  0  0
    9.4950    2.4539   23.8539 C   0  0  0  0  0  0  0  0  0  0  0  0
    9.3300   -1.3350   23.6390 C   0  0  0  0  0  0  0  0  0  0  0  0
    6.1600    0.3870   20.1140 C   0  0  0  0  0  0  0  0  0  0  0  0
    7.2210   -0.4620   20.0350 C   0  0  0  0  0  0  0  0  0  0  0  0
    5.3360    0.8000   21.1530 C   0  0  0  0  0  0  0  0  0  0  0  0
    4.2970    1.6690   20.8430 C   0  0  0  0  0  0  0  0  0  0  0  0
    4.0980    2.1130   19.5350 C   0  0  0  0  0  0  0  0  0  0  0  0
    4.9400    1.7060   18.5060 C   0  0  0  0  0  0  0  0  0  0  0  0
    8.9510    0.1280   21.6880 C   0  0  0  0  0  0  0  0  0  0  0  0
    9.2618   -4.9724   25.8910 C   0  0  0  0  0  0  0  0  0  0  0  0
    8.8771    1.0813   23.9905 C   0  0  0  0  0  0  0  0  0  0  0  0
    9.4200   -0.0840   22.9530 C   0  0  2  0  0  0  0  0  0  0  0  0
    7.6830   -0.5170   18.7600 N   0  0  0  0  0  0  0  0  0  0  0  0
    6.9440    0.2550   18.0100 N   0  0  0  0  0  0  0  0  0  0  0  0
    5.9810    0.8330   18.8060 N   0  0  0  0  0  0  0  0  0  0  0  0
    8.0810   -0.9750   21.0820 N   0  0  0  0  0  0  0  0  0  0  0  0
    9.1870    1.1500   21.0630 O   0  0  0  0  0  0  0  0  0  0  0  0
   11.0806    5.9731   23.5024 H   0  0  0  0  0  0  0  0  0  0  0  0
    8.7437    5.7397   24.3019 H   0  0  0  0  0  0  0  0  0  0  0  0
   12.4025    3.9533   22.9274 H   0  0  0  0  0  0  0  0  0  0  0  0
    7.7275    3.4967   24.5283 H   0  0  0  0  0  0  0  0  0  0  0  0
   11.3955    1.7061   23.1503 H   0  0  0  0  0  0  0  0  0  0  0  0
    7.5655   -2.8644   26.1055 H   0  0  0  0  0  0  0  0  0  0  0  0
   11.0125   -4.2662   23.9435 H   0  0  0  0  0  0  0  0  0  0  0  0
    7.5953   -0.7782   24.7971 H   0  0  0  0  0  0  0  0  0  0  0  0
   11.0394   -2.1837   22.6349 H   0  0  0  0  0  0  0  0  0  0  0  0
    5.4735    0.4758   22.1644 H   0  0  0  0  0  0  0  0  0  0  0  0
    3.6415    1.9967   21.6408 H   0  0  0  0  0  0  0  0  0  0  0  0
    3.2720    2.7926   19.2921 H   0  0  0  0  0  0  0  0  0  0  0  0
    4.8119    2.0418   17.5005 H   0  0  0  0  0  0  0  0  0  0  0  0
    8.6408   -5.7227   25.3864 H   0  0  0  0  0  0  0  0  0  0  0  0
   10.2726   -5.3829   26.0135 H   0  0  0  0  0  0  0  0  0  0  0  0
    8.8606   -4.8102   26.9000 H   0  0  0  0  0  0  0  0  0  0  0  0
    8.9708    0.7434   25.0308 H   0  0  0  0  0  0  0  0  0  0  0  0
    7.7972    1.1781   23.8117 H   0  0  0  0  0  0  0  0  0  0  0  0
   10.5743    0.2174   22.9808 H   0  0  0  0  0  0  0  0  0  0  0  0
    8.1159   -1.8115   21.3524 H   0  0  0  0  0  0  0  0  0  0  0  0
  1  2  1  0  0  0  0
  1  3  2  0  0  0  0
  2  4  2  0  0  0  0
  3  5  1  0  0  0  0
  4 11  1  0  0  0  0
  5 11  2  0  0  0  0
  6  8  2  0  0  0  0
  6 10  1  0  0  0  0
  7  9  1  0  0  0  0
  7 10  2  0  0  0  0
  8 12  1  0  0  0  0
  9 12  2  0  0  0  0
 10 20  1  0  0  0  0
 11 21  1  0  0  0  0
 12 22  1  0  0  0  0
 13 14  2  0  0  0  0
 13 15  1  0  0  0  0
 13 25  1  0  0  0  0
 14 23  1  0  0  0  0
 14 26  1  0  0  0  0
 15 16  2  0  0  0  0
 16 17  1  0  0  0  0
 17 18  2  0  0  0  0
 18 25  1  0  0  0  0
 19 22  1  0  0  0  0
 19 26  1  0  0  0  0
 19 27  2  0  0  0  0
 21 22  1  6  0  0  0
 23 24  2  0  0  0  0
 24 25  1  0  0  0  0
  1 28  1  0  0  0  0
  2 29  1  0  0  0  0
  3 30  1  0  0  0  0
  4 31  1  0  0  0  0
  5 32  1  0  0  0  0
  6 33  1  0  0  0  0
  7 34  1  0  0  0  0
  8 35  1  0  0  0  0
  9 36  1  0  0  0  0
 15 37  1  0  0  0  0
 16 38  1  0  0  0  0
 17 39  1  0  0  0  0
 18 40  1  0  0  0  0
 20 41  1  0  0  0  0
 20 42  1  0  0  0  0
 20 43  1  0  0  0  0
 21 44  1  0  0  0  0
 21 45  1  0  0  0  0
 22 46  1  0  0  0  0
 26 47  1  0  0  0  0
M  END
> <clash_score>
0

> <docking_score>
-10.422155380249023

> <overlap_score>
0.8297224044799805

$$$$
BENZO_264_1
  -OEChem-08232013493D

 44 47  0     1  0  0  0  0  0999 V2000
    8.3310   -2.7170   25.3430 C   0  0  0  0  0  0  0  0  0  0  0  0
   10.2570   -3.5000   24.1350 C   0  0  0  0  0  0  0  0  0  0  0  0
    8.3510   -1.5420   24.6110 C   0  0  0  0  0  0  0  0  0  0  0  0
   10.2760   -2.3270   23.4020 C   0  0  0  0  0  0  0  0  0  0  0  0
   11.9019    2.6854   22.1912 C   0  0  0  0  0  0  0  0  0  0  0  0
   11.8820    4.0381   22.4508 C   0  0  0  0  0  0  0  0  0  0  0  0
   10.5617    2.7635   24.0885 C   0  0  0  0  0  0  0  0  0  0  0  0
    9.2850   -3.7090   25.1090 C   0  0  0  0  0  0  0  0  0  0  0  0
    9.3300   -1.3350   23.6390 C   0  0  0  0  0  0  0  0  0  0  0  0
   11.1370    1.9470   23.1397 C   0  0  0  0  0  0  0  0  0  0  0  0
    6.1600    0.3870   20.1140 C   0  0  0  0  0  0  0  0  0  0  0  0
    7.2210   -0.4620   20.0350 C   0  0  0  0  0  0  0  0  0  0  0  0
    5.3360    0.8000   21.1530 C   0  0  0  0  0  0  0  0  0  0  0  0
    4.2970    1.6690   20.8430 C   0  0  0  0  0  0  0  0  0  0  0  0
    4.0980    2.1130   19.5350 C   0  0  0  0  0  0  0  0  0  0  0  0
    4.9400    1.7060   18.5060 C   0  0  0  0  0  0  0  0  0  0  0  0
    8.9510    0.1280   21.6880 C   0  0  0  0  0  0  0  0  0  0  0  0
    9.2618   -4.9724   25.8910 C   0  0  0  0  0  0  0  0  0  0  0  0
   10.9777    0.4443   23.1075 C   0  0  0  0  0  0  0  0  0  0  0  0
    9.4200   -0.0840   22.9530 C   0  0  1  0  0  0  0  0  0  0  0  0
    7.6830   -0.5170   18.7600 N   0  0  0  0  0  0  0  0  0  0  0  0
    6.9440    0.2550   18.0100 N   0  0  0  0  0  0  0  0  0  0  0  0
    5.9810    0.8330   18.8060 N   0  0  0  0  0  0  0  0  0  0  0  0
    8.0810   -0.9750   21.0820 N   0  0  0  0  0  0  0  0  0  0  0  0
    9.1870    1.1500   21.0630 O   0  0  0  0  0  0  0  0  0  0  0  0
   10.9440    4.4131   23.8335 S   0  0  0  0  0  0  0  0  0  0  0  0
    7.5655   -2.8644   26.1055 H   0  0  0  0  0  0  0  0  0  0  0  0
   11.0125   -4.2662   23.9435 H   0  0  0  0  0  0  0  0  0  0  0  0
    7.5953   -0.7782   24.7971 H   0  0  0  0  0  0  0  0  0  0  0  0
   11.0394   -2.1837   22.6349 H   0  0  0  0  0  0  0  0  0  0  0  0
   12.4414    2.2505   21.3593 H   0  0  0  0  0  0  0  0  0  0  0  0
   12.3738    4.8240   21.8953 H   0  0  0  0  0  0  0  0  0  0  0  0
    9.9357    2.4743   24.9213 H   0  0  0  0  0  0  0  0  0  0  0  0
    5.4735    0.4758   22.1644 H   0  0  0  0  0  0  0  0  0  0  0  0
    3.6415    1.9967   21.6408 H   0  0  0  0  0  0  0  0  0  0  0  0
    3.2720    2.7926   19.2921 H   0  0  0  0  0  0  0  0  0  0  0  0
    4.8119    2.0418   17.5005 H   0  0  0  0  0  0  0  0  0  0  0  0
    8.6408   -5.7227   25.3864 H   0  0  0  0  0  0  0  0  0  0  0  0
   10.2726   -5.3829   26.0135 H   0  0  0  0  0  0  0  0  0  0  0  0
    8.8606   -4.8102   26.9000 H   0  0  0  0  0  0  0  0  0  0  0  0
   11.5363    0.0387   22.2539 H   0  0  0  0  0  0  0  0  0  0  0  0
   11.4704    0.0336   23.9998 H   0  0  0  0  0  0  0  0  0  0  0  0
    8.9182    0.7194   23.6789 H   0  0  0  0  0  0  0  0  0  0  0  0
    8.1159   -1.8115   21.3524 H   0  0  0  0  0  0  0  0  0  0  0  0
  1  3  2  0  0  0  0
  1  8  1  0  0  0  0
  2  4  1  0  0  0  0
  2  8  2  0  0  0  0
  3  9  1  0  0  0  0
  4  9  2  0  0  0  0
  5  6  2  0  0  0  0
  5 10  1  0  0  0  0
  6 26  1  0  0  0  0
  7 10  2  0  0  0  0
  7 26  1  0  0  0  0
  8 18  1  0  0  0  0
  9 20  1  0  0  0  0
 10 19  1  0  0  0  0
 11 12  2  0  0  0  0
 11 13  1  0  0  0  0
 11 23  1  0  0  0  0
 12 21  1  0  0  0  0
 12 24  1  0  0  0  0
 13 14  2  0  0  0  0
 14 15  1  0  0  0  0
 15 16  2  0  0  0  0
 16 23  1  0  0  0  0
 17 20  1  0  0  0  0
 17 24  1  0  0  0  0
 17 25  2  0  0  0  0
 19 20  1  1  0  0  0
 21 22  2  0  0  0  0
 22 23  1  0  0  0  0
  1 27  1  0  0  0  0
  2 28  1  0  0  0  0
  3 29  1  0  0  0  0
  4 30  1  0  0  0  0
  5 31  1  0  0  0  0
  6 32  1  0  0  0  0
  7 33  1  0  0  0  0
 13 34  1  0  0  0  0
 14 35  1  0  0  0  0
 15 36  1  0  0  0  0
 16 37  1  0  0  0  0
 18 38  1  0  0  0  0
 18 39  1  0  0  0  0
 18 40  1  0  0  0  0
 19 41  1  0  0  0  0
 19 42  1  0  0  0  0
 20 43  1  0  0  0  0
 24 44  1  0  0  0  0
M  END
> <clash_score>
0

> <docking_score>
-10.077970504760742

> <overlap_score>
0.890483558177948

$$$$
BENZO_264_2
  -OEChem-08232013493D

 44 47  0     1  0  0  0  0  0999 V2000
    8.3310   -2.7170   25.3430 C   0  0  0  0  0  0  0  0  0  0  0  0
   10.2570   -3.5000   24.1350 C   0  0  0  0  0  0  0  0  0  0  0  0
    8.3510   -1.5420   24.6110 C   0  0  0  0  0  0  0  0  0  0  0  0
   10.2760   -2.3270   23.4020 C   0  0  0  0  0  0  0  0  0  0  0  0
   10.8633    2.6804   23.5273 C   0  0  0  0  0  0  0  0  0  0  0  0
   11.1655    4.0230   23.4669 C   0  0  0  0  0  0  0  0  0  0  0  0
    8.8035    3.6322   24.0309 C   0  0  0  0  0  0  0  0  0  0  0  0
    9.2850   -3.7090   25.1090 C   0  0  0  0  0  0  0  0  0  0  0  0
    9.3300   -1.3350   23.6390 C   0  0  0  0  0  0  0  0  0  0  0  0
    9.4950    2.4539   23.8539 C   0  0  0  0  0  0  0  0  0  0  0  0
    6.1600    0.3870   20.1140 C   0  0  0  0  0  0  0  0  0  0  0  0
    7.2210   -0.4620   20.0350 C   0  0  0  0  0  0  0  0  0  0  0  0
    5.3360    0.8000   21.1530 C   0  0  0  0  0  0  0  0  0  0  0  0
    4.2970    1.6690   20.8430 C   0  0  0  0  0  0  0  0  0  0  0  0
    4.0980    2.1130   19.5350 C   0  0  0  0  0  0  0  0  0  0  0  0
    4.9400    1.7060   18.5060 C   0  0  0  0  0  0  0  0  0  0  0  0
    8.9510    0.1280   21.6880 C   0  0  0  0  0  0  0  0  0  0  0  0
    9.2618   -4.9724   25.8910 C   0  0  0  0  0  0  0  0  0  0  0  0
    8.8771    1.0813   23.9905 C   0  0  0  0  0  0  0  0  0  0  0  0
    9.4200   -0.0840   22.9530 C   0  0  2  0  0  0  0  0  0  0  0  0
    7.6830   -0.5170   18.7600 N   0  0  0  0  0  0  0  0  0  0  0  0
    6.9440    0.2550   18.0100 N   0  0  0  0  0  0  0  0  0  0  0  0
    5.9810    0.8330   18.8060 N   0  0  0  0  0  0  0  0  0  0  0  0
    8.0810   -0.9750   21.0820 N   0  0  0  0  0  0  0  0  0  0  0  0
    9.1870    1.1500   21.0630 O   0  0  0  0  0  0  0  0  0  0  0  0
    9.8028    5.0040   23.8033 S   0  0  0  0  0  0  0  0  0  0  0  0
    7.5655   -2.8644   26.1055 H   0  0  0  0  0  0  0  0  0  0  0  0
   11.0125   -4.2662   23.9435 H   0  0  0  0  0  0  0  0  0  0  0  0
    7.5953   -0.7782   24.7971 H   0  0  0  0  0  0  0  0  0  0  0  0
   11.0394   -2.1837   22.6349 H   0  0  0  0  0  0  0  0  0  0  0  0
   11.5925    1.9010   23.3455 H   0  0  0  0  0  0  0  0  0  0  0  0
   12.1213    4.4748   23.2422 H   0  0  0  0  0  0  0  0  0  0  0  0
    7.7599    3.7576   24.2842 H   0  0  0  0  0  0  0  0  0  0  0  0
    5.4735    0.4758   22.1644 H   0  0  0  0  0  0  0  0  0  0  0  0
    3.6415    1.9967   21.6408 H   0  0  0  0  0  0  0  0  0  0  0  0
    3.2720    2.7926   19.2921 H   0  0  0  0  0  0  0  0  0  0  0  0
    4.8119    2.0418   17.5005 H   0  0  0  0  0  0  0  0  0  0  0  0
    8.6408   -5.7227   25.3864 H   0  0  0  0  0  0  0  0  0  0  0  0
   10.2726   -5.3829   26.0135 H   0  0  0  0  0  0  0  0  0  0  0  0
    8.8606   -4.8102   26.9000 H   0  0  0  0  0  0  0  0  0  0  0  0
    8.9708    0.7434   25.0308 H   0  0  0  0  0  0  0  0  0  0  0  0
    7.7972    1.1781   23.8117 H   0  0  0  0  0  0  0  0  0  0  0  0
   10.5743    0.2174   22.9808 H   0  0  0  0  0  0  0  0  0  0  0  0
    8.1159   -1.8115   21.3524 H   0  0  0  0  0  0  0  0  0  0  0  0
  1  3  2  0  0  0  0
  1  8  1  0  0  0  0
  2  4  1  0  0  0  0
  2  8  2  0  0  0  0
  3  9  1  0  0  0  0
  4  9  2  0  0  0  0
  5  6  2  0  0  0  0
  5 10  1  0  0  0  0
  6 26  1  0  0  0  0
  7 10  2  0  0  0  0
  7 26  1  0  0  0  0
  8 18  1  0  0  0  0
  9 20  1  0  0  0  0
 10 19  1  0  0  0  0
 11 12  2  0  0  0  0
 11 13  1  0  0  0  0
 11 23  1  0  0  0  0
 12 21  1  0  0  0  0
 12 24  1  0  0  0  0
 13 14  2  0  0  0  0
 14 15  1  0  0  0  0
 15 16  2  0  0  0  0
 16 23  1  0  0  0  0
 17 20  1  0  0  0  0
 17 24  1  0  0  0  0
 17 25  2  0  0  0  0
 19 20  1  6  0  0  0
 21 22  2  0  0  0  0
 22 23  1  0  0  0  0
  1 27  1  0  0  0  0
  2 28  1  0  0  0  0
  3 29  1  0  0  0  0
  4 30  1  0  0  0  0
  5 31  1  0  0  0  0
  6 32  1  0  0  0  0
  7 33  1  0  0  0  0
 13 34  1  0  0  0  0
 14 35  1  0  0  0  0
 15 36  1  0  0  0  0
 16 37  1  0  0  0  0
 18 38  1  0  0  0  0
 18 39  1  0  0  0  0
 18 40  1  0  0  0  0
 19 41  1  0  0  0  0
 19 42  1  0  0  0  0
 20 43  1  0  0  0  0
 24 44  1  0  0  0  0
M  END
> <clash_score>
0

> <docking_score>
-10.145515441894531

> <overlap_score>
0.8268725275993347

$$$$
BENZO_263_1
  -OEChem-08232013493D

 59 63  0     1  0  0  0  0  0999 V2000
    8.3510   -1.5420   24.6110 C   0  0  0  0  0  0  0  0  0  0  0  0
   10.2760   -2.3270   23.4020 C   0  0  0  0  0  0  0  0  0  0  0  0
    8.3310   -2.7170   25.3430 C   0  0  0  0  0  0  0  0  0  0  0  0
   10.2570   -3.5000   24.1350 C   0  0  0  0  0  0  0  0  0  0  0  0
   10.2246    2.9150   23.5993 C   0  0  0  0  0  0  0  0  0  0  0  0
   12.2096    2.6918   22.6802 C   0  0  0  0  0  0  0  0  0  0  0  0
    9.3300   -1.3350   23.6390 C   0  0  0  0  0  0  0  0  0  0  0  0
   11.1377    1.9556   23.1223 C   0  0  0  0  0  0  0  0  0  0  0  0
    9.2850   -3.7090   25.1090 C   0  0  0  0  0  0  0  0  0  0  0  0
    6.1600    0.3870   20.1140 C   0  0  0  0  0  0  0  0  0  0  0  0
    7.2210   -0.4620   20.0350 C   0  0  0  0  0  0  0  0  0  0  0  0
    5.3360    0.8000   21.1530 C   0  0  0  0  0  0  0  0  0  0  0  0
    4.2970    1.6690   20.8430 C   0  0  0  0  0  0  0  0  0  0  0  0
    4.0980    2.1130   19.5350 C   0  0  0  0  0  0  0  0  0  0  0  0
    4.9400    1.7060   18.5060 C   0  0  0  0  0  0  0  0  0  0  0  0
    8.9510    0.1280   21.6880 C   0  0  0  0  0  0  0  0  0  0  0  0
    7.3211   -6.8875   26.5227 C   0  0  0  0  0  0  0  0  0  0  0  0
    7.3523   -5.5278   27.2244 C   0  0  0  0  0  0  0  0  0  0  0  0
    7.9422   -6.8107   25.1261 C   0  0  0  0  0  0  0  0  0  0  0  0
    8.7641   -4.9418   27.2163 C   0  0  0  0  0  0  0  0  0  0  0  0
    9.3411   -6.1879   25.1670 C   0  0  0  0  0  0  0  0  0  0  0  0
   12.7040    5.1473   22.6110 C   0  0  0  0  0  0  0  0  0  0  0  0
   10.9782    0.4528   23.1025 C   0  0  0  0  0  0  0  0  0  0  0  0
    9.4200   -0.0840   22.9530 C   0  0  1  0  0  0  0  0  0  0  0  0
   10.6770    4.1653   23.4725 N   0  0  0  0  0  0  0  0  0  0  0  0
    7.6830   -0.5170   18.7600 N   0  0  0  0  0  0  0  0  0  0  0  0
    6.9440    0.2550   18.0100 N   0  0  0  0  0  0  0  0  0  0  0  0
   11.8861    3.9966   22.9107 N   0  0  0  0  0  0  0  0  0  0  0  0
    5.9810    0.8330   18.8060 N   0  0  0  0  0  0  0  0  0  0  0  0
    9.2641   -4.8861   25.8398 N   0  0  0  0  0  0  0  0  0  0  0  0
    8.0810   -0.9750   21.0820 N   0  0  0  0  0  0  0  0  0  0  0  0
    9.1870    1.1500   21.0630 O   0  0  0  0  0  0  0  0  0  0  0  0
    7.5957   -0.7779   24.7973 H   0  0  0  0  0  0  0  0  0  0  0  0
   11.0384   -2.1852   22.6338 H   0  0  0  0  0  0  0  0  0  0  0  0
    7.5634   -2.8637   26.1037 H   0  0  0  0  0  0  0  0  0  0  0  0
   11.0139   -4.2645   23.9419 H   0  0  0  0  0  0  0  0  0  0  0  0
    9.2482    2.7576   24.0354 H   0  0  0  0  0  0  0  0  0  0  0  0
   13.1522    2.4055   22.2336 H   0  0  0  0  0  0  0  0  0  0  0  0
    5.4735    0.4758   22.1644 H   0  0  0  0  0  0  0  0  0  0  0  0
    3.6415    1.9967   21.6408 H   0  0  0  0  0  0  0  0  0  0  0  0
    3.2720    2.7926   19.2921 H   0  0  0  0  0  0  0  0  0  0  0  0
    4.8119    2.0418   17.5005 H   0  0  0  0  0  0  0  0  0  0  0  0
    7.8644   -7.6283   27.1289 H   0  0  0  0  0  0  0  0  0  0  0  0
    6.2830   -7.2423   26.4478 H   0  0  0  0  0  0  0  0  0  0  0  0
    6.6663   -4.8405   26.7221 H   0  0  0  0  0  0  0  0  0  0  0  0
    7.0062   -5.6400   28.2540 H   0  0  0  0  0  0  0  0  0  0  0  0
    8.0018   -7.8160   24.6962 H   0  0  0  0  0  0  0  0  0  0  0  0
    7.2963   -6.2182   24.4678 H   0  0  0  0  0  0  0  0  0  0  0  0
    8.7322   -3.9404   27.6532 H   0  0  0  0  0  0  0  0  0  0  0  0
    9.4260   -5.5610   27.8283 H   0  0  0  0  0  0  0  0  0  0  0  0
   10.0249   -6.8474   25.7028 H   0  0  0  0  0  0  0  0  0  0  0  0
    9.7015   -6.0700   24.1446 H   0  0  0  0  0  0  0  0  0  0  0  0
   12.4645    5.4764   21.5964 H   0  0  0  0  0  0  0  0  0  0  0  0
   12.4916    5.9426   23.3309 H   0  0  0  0  0  0  0  0  0  0  0  0
   13.7592    4.8699   22.6849 H   0  0  0  0  0  0  0  0  0  0  0  0
   11.5374    0.0399   22.2527 H   0  0  0  0  0  0  0  0  0  0  0  0
   11.4700    0.0494   23.9985 H   0  0  0  0  0  0  0  0  0  0  0  0
    8.9187    0.7273   23.6745 H   0  0  0  0  0  0  0  0  0  0  0  0
    8.1354   -1.7990   21.3694 H   0  0  0  0  0  0  0  0  0  0  0  0
  1  3  2  0  0  0  0
  1  7  1  0  0  0  0
  2  4  1  0  0  0  0
  2  7  2  0  0  0  0
  3  9  1  0  0  0  0
  4  9  2  0  0  0  0
  5  8  1  0  0  0  0
  5 25  2  0  0  0  0
  6  8  2  0  0  0  0
  6 28  1  0  0  0  0
  7 24  1  0  0  0  0
  8 23  1  0  0  0  0
  9 30  1  0  0  0  0
 10 11  2  0  0  0  0
 10 12  1  0  0  0  0
 10 29  1  0  0  0  0
 11 26  1  0  0  0  0
 11 31  1  0  0  0  0
 12 13  2  0  0  0  0
 13 14  1  0  0  0  0
 14 15  2  0  0  0  0
 15 29  1  0  0  0  0
 16 24  1  0  0  0  0
 16 31  1  0  0  0  0
 16 32  2  0  0  0  0
 17 18  1  0  0  0  0
 17 19  1  0  0  0  0
 18 20  1  0  0  0  0
 19 21  1  0  0  0  0
 20 30  1  0  0  0  0
 21 30  1  0  0  0  0
 22 28  1  0  0  0  0
 23 24  1  1  0  0  0
 25 28  1  0  0  0  0
 26 27  2  0  0  0  0
 27 29  1  0  0  0  0
  1 33  1  0  0  0  0
  2 34  1  0  0  0  0
  3 35  1  0  0  0  0
  4 36  1  0  0  0  0
  5 37  1  0  0  0  0
  6 38  1  0  0  0  0
 12 39  1  0  0  0  0
 13 40  1  0  0  0  0
 14 41  1  0  0  0  0
 15 42  1  0  0  0  0
 17 43  1  0  0  0  0
 17 44  1  0  0  0  0
 18 45  1  0  0  0  0
 18 46  1  0  0  0  0
 19 47  1  0  0  0  0
 19 48  1  0  0  0  0
 20 49  1  0  0  0  0
 20 50  1  0  0  0  0
 21 51  1  0  0  0  0
 21 52  1  0  0  0  0
 22 53  1  0  0  0  0
 22 54  1  0  0  0  0
 22 55  1  0  0  0  0
 23 56  1  0  0  0  0
 23 57  1  0  0  0  0
 24 58  1  0  0  0  0
 31 59  1  0  0  0  0
M  END
> <clash_score>
0

> <docking_score>
-10.484235763549805

> <overlap_score>
0.9401388168334961

$$$$
BENZO_262_2
  -OEChem-08232013493D

 59 63  0     1  0  0  0  0  0999 V2000
   10.2658    4.1447   23.6556 C   0  0  0  0  0  0  0  0  0  0  0  0
   10.1187    2.7578   23.6359 C   0  0  0  0  0  0  0  0  0  0  0  0
    8.3510   -1.5420   24.6110 C   0  0  0  0  0  0  0  0  0  0  0  0
   10.2760   -2.3270   23.4020 C   0  0  0  0  0  0  0  0  0  0  0  0
    8.3310   -2.7170   25.3430 C   0  0  0  0  0  0  0  0  0  0  0  0
   10.2570   -3.5000   24.1350 C   0  0  0  0  0  0  0  0  0  0  0  0
   11.4317    4.7295   23.1614 C   0  0  0  0  0  0  0  0  0  0  0  0
   12.3037    2.5404   22.6281 C   0  0  0  0  0  0  0  0  0  0  0  0
    9.3300   -1.3350   23.6390 C   0  0  0  0  0  0  0  0  0  0  0  0
   11.1377    1.9556   23.1223 C   0  0  0  0  0  0  0  0  0  0  0  0
    9.2850   -3.7090   25.1090 C   0  0  0  0  0  0  0  0  0  0  0  0
   12.4507    3.9274   22.6477 C   0  0  0  0  0  0  0  0  0  0  0  0
    6.1600    0.3870   20.1140 C   0  0  0  0  0  0  0  0  0  0  0  0
    7.2210   -0.4620   20.0350 C   0  0  0  0  0  0  0  0  0  0  0  0
    5.3360    0.8000   21.1530 C   0  0  0  0  0  0  0  0  0  0  0  0
    4.2970    1.6690   20.8430 C   0  0  0  0  0  0  0  0  0  0  0  0
    4.0980    2.1130   19.5350 C   0  0  0  0  0  0  0  0  0  0  0  0
    4.9400    1.7060   18.5060 C   0  0  0  0  0  0  0  0  0  0  0  0
    8.9510    0.1280   21.6880 C   0  0  0  0  0  0  0  0  0  0  0  0
    7.3211   -6.8875   26.5227 C   0  0  0  0  0  0  0  0  0  0  0  0
    7.3523   -5.5278   27.2244 C   0  0  0  0  0  0  0  0  0  0  0  0
    7.9422   -6.8107   25.1261 C   0  0  0  0  0  0  0  0  0  0  0  0
    8.7641   -4.9418   27.2163 C   0  0  0  0  0  0  0  0  0  0  0  0
    9.3411   -6.1879   25.1670 C   0  0  0  0  0  0  0  0  0  0  0  0
   10.9782    0.4528   23.1025 C   0  0  0  0  0  0  0  0  0  0  0  0
    9.4200   -0.0840   22.9530 C   0  0  2  0  0  0  0  0  0  0  0  0
    7.6830   -0.5170   18.7600 N   0  0  0  0  0  0  0  0  0  0  0  0
    6.9440    0.2550   18.0100 N   0  0  0  0  0  0  0  0  0  0  0  0
    5.9810    0.8330   18.8060 N   0  0  0  0  0  0  0  0  0  0  0  0
    9.2641   -4.8861   25.8398 N   0  0  0  0  0  0  0  0  0  0  0  0
    8.0810   -0.9750   21.0820 N   0  0  0  0  0  0  0  0  0  0  0  0
    9.1870    1.1500   21.0630 O   0  0  0  0  0  0  0  0  0  0  0  0
   13.8895    4.6494   22.0392 Cl  0  0  0  0  0  0  0  0  0  0  0  0
    9.4721    4.7690   24.0558 H   0  0  0  0  0  0  0  0  0  0  0  0
    9.2068    2.3107   24.0232 H   0  0  0  0  0  0  0  0  0  0  0  0
    7.5957   -0.7779   24.7973 H   0  0  0  0  0  0  0  0  0  0  0  0
   11.0384   -2.1852   22.6338 H   0  0  0  0  0  0  0  0  0  0  0  0
    7.5634   -2.8637   26.1037 H   0  0  0  0  0  0  0  0  0  0  0  0
   11.0139   -4.2645   23.9419 H   0  0  0  0  0  0  0  0  0  0  0  0
   11.5327    5.8118   23.1833 H   0  0  0  0  0  0  0  0  0  0  0  0
   13.0951    1.9106   22.2282 H   0  0  0  0  0  0  0  0  0  0  0  0
    5.4735    0.4758   22.1644 H   0  0  0  0  0  0  0  0  0  0  0  0
    3.6415    1.9967   21.6408 H   0  0  0  0  0  0  0  0  0  0  0  0
    3.2720    2.7926   19.2921 H   0  0  0  0  0  0  0  0  0  0  0  0
    4.8119    2.0418   17.5005 H   0  0  0  0  0  0  0  0  0  0  0  0
    7.8644   -7.6283   27.1289 H   0  0  0  0  0  0  0  0  0  0  0  0
    6.2830   -7.2423   26.4478 H   0  0  0  0  0  0  0  0  0  0  0  0
    6.6663   -4.8405   26.7221 H   0  0  0  0  0  0  0  0  0  0  0  0
    7.0062   -5.6400   28.2540 H   0  0  0  0  0  0  0  0  0  0  0  0
    8.0018   -7.8160   24.6962 H   0  0  0  0  0  0  0  0  0  0  0  0
    7.2963   -6.2182   24.4678 H   0  0  0  0  0  0  0  0  0  0  0  0
    8.7322   -3.9404   27.6532 H   0  0  0  0  0  0  0  0  0  0  0  0
    9.4260   -5.5610   27.8283 H   0  0  0  0  0  0  0  0  0  0  0  0
   10.0249   -6.8474   25.7028 H   0  0  0  0  0  0  0  0  0  0  0  0
    9.7015   -6.0700   24.1446 H   0  0  0  0  0  0  0  0  0  0  0  0
   11.5374    0.0399   22.2527 H   0  0  0  0  0  0  0  0  0  0  0  0
   11.4700    0.0494   23.9985 H   0  0  0  0  0  0  0  0  0  0  0  0
    8.9187    0.7273   23.6745 H   0  0  0  0  0  0  0  0  0  0  0  0
    8.1354   -1.7990   21.3694 H   0  0  0  0  0  0  0  0  0  0  0  0
  1  2  2  0  0  0  0
  1  7  1  0  0  0  0
  2 10  1  0  0  0  0
  3  5  2  0  0  0  0
  3  9  1  0  0  0  0
  4  6  1  0  0  0  0
  4  9  2  0  0  0  0
  5 11  1  0  0  0  0
  6 11  2  0  0  0  0
  7 12  2  0  0  0  0
  8 10  2  0  0  0  0
  8 12  1  0  0  0  0
  9 26  1  0  0  0  0
 10 25  1  0  0  0  0
 11 30  1  0  0  0  0
 12 33  1  0  0  0  0
 13 14  2  0  0  0  0
 13 15  1  0  0  0  0
 13 29  1  0  0  0  0
 14 27  1  0  0  0  0
 14 31  1  0  0  0  0
 15 16  2  0  0  0  0
 16 17  1  0  0  0  0
 17 18  2  0  0  0  0
 18 29  1  0  0  0  0
 19 26  1  6  0  0  0
 19 31  1  0  0  0  0
 19 32  2  0  0  0  0
 20 21  1  0  0  0  0
 20 22  1  0  0  0  0
 21 23  1  0  0  0  0
 22 24  1  0  0  0  0
 23 30  1  0  0  0  0
 24 30  1  0  0  0  0
 25 26  1  0  0  0  0
 27 28  2  0  0  0  0
 28 29  1  0  0  0  0
  1 34  1  0  0  0  0
  2 35  1  0  0  0  0
  3 36  1  0  0  0  0
  4 37  1  0  0  0  0
  5 38  1  0  0  0  0
  6 39  1  0  0  0  0
  7 40  1  0  0  0  0
  8 41  1  0  0  0  0
 15 42  1  0  0  0  0
 16 43  1  0  0  0  0
 17 44  1  0  0  0  0
 18 45  1  0  0  0  0
 20 46  1  0  0  0  0
 20 47  1  0  0  0  0
 21 48  1  0  0  0  0
 21 49  1  0  0  0  0
 22 50  1  0  0  0  0
 22 51  1  0  0  0  0
 23 52  1  0  0  0  0
 23 53  1  0  0  0  0
 24 54  1  0  0  0  0
 24 55  1  0  0  0  0
 25 56  1  0  0  0  0
 25 57  1  0  0  0  0
 26 58  1  0  0  0  0
 31 59  1  0  0  0  0
M  END
> <clash_score>
0

> <docking_score>
-10.95733642578125

> <overlap_score>
0.9461336731910706

$$$$
BENZO_263_2
  -OEChem-08232013493D

 59 63  0     1  0  0  0  0  0999 V2000
    8.3510   -1.5420   24.6110 C   0  0  0  0  0  0  0  0  0  0  0  0
   10.2760   -2.3270   23.4020 C   0  0  0  0  0  0  0  0  0  0  0  0
    8.3310   -2.7170   25.3430 C   0  0  0  0  0  0  0  0  0  0  0  0
   10.2570   -3.5000   24.1350 C   0  0  0  0  0  0  0  0  0  0  0  0
   10.7785    2.7977   23.3980 C   0  0  0  0  0  0  0  0  0  0  0  0
    8.8916    3.6777   24.1053 C   0  0  0  0  0  0  0  0  0  0  0  0
    9.3300   -1.3350   23.6390 C   0  0  0  0  0  0  0  0  0  0  0  0
    9.4829    2.4671   23.8384 C   0  0  0  0  0  0  0  0  0  0  0  0
    9.2850   -3.7090   25.1090 C   0  0  0  0  0  0  0  0  0  0  0  0
    6.1600    0.3870   20.1140 C   0  0  0  0  0  0  0  0  0  0  0  0
    7.2210   -0.4620   20.0350 C   0  0  0  0  0  0  0  0  0  0  0  0
    5.3360    0.8000   21.1530 C   0  0  0  0  0  0  0  0  0  0  0  0
    4.2970    1.6690   20.8430 C   0  0  0  0  0  0  0  0  0  0  0  0
    4.0980    2.1130   19.5350 C   0  0  0  0  0  0  0  0  0  0  0  0
    4.9400    1.7060   18.5060 C   0  0  0  0  0  0  0  0  0  0  0  0
    8.9510    0.1280   21.6880 C   0  0  0  0  0  0  0  0  0  0  0  0
    7.3211   -6.8875   26.5227 C   0  0  0  0  0  0  0  0  0  0  0  0
    7.3523   -5.5278   27.2244 C   0  0  0  0  0  0  0  0  0  0  0  0
    7.9422   -6.8107   25.1261 C   0  0  0  0  0  0  0  0  0  0  0  0
    8.7641   -4.9418   27.2163 C   0  0  0  0  0  0  0  0  0  0  0  0
    9.3411   -6.1879   25.1670 C   0  0  0  0  0  0  0  0  0  0  0  0
    9.6750    6.0523   23.9437 C   0  0  0  0  0  0  0  0  0  0  0  0
    8.8757    1.0906   23.9831 C   0  0  0  0  0  0  0  0  0  0  0  0
    9.4200   -0.0840   22.9530 C   0  0  2  0  0  0  0  0  0  0  0  0
   10.9979    4.1151   23.3843 N   0  0  0  0  0  0  0  0  0  0  0  0
    7.6830   -0.5170   18.7600 N   0  0  0  0  0  0  0  0  0  0  0  0
    6.9440    0.2550   18.0100 N   0  0  0  0  0  0  0  0  0  0  0  0
    9.8322    4.6230   23.8194 N   0  0  0  0  0  0  0  0  0  0  0  0
    5.9810    0.8330   18.8060 N   0  0  0  0  0  0  0  0  0  0  0  0
    9.2641   -4.8861   25.8398 N   0  0  0  0  0  0  0  0  0  0  0  0
    8.0810   -0.9750   21.0820 N   0  0  0  0  0  0  0  0  0  0  0  0
    9.1870    1.1500   21.0630 O   0  0  0  0  0  0  0  0  0  0  0  0
    7.5957   -0.7779   24.7973 H   0  0  0  0  0  0  0  0  0  0  0  0
   11.0384   -2.1852   22.6338 H   0  0  0  0  0  0  0  0  0  0  0  0
    7.5634   -2.8637   26.1037 H   0  0  0  0  0  0  0  0  0  0  0  0
   11.0139   -4.2645   23.9419 H   0  0  0  0  0  0  0  0  0  0  0  0
   11.5733    2.1354   23.0851 H   0  0  0  0  0  0  0  0  0  0  0  0
    7.9057    3.9405   24.4642 H   0  0  0  0  0  0  0  0  0  0  0  0
    5.4735    0.4758   22.1644 H   0  0  0  0  0  0  0  0  0  0  0  0
    3.6415    1.9967   21.6408 H   0  0  0  0  0  0  0  0  0  0  0  0
    3.2720    2.7926   19.2920 H   0  0  0  0  0  0  0  0  0  0  0  0
    4.8119    2.0418   17.5005 H   0  0  0  0  0  0  0  0  0  0  0  0
    7.8644   -7.6283   27.1289 H   0  0  0  0  0  0  0  0  0  0  0  0
    6.2830   -7.2423   26.4478 H   0  0  0  0  0  0  0  0  0  0  0  0
    6.6663   -4.8405   26.7221 H   0  0  0  0  0  0  0  0  0  0  0  0
    7.0062   -5.6400   28.2540 H   0  0  0  0  0  0  0  0  0  0  0  0
    8.0018   -7.8160   24.6962 H   0  0  0  0  0  0  0  0  0  0  0  0
    7.2963   -6.2182   24.4678 H   0  0  0  0  0  0  0  0  0  0  0  0
    8.7322   -3.9404   27.6532 H   0  0  0  0  0  0  0  0  0  0  0  0
    9.4260   -5.5610   27.8283 H   0  0  0  0  0  0  0  0  0  0  0  0
   10.0249   -6.8474   25.7028 H   0  0  0  0  0  0  0  0  0  0  0  0
    9.7015   -6.0700   24.1446 H   0  0  0  0  0  0  0  0  0  0  0  0
    9.9836    6.3391   24.9525 H   0  0  0  0  0  0  0  0  0  0  0  0
   10.2970    6.5534   23.1967 H   0  0  0  0  0  0  0  0  0  0  0  0
    8.6277    6.3169   23.7734 H   0  0  0  0  0  0  0  0  0  0  0  0
    8.9639    0.7632   25.0273 H   0  0  0  0  0  0  0  0  0  0  0  0
    7.7964    1.1765   23.7949 H   0  0  0  0  0  0  0  0  0  0  0  0
   10.5749    0.2253   22.9765 H   0  0  0  0  0  0  0  0  0  0  0  0
    8.1354   -1.7990   21.3694 H   0  0  0  0  0  0  0  0  0  0  0  0
  1  3  2  0  0  0  0
  1  7  1  0  0  0  0
  2  4  1  0  0  0  0
  2  7  2  0  0  0  0
  3  9  1  0  0  0  0
  4  9  2  0  0  0  0
  5  8  1  0  0  0  0
  5 25  2  0  0  0  0
  6  8  2  0  0  0  0
  6 28  1  0  0  0  0
  7 24  1  0  0  0  0
  8 23  1  0  0  0  0
  9 30  1  0  0  0  0
 10 11  2  0  0  0  0
 10 12  1  0  0  0  0
 10 29  1  0  0  0  0
 11 26  1  0  0  0  0
 11 31  1  0  0  0  0
 12 13  2  0  0  0  0
 13 14  1  0  0  0  0
 14 15  2  0  0  0  0
 15 29  1  0  0  0  0
 16 24  1  0  0  0  0
 16 31  1  0  0  0  0
 16 32  2  0  0  0  0
 17 18  1  0  0  0  0
 17 19  1  0  0  0  0
 18 20  1  0  0  0  0
 19 21  1  0  0  0  0
 20 30  1  0  0  0  0
 21 30  1  0  0  0  0
 22 28  1  0  0  0  0
 23 24  1  6  0  0  0
 25 28  1  0  0  0  0
 26 27  2  0  0  0  0
 27 29  1  0  0  0  0
  1 33  1  0  0  0  0
  2 34  1  0  0  0  0
  3 35  1  0  0  0  0
  4 36  1  0  0  0  0
  5 37  1  0  0  0  0
  6 38  1  0  0  0  0
 12 39  1  0  0  0  0
 13 40  1  0  0  0  0
 14 41  1  0  0  0  0
 15 42  1  0  0  0  0
 17 43  1  0  0  0  0
 17 44  1  0  0  0  0
 18 45  1  0  0  0  0
 18 46  1  0  0  0  0
 19 47  1  0  0  0  0
 19 48  1  0  0  0  0
 20 49  1  0  0  0  0
 20 50  1  0  0  0  0
 21 51  1  0  0  0  0
 21 52  1  0  0  0  0
 22 53  1  0  0  0  0
 22 54  1  0  0  0  0
 22 55  1  0  0  0  0
 23 56  1  0  0  0  0
 23 57  1  0  0  0  0
 24 58  1  0  0  0  0
 31 59  1  0  0  0  0
M  END
> <clash_score>
0

> <docking_score>
-9.279419898986816

> <overlap_score>
0.8668239712715149

$$$$
BENZO_262_1
  -OEChem-08232013493D

 59 63  0     1  0  0  0  0  0999 V2000
    9.2913    4.8680   24.0265 C   0  0  0  0  0  0  0  0  0  0  0  0
    8.7312    3.5975   24.1588 C   0  0  0  0  0  0  0  0  0  0  0  0
    8.3510   -1.5420   24.6110 C   0  0  0  0  0  0  0  0  0  0  0  0
   10.2760   -2.3270   23.4020 C   0  0  0  0  0  0  0  0  0  0  0  0
    8.3310   -2.7170   25.3430 C   0  0  0  0  0  0  0  0  0  0  0  0
   10.2570   -3.5000   24.1350 C   0  0  0  0  0  0  0  0  0  0  0  0
   10.6033    5.0082   23.5739 C   0  0  0  0  0  0  0  0  0  0  0  0
   10.7949    2.6072   23.3858 C   0  0  0  0  0  0  0  0  0  0  0  0
    9.3300   -1.3350   23.6390 C   0  0  0  0  0  0  0  0  0  0  0  0
    9.4829    2.4671   23.8384 C   0  0  0  0  0  0  0  0  0  0  0  0
    9.2850   -3.7090   25.1090 C   0  0  0  0  0  0  0  0  0  0  0  0
   11.3551    3.8778   23.2536 C   0  0  0  0  0  0  0  0  0  0  0  0
    6.1600    0.3870   20.1140 C   0  0  0  0  0  0  0  0  0  0  0  0
    7.2210   -0.4620   20.0350 C   0  0  0  0  0  0  0  0  0  0  0  0
    5.3360    0.8000   21.1530 C   0  0  0  0  0  0  0  0  0  0  0  0
    4.2970    1.6690   20.8430 C   0  0  0  0  0  0  0  0  0  0  0  0
    4.0980    2.1130   19.5350 C   0  0  0  0  0  0  0  0  0  0  0  0
    4.9400    1.7060   18.5060 C   0  0  0  0  0  0  0  0  0  0  0  0
    8.9510    0.1280   21.6880 C   0  0  0  0  0  0  0  0  0  0  0  0
    7.3211   -6.8875   26.5227 C   0  0  0  0  0  0  0  0  0  0  0  0
    7.3523   -5.5278   27.2244 C   0  0  0  0  0  0  0  0  0  0  0  0
    7.9422   -6.8107   25.1261 C   0  0  0  0  0  0  0  0  0  0  0  0
    8.7641   -4.9418   27.2163 C   0  0  0  0  0  0  0  0  0  0  0  0
    9.3411   -6.1879   25.1670 C   0  0  0  0  0  0  0  0  0  0  0  0
    8.8757    1.0906   23.9831 C   0  0  0  0  0  0  0  0  0  0  0  0
    9.4200   -0.0840   22.9530 C   0  0  1  0  0  0  0  0  0  0  0  0
    7.6830   -0.5170   18.7600 N   0  0  0  0  0  0  0  0  0  0  0  0
    6.9440    0.2550   18.0100 N   0  0  0  0  0  0  0  0  0  0  0  0
    5.9810    0.8330   18.8060 N   0  0  0  0  0  0  0  0  0  0  0  0
    9.2641   -4.8861   25.8398 N   0  0  0  0  0  0  0  0  0  0  0  0
    8.0810   -0.9750   21.0820 N   0  0  0  0  0  0  0  0  0  0  0  0
    9.1870    1.1500   21.0630 O   0  0  0  0  0  0  0  0  0  0  0  0
   12.9740    4.0513   22.6963 Cl  0  0  0  0  0  0  0  0  0  0  0  0
    8.7056    5.7481   24.2762 H   0  0  0  0  0  0  0  0  0  0  0  0
    7.7082    3.4977   24.5123 H   0  0  0  0  0  0  0  0  0  0  0  0
    7.5957   -0.7779   24.7973 H   0  0  0  0  0  0  0  0  0  0  0  0
   11.0384   -2.1852   22.6338 H   0  0  0  0  0  0  0  0  0  0  0  0
    7.5634   -2.8637   26.1037 H   0  0  0  0  0  0  0  0  0  0  0  0
   11.0139   -4.2645   23.9419 H   0  0  0  0  0  0  0  0  0  0  0  0
   11.0270    6.0047   23.4760 H   0  0  0  0  0  0  0  0  0  0  0  0
   11.3767    1.7227   23.1369 H   0  0  0  0  0  0  0  0  0  0  0  0
    5.4735    0.4758   22.1644 H   0  0  0  0  0  0  0  0  0  0  0  0
    3.6415    1.9967   21.6408 H   0  0  0  0  0  0  0  0  0  0  0  0
    3.2720    2.7926   19.2920 H   0  0  0  0  0  0  0  0  0  0  0  0
    4.8119    2.0418   17.5005 H   0  0  0  0  0  0  0  0  0  0  0  0
    7.8644   -7.6283   27.1289 H   0  0  0  0  0  0  0  0  0  0  0  0
    6.2830   -7.2423   26.4478 H   0  0  0  0  0  0  0  0  0  0  0  0
    6.6663   -4.8405   26.7221 H   0  0  0  0  0  0  0  0  0  0  0  0
    7.0062   -5.6400   28.2540 H   0  0  0  0  0  0  0  0  0  0  0  0
    8.0018   -7.8160   24.6962 H   0  0  0  0  0  0  0  0  0  0  0  0
    7.2963   -6.2182   24.4678 H   0  0  0  0  0  0  0  0  0  0  0  0
    8.7322   -3.9404   27.6532 H   0  0  0  0  0  0  0  0  0  0  0  0
    9.4260   -5.5610   27.8283 H   0  0  0  0  0  0  0  0  0  0  0  0
   10.0249   -6.8474   25.7028 H   0  0  0  0  0  0  0  0  0  0  0  0
    9.7015   -6.0700   24.1446 H   0  0  0  0  0  0  0  0  0  0  0  0
    8.9639    0.7632   25.0273 H   0  0  0  0  0  0  0  0  0  0  0  0
    7.7964    1.1765   23.7949 H   0  0  0  0  0  0  0  0  0  0  0  0
   10.5749    0.2253   22.9765 H   0  0  0  0  0  0  0  0  0  0  0  0
    8.1354   -1.7990   21.3694 H   0  0  0  0  0  0  0  0  0  0  0  0
  1  2  2  0  0  0  0
  1  7  1  0  0  0  0
  2 10  1  0  0  0  0
  3  5  2  0  0  0  0
  3  9  1  0  0  0  0
  4  6  1  0  0  0  0
  4  9  2  0  0  0  0
  5 11  1  0  0  0  0
  6 11  2  0  0  0  0
  7 12  2  0  0  0  0
  8 10  2  0  0  0  0
  8 12  1  0  0  0  0
  9 26  1  0  0  0  0
 10 25  1  0  0  0  0
 11 30  1  0  0  0  0
 12 33  1  0  0  0  0
 13 14  2  0  0  0  0
 13 15  1  0  0  0  0
 13 29  1  0  0  0  0
 14 27  1  0  0  0  0
 14 31  1  0  0  0  0
 15 16  2  0  0  0  0
 16 17  1  0  0  0  0
 17 18  2  0  0  0  0
 18 29  1  0  0  0  0
 19 26  1  1  0  0  0
 19 31  1  0  0  0  0
 19 32  2  0  0  0  0
 20 21  1  0  0  0  0
 20 22  1  0  0  0  0
 21 23  1  0  0  0  0
 22 24  1  0  0  0  0
 23 30  1  0  0  0  0
 24 30  1  0  0  0  0
 25 26  1  0  0  0  0
 27 28  2  0  0  0  0
 28 29  1  0  0  0  0
  1 34  1  0  0  0  0
  2 35  1  0  0  0  0
  3 36  1  0  0  0  0
  4 37  1  0  0  0  0
  5 38  1  0  0  0  0
  6 39  1  0  0  0  0
  7 40  1  0  0  0  0
  8 41  1  0  0  0  0
 15 42  1  0  0  0  0
 16 43  1  0  0  0  0
 17 44  1  0  0  0  0
 18 45  1  0  0  0  0
 20 46  1  0  0  0  0
 20 47  1  0  0  0  0
 21 48  1  0  0  0  0
 21 49  1  0  0  0  0
 22 50  1  0  0  0  0
 22 51  1  0  0  0  0
 23 52  1  0  0  0  0
 23 53  1  0  0  0  0
 24 54  1  0  0  0  0
 24 55  1  0  0  0  0
 25 56  1  0  0  0  0
 25 57  1  0  0  0  0
 26 58  1  0  0  0  0
 31 59  1  0  0  0  0
M  END
> <clash_score>
0

> <docking_score>
-9.975851058959961

> <overlap_score>
0.8812171220779419

$$$$
BENZO_267_1
  -OEChem-08232013493D

 47 50  0     1  0  0  0  0  0999 V2000
    8.3310   -2.7170   25.3430 C   0  0  0  0  0  0  0  0  0  0  0  0
   10.2570   -3.5000   24.1350 C   0  0  0  0  0  0  0  0  0  0  0  0
    8.3510   -1.5420   24.6110 C   0  0  0  0  0  0  0  0  0  0  0  0
   10.2760   -2.3270   23.4020 C   0  0  0  0  0  0  0  0  0  0  0  0
   10.2235    2.9023   23.6242 C   0  0  0  0  0  0  0  0  0  0  0  0
   12.2091    2.6870   22.7043 C   0  0  0  0  0  0  0  0  0  0  0  0
    9.2850   -3.7090   25.1090 C   0  0  0  0  0  0  0  0  0  0  0  0
    9.3300   -1.3350   23.6390 C   0  0  0  0  0  0  0  0  0  0  0  0
   11.1370    1.9470   23.1397 C   0  0  0  0  0  0  0  0  0  0  0  0
    6.1600    0.3870   20.1140 C   0  0  0  0  0  0  0  0  0  0  0  0
    7.2210   -0.4620   20.0350 C   0  0  0  0  0  0  0  0  0  0  0  0
    5.3360    0.8000   21.1530 C   0  0  0  0  0  0  0  0  0  0  0  0
    4.2970    1.6690   20.8430 C   0  0  0  0  0  0  0  0  0  0  0  0
    4.0980    2.1130   19.5350 C   0  0  0  0  0  0  0  0  0  0  0  0
    4.9400    1.7060   18.5060 C   0  0  0  0  0  0  0  0  0  0  0  0
    8.9510    0.1280   21.6880 C   0  0  0  0  0  0  0  0  0  0  0  0
    9.2618   -4.9724   25.8910 C   0  0  0  0  0  0  0  0  0  0  0  0
   12.7031    5.1430   22.6555 C   0  0  0  0  0  0  0  0  0  0  0  0
   10.9777    0.4443   23.1075 C   0  0  0  0  0  0  0  0  0  0  0  0
    9.4200   -0.0840   22.9530 C   0  0  1  0  0  0  0  0  0  0  0  0
   10.6758    4.1536   23.5079 N   0  0  0  0  0  0  0  0  0  0  0  0
    7.6830   -0.5170   18.7600 N   0  0  0  0  0  0  0  0  0  0  0  0
    6.9440    0.2550   18.0100 N   0  0  0  0  0  0  0  0  0  0  0  0
   11.8853    3.9898   22.9453 N   0  0  0  0  0  0  0  0  0  0  0  0
    5.9810    0.8330   18.8060 N   0  0  0  0  0  0  0  0  0  0  0  0
    8.0810   -0.9750   21.0820 N   0  0  0  0  0  0  0  0  0  0  0  0
    9.1870    1.1500   21.0630 O   0  0  0  0  0  0  0  0  0  0  0  0
    7.5655   -2.8644   26.1055 H   0  0  0  0  0  0  0  0  0  0  0  0
   11.0125   -4.2662   23.9435 H   0  0  0  0  0  0  0  0  0  0  0  0
    7.5953   -0.7782   24.7971 H   0  0  0  0  0  0  0  0  0  0  0  0
   11.0394   -2.1837   22.6349 H   0  0  0  0  0  0  0  0  0  0  0  0
    9.2470    2.7411   24.0585 H   0  0  0  0  0  0  0  0  0  0  0  0
   13.1519    2.4044   22.2558 H   0  0  0  0  0  0  0  0  0  0  0  0
    5.4735    0.4758   22.1644 H   0  0  0  0  0  0  0  0  0  0  0  0
    3.6415    1.9967   21.6408 H   0  0  0  0  0  0  0  0  0  0  0  0
    3.2720    2.7926   19.2921 H   0  0  0  0  0  0  0  0  0  0  0  0
    4.8119    2.0418   17.5005 H   0  0  0  0  0  0  0  0  0  0  0  0
    8.6408   -5.7227   25.3864 H   0  0  0  0  0  0  0  0  0  0  0  0
   10.2726   -5.3829   26.0135 H   0  0  0  0  0  0  0  0  0  0  0  0
    8.8606   -4.8102   26.9000 H   0  0  0  0  0  0  0  0  0  0  0  0
   12.4640    5.4803   21.6435 H   0  0  0  0  0  0  0  0  0  0  0  0
   12.4902    5.9323   23.3818 H   0  0  0  0  0  0  0  0  0  0  0  0
   13.7583    4.8651   22.7277 H   0  0  0  0  0  0  0  0  0  0  0  0
   11.5363    0.0387   22.2539 H   0  0  0  0  0  0  0  0  0  0  0  0
   11.4704    0.0336   23.9998 H   0  0  0  0  0  0  0  0  0  0  0  0
    8.9182    0.7194   23.6789 H   0  0  0  0  0  0  0  0  0  0  0  0
    8.1159   -1.8115   21.3524 H   0  0  0  0  0  0  0  0  0  0  0  0
  1  3  2  0  0  0  0
  1  7  1  0  0  0  0
  2  4  1  0  0  0  0
  2  7  2  0  0  0  0
  3  8  1  0  0  0  0
  4  8  2  0  0  0  0
  5  9  1  0  0  0  0
  5 21  2  0  0  0  0
  6  9  2  0  0  0  0
  6 24  1  0  0  0  0
  7 17  1  0  0  0  0
  8 20  1  0  0  0  0
  9 19  1  0  0  0  0
 10 11  2  0  0  0  0
 10 12  1  0  0  0  0
 10 25  1  0  0  0  0
 11 22  1  0  0  0  0
 11 26  1  0  0  0  0
 12 13  2  0  0  0  0
 13 14  1  0  0  0  0
 14 15  2  0  0  0  0
 15 25  1  0  0  0  0
 16 20  1  0  0  0  0
 16 26  1  0  0  0  0
 16 27  2  0  0  0  0
 18 24  1  0  0  0  0
 19 20  1  1  0  0  0
 21 24  1  0  0  0  0
 22 23  2  0  0  0  0
 23 25  1  0  0  0  0
  1 28  1  0  0  0  0
  2 29  1  0  0  0  0
  3 30  1  0  0  0  0
  4 31  1  0  0  0  0
  5 32  1  0  0  0  0
  6 33  1  0  0  0  0
 12 34  1  0  0  0  0
 13 35  1  0  0  0  0
 14 36  1  0  0  0  0
 15 37  1  0  0  0  0
 17 38  1  0  0  0  0
 17 39  1  0  0  0  0
 17 40  1  0  0  0  0
 18 41  1  0  0  0  0
 18 42  1  0  0  0  0
 18 43  1  0  0  0  0
 19 44  1  0  0  0  0
 19 45  1  0  0  0  0
 20 46  1  0  0  0  0
 26 47  1  0  0  0  0
M  END
> <clash_score>
0

> <docking_score>
-11.493264198303223

> <overlap_score>
0.8960135579109192

$$$$
BENZO_266_1
  -OEChem-08232013493D

 47 50  0     1  0  0  0  0  0999 V2000
   10.2645    4.1315   23.6906 C   0  0  0  0  0  0  0  0  0  0  0  0
   10.1177    2.7447   23.6595 C   0  0  0  0  0  0  0  0  0  0  0  0
    8.3310   -2.7170   25.3430 C   0  0  0  0  0  0  0  0  0  0  0  0
   10.2570   -3.5000   24.1350 C   0  0  0  0  0  0  0  0  0  0  0  0
    8.3510   -1.5420   24.6110 C   0  0  0  0  0  0  0  0  0  0  0  0
   10.2760   -2.3270   23.4020 C   0  0  0  0  0  0  0  0  0  0  0  0
   11.4306    4.7205   23.2018 C   0  0  0  0  0  0  0  0  0  0  0  0
   12.3032    2.5360   22.6510 C   0  0  0  0  0  0  0  0  0  0  0  0
    9.2850   -3.7090   25.1090 C   0  0  0  0  0  0  0  0  0  0  0  0
    9.3300   -1.3350   23.6390 C   0  0  0  0  0  0  0  0  0  0  0  0
   11.1370    1.9470   23.1397 C   0  0  0  0  0  0  0  0  0  0  0  0
   12.4500    3.9228   22.6821 C   0  0  0  0  0  0  0  0  0  0  0  0
    6.1600    0.3870   20.1140 C   0  0  0  0  0  0  0  0  0  0  0  0
    7.2210   -0.4620   20.0350 C   0  0  0  0  0  0  0  0  0  0  0  0
    5.3360    0.8000   21.1530 C   0  0  0  0  0  0  0  0  0  0  0  0
    4.2970    1.6690   20.8430 C   0  0  0  0  0  0  0  0  0  0  0  0
    4.0980    2.1130   19.5350 C   0  0  0  0  0  0  0  0  0  0  0  0
    4.9400    1.7060   18.5060 C   0  0  0  0  0  0  0  0  0  0  0  0
    8.9510    0.1280   21.6880 C   0  0  0  0  0  0  0  0  0  0  0  0
    9.2618   -4.9724   25.8910 C   0  0  0  0  0  0  0  0  0  0  0  0
   10.9777    0.4443   23.1075 C   0  0  0  0  0  0  0  0  0  0  0  0
    9.4200   -0.0840   22.9530 C   0  0  1  0  0  0  0  0  0  0  0  0
    7.6830   -0.5170   18.7600 N   0  0  0  0  0  0  0  0  0  0  0  0
    6.9440    0.2550   18.0100 N   0  0  0  0  0  0  0  0  0  0  0  0
    5.9810    0.8330   18.8060 N   0  0  0  0  0  0  0  0  0  0  0  0
    8.0810   -0.9750   21.0820 N   0  0  0  0  0  0  0  0  0  0  0  0
    9.1870    1.1500   21.0630 O   0  0  0  0  0  0  0  0  0  0  0  0
   13.8890    4.6500   22.0802 Cl  0  0  0  0  0  0  0  0  0  0  0  0
    9.4706    4.7523   24.0955 H   0  0  0  0  0  0  0  0  0  0  0  0
    9.2057    2.2944   24.0426 H   0  0  0  0  0  0  0  0  0  0  0  0
    7.5655   -2.8644   26.1055 H   0  0  0  0  0  0  0  0  0  0  0  0
   11.0125   -4.2662   23.9435 H   0  0  0  0  0  0  0  0  0  0  0  0
    7.5953   -0.7782   24.7971 H   0  0  0  0  0  0  0  0  0  0  0  0
   11.0394   -2.1837   22.6349 H   0  0  0  0  0  0  0  0  0  0  0  0
   11.5314    5.8026   23.2326 H   0  0  0  0  0  0  0  0  0  0  0  0
   13.0949    1.9096   22.2463 H   0  0  0  0  0  0  0  0  0  0  0  0
    5.4735    0.4758   22.1644 H   0  0  0  0  0  0  0  0  0  0  0  0
    3.6415    1.9967   21.6408 H   0  0  0  0  0  0  0  0  0  0  0  0
    3.2720    2.7926   19.2921 H   0  0  0  0  0  0  0  0  0  0  0  0
    4.8119    2.0418   17.5005 H   0  0  0  0  0  0  0  0  0  0  0  0
    8.6408   -5.7227   25.3864 H   0  0  0  0  0  0  0  0  0  0  0  0
   10.2726   -5.3829   26.0135 H   0  0  0  0  0  0  0  0  0  0  0  0
    8.8606   -4.8102   26.9000 H   0  0  0  0  0  0  0  0  0  0  0  0
   11.5363    0.0387   22.2539 H   0  0  0  0  0  0  0  0  0  0  0  0
   11.4704    0.0336   23.9998 H   0  0  0  0  0  0  0  0  0  0  0  0
    8.9182    0.7194   23.6789 H   0  0  0  0  0  0  0  0  0  0  0  0
    8.1159   -1.8115   21.3524 H   0  0  0  0  0  0  0  0  0  0  0  0
  1  2  2  0  0  0  0
  1  7  1  0  0  0  0
  2 11  1  0  0  0  0
  3  5  2  0  0  0  0
  3  9  1  0  0  0  0
  4  6  1  0  0  0  0
  4  9  2  0  0  0  0
  5 10  1  0  0  0  0
  6 10  2  0  0  0  0
  7 12  2  0  0  0  0
  8 11  2  0  0  0  0
  8 12  1  0  0  0  0
  9 20  1  0  0  0  0
 10 22  1  0  0  0  0
 11 21  1  0  0  0  0
 12 28  1  0  0  0  0
 13 14  2  0  0  0  0
 13 15  1  0  0  0  0
 13 25  1  0  0  0  0
 14 23  1  0  0  0  0
 14 26  1  0  0  0  0
 15 16  2  0  0  0  0
 16 17  1  0  0  0  0
 17 18  2  0  0  0  0
 18 25  1  0  0  0  0
 19 22  1  0  0  0  0
 19 26  1  0  0  0  0
 19 27  2  0  0  0  0
 21 22  1  1  0  0  0
 23 24  2  0  0  0  0
 24 25  1  0  0  0  0
  1 29  1  0  0  0  0
  2 30  1  0  0  0  0
  3 31  1  0  0  0  0
  4 32  1  0  0  0  0
  5 33  1  0  0  0  0
  6 34  1  0  0  0  0
  7 35  1  0  0  0  0
  8 36  1  0  0  0  0
 15 37  1  0  0  0  0
 16 38  1  0  0  0  0
 17 39  1  0  0  0  0
 18 40  1  0  0  0  0
 20 41  1  0  0  0  0
 20 42  1  0  0  0  0
 20 43  1  0  0  0  0
 21 44  1  0  0  0  0
 21 45  1  0  0  0  0
 22 46  1  0  0  0  0
 26 47  1  0  0  0  0
M  END
> <clash_score>
0

> <docking_score>
-11.964584350585938

> <overlap_score>
0.9022155404090881

$$$$
BENZO_266_2
  -OEChem-08232013493D

 47 50  0     1  0  0  0  0  0999 V2000
    9.3211    4.8553   24.0536 C   0  0  0  0  0  0  0  0  0  0  0  0
    8.7511    3.5884   24.1784 C   0  0  0  0  0  0  0  0  0  0  0  0
    8.3310   -2.7170   25.3430 C   0  0  0  0  0  0  0  0  0  0  0  0
   10.2570   -3.5000   24.1350 C   0  0  0  0  0  0  0  0  0  0  0  0
    8.3510   -1.5420   24.6110 C   0  0  0  0  0  0  0  0  0  0  0  0
   10.2760   -2.3270   23.4020 C   0  0  0  0  0  0  0  0  0  0  0  0
   10.6349    4.9878   23.6042 C   0  0  0  0  0  0  0  0  0  0  0  0
   10.8089    2.5864   23.4046 C   0  0  0  0  0  0  0  0  0  0  0  0
    9.2850   -3.7090   25.1090 C   0  0  0  0  0  0  0  0  0  0  0  0
    9.3300   -1.3350   23.6390 C   0  0  0  0  0  0  0  0  0  0  0  0
    9.4950    2.4539   23.8539 C   0  0  0  0  0  0  0  0  0  0  0  0
   11.3788    3.8534   23.2798 C   0  0  0  0  0  0  0  0  0  0  0  0
    6.1600    0.3870   20.1140 C   0  0  0  0  0  0  0  0  0  0  0  0
    7.2210   -0.4620   20.0350 C   0  0  0  0  0  0  0  0  0  0  0  0
    5.3360    0.8000   21.1530 C   0  0  0  0  0  0  0  0  0  0  0  0
    4.2970    1.6690   20.8430 C   0  0  0  0  0  0  0  0  0  0  0  0
    4.0980    2.1130   19.5350 C   0  0  0  0  0  0  0  0  0  0  0  0
    4.9400    1.7060   18.5060 C   0  0  0  0  0  0  0  0  0  0  0  0
    8.9510    0.1280   21.6880 C   0  0  0  0  0  0  0  0  0  0  0  0
    9.2618   -4.9724   25.8910 C   0  0  0  0  0  0  0  0  0  0  0  0
    8.8771    1.0813   23.9905 C   0  0  0  0  0  0  0  0  0  0  0  0
    9.4200   -0.0840   22.9530 C   0  0  2  0  0  0  0  0  0  0  0  0
    7.6830   -0.5170   18.7600 N   0  0  0  0  0  0  0  0  0  0  0  0
    6.9440    0.2550   18.0100 N   0  0  0  0  0  0  0  0  0  0  0  0
    5.9810    0.8330   18.8060 N   0  0  0  0  0  0  0  0  0  0  0  0
    8.0810   -0.9750   21.0820 N   0  0  0  0  0  0  0  0  0  0  0  0
    9.1870    1.1500   21.0630 O   0  0  0  0  0  0  0  0  0  0  0  0
   13.0002    4.0175   22.7265 Cl  0  0  0  0  0  0  0  0  0  0  0  0
    8.7415    5.7384   24.3065 H   0  0  0  0  0  0  0  0  0  0  0  0
    7.7267    3.4945   24.5294 H   0  0  0  0  0  0  0  0  0  0  0  0
    7.5655   -2.8644   26.1055 H   0  0  0  0  0  0  0  0  0  0  0  0
   11.0125   -4.2662   23.9435 H   0  0  0  0  0  0  0  0  0  0  0  0
    7.5953   -0.7782   24.7971 H   0  0  0  0  0  0  0  0  0  0  0  0
   11.0394   -2.1837   22.6349 H   0  0  0  0  0  0  0  0  0  0  0  0
   11.0663    5.9816   23.5122 H   0  0  0  0  0  0  0  0  0  0  0  0
   11.3846    1.6989   23.1523 H   0  0  0  0  0  0  0  0  0  0  0  0
    5.4735    0.4758   22.1644 H   0  0  0  0  0  0  0  0  0  0  0  0
    3.6415    1.9967   21.6408 H   0  0  0  0  0  0  0  0  0  0  0  0
    3.2720    2.7926   19.2921 H   0  0  0  0  0  0  0  0  0  0  0  0
    4.8119    2.0418   17.5005 H   0  0  0  0  0  0  0  0  0  0  0  0
    8.6408   -5.7227   25.3864 H   0  0  0  0  0  0  0  0  0  0  0  0
   10.2726   -5.3829   26.0135 H   0  0  0  0  0  0  0  0  0  0  0  0
    8.8606   -4.8102   26.9000 H   0  0  0  0  0  0  0  0  0  0  0  0
    8.9708    0.7434   25.0308 H   0  0  0  0  0  0  0  0  0  0  0  0
    7.7972    1.1781   23.8117 H   0  0  0  0  0  0  0  0  0  0  0  0
   10.5743    0.2174   22.9808 H   0  0  0  0  0  0  0  0  0  0  0  0
    8.1159   -1.8115   21.3524 H   0  0  0  0  0  0  0  0  0  0  0  0
  1  2  2  0  0  0  0
  1  7  1  0  0  0  0
  2 11  1  0  0  0  0
  3  5  2  0  0  0  0
  3  9  1  0  0  0  0
  4  6  1  0  0  0  0
  4  9  2  0  0  0  0
  5 10  1  0  0  0  0
  6 10  2  0  0  0  0
  7 12  2  0  0  0  0
  8 11  2  0  0  0  0
  8 12  1  0  0  0  0
  9 20  1  0  0  0  0
 10 22  1  0  0  0  0
 11 21  1  0  0  0  0
 12 28  1  0  0  0  0
 13 14  2  0  0  0  0
 13 15  1  0  0  0  0
 13 25  1  0  0  0  0
 14 23  1  0  0  0  0
 14 26  1  0  0  0  0
 15 16  2  0  0  0  0
 16 17  1  0  0  0  0
 17 18  2  0  0  0  0
 18 25  1  0  0  0  0
 19 22  1  0  0  0  0
 19 26  1  0  0  0  0
 19 27  2  0  0  0  0
 21 22  1  6  0  0  0
 23 24  2  0  0  0  0
 24 25  1  0  0  0  0
  1 29  1  0  0  0  0
  2 30  1  0  0  0  0
  3 31  1  0  0  0  0
  4 32  1  0  0  0  0
  5 33  1  0  0  0  0
  6 34  1  0  0  0  0
  7 35  1  0  0  0  0
  8 36  1  0  0  0  0
 15 37  1  0  0  0  0
 16 38  1  0  0  0  0
 17 39  1  0  0  0  0
 18 40  1  0  0  0  0
 20 41  1  0  0  0  0
 20 42  1  0  0  0  0
 20 43  1  0  0  0  0
 21 44  1  0  0  0  0
 21 45  1  0  0  0  0
 22 46  1  0  0  0  0
 26 47  1  0  0  0  0
M  END
> <clash_score>
0

> <docking_score>
-10.956704139709473

> <overlap_score>
0.8375335931777954

$$$$
BENZO_267_2
  -OEChem-08232013493D

 47 50  0     1  0  0  0  0  0999 V2000
    8.3310   -2.7170   25.3430 C   0  0  0  0  0  0  0  0  0  0  0  0
   10.2570   -3.5000   24.1350 C   0  0  0  0  0  0  0  0  0  0  0  0
    8.3510   -1.5420   24.6110 C   0  0  0  0  0  0  0  0  0  0  0  0
   10.2760   -2.3270   23.4020 C   0  0  0  0  0  0  0  0  0  0  0  0
   10.7939    2.7770   23.4177 C   0  0  0  0  0  0  0  0  0  0  0  0
    8.9123    3.6676   24.1257 C   0  0  0  0  0  0  0  0  0  0  0  0
    9.2850   -3.7090   25.1090 C   0  0  0  0  0  0  0  0  0  0  0  0
    9.3300   -1.3350   23.6390 C   0  0  0  0  0  0  0  0  0  0  0  0
    9.4950    2.4539   23.8539 C   0  0  0  0  0  0  0  0  0  0  0  0
    6.1600    0.3870   20.1140 C   0  0  0  0  0  0  0  0  0  0  0  0
    7.2210   -0.4620   20.0350 C   0  0  0  0  0  0  0  0  0  0  0  0
    5.3360    0.8000   21.1530 C   0  0  0  0  0  0  0  0  0  0  0  0
    4.2970    1.6690   20.8430 C   0  0  0  0  0  0  0  0  0  0  0  0
    4.0980    2.1130   19.5350 C   0  0  0  0  0  0  0  0  0  0  0  0
    4.9400    1.7060   18.5060 C   0  0  0  0  0  0  0  0  0  0  0  0
    8.9510    0.1280   21.6880 C   0  0  0  0  0  0  0  0  0  0  0  0
    9.2618   -4.9724   25.8910 C   0  0  0  0  0  0  0  0  0  0  0  0
    9.7138    6.0370   23.9775 C   0  0  0  0  0  0  0  0  0  0  0  0
    8.8771    1.0813   23.9905 C   0  0  0  0  0  0  0  0  0  0  0  0
    9.4200   -0.0840   22.9530 C   0  0  2  0  0  0  0  0  0  0  0  0
   11.0232    4.0928   23.4110 N   0  0  0  0  0  0  0  0  0  0  0  0
    7.6830   -0.5170   18.7600 N   0  0  0  0  0  0  0  0  0  0  0  0
    6.9440    0.2550   18.0100 N   0  0  0  0  0  0  0  0  0  0  0  0
    9.8605    4.6073   23.8463 N   0  0  0  0  0  0  0  0  0  0  0  0
    5.9810    0.8330   18.8060 N   0  0  0  0  0  0  0  0  0  0  0  0
    8.0810   -0.9750   21.0820 N   0  0  0  0  0  0  0  0  0  0  0  0
    9.1870    1.1500   21.0630 O   0  0  0  0  0  0  0  0  0  0  0  0
    7.5655   -2.8644   26.1055 H   0  0  0  0  0  0  0  0  0  0  0  0
   11.0125   -4.2662   23.9435 H   0  0  0  0  0  0  0  0  0  0  0  0
    7.5953   -0.7782   24.7971 H   0  0  0  0  0  0  0  0  0  0  0  0
   11.0394   -2.1837   22.6349 H   0  0  0  0  0  0  0  0  0  0  0  0
   11.5843    2.1103   23.1031 H   0  0  0  0  0  0  0  0  0  0  0  0
    7.9277    3.9360   24.4839 H   0  0  0  0  0  0  0  0  0  0  0  0
    5.4735    0.4758   22.1644 H   0  0  0  0  0  0  0  0  0  0  0  0
    3.6415    1.9967   21.6408 H   0  0  0  0  0  0  0  0  0  0  0  0
    3.2720    2.7926   19.2921 H   0  0  0  0  0  0  0  0  0  0  0  0
    4.8119    2.0418   17.5005 H   0  0  0  0  0  0  0  0  0  0  0  0
    8.6408   -5.7227   25.3864 H   0  0  0  0  0  0  0  0  0  0  0  0
   10.2726   -5.3829   26.0135 H   0  0  0  0  0  0  0  0  0  0  0  0
    8.8606   -4.8102   26.9000 H   0  0  0  0  0  0  0  0  0  0  0  0
   10.0225    6.3165   24.9883 H   0  0  0  0  0  0  0  0  0  0  0  0
   10.3410    6.5371   23.2342 H   0  0  0  0  0  0  0  0  0  0  0  0
    8.6688    6.3103   23.8064 H   0  0  0  0  0  0  0  0  0  0  0  0
    8.9708    0.7434   25.0308 H   0  0  0  0  0  0  0  0  0  0  0  0
    7.7972    1.1781   23.8117 H   0  0  0  0  0  0  0  0  0  0  0  0
   10.5743    0.2174   22.9808 H   0  0  0  0  0  0  0  0  0  0  0  0
    8.1159   -1.8115   21.3524 H   0  0  0  0  0  0  0  0  0  0  0  0
  1  3  2  0  0  0  0
  1  7  1  0  0  0  0
  2  4  1  0  0  0  0
  2  7  2  0  0  0  0
  3  8  1  0  0  0  0
  4  8  2  0  0  0  0
  5  9  1  0  0  0  0
  5 21  2  0  0  0  0
  6  9  2  0  0  0  0
  6 24  1  0  0  0  0
  7 17  1  0  0  0  0
  8 20  1  0  0  0  0
  9 19  1  0  0  0  0
 10 11  2  0  0  0  0
 10 12  1  0  0  0  0
 10 25  1  0  0  0  0
 11 22  1  0  0  0  0
 11 26  1  0  0  0  0
 12 13  2  0  0  0  0
 13 14  1  0  0  0  0
 14 15  2  0  0  0  0
 15 25  1  0  0  0  0
 16 20  1  0  0  0  0
 16 26  1  0  0  0  0
 16 27  2  0  0  0  0
 18 24  1  0  0  0  0
 19 20  1  6  0  0  0
 21 24  1  0  0  0  0
 22 23  2  0  0  0  0
 23 25  1  0  0  0  0
  1 28  1  0  0  0  0
  2 29  1  0  0  0  0
  3 30  1  0  0  0  0
  4 31  1  0  0  0  0
  5 32  1  0  0  0  0
  6 33  1  0  0  0  0
 12 34  1  0  0  0  0
 13 35  1  0  0  0  0
 14 36  1  0  0  0  0
 15 37  1  0  0  0  0
 17 38  1  0  0  0  0
 17 39  1  0  0  0  0
 17 40  1  0  0  0  0
 18 41  1  0  0  0  0
 18 42  1  0  0  0  0
 18 43  1  0  0  0  0
 19 44  1  0  0  0  0
 19 45  1  0  0  0  0
 20 46  1  0  0  0  0
 26 47  1  0  0  0  0
M  END
> <clash_score>
0

> <docking_score>
-10.297578811645508

> <overlap_score>
0.8224518299102783

$$$$
BENZO_269_1
  -OEChem-08232013493D

 48 51  0     1  0  0  0  0  0999 V2000
   11.4296    4.7207   23.1993 C   0  0  0  0  0  0  0  0  0  0  0  0
   12.4494    3.9228   22.6806 C   0  0  0  0  0  0  0  0  0  0  0  0
   10.2636    4.1317   23.6883 C   0  0  0  0  0  0  0  0  0  0  0  0
   12.3031    2.5360   22.6508 C   0  0  0  0  0  0  0  0  0  0  0  0
   10.1173    2.7449   23.6585 C   0  0  0  0  0  0  0  0  0  0  0  0
    8.3510   -1.5420   24.6110 C   0  0  0  0  0  0  0  0  0  0  0  0
   10.2760   -2.3270   23.4020 C   0  0  0  0  0  0  0  0  0  0  0  0
    8.3310   -2.7170   25.3430 C   0  0  0  0  0  0  0  0  0  0  0  0
   10.2570   -3.5000   24.1350 C   0  0  0  0  0  0  0  0  0  0  0  0
   11.1370    1.9470   23.1397 C   0  0  0  0  0  0  0  0  0  0  0  0
    9.3300   -1.3350   23.6390 C   0  0  0  0  0  0  0  0  0  0  0  0
    9.2850   -3.7090   25.1090 C   0  0  0  0  0  0  0  0  0  0  0  0
    6.1600    0.3870   20.1140 C   0  0  0  0  0  0  0  0  0  0  0  0
    7.2210   -0.4620   20.0350 C   0  0  0  0  0  0  0  0  0  0  0  0
    5.3360    0.8000   21.1530 C   0  0  0  0  0  0  0  0  0  0  0  0
    4.2970    1.6690   20.8430 C   0  0  0  0  0  0  0  0  0  0  0  0
    4.0980    2.1130   19.5350 C   0  0  0  0  0  0  0  0  0  0  0  0
    4.9400    1.7060   18.5060 C   0  0  0  0  0  0  0  0  0  0  0  0
    8.9510    0.1280   21.6880 C   0  0  0  0  0  0  0  0  0  0  0  0
    8.2358   -4.9960   26.8042 C   0  0  0  0  0  0  0  0  0  0  0  0
   10.9777    0.4443   23.1075 C   0  0  0  0  0  0  0  0  0  0  0  0
    9.4200   -0.0840   22.9530 C   0  0  1  0  0  0  0  0  0  0  0  0
    7.6830   -0.5170   18.7600 N   0  0  0  0  0  0  0  0  0  0  0  0
    6.9440    0.2550   18.0100 N   0  0  0  0  0  0  0  0  0  0  0  0
    5.9810    0.8330   18.8060 N   0  0  0  0  0  0  0  0  0  0  0  0
    8.0810   -0.9750   21.0820 N   0  0  0  0  0  0  0  0  0  0  0  0
    9.1870    1.1500   21.0630 O   0  0  0  0  0  0  0  0  0  0  0  0
    9.2637   -4.8607   25.8240 O   0  0  0  0  0  0  0  0  0  0  0  0
   11.5443    5.8005   23.2237 H   0  0  0  0  0  0  0  0  0  0  0  0
   13.3579    4.3812   22.3008 H   0  0  0  0  0  0  0  0  0  0  0  0
    9.4699    4.7525   24.0932 H   0  0  0  0  0  0  0  0  0  0  0  0
   13.1028    1.9222   22.2446 H   0  0  0  0  0  0  0  0  0  0  0  0
    9.2052    2.2948   24.0415 H   0  0  0  0  0  0  0  0  0  0  0  0
    7.5962   -0.7776   24.7981 H   0  0  0  0  0  0  0  0  0  0  0  0
   11.0395   -2.1844   22.6346 H   0  0  0  0  0  0  0  0  0  0  0  0
    7.5664   -2.8672   26.1058 H   0  0  0  0  0  0  0  0  0  0  0  0
   11.0120   -4.2666   23.9463 H   0  0  0  0  0  0  0  0  0  0  0  0
    5.4735    0.4758   22.1644 H   0  0  0  0  0  0  0  0  0  0  0  0
    3.6415    1.9967   21.6408 H   0  0  0  0  0  0  0  0  0  0  0  0
    3.2720    2.7926   19.2921 H   0  0  0  0  0  0  0  0  0  0  0  0
    4.8119    2.0418   17.5005 H   0  0  0  0  0  0  0  0  0  0  0  0
    8.3326   -5.9631   27.3037 H   0  0  0  0  0  0  0  0  0  0  0  0
    7.2583   -4.9195   26.3214 H   0  0  0  0  0  0  0  0  0  0  0  0
    8.3396   -4.1959   27.5410 H   0  0  0  0  0  0  0  0  0  0  0  0
   11.5363    0.0387   22.2539 H   0  0  0  0  0  0  0  0  0  0  0  0
   11.4704    0.0336   23.9998 H   0  0  0  0  0  0  0  0  0  0  0  0
    8.9182    0.7194   23.6789 H   0  0  0  0  0  0  0  0  0  0  0  0
    8.1159   -1.8115   21.3524 H   0  0  0  0  0  0  0  0  0  0  0  0
  1  2  1  0  0  0  0
  1  3  2  0  0  0  0
  2  4  2  0  0  0  0
  3  5  1  0  0  0  0
  4 10  1  0  0  0  0
  5 10  2  0  0  0  0
  6  8  2  0  0  0  0
  6 11  1  0  0  0  0
  7  9  1  0  0  0  0
  7 11  2  0  0  0  0
  8 12  1  0  0  0  0
  9 12  2  0  0  0  0
 10 21  1  0  0  0  0
 11 22  1  0  0  0  0
 12 28  1  0  0  0  0
 13 14  2  0  0  0  0
 13 15  1  0  0  0  0
 13 25  1  0  0  0  0
 14 23  1  0  0  0  0
 14 26  1  0  0  0  0
 15 16  2  0  0  0  0
 16 17  1  0  0  0  0
 17 18  2  0  0  0  0
 18 25  1  0  0  0  0
 19 22  1  0  0  0  0
 19 26  1  0  0  0  0
 19 27  2  0  0  0  0
 20 28  1  0  0  0  0
 21 22  1  1  0  0  0
 23 24  2  0  0  0  0
 24 25  1  0  0  0  0
  1 29  1  0  0  0  0
  2 30  1  0  0  0  0
  3 31  1  0  0  0  0
  4 32  1  0  0  0  0
  5 33  1  0  0  0  0
  6 34  1  0  0  0  0
  7 35  1  0  0  0  0
  8 36  1  0  0  0  0
  9 37  1  0  0  0  0
 15 38  1  0  0  0  0
 16 39  1  0  0  0  0
 17 40  1  0  0  0  0
 18 41  1  0  0  0  0
 20 42  1  0  0  0  0
 20 43  1  0  0  0  0
 20 44  1  0  0  0  0
 21 45  1  0  0  0  0
 21 46  1  0  0  0  0
 22 47  1  0  0  0  0
 26 48  1  0  0  0  0
M  END
> <clash_score>
0

> <docking_score>
-11.245036125183105

> <overlap_score>
0.925540566444397

$$$$
BENZO_269_2
  -OEChem-08232013493D

 48 51  0     1  0  0  0  0  0999 V2000
   10.6367    4.9868   23.6018 C   0  0  0  0  0  0  0  0  0  0  0  0
    9.3228    4.8557   24.0511 C   0  0  0  0  0  0  0  0  0  0  0  0
   11.3798    3.8515   23.2784 C   0  0  0  0  0  0  0  0  0  0  0  0
    8.7519    3.5893   24.1772 C   0  0  0  0  0  0  0  0  0  0  0  0
   10.8090    2.5851   23.4045 C   0  0  0  0  0  0  0  0  0  0  0  0
    8.3510   -1.5420   24.6110 C   0  0  0  0  0  0  0  0  0  0  0  0
   10.2760   -2.3270   23.4020 C   0  0  0  0  0  0  0  0  0  0  0  0
    8.3310   -2.7170   25.3430 C   0  0  0  0  0  0  0  0  0  0  0  0
   10.2570   -3.5000   24.1350 C   0  0  0  0  0  0  0  0  0  0  0  0
    9.4950    2.4539   23.8539 C   0  0  0  0  0  0  0  0  0  0  0  0
    9.3300   -1.3350   23.6390 C   0  0  0  0  0  0  0  0  0  0  0  0
    9.2850   -3.7090   25.1090 C   0  0  0  0  0  0  0  0  0  0  0  0
    6.1600    0.3870   20.1140 C   0  0  0  0  0  0  0  0  0  0  0  0
    7.2210   -0.4620   20.0350 C   0  0  0  0  0  0  0  0  0  0  0  0
    5.3360    0.8000   21.1530 C   0  0  0  0  0  0  0  0  0  0  0  0
    4.2970    1.6690   20.8430 C   0  0  0  0  0  0  0  0  0  0  0  0
    4.0980    2.1130   19.5350 C   0  0  0  0  0  0  0  0  0  0  0  0
    4.9400    1.7060   18.5060 C   0  0  0  0  0  0  0  0  0  0  0  0
    8.9510    0.1280   21.6880 C   0  0  0  0  0  0  0  0  0  0  0  0
    8.2358   -4.9960   26.8042 C   0  0  0  0  0  0  0  0  0  0  0  0
    8.8771    1.0813   23.9905 C   0  0  0  0  0  0  0  0  0  0  0  0
    9.4200   -0.0840   22.9530 C   0  0  2  0  0  0  0  0  0  0  0  0
    7.6830   -0.5170   18.7600 N   0  0  0  0  0  0  0  0  0  0  0  0
    6.9440    0.2550   18.0100 N   0  0  0  0  0  0  0  0  0  0  0  0
    5.9810    0.8330   18.8060 N   0  0  0  0  0  0  0  0  0  0  0  0
    8.0810   -0.9750   21.0820 N   0  0  0  0  0  0  0  0  0  0  0  0
    9.1870    1.1500   21.0630 O   0  0  0  0  0  0  0  0  0  0  0  0
    9.2637   -4.8607   25.8240 O   0  0  0  0  0  0  0  0  0  0  0  0
   11.0806    5.9731   23.5024 H   0  0  0  0  0  0  0  0  0  0  0  0
    8.7437    5.7397   24.3019 H   0  0  0  0  0  0  0  0  0  0  0  0
   12.4025    3.9533   22.9274 H   0  0  0  0  0  0  0  0  0  0  0  0
    7.7275    3.4967   24.5283 H   0  0  0  0  0  0  0  0  0  0  0  0
   11.3955    1.7061   23.1503 H   0  0  0  0  0  0  0  0  0  0  0  0
    7.5962   -0.7776   24.7981 H   0  0  0  0  0  0  0  0  0  0  0  0
   11.0395   -2.1844   22.6346 H   0  0  0  0  0  0  0  0  0  0  0  0
    7.5664   -2.8672   26.1058 H   0  0  0  0  0  0  0  0  0  0  0  0
   11.0120   -4.2666   23.9463 H   0  0  0  0  0  0  0  0  0  0  0  0
    5.4735    0.4758   22.1644 H   0  0  0  0  0  0  0  0  0  0  0  0
    3.6415    1.9967   21.6408 H   0  0  0  0  0  0  0  0  0  0  0  0
    3.2720    2.7926   19.2921 H   0  0  0  0  0  0  0  0  0  0  0  0
    4.8119    2.0418   17.5005 H   0  0  0  0  0  0  0  0  0  0  0  0
    8.3326   -5.9631   27.3037 H   0  0  0  0  0  0  0  0  0  0  0  0
    7.2583   -4.9195   26.3214 H   0  0  0  0  0  0  0  0  0  0  0  0
    8.3396   -4.1959   27.5410 H   0  0  0  0  0  0  0  0  0  0  0  0
    8.9708    0.7434   25.0308 H   0  0  0  0  0  0  0  0  0  0  0  0
    7.7972    1.1781   23.8117 H   0  0  0  0  0  0  0  0  0  0  0  0
   10.5743    0.2174   22.9808 H   0  0  0  0  0  0  0  0  0  0  0  0
    8.1159   -1.8115   21.3524 H   0  0  0  0  0  0  0  0  0  0  0  0
  1  2  1  0  0  0  0
  1  3  2  0  0  0  0
  2  4  2  0  0  0  0
  3  5  1  0  0  0  0
  4 10  1  0  0  0  0
  5 10  2  0  0  0  0
  6  8  2  0  0  0  0
  6 11  1  0  0  0  0
  7  9  1  0  0  0  0
  7 11  2  0  0  0  0
  8 12  1  0  0  0  0
  9 12  2  0  0  0  0
 10 21  1  0  0  0  0
 11 22  1  0  0  0  0
 12 28  1  0  0  0  0
 13 14  2  0  0  0  0
 13 15  1  0  0  0  0
 13 25  1  0  0  0  0
 14 23  1  0  0  0  0
 14 26  1  0  0  0  0
 15 16  2  0  0  0  0
 16 17  1  0  0  0  0
 17 18  2  0  0  0  0
 18 25  1  0  0  0  0
 19 22  1  0  0  0  0
 19 26  1  0  0  0  0
 19 27  2  0  0  0  0
 20 28  1  0  0  0  0
 21 22  1  6  0  0  0
 23 24  2  0  0  0  0
 24 25  1  0  0  0  0
  1 29  1  0  0  0  0
  2 30  1  0  0  0  0
  3 31  1  0  0  0  0
  4 32  1  0  0  0  0
  5 33  1  0  0  0  0
  6 34  1  0  0  0  0
  7 35  1  0  0  0  0
  8 36  1  0  0  0  0
  9 37  1  0  0  0  0
 15 38  1  0  0  0  0
 16 39  1  0  0  0  0
 17 40  1  0  0  0  0
 18 41  1  0  0  0  0
 20 42  1  0  0  0  0
 20 43  1  0  0  0  0
 20 44  1  0  0  0  0
 21 45  1  0  0  0  0
 21 46  1  0  0  0  0
 22 47  1  0  0  0  0
 26 48  1  0  0  0  0
M  END
> <clash_score>
0

> <docking_score>
-10.130406379699707

> <overlap_score>
0.8538742065429688

$$$$
BENZO_268_1
  -OEChem-08232013493D

 45 48  0     1  0  0  0  0  0999 V2000
    8.3510   -1.5420   24.6110 C   0  0  0  0  0  0  0  0  0  0  0  0
   10.2760   -2.3270   23.4020 C   0  0  0  0  0  0  0  0  0  0  0  0
    8.3310   -2.7170   25.3430 C   0  0  0  0  0  0  0  0  0  0  0  0
   10.2570   -3.5000   24.1350 C   0  0  0  0  0  0  0  0  0  0  0  0
   11.9019    2.6854   22.1912 C   0  0  0  0  0  0  0  0  0  0  0  0
   11.8820    4.0381   22.4508 C   0  0  0  0  0  0  0  0  0  0  0  0
   10.5617    2.7635   24.0885 C   0  0  0  0  0  0  0  0  0  0  0  0
    9.3300   -1.3350   23.6390 C   0  0  0  0  0  0  0  0  0  0  0  0
   11.1370    1.9470   23.1397 C   0  0  0  0  0  0  0  0  0  0  0  0
    9.2850   -3.7090   25.1090 C   0  0  0  0  0  0  0  0  0  0  0  0
    6.1600    0.3870   20.1140 C   0  0  0  0  0  0  0  0  0  0  0  0
    7.2210   -0.4620   20.0350 C   0  0  0  0  0  0  0  0  0  0  0  0
    5.3360    0.8000   21.1530 C   0  0  0  0  0  0  0  0  0  0  0  0
    4.2970    1.6690   20.8430 C   0  0  0  0  0  0  0  0  0  0  0  0
    4.0980    2.1130   19.5350 C   0  0  0  0  0  0  0  0  0  0  0  0
    4.9400    1.7060   18.5060 C   0  0  0  0  0  0  0  0  0  0  0  0
    8.9510    0.1280   21.6880 C   0  0  0  0  0  0  0  0  0  0  0  0
    8.2358   -4.9960   26.8042 C   0  0  0  0  0  0  0  0  0  0  0  0
   10.9777    0.4443   23.1075 C   0  0  0  0  0  0  0  0  0  0  0  0
    9.4200   -0.0840   22.9530 C   0  0  1  0  0  0  0  0  0  0  0  0
    7.6830   -0.5170   18.7600 N   0  0  0  0  0  0  0  0  0  0  0  0
    6.9440    0.2550   18.0100 N   0  0  0  0  0  0  0  0  0  0  0  0
    5.9810    0.8330   18.8060 N   0  0  0  0  0  0  0  0  0  0  0  0
    8.0810   -0.9750   21.0820 N   0  0  0  0  0  0  0  0  0  0  0  0
    9.1870    1.1500   21.0630 O   0  0  0  0  0  0  0  0  0  0  0  0
    9.2637   -4.8607   25.8240 O   0  0  0  0  0  0  0  0  0  0  0  0
   10.9440    4.4131   23.8335 S   0  0  0  0  0  0  0  0  0  0  0  0
    7.5962   -0.7776   24.7981 H   0  0  0  0  0  0  0  0  0  0  0  0
   11.0395   -2.1844   22.6346 H   0  0  0  0  0  0  0  0  0  0  0  0
    7.5664   -2.8672   26.1058 H   0  0  0  0  0  0  0  0  0  0  0  0
   11.0120   -4.2666   23.9463 H   0  0  0  0  0  0  0  0  0  0  0  0
   12.4414    2.2505   21.3593 H   0  0  0  0  0  0  0  0  0  0  0  0
   12.3738    4.8240   21.8953 H   0  0  0  0  0  0  0  0  0  0  0  0
    9.9357    2.4743   24.9213 H   0  0  0  0  0  0  0  0  0  0  0  0
    5.4735    0.4758   22.1644 H   0  0  0  0  0  0  0  0  0  0  0  0
    3.6415    1.9967   21.6408 H   0  0  0  0  0  0  0  0  0  0  0  0
    3.2720    2.7926   19.2921 H   0  0  0  0  0  0  0  0  0  0  0  0
    4.8119    2.0418   17.5005 H   0  0  0  0  0  0  0  0  0  0  0  0
    8.3326   -5.9631   27.3037 H   0  0  0  0  0  0  0  0  0  0  0  0
    7.2583   -4.9195   26.3214 H   0  0  0  0  0  0  0  0  0  0  0  0
    8.3396   -4.1959   27.5410 H   0  0  0  0  0  0  0  0  0  0  0  0
   11.5363    0.0387   22.2539 H   0  0  0  0  0  0  0  0  0  0  0  0
   11.4704    0.0336   23.9998 H   0  0  0  0  0  0  0  0  0  0  0  0
    8.9182    0.7194   23.6789 H   0  0  0  0  0  0  0  0  0  0  0  0
    8.1159   -1.8115   21.3524 H   0  0  0  0  0  0  0  0  0  0  0  0
  1  3  2  0  0  0  0
  1  8  1  0  0  0  0
  2  4  1  0  0  0  0
  2  8  2  0  0  0  0
  3 10  1  0  0  0  0
  4 10  2  0  0  0  0
  5  6  2  0  0  0  0
  5  9  1  0  0  0  0
  6 27  1  0  0  0  0
  7  9  2  0  0  0  0
  7 27  1  0  0  0  0
  8 20  1  0  0  0  0
  9 19  1  0  0  0  0
 10 26  1  0  0  0  0
 11 12  2  0  0  0  0
 11 13  1  0  0  0  0
 11 23  1  0  0  0  0
 12 21  1  0  0  0  0
 12 24  1  0  0  0  0
 13 14  2  0  0  0  0
 14 15  1  0  0  0  0
 15 16  2  0  0  0  0
 16 23  1  0  0  0  0
 17 20  1  0  0  0  0
 17 24  1  0  0  0  0
 17 25  2  0  0  0  0
 18 26  1  0  0  0  0
 19 20  1  1  0  0  0
 21 22  2  0  0  0  0
 22 23  1  0  0  0  0
  1 28  1  0  0  0  0
  2 29  1  0  0  0  0
  3 30  1  0  0  0  0
  4 31  1  0  0  0  0
  5 32  1  0  0  0  0
  6 33  1  0  0  0  0
  7 34  1  0  0  0  0
 13 35  1  0  0  0  0
 14 36  1  0  0  0  0
 15 37  1  0  0  0  0
 16 38  1  0  0  0  0
 18 39  1  0  0  0  0
 18 40  1  0  0  0  0
 18 41  1  0  0  0  0
 19 42  1  0  0  0  0
 19 43  1  0  0  0  0
 20 44  1  0  0  0  0
 24 45  1  0  0  0  0
M  END
> <clash_score>
0

> <docking_score>
-9.78622055053711

> <overlap_score>
0.9145774245262146

$$$$
BENZO_268_2
  -OEChem-08232013493D

 45 48  0     1  0  0  0  0  0999 V2000
    8.3510   -1.5420   24.6110 C   0  0  0  0  0  0  0  0  0  0  0  0
   10.2760   -2.3270   23.4020 C   0  0  0  0  0  0  0  0  0  0  0  0
    8.3310   -2.7170   25.3430 C   0  0  0  0  0  0  0  0  0  0  0  0
   10.2570   -3.5000   24.1350 C   0  0  0  0  0  0  0  0  0  0  0  0
   10.8633    2.6804   23.5273 C   0  0  0  0  0  0  0  0  0  0  0  0
   11.1655    4.0230   23.4669 C   0  0  0  0  0  0  0  0  0  0  0  0
    8.8035    3.6322   24.0309 C   0  0  0  0  0  0  0  0  0  0  0  0
    9.3300   -1.3350   23.6390 C   0  0  0  0  0  0  0  0  0  0  0  0
    9.4950    2.4539   23.8539 C   0  0  0  0  0  0  0  0  0  0  0  0
    9.2850   -3.7090   25.1090 C   0  0  0  0  0  0  0  0  0  0  0  0
    6.1600    0.3870   20.1140 C   0  0  0  0  0  0  0  0  0  0  0  0
    7.2210   -0.4620   20.0350 C   0  0  0  0  0  0  0  0  0  0  0  0
    5.3360    0.8000   21.1530 C   0  0  0  0  0  0  0  0  0  0  0  0
    4.2970    1.6690   20.8430 C   0  0  0  0  0  0  0  0  0  0  0  0
    4.0980    2.1130   19.5350 C   0  0  0  0  0  0  0  0  0  0  0  0
    4.9400    1.7060   18.5060 C   0  0  0  0  0  0  0  0  0  0  0  0
    8.9510    0.1280   21.6880 C   0  0  0  0  0  0  0  0  0  0  0  0
    8.2358   -4.9960   26.8042 C   0  0  0  0  0  0  0  0  0  0  0  0
    8.8771    1.0813   23.9905 C   0  0  0  0  0  0  0  0  0  0  0  0
    9.4200   -0.0840   22.9530 C   0  0  2  0  0  0  0  0  0  0  0  0
    7.6830   -0.5170   18.7600 N   0  0  0  0  0  0  0  0  0  0  0  0
    6.9440    0.2550   18.0100 N   0  0  0  0  0  0  0  0  0  0  0  0
    5.9810    0.8330   18.8060 N   0  0  0  0  0  0  0  0  0  0  0  0
    8.0810   -0.9750   21.0820 N   0  0  0  0  0  0  0  0  0  0  0  0
    9.1870    1.1500   21.0630 O   0  0  0  0  0  0  0  0  0  0  0  0
    9.2637   -4.8607   25.8240 O   0  0  0  0  0  0  0  0  0  0  0  0
    9.8028    5.0040   23.8033 S   0  0  0  0  0  0  0  0  0  0  0  0
    7.5962   -0.7776   24.7981 H   0  0  0  0  0  0  0  0  0  0  0  0
   11.0395   -2.1844   22.6346 H   0  0  0  0  0  0  0  0  0  0  0  0
    7.5664   -2.8672   26.1058 H   0  0  0  0  0  0  0  0  0  0  0  0
   11.0120   -4.2666   23.9463 H   0  0  0  0  0  0  0  0  0  0  0  0
   11.5925    1.9010   23.3455 H   0  0  0  0  0  0  0  0  0  0  0  0
   12.1213    4.4748   23.2422 H   0  0  0  0  0  0  0  0  0  0  0  0
    7.7599    3.7576   24.2842 H   0  0  0  0  0  0  0  0  0  0  0  0
    5.4735    0.4758   22.1644 H   0  0  0  0  0  0  0  0  0  0  0  0
    3.6415    1.9967   21.6408 H   0  0  0  0  0  0  0  0  0  0  0  0
    3.2720    2.7926   19.2921 H   0  0  0  0  0  0  0  0  0  0  0  0
    4.8119    2.0418   17.5005 H   0  0  0  0  0  0  0  0  0  0  0  0
    8.3326   -5.9631   27.3037 H   0  0  0  0  0  0  0  0  0  0  0  0
    7.2583   -4.9195   26.3214 H   0  0  0  0  0  0  0  0  0  0  0  0
    8.3396   -4.1959   27.5410 H   0  0  0  0  0  0  0  0  0  0  0  0
    8.9708    0.7434   25.0308 H   0  0  0  0  0  0  0  0  0  0  0  0
    7.7972    1.1781   23.8117 H   0  0  0  0  0  0  0  0  0  0  0  0
   10.5743    0.2174   22.9808 H   0  0  0  0  0  0  0  0  0  0  0  0
    8.1159   -1.8115   21.3524 H   0  0  0  0  0  0  0  0  0  0  0  0
  1  3  2  0  0  0  0
  1  8  1  0  0  0  0
  2  4  1  0  0  0  0
  2  8  2  0  0  0  0
  3 10  1  0  0  0  0
  4 10  2  0  0  0  0
  5  6  2  0  0  0  0
  5  9  1  0  0  0  0
  6 27  1  0  0  0  0
  7  9  2  0  0  0  0
  7 27  1  0  0  0  0
  8 20  1  0  0  0  0
  9 19  1  0  0  0  0
 10 26  1  0  0  0  0
 11 12  2  0  0  0  0
 11 13  1  0  0  0  0
 11 23  1  0  0  0  0
 12 21  1  0  0  0  0
 12 24  1  0  0  0  0
 13 14  2  0  0  0  0
 14 15  1  0  0  0  0
 15 16  2  0  0  0  0
 16 23  1  0  0  0  0
 17 20  1  0  0  0  0
 17 24  1  0  0  0  0
 17 25  2  0  0  0  0
 18 26  1  0  0  0  0
 19 20  1  6  0  0  0
 21 22  2  0  0  0  0
 22 23  1  0  0  0  0
  1 28  1  0  0  0  0
  2 29  1  0  0  0  0
  3 30  1  0  0  0  0
  4 31  1  0  0  0  0
  5 32  1  0  0  0  0
  6 33  1  0  0  0  0
  7 34  1  0  0  0  0
 13 35  1  0  0  0  0
 14 36  1  0  0  0  0
 15 37  1  0  0  0  0
 16 38  1  0  0  0  0
 18 39  1  0  0  0  0
 18 40  1  0  0  0  0
 18 41  1  0  0  0  0
 19 42  1  0  0  0  0
 19 43  1  0  0  0  0
 20 44  1  0  0  0  0
 24 45  1  0  0  0  0
M  END
> <clash_score>
0

> <docking_score>
-9.853766441345215

> <overlap_score>
0.851088285446167

$$$$
BENZO_271_1
  -OEChem-08232013493D

 48 51  0     1  0  0  0  0  0999 V2000
    8.3510   -1.5420   24.6110 C   0  0  0  0  0  0  0  0  0  0  0  0
   10.2760   -2.3270   23.4020 C   0  0  0  0  0  0  0  0  0  0  0  0
    8.3310   -2.7170   25.3430 C   0  0  0  0  0  0  0  0  0  0  0  0
   10.2570   -3.5000   24.1350 C   0  0  0  0  0  0  0  0  0  0  0  0
   10.2235    2.9023   23.6242 C   0  0  0  0  0  0  0  0  0  0  0  0
   12.2091    2.6870   22.7043 C   0  0  0  0  0  0  0  0  0  0  0  0
    9.3300   -1.3350   23.6390 C   0  0  0  0  0  0  0  0  0  0  0  0
   11.1370    1.9470   23.1397 C   0  0  0  0  0  0  0  0  0  0  0  0
    9.2850   -3.7090   25.1090 C   0  0  0  0  0  0  0  0  0  0  0  0
    6.1600    0.3870   20.1140 C   0  0  0  0  0  0  0  0  0  0  0  0
    7.2210   -0.4620   20.0350 C   0  0  0  0  0  0  0  0  0  0  0  0
    5.3360    0.8000   21.1530 C   0  0  0  0  0  0  0  0  0  0  0  0
    4.2970    1.6690   20.8430 C   0  0  0  0  0  0  0  0  0  0  0  0
    4.0980    2.1130   19.5350 C   0  0  0  0  0  0  0  0  0  0  0  0
    4.9400    1.7060   18.5060 C   0  0  0  0  0  0  0  0  0  0  0  0
    8.9510    0.1280   21.6880 C   0  0  0  0  0  0  0  0  0  0  0  0
   12.7031    5.1430   22.6555 C   0  0  0  0  0  0  0  0  0  0  0  0
    8.2358   -4.9960   26.8042 C   0  0  0  0  0  0  0  0  0  0  0  0
   10.9777    0.4443   23.1075 C   0  0  0  0  0  0  0  0  0  0  0  0
    9.4200   -0.0840   22.9530 C   0  0  1  0  0  0  0  0  0  0  0  0
   10.6758    4.1536   23.5079 N   0  0  0  0  0  0  0  0  0  0  0  0
    7.6830   -0.5170   18.7600 N   0  0  0  0  0  0  0  0  0  0  0  0
    6.9440    0.2550   18.0100 N   0  0  0  0  0  0  0  0  0  0  0  0
   11.8853    3.9898   22.9453 N   0  0  0  0  0  0  0  0  0  0  0  0
    5.9810    0.8330   18.8060 N   0  0  0  0  0  0  0  0  0  0  0  0
    8.0810   -0.9750   21.0820 N   0  0  0  0  0  0  0  0  0  0  0  0
    9.1870    1.1500   21.0630 O   0  0  0  0  0  0  0  0  0  0  0  0
    9.2637   -4.8607   25.8240 O   0  0  0  0  0  0  0  0  0  0  0  0
    7.5962   -0.7776   24.7981 H   0  0  0  0  0  0  0  0  0  0  0  0
   11.0395   -2.1844   22.6346 H   0  0  0  0  0  0  0  0  0  0  0  0
    7.5664   -2.8672   26.1058 H   0  0  0  0  0  0  0  0  0  0  0  0
   11.0120   -4.2666   23.9463 H   0  0  0  0  0  0  0  0  0  0  0  0
    9.2470    2.7411   24.0585 H   0  0  0  0  0  0  0  0  0  0  0  0
   13.1519    2.4044   22.2558 H   0  0  0  0  0  0  0  0  0  0  0  0
    5.4735    0.4758   22.1644 H   0  0  0  0  0  0  0  0  0  0  0  0
    3.6415    1.9967   21.6408 H   0  0  0  0  0  0  0  0  0  0  0  0
    3.2720    2.7926   19.2921 H   0  0  0  0  0  0  0  0  0  0  0  0
    4.8119    2.0418   17.5005 H   0  0  0  0  0  0  0  0  0  0  0  0
   12.4640    5.4803   21.6435 H   0  0  0  0  0  0  0  0  0  0  0  0
   12.4902    5.9323   23.3818 H   0  0  0  0  0  0  0  0  0  0  0  0
   13.7583    4.8651   22.7277 H   0  0  0  0  0  0  0  0  0  0  0  0
    8.3326   -5.9631   27.3037 H   0  0  0  0  0  0  0  0  0  0  0  0
    7.2583   -4.9195   26.3214 H   0  0  0  0  0  0  0  0  0  0  0  0
    8.3396   -4.1959   27.5410 H   0  0  0  0  0  0  0  0  0  0  0  0
   11.5363    0.0387   22.2539 H   0  0  0  0  0  0  0  0  0  0  0  0
   11.4704    0.0336   23.9998 H   0  0  0  0  0  0  0  0  0  0  0  0
    8.9182    0.7194   23.6789 H   0  0  0  0  0  0  0  0  0  0  0  0
    8.1159   -1.8115   21.3524 H   0  0  0  0  0  0  0  0  0  0  0  0
  1  3  2  0  0  0  0
  1  7  1  0  0  0  0
  2  4  1  0  0  0  0
  2  7  2  0  0  0  0
  3  9  1  0  0  0  0
  4  9  2  0  0  0  0
  5  8  1  0  0  0  0
  5 21  2  0  0  0  0
  6  8  2  0  0  0  0
  6 24  1  0  0  0  0
  7 20  1  0  0  0  0
  8 19  1  0  0  0  0
  9 28  1  0  0  0  0
 10 11  2  0  0  0  0
 10 12  1  0  0  0  0
 10 25  1  0  0  0  0
 11 22  1  0  0  0  0
 11 26  1  0  0  0  0
 12 13  2  0  0  0  0
 13 14  1  0  0  0  0
 14 15  2  0  0  0  0
 15 25  1  0  0  0  0
 16 20  1  0  0  0  0
 16 26  1  0  0  0  0
 16 27  2  0  0  0  0
 17 24  1  0  0  0  0
 18 28  1  0  0  0  0
 19 20  1  1  0  0  0
 21 24  1  0  0  0  0
 22 23  2  0  0  0  0
 23 25  1  0  0  0  0
  1 29  1  0  0  0  0
  2 30  1  0  0  0  0
  3 31  1  0  0  0  0
  4 32  1  0  0  0  0
  5 33  1  0  0  0  0
  6 34  1  0  0  0  0
 12 35  1  0  0  0  0
 13 36  1  0  0  0  0
 14 37  1  0  0  0  0
 15 38  1  0  0  0  0
 17 39  1  0  0  0  0
 17 40  1  0  0  0  0
 17 41  1  0  0  0  0
 18 42  1  0  0  0  0
 18 43  1  0  0  0  0
 18 44  1  0  0  0  0
 19 45  1  0  0  0  0
 19 46  1  0  0  0  0
 20 47  1  0  0  0  0
 26 48  1  0  0  0  0
M  END
> <clash_score>
0

> <docking_score>
-11.20151424407959

> <overlap_score>
0.9200304746627808

$$$$
BENZO_271_2
  -OEChem-08232013493D

 48 51  0     1  0  0  0  0  0999 V2000
    8.3510   -1.5420   24.6110 C   0  0  0  0  0  0  0  0  0  0  0  0
   10.2760   -2.3270   23.4020 C   0  0  0  0  0  0  0  0  0  0  0  0
    8.3310   -2.7170   25.3430 C   0  0  0  0  0  0  0  0  0  0  0  0
   10.2570   -3.5000   24.1350 C   0  0  0  0  0  0  0  0  0  0  0  0
   10.7939    2.7770   23.4177 C   0  0  0  0  0  0  0  0  0  0  0  0
    8.9123    3.6676   24.1257 C   0  0  0  0  0  0  0  0  0  0  0  0
    9.3300   -1.3350   23.6390 C   0  0  0  0  0  0  0  0  0  0  0  0
    9.4950    2.4539   23.8539 C   0  0  0  0  0  0  0  0  0  0  0  0
    9.2850   -3.7090   25.1090 C   0  0  0  0  0  0  0  0  0  0  0  0
    6.1600    0.3870   20.1140 C   0  0  0  0  0  0  0  0  0  0  0  0
    7.2210   -0.4620   20.0350 C   0  0  0  0  0  0  0  0  0  0  0  0
    5.3360    0.8000   21.1530 C   0  0  0  0  0  0  0  0  0  0  0  0
    4.2970    1.6690   20.8430 C   0  0  0  0  0  0  0  0  0  0  0  0
    4.0980    2.1130   19.5350 C   0  0  0  0  0  0  0  0  0  0  0  0
    4.9400    1.7060   18.5060 C   0  0  0  0  0  0  0  0  0  0  0  0
    8.9510    0.1280   21.6880 C   0  0  0  0  0  0  0  0  0  0  0  0
    9.7138    6.0370   23.9775 C   0  0  0  0  0  0  0  0  0  0  0  0
    8.2358   -4.9960   26.8042 C   0  0  0  0  0  0  0  0  0  0  0  0
    8.8771    1.0813   23.9905 C   0  0  0  0  0  0  0  0  0  0  0  0
    9.4200   -0.0840   22.9530 C   0  0  2  0  0  0  0  0  0  0  0  0
   11.0232    4.0928   23.4110 N   0  0  0  0  0  0  0  0  0  0  0  0
    7.6830   -0.5170   18.7600 N   0  0  0  0  0  0  0  0  0  0  0  0
    6.9440    0.2550   18.0100 N   0  0  0  0  0  0  0  0  0  0  0  0
    9.8605    4.6073   23.8463 N   0  0  0  0  0  0  0  0  0  0  0  0
    5.9810    0.8330   18.8060 N   0  0  0  0  0  0  0  0  0  0  0  0
    8.0810   -0.9750   21.0820 N   0  0  0  0  0  0  0  0  0  0  0  0
    9.1870    1.1500   21.0630 O   0  0  0  0  0  0  0  0  0  0  0  0
    9.2637   -4.8607   25.8240 O   0  0  0  0  0  0  0  0  0  0  0  0
    7.5962   -0.7776   24.7981 H   0  0  0  0  0  0  0  0  0  0  0  0
   11.0395   -2.1844   22.6346 H   0  0  0  0  0  0  0  0  0  0  0  0
    7.5664   -2.8672   26.1058 H   0  0  0  0  0  0  0  0  0  0  0  0
   11.0120   -4.2666   23.9463 H   0  0  0  0  0  0  0  0  0  0  0  0
   11.5843    2.1103   23.1031 H   0  0  0  0  0  0  0  0  0  0  0  0
    7.9277    3.9360   24.4839 H   0  0  0  0  0  0  0  0  0  0  0  0
    5.4735    0.4758   22.1644 H   0  0  0  0  0  0  0  0  0  0  0  0
    3.6415    1.9967   21.6408 H   0  0  0  0  0  0  0  0  0  0  0  0
    3.2720    2.7926   19.2921 H   0  0  0  0  0  0  0  0  0  0  0  0
    4.8119    2.0418   17.5005 H   0  0  0  0  0  0  0  0  0  0  0  0
   10.0225    6.3165   24.9883 H   0  0  0  0  0  0  0  0  0  0  0  0
   10.3410    6.5371   23.2342 H   0  0  0  0  0  0  0  0  0  0  0  0
    8.6688    6.3103   23.8064 H   0  0  0  0  0  0  0  0  0  0  0  0
    8.3326   -5.9631   27.3037 H   0  0  0  0  0  0  0  0  0  0  0  0
    7.2583   -4.9195   26.3214 H   0  0  0  0  0  0  0  0  0  0  0  0
    8.3396   -4.1959   27.5410 H   0  0  0  0  0  0  0  0  0  0  0  0
    8.9708    0.7434   25.0308 H   0  0  0  0  0  0  0  0  0  0  0  0
    7.7972    1.1781   23.8117 H   0  0  0  0  0  0  0  0  0  0  0  0
   10.5743    0.2174   22.9808 H   0  0  0  0  0  0  0  0  0  0  0  0
    8.1159   -1.8115   21.3524 H   0  0  0  0  0  0  0  0  0  0  0  0
  1  3  2  0  0  0  0
  1  7  1  0  0  0  0
  2  4  1  0  0  0  0
  2  7  2  0  0  0  0
  3  9  1  0  0  0  0
  4  9  2  0  0  0  0
  5  8  1  0  0  0  0
  5 21  2  0  0  0  0
  6  8  2  0  0  0  0
  6 24  1  0  0  0  0
  7 20  1  0  0  0  0
  8 19  1  0  0  0  0
  9 28  1  0  0  0  0
 10 11  2  0  0  0  0
 10 12  1  0  0  0  0
 10 25  1  0  0  0  0
 11 22  1  0  0  0  0
 11 26  1  0  0  0  0
 12 13  2  0  0  0  0
 13 14  1  0  0  0  0
 14 15  2  0  0  0  0
 15 25  1  0  0  0  0
 16 20  1  0  0  0  0
 16 26  1  0  0  0  0
 16 27  2  0  0  0  0
 17 24  1  0  0  0  0
 18 28  1  0  0  0  0
 19 20  1  6  0  0  0
 21 24  1  0  0  0  0
 22 23  2  0  0  0  0
 23 25  1  0  0  0  0
  1 29  1  0  0  0  0
  2 30  1  0  0  0  0
  3 31  1  0  0  0  0
  4 32  1  0  0  0  0
  5 33  1  0  0  0  0
  6 34  1  0  0  0  0
 12 35  1  0  0  0  0
 13 36  1  0  0  0  0
 14 37  1  0  0  0  0
 15 38  1  0  0  0  0
 17 39  1  0  0  0  0
 17 40  1  0  0  0  0
 17 41  1  0  0  0  0
 18 42  1  0  0  0  0
 18 43  1  0  0  0  0
 18 44  1  0  0  0  0
 19 45  1  0  0  0  0
 19 46  1  0  0  0  0
 20 47  1  0  0  0  0
 26 48  1  0  0  0  0
M  END
> <clash_score>
0

> <docking_score>
-10.005831718444824

> <overlap_score>
0.8466095328330994

$$$$
BENZO_270_1
  -OEChem-08232013493D

 48 51  0     1  0  0  0  0  0999 V2000
   10.2645    4.1315   23.6906 C   0  0  0  0  0  0  0  0  0  0  0  0
   10.1177    2.7447   23.6595 C   0  0  0  0  0  0  0  0  0  0  0  0
    8.3510   -1.5420   24.6110 C   0  0  0  0  0  0  0  0  0  0  0  0
   10.2760   -2.3270   23.4020 C   0  0  0  0  0  0  0  0  0  0  0  0
    8.3310   -2.7170   25.3430 C   0  0  0  0  0  0  0  0  0  0  0  0
   10.2570   -3.5000   24.1350 C   0  0  0  0  0  0  0  0  0  0  0  0
   11.4306    4.7205   23.2018 C   0  0  0  0  0  0  0  0  0  0  0  0
   12.3032    2.5360   22.6510 C   0  0  0  0  0  0  0  0  0  0  0  0
    9.3300   -1.3350   23.6390 C   0  0  0  0  0  0  0  0  0  0  0  0
   11.1370    1.9470   23.1397 C   0  0  0  0  0  0  0  0  0  0  0  0
    9.2850   -3.7090   25.1090 C   0  0  0  0  0  0  0  0  0  0  0  0
   12.4500    3.9228   22.6821 C   0  0  0  0  0  0  0  0  0  0  0  0
    6.1600    0.3870   20.1140 C   0  0  0  0  0  0  0  0  0  0  0  0
    7.2210   -0.4620   20.0350 C   0  0  0  0  0  0  0  0  0  0  0  0
    5.3360    0.8000   21.1530 C   0  0  0  0  0  0  0  0  0  0  0  0
    4.2970    1.6690   20.8430 C   0  0  0  0  0  0  0  0  0  0  0  0
    4.0980    2.1130   19.5350 C   0  0  0  0  0  0  0  0  0  0  0  0
    4.9400    1.7060   18.5060 C   0  0  0  0  0  0  0  0  0  0  0  0
    8.9510    0.1280   21.6880 C   0  0  0  0  0  0  0  0  0  0  0  0
    8.2358   -4.9960   26.8042 C   0  0  0  0  0  0  0  0  0  0  0  0
   10.9777    0.4443   23.1075 C   0  0  0  0  0  0  0  0  0  0  0  0
    9.4200   -0.0840   22.9530 C   0  0  1  0  0  0  0  0  0  0  0  0
    7.6830   -0.5170   18.7600 N   0  0  0  0  0  0  0  0  0  0  0  0
    6.9440    0.2550   18.0100 N   0  0  0  0  0  0  0  0  0  0  0  0
    5.9810    0.8330   18.8060 N   0  0  0  0  0  0  0  0  0  0  0  0
    8.0810   -0.9750   21.0820 N   0  0  0  0  0  0  0  0  0  0  0  0
    9.1870    1.1500   21.0630 O   0  0  0  0  0  0  0  0  0  0  0  0
    9.2637   -4.8607   25.8240 O   0  0  0  0  0  0  0  0  0  0  0  0
   13.8890    4.6500   22.0802 Cl  0  0  0  0  0  0  0  0  0  0  0  0
    9.4706    4.7523   24.0955 H   0  0  0  0  0  0  0  0  0  0  0  0
    9.2057    2.2944   24.0426 H   0  0  0  0  0  0  0  0  0  0  0  0
    7.5962   -0.7776   24.7981 H   0  0  0  0  0  0  0  0  0  0  0  0
   11.0395   -2.1844   22.6346 H   0  0  0  0  0  0  0  0  0  0  0  0
    7.5664   -2.8672   26.1058 H   0  0  0  0  0  0  0  0  0  0  0  0
   11.0120   -4.2666   23.9463 H   0  0  0  0  0  0  0  0  0  0  0  0
   11.5314    5.8026   23.2326 H   0  0  0  0  0  0  0  0  0  0  0  0
   13.0949    1.9096   22.2463 H   0  0  0  0  0  0  0  0  0  0  0  0
    5.4735    0.4758   22.1644 H   0  0  0  0  0  0  0  0  0  0  0  0
    3.6415    1.9967   21.6408 H   0  0  0  0  0  0  0  0  0  0  0  0
    3.2720    2.7926   19.2921 H   0  0  0  0  0  0  0  0  0  0  0  0
    4.8119    2.0418   17.5005 H   0  0  0  0  0  0  0  0  0  0  0  0
    8.3326   -5.9631   27.3037 H   0  0  0  0  0  0  0  0  0  0  0  0
    7.2583   -4.9195   26.3214 H   0  0  0  0  0  0  0  0  0  0  0  0
    8.3396   -4.1959   27.5410 H   0  0  0  0  0  0  0  0  0  0  0  0
   11.5363    0.0387   22.2539 H   0  0  0  0  0  0  0  0  0  0  0  0
   11.4704    0.0336   23.9998 H   0  0  0  0  0  0  0  0  0  0  0  0
    8.9182    0.7194   23.6789 H   0  0  0  0  0  0  0  0  0  0  0  0
    8.1159   -1.8115   21.3524 H   0  0  0  0  0  0  0  0  0  0  0  0
  1  2  2  0  0  0  0
  1  7  1  0  0  0  0
  2 10  1  0  0  0  0
  3  5  2  0  0  0  0
  3  9  1  0  0  0  0
  4  6  1  0  0  0  0
  4  9  2  0  0  0  0
  5 11  1  0  0  0  0
  6 11  2  0  0  0  0
  7 12  2  0  0  0  0
  8 10  2  0  0  0  0
  8 12  1  0  0  0  0
  9 22  1  0  0  0  0
 10 21  1  0  0  0  0
 11 28  1  0  0  0  0
 12 29  1  0  0  0  0
 13 14  2  0  0  0  0
 13 15  1  0  0  0  0
 13 25  1  0  0  0  0
 14 23  1  0  0  0  0
 14 26  1  0  0  0  0
 15 16  2  0  0  0  0
 16 17  1  0  0  0  0
 17 18  2  0  0  0  0
 18 25  1  0  0  0  0
 19 22  1  0  0  0  0
 19 26  1  0  0  0  0
 19 27  2  0  0  0  0
 20 28  1  0  0  0  0
 21 22  1  1  0  0  0
 23 24  2  0  0  0  0
 24 25  1  0  0  0  0
  1 30  1  0  0  0  0
  2 31  1  0  0  0  0
  3 32  1  0  0  0  0
  4 33  1  0  0  0  0
  5 34  1  0  0  0  0
  6 35  1  0  0  0  0
  7 36  1  0  0  0  0
  8 37  1  0  0  0  0
 15 38  1  0  0  0  0
 16 39  1  0  0  0  0
 17 40  1  0  0  0  0
 18 41  1  0  0  0  0
 20 42  1  0  0  0  0
 20 43  1  0  0  0  0
 20 44  1  0  0  0  0
 21 45  1  0  0  0  0
 21 46  1  0  0  0  0
 22 47  1  0  0  0  0
 26 48  1  0  0  0  0
M  END
> <clash_score>
0

> <docking_score>
-11.672833442687988

> <overlap_score>
0.9261940717697144

$$$$
BENZO_270_2
  -OEChem-08232013493D

 48 51  0     1  0  0  0  0  0999 V2000
    9.3211    4.8553   24.0536 C   0  0  0  0  0  0  0  0  0  0  0  0
    8.7511    3.5884   24.1784 C   0  0  0  0  0  0  0  0  0  0  0  0
    8.3510   -1.5420   24.6110 C   0  0  0  0  0  0  0  0  0  0  0  0
   10.2760   -2.3270   23.4020 C   0  0  0  0  0  0  0  0  0  0  0  0
    8.3310   -2.7170   25.3430 C   0  0  0  0  0  0  0  0  0  0  0  0
   10.2570   -3.5000   24.1350 C   0  0  0  0  0  0  0  0  0  0  0  0
   10.6349    4.9878   23.6042 C   0  0  0  0  0  0  0  0  0  0  0  0
   10.8089    2.5864   23.4046 C   0  0  0  0  0  0  0  0  0  0  0  0
    9.3300   -1.3350   23.6390 C   0  0  0  0  0  0  0  0  0  0  0  0
    9.4950    2.4539   23.8539 C   0  0  0  0  0  0  0  0  0  0  0  0
    9.2850   -3.7090   25.1090 C   0  0  0  0  0  0  0  0  0  0  0  0
   11.3788    3.8534   23.2798 C   0  0  0  0  0  0  0  0  0  0  0  0
    6.1600    0.3870   20.1140 C   0  0  0  0  0  0  0  0  0  0  0  0
    7.2210   -0.4620   20.0350 C   0  0  0  0  0  0  0  0  0  0  0  0
    5.3360    0.8000   21.1530 C   0  0  0  0  0  0  0  0  0  0  0  0
    4.2970    1.6690   20.8430 C   0  0  0  0  0  0  0  0  0  0  0  0
    4.0980    2.1130   19.5350 C   0  0  0  0  0  0  0  0  0  0  0  0
    4.9400    1.7060   18.5060 C   0  0  0  0  0  0  0  0  0  0  0  0
    8.9510    0.1280   21.6880 C   0  0  0  0  0  0  0  0  0  0  0  0
    8.2358   -4.9960   26.8042 C   0  0  0  0  0  0  0  0  0  0  0  0
    8.8771    1.0813   23.9905 C   0  0  0  0  0  0  0  0  0  0  0  0
    9.4200   -0.0840   22.9530 C   0  0  2  0  0  0  0  0  0  0  0  0
    7.6830   -0.5170   18.7600 N   0  0  0  0  0  0  0  0  0  0  0  0
    6.9440    0.2550   18.0100 N   0  0  0  0  0  0  0  0  0  0  0  0
    5.9810    0.8330   18.8060 N   0  0  0  0  0  0  0  0  0  0  0  0
    8.0810   -0.9750   21.0820 N   0  0  0  0  0  0  0  0  0  0  0  0
    9.1870    1.1500   21.0630 O   0  0  0  0  0  0  0  0  0  0  0  0
    9.2637   -4.8607   25.8240 O   0  0  0  0  0  0  0  0  0  0  0  0
   13.0002    4.0175   22.7265 Cl  0  0  0  0  0  0  0  0  0  0  0  0
    8.7415    5.7384   24.3065 H   0  0  0  0  0  0  0  0  0  0  0  0
    7.7267    3.4945   24.5294 H   0  0  0  0  0  0  0  0  0  0  0  0
    7.5962   -0.7776   24.7981 H   0  0  0  0  0  0  0  0  0  0  0  0
   11.0395   -2.1844   22.6346 H   0  0  0  0  0  0  0  0  0  0  0  0
    7.5664   -2.8672   26.1058 H   0  0  0  0  0  0  0  0  0  0  0  0
   11.0120   -4.2666   23.9463 H   0  0  0  0  0  0  0  0  0  0  0  0
   11.0663    5.9816   23.5122 H   0  0  0  0  0  0  0  0  0  0  0  0
   11.3846    1.6989   23.1523 H   0  0  0  0  0  0  0  0  0  0  0  0
    5.4735    0.4758   22.1644 H   0  0  0  0  0  0  0  0  0  0  0  0
    3.6415    1.9967   21.6408 H   0  0  0  0  0  0  0  0  0  0  0  0
    3.2720    2.7926   19.2921 H   0  0  0  0  0  0  0  0  0  0  0  0
    4.8119    2.0418   17.5005 H   0  0  0  0  0  0  0  0  0  0  0  0
    8.3326   -5.9631   27.3037 H   0  0  0  0  0  0  0  0  0  0  0  0
    7.2583   -4.9195   26.3214 H   0  0  0  0  0  0  0  0  0  0  0  0
    8.3396   -4.1959   27.5410 H   0  0  0  0  0  0  0  0  0  0  0  0
    8.9708    0.7434   25.0308 H   0  0  0  0  0  0  0  0  0  0  0  0
    7.7972    1.1781   23.8117 H   0  0  0  0  0  0  0  0  0  0  0  0
   10.5743    0.2174   22.9808 H   0  0  0  0  0  0  0  0  0  0  0  0
    8.1159   -1.8115   21.3524 H   0  0  0  0  0  0  0  0  0  0  0  0
  1  2  2  0  0  0  0
  1  7  1  0  0  0  0
  2 10  1  0  0  0  0
  3  5  2  0  0  0  0
  3  9  1  0  0  0  0
  4  6  1  0  0  0  0
  4  9  2  0  0  0  0
  5 11  1  0  0  0  0
  6 11  2  0  0  0  0
  7 12  2  0  0  0  0
  8 10  2  0  0  0  0
  8 12  1  0  0  0  0
  9 22  1  0  0  0  0
 10 21  1  0  0  0  0
 11 28  1  0  0  0  0
 12 29  1  0  0  0  0
 13 14  2  0  0  0  0
 13 15  1  0  0  0  0
 13 25  1  0  0  0  0
 14 23  1  0  0  0  0
 14 26  1  0  0  0  0
 15 16  2  0  0  0  0
 16 17  1  0  0  0  0
 17 18  2  0  0  0  0
 18 25  1  0  0  0  0
 19 22  1  0  0  0  0
 19 26  1  0  0  0  0
 19 27  2  0  0  0  0
 20 28  1  0  0  0  0
 21 22  1  6  0  0  0
 23 24  2  0  0  0  0
 24 25  1  0  0  0  0
  1 30  1  0  0  0  0
  2 31  1  0  0  0  0
  3 32  1  0  0  0  0
  4 33  1  0  0  0  0
  5 34  1  0  0  0  0
  6 35  1  0  0  0  0
  7 36  1  0  0  0  0
  8 37  1  0  0  0  0
 15 38  1  0  0  0  0
 16 39  1  0  0  0  0
 17 40  1  0  0  0  0
 18 41  1  0  0  0  0
 20 42  1  0  0  0  0
 20 43  1  0  0  0  0
 20 44  1  0  0  0  0
 21 45  1  0  0  0  0
 21 46  1  0  0  0  0
 22 47  1  0  0  0  0
 26 48  1  0  0  0  0
M  END
> <clash_score>
0

> <docking_score>
-10.66495418548584

> <overlap_score>
0.8616358637809753

$$$$
BENZO_273_2
  -OEChem-08232013493D

 58 62  0     1  0  0  0  0  0999 V2000
   11.4307    4.7297   23.1590 C   0  0  0  0  0  0  0  0  0  0  0  0
   12.4501    3.9274   22.6463 C   0  0  0  0  0  0  0  0  0  0  0  0
   10.2648    4.1449   23.6534 C   0  0  0  0  0  0  0  0  0  0  0  0
   12.3036    2.5404   22.6280 C   0  0  0  0  0  0  0  0  0  0  0  0
   10.1183    2.7579   23.6350 C   0  0  0  0  0  0  0  0  0  0  0  0
    8.3510   -1.5420   24.6110 C   0  0  0  0  0  0  0  0  0  0  0  0
   10.2760   -2.3270   23.4020 C   0  0  0  0  0  0  0  0  0  0  0  0
    8.3310   -2.7170   25.3430 C   0  0  0  0  0  0  0  0  0  0  0  0
   10.2570   -3.5000   24.1350 C   0  0  0  0  0  0  0  0  0  0  0  0
   11.1377    1.9556   23.1223 C   0  0  0  0  0  0  0  0  0  0  0  0
    9.3300   -1.3350   23.6390 C   0  0  0  0  0  0  0  0  0  0  0  0
    9.2850   -3.7090   25.1090 C   0  0  0  0  0  0  0  0  0  0  0  0
    6.1600    0.3870   20.1140 C   0  0  0  0  0  0  0  0  0  0  0  0
    7.2210   -0.4620   20.0350 C   0  0  0  0  0  0  0  0  0  0  0  0
    5.3360    0.8000   21.1530 C   0  0  0  0  0  0  0  0  0  0  0  0
    4.2970    1.6690   20.8430 C   0  0  0  0  0  0  0  0  0  0  0  0
    4.0980    2.1130   19.5350 C   0  0  0  0  0  0  0  0  0  0  0  0
    4.9400    1.7060   18.5060 C   0  0  0  0  0  0  0  0  0  0  0  0
    8.0643   -5.4721   26.3672 C   0  0  0  0  0  0  0  0  0  0  0  0
    8.9510    0.1280   21.6880 C   0  0  0  0  0  0  0  0  0  0  0  0
    8.2649   -6.7591   27.1477 C   0  0  0  0  0  0  0  0  0  0  0  0
    9.4073   -6.6157   28.1377 C   0  0  0  0  0  0  0  0  0  0  0  0
   10.6967   -6.1489   27.4694 C   0  0  0  0  0  0  0  0  0  0  0  0
   10.4950   -5.7059   26.0212 C   0  0  0  0  0  0  0  0  0  0  0  0
   10.9782    0.4527   23.1025 C   0  0  0  0  0  0  0  0  0  0  0  0
    9.4200   -0.0840   22.9530 C   0  0  2  0  0  0  0  0  0  0  0  0
    7.6830   -0.5170   18.7600 N   0  0  0  0  0  0  0  0  0  0  0  0
    6.9440    0.2550   18.0100 N   0  0  0  0  0  0  0  0  0  0  0  0
    5.9810    0.8330   18.8060 N   0  0  0  0  0  0  0  0  0  0  0  0
    9.2624   -4.9267   25.8634 N   0  0  0  0  0  0  0  0  0  0  0  0
    8.0810   -0.9750   21.0820 N   0  0  0  0  0  0  0  0  0  0  0  0
    6.9247   -5.0497   26.1749 O   0  0  0  0  0  0  0  0  0  0  0  0
    9.1870    1.1500   21.0630 O   0  0  0  0  0  0  0  0  0  0  0  0
   11.5455    5.8096   23.1744 H   0  0  0  0  0  0  0  0  0  0  0  0
   13.3585    4.3825   22.2623 H   0  0  0  0  0  0  0  0  0  0  0  0
    9.4714    4.7691   24.0536 H   0  0  0  0  0  0  0  0  0  0  0  0
   13.1030    1.9232   22.2264 H   0  0  0  0  0  0  0  0  0  0  0  0
    9.2064    2.3111   24.0222 H   0  0  0  0  0  0  0  0  0  0  0  0
    7.5948   -0.7783   24.7966 H   0  0  0  0  0  0  0  0  0  0  0  0
   11.0389   -2.1844   22.6342 H   0  0  0  0  0  0  0  0  0  0  0  0
    7.5642   -2.8624   26.1050 H   0  0  0  0  0  0  0  0  0  0  0  0
   11.0137   -4.2649   23.9418 H   0  0  0  0  0  0  0  0  0  0  0  0
    5.4735    0.4758   22.1644 H   0  0  0  0  0  0  0  0  0  0  0  0
    3.6415    1.9967   21.6408 H   0  0  0  0  0  0  0  0  0  0  0  0
    3.2720    2.7926   19.2920 H   0  0  0  0  0  0  0  0  0  0  0  0
    4.8119    2.0418   17.5005 H   0  0  0  0  0  0  0  0  0  0  0  0
    7.3543   -6.9829   27.6818 H   0  0  0  0  0  0  0  0  0  0  0  0
    8.4783   -7.5436   26.4372 H   0  0  0  0  0  0  0  0  0  0  0  0
    9.1257   -5.9021   28.9399 H   0  0  0  0  0  0  0  0  0  0  0  0
    9.5814   -7.5840   28.6486 H   0  0  0  0  0  0  0  0  0  0  0  0
   11.1319   -5.3094   28.0513 H   0  0  0  0  0  0  0  0  0  0  0  0
   11.4591   -6.9570   27.5118 H   0  0  0  0  0  0  0  0  0  0  0  0
   11.3214   -5.0711   25.7158 H   0  0  0  0  0  0  0  0  0  0  0  0
   10.4496   -6.5786   25.3788 H   0  0  0  0  0  0  0  0  0  0  0  0
   11.5374    0.0399   22.2527 H   0  0  0  0  0  0  0  0  0  0  0  0
   11.4700    0.0494   23.9985 H   0  0  0  0  0  0  0  0  0  0  0  0
    8.9187    0.7273   23.6745 H   0  0  0  0  0  0  0  0  0  0  0  0
    8.1354   -1.7990   21.3694 H   0  0  0  0  0  0  0  0  0  0  0  0
  1  2  1  0  0  0  0
  1  3  2  0  0  0  0
  2  4  2  0  0  0  0
  3  5  1  0  0  0  0
  4 10  1  0  0  0  0
  5 10  2  0  0  0  0
  6  8  2  0  0  0  0
  6 11  1  0  0  0  0
  7  9  1  0  0  0  0
  7 11  2  0  0  0  0
  8 12  1  0  0  0  0
  9 12  2  0  0  0  0
 10 25  1  0  0  0  0
 11 26  1  0  0  0  0
 12 30  1  0  0  0  0
 13 14  2  0  0  0  0
 13 15  1  0  0  0  0
 13 29  1  0  0  0  0
 14 27  1  0  0  0  0
 14 31  1  0  0  0  0
 15 16  2  0  0  0  0
 16 17  1  0  0  0  0
 17 18  2  0  0  0  0
 18 29  1  0  0  0  0
 19 21  1  0  0  0  0
 19 30  1  0  0  0  0
 19 32  2  0  0  0  0
 20 26  1  6  0  0  0
 20 31  1  0  0  0  0
 20 33  2  0  0  0  0
 21 22  1  0  0  0  0
 22 23  1  0  0  0  0
 23 24  1  0  0  0  0
 24 30  1  0  0  0  0
 25 26  1  0  0  0  0
 27 28  2  0  0  0  0
 28 29  1  0  0  0  0
  1 34  1  0  0  0  0
  2 35  1  0  0  0  0
  3 36  1  0  0  0  0
  4 37  1  0  0  0  0
  5 38  1  0  0  0  0
  6 39  1  0  0  0  0
  7 40  1  0  0  0  0
  8 41  1  0  0  0  0
  9 42  1  0  0  0  0
 15 43  1  0  0  0  0
 16 44  1  0  0  0  0
 17 45  1  0  0  0  0
 18 46  1  0  0  0  0
 21 47  1  0  0  0  0
 21 48  1  0  0  0  0
 22 49  1  0  0  0  0
 22 50  1  0  0  0  0
 23 51  1  0  0  0  0
 23 52  1  0  0  0  0
 24 53  1  0  0  0  0
 24 54  1  0  0  0  0
 25 55  1  0  0  0  0
 25 56  1  0  0  0  0
 26 57  1  0  0  0  0
 31 58  1  0  0  0  0
M  END
> <clash_score>
1.2728248649063287

> <docking_score>
-9.693981170654297

> <overlap_score>
0.9460457563400269

$$$$
BENZO_273_1
  -OEChem-08232013493D

 58 62  0     1  0  0  0  0  0999 V2000
   10.6052    5.0071   23.5715 C   0  0  0  0  0  0  0  0  0  0  0  0
    9.2931    4.8684   24.0241 C   0  0  0  0  0  0  0  0  0  0  0  0
   11.3561    3.8758   23.2522 C   0  0  0  0  0  0  0  0  0  0  0  0
    8.7320    3.5984   24.1577 C   0  0  0  0  0  0  0  0  0  0  0  0
   10.7950    2.6058   23.3858 C   0  0  0  0  0  0  0  0  0  0  0  0
    8.3510   -1.5420   24.6110 C   0  0  0  0  0  0  0  0  0  0  0  0
   10.2760   -2.3270   23.4020 C   0  0  0  0  0  0  0  0  0  0  0  0
    8.3310   -2.7170   25.3430 C   0  0  0  0  0  0  0  0  0  0  0  0
   10.2570   -3.5000   24.1350 C   0  0  0  0  0  0  0  0  0  0  0  0
    9.4830    2.4670   23.8385 C   0  0  0  0  0  0  0  0  0  0  0  0
    9.3300   -1.3350   23.6390 C   0  0  0  0  0  0  0  0  0  0  0  0
    9.2850   -3.7090   25.1090 C   0  0  0  0  0  0  0  0  0  0  0  0
    6.1600    0.3870   20.1140 C   0  0  0  0  0  0  0  0  0  0  0  0
    7.2210   -0.4620   20.0350 C   0  0  0  0  0  0  0  0  0  0  0  0
    5.3360    0.8000   21.1530 C   0  0  0  0  0  0  0  0  0  0  0  0
    4.2970    1.6690   20.8430 C   0  0  0  0  0  0  0  0  0  0  0  0
    4.0980    2.1130   19.5350 C   0  0  0  0  0  0  0  0  0  0  0  0
    4.9400    1.7060   18.5060 C   0  0  0  0  0  0  0  0  0  0  0  0
    8.0643   -5.4721   26.3672 C   0  0  0  0  0  0  0  0  0  0  0  0
    8.9510    0.1280   21.6880 C   0  0  0  0  0  0  0  0  0  0  0  0
    8.2649   -6.7591   27.1477 C   0  0  0  0  0  0  0  0  0  0  0  0
    9.4073   -6.6157   28.1377 C   0  0  0  0  0  0  0  0  0  0  0  0
   10.6967   -6.1489   27.4694 C   0  0  0  0  0  0  0  0  0  0  0  0
   10.4950   -5.7059   26.0212 C   0  0  0  0  0  0  0  0  0  0  0  0
    8.8757    1.0906   23.9832 C   0  0  0  0  0  0  0  0  0  0  0  0
    9.4200   -0.0840   22.9530 C   0  0  1  0  0  0  0  0  0  0  0  0
    7.6830   -0.5170   18.7600 N   0  0  0  0  0  0  0  0  0  0  0  0
    6.9440    0.2550   18.0100 N   0  0  0  0  0  0  0  0  0  0  0  0
    5.9810    0.8330   18.8060 N   0  0  0  0  0  0  0  0  0  0  0  0
    9.2624   -4.9267   25.8634 N   0  0  0  0  0  0  0  0  0  0  0  0
    8.0810   -0.9750   21.0820 N   0  0  0  0  0  0  0  0  0  0  0  0
    6.9247   -5.0497   26.1749 O   0  0  0  0  0  0  0  0  0  0  0  0
    9.1870    1.1500   21.0630 O   0  0  0  0  0  0  0  0  0  0  0  0
   11.0415    5.9962   23.4663 H   0  0  0  0  0  0  0  0  0  0  0  0
    8.7079    5.7493   24.2717 H   0  0  0  0  0  0  0  0  0  0  0  0
   12.3773    3.9835   22.8987 H   0  0  0  0  0  0  0  0  0  0  0  0
    7.7090    3.4999   24.5113 H   0  0  0  0  0  0  0  0  0  0  0  0
   11.3876    1.7300   23.1348 H   0  0  0  0  0  0  0  0  0  0  0  0
    7.5948   -0.7783   24.7966 H   0  0  0  0  0  0  0  0  0  0  0  0
   11.0389   -2.1844   22.6342 H   0  0  0  0  0  0  0  0  0  0  0  0
    7.5642   -2.8624   26.1050 H   0  0  0  0  0  0  0  0  0  0  0  0
   11.0137   -4.2649   23.9418 H   0  0  0  0  0  0  0  0  0  0  0  0
    5.4735    0.4758   22.1644 H   0  0  0  0  0  0  0  0  0  0  0  0
    3.6415    1.9967   21.6408 H   0  0  0  0  0  0  0  0  0  0  0  0
    3.2720    2.7926   19.2921 H   0  0  0  0  0  0  0  0  0  0  0  0
    4.8119    2.0418   17.5005 H   0  0  0  0  0  0  0  0  0  0  0  0
    7.3543   -6.9829   27.6818 H   0  0  0  0  0  0  0  0  0  0  0  0
    8.4783   -7.5436   26.4372 H   0  0  0  0  0  0  0  0  0  0  0  0
    9.1257   -5.9021   28.9399 H   0  0  0  0  0  0  0  0  0  0  0  0
    9.5814   -7.5840   28.6486 H   0  0  0  0  0  0  0  0  0  0  0  0
   11.1319   -5.3094   28.0513 H   0  0  0  0  0  0  0  0  0  0  0  0
   11.4591   -6.9570   27.5118 H   0  0  0  0  0  0  0  0  0  0  0  0
   11.3214   -5.0711   25.7158 H   0  0  0  0  0  0  0  0  0  0  0  0
   10.4496   -6.5786   25.3788 H   0  0  0  0  0  0  0  0  0  0  0  0
    8.9639    0.7632   25.0273 H   0  0  0  0  0  0  0  0  0  0  0  0
    7.7964    1.1765   23.7950 H   0  0  0  0  0  0  0  0  0  0  0  0
   10.5749    0.2253   22.9765 H   0  0  0  0  0  0  0  0  0  0  0  0
    8.1354   -1.7990   21.3694 H   0  0  0  0  0  0  0  0  0  0  0  0
  1  2  1  0  0  0  0
  1  3  2  0  0  0  0
  2  4  2  0  0  0  0
  3  5  1  0  0  0  0
  4 10  1  0  0  0  0
  5 10  2  0  0  0  0
  6  8  2  0  0  0  0
  6 11  1  0  0  0  0
  7  9  1  0  0  0  0
  7 11  2  0  0  0  0
  8 12  1  0  0  0  0
  9 12  2  0  0  0  0
 10 25  1  0  0  0  0
 11 26  1  0  0  0  0
 12 30  1  0  0  0  0
 13 14  2  0  0  0  0
 13 15  1  0  0  0  0
 13 29  1  0  0  0  0
 14 27  1  0  0  0  0
 14 31  1  0  0  0  0
 15 16  2  0  0  0  0
 16 17  1  0  0  0  0
 17 18  2  0  0  0  0
 18 29  1  0  0  0  0
 19 21  1  0  0  0  0
 19 30  1  0  0  0  0
 19 32  2  0  0  0  0
 20 26  1  1  0  0  0
 20 31  1  0  0  0  0
 20 33  2  0  0  0  0
 21 22  1  0  0  0  0
 22 23  1  0  0  0  0
 23 24  1  0  0  0  0
 24 30  1  0  0  0  0
 25 26  1  0  0  0  0
 27 28  2  0  0  0  0
 28 29  1  0  0  0  0
  1 34  1  0  0  0  0
  2 35  1  0  0  0  0
  3 36  1  0  0  0  0
  4 37  1  0  0  0  0
  5 38  1  0  0  0  0
  6 39  1  0  0  0  0
  7 40  1  0  0  0  0
  8 41  1  0  0  0  0
  9 42  1  0  0  0  0
 15 43  1  0  0  0  0
 16 44  1  0  0  0  0
 17 45  1  0  0  0  0
 18 46  1  0  0  0  0
 21 47  1  0  0  0  0
 21 48  1  0  0  0  0
 22 49  1  0  0  0  0
 22 50  1  0  0  0  0
 23 51  1  0  0  0  0
 23 52  1  0  0  0  0
 24 53  1  0  0  0  0
 24 54  1  0  0  0  0
 25 55  1  0  0  0  0
 25 56  1  0  0  0  0
 26 57  1  0  0  0  0
 31 58  1  0  0  0  0
M  END
> <clash_score>
1.2728248649063287

> <docking_score>
-8.588006019592285

> <overlap_score>
0.8745534420013428

$$$$
BENZO_272_1
  -OEChem-08232013493D

 55 59  0     1  0  0  0  0  0999 V2000
    8.3510   -1.5420   24.6110 C   0  0  0  0  0  0  0  0  0  0  0  0
   10.2760   -2.3270   23.4020 C   0  0  0  0  0  0  0  0  0  0  0  0
    8.3310   -2.7170   25.3430 C   0  0  0  0  0  0  0  0  0  0  0  0
   10.2570   -3.5000   24.1350 C   0  0  0  0  0  0  0  0  0  0  0  0
   10.8518    2.7022   23.5205 C   0  0  0  0  0  0  0  0  0  0  0  0
   11.1431    4.0467   23.4499 C   0  0  0  0  0  0  0  0  0  0  0  0
    8.7801    3.6410   23.9990 C   0  0  0  0  0  0  0  0  0  0  0  0
    9.3300   -1.3350   23.6390 C   0  0  0  0  0  0  0  0  0  0  0  0
    9.4830    2.4670   23.8385 C   0  0  0  0  0  0  0  0  0  0  0  0
    9.2850   -3.7090   25.1090 C   0  0  0  0  0  0  0  0  0  0  0  0
    6.1600    0.3870   20.1140 C   0  0  0  0  0  0  0  0  0  0  0  0
    7.2210   -0.4620   20.0350 C   0  0  0  0  0  0  0  0  0  0  0  0
    5.3360    0.8000   21.1530 C   0  0  0  0  0  0  0  0  0  0  0  0
    4.2970    1.6690   20.8430 C   0  0  0  0  0  0  0  0  0  0  0  0
    4.0980    2.1130   19.5350 C   0  0  0  0  0  0  0  0  0  0  0  0
    4.9400    1.7060   18.5060 C   0  0  0  0  0  0  0  0  0  0  0  0
    8.0643   -5.4721   26.3672 C   0  0  0  0  0  0  0  0  0  0  0  0
    8.9510    0.1280   21.6880 C   0  0  0  0  0  0  0  0  0  0  0  0
    8.2649   -6.7591   27.1477 C   0  0  0  0  0  0  0  0  0  0  0  0
    9.4073   -6.6157   28.1377 C   0  0  0  0  0  0  0  0  0  0  0  0
   10.6967   -6.1489   27.4694 C   0  0  0  0  0  0  0  0  0  0  0  0
   10.4950   -5.7059   26.0212 C   0  0  0  0  0  0  0  0  0  0  0  0
    8.8757    1.0906   23.9832 C   0  0  0  0  0  0  0  0  0  0  0  0
    9.4200   -0.0840   22.9530 C   0  0  1  0  0  0  0  0  0  0  0  0
    7.6830   -0.5170   18.7600 N   0  0  0  0  0  0  0  0  0  0  0  0
    6.9440    0.2550   18.0100 N   0  0  0  0  0  0  0  0  0  0  0  0
    5.9810    0.8330   18.8060 N   0  0  0  0  0  0  0  0  0  0  0  0
    9.2624   -4.9267   25.8634 N   0  0  0  0  0  0  0  0  0  0  0  0
    8.0810   -0.9750   21.0820 N   0  0  0  0  0  0  0  0  0  0  0  0
    6.9247   -5.0497   26.1749 O   0  0  0  0  0  0  0  0  0  0  0  0
    9.1870    1.1500   21.0630 O   0  0  0  0  0  0  0  0  0  0  0  0
    9.7696    5.0191   23.7663 S   0  0  0  0  0  0  0  0  0  0  0  0
    7.5948   -0.7783   24.7966 H   0  0  0  0  0  0  0  0  0  0  0  0
   11.0389   -2.1844   22.6342 H   0  0  0  0  0  0  0  0  0  0  0  0
    7.5642   -2.8624   26.1050 H   0  0  0  0  0  0  0  0  0  0  0  0
   11.0137   -4.2649   23.9418 H   0  0  0  0  0  0  0  0  0  0  0  0
   11.5890    1.9273   23.3518 H   0  0  0  0  0  0  0  0  0  0  0  0
   12.0968    4.5045   23.2284 H   0  0  0  0  0  0  0  0  0  0  0  0
    7.7335    3.7598   24.2428 H   0  0  0  0  0  0  0  0  0  0  0  0
    5.4735    0.4758   22.1644 H   0  0  0  0  0  0  0  0  0  0  0  0
    3.6415    1.9967   21.6408 H   0  0  0  0  0  0  0  0  0  0  0  0
    3.2720    2.7926   19.2921 H   0  0  0  0  0  0  0  0  0  0  0  0
    4.8119    2.0418   17.5005 H   0  0  0  0  0  0  0  0  0  0  0  0
    7.3543   -6.9829   27.6818 H   0  0  0  0  0  0  0  0  0  0  0  0
    8.4783   -7.5436   26.4372 H   0  0  0  0  0  0  0  0  0  0  0  0
    9.1257   -5.9021   28.9399 H   0  0  0  0  0  0  0  0  0  0  0  0
    9.5814   -7.5840   28.6486 H   0  0  0  0  0  0  0  0  0  0  0  0
   11.1319   -5.3094   28.0513 H   0  0  0  0  0  0  0  0  0  0  0  0
   11.4591   -6.9570   27.5118 H   0  0  0  0  0  0  0  0  0  0  0  0
   11.3214   -5.0711   25.7158 H   0  0  0  0  0  0  0  0  0  0  0  0
   10.4496   -6.5786   25.3788 H   0  0  0  0  0  0  0  0  0  0  0  0
    8.9639    0.7632   25.0273 H   0  0  0  0  0  0  0  0  0  0  0  0
    7.7964    1.1765   23.7950 H   0  0  0  0  0  0  0  0  0  0  0  0
   10.5749    0.2253   22.9765 H   0  0  0  0  0  0  0  0  0  0  0  0
    8.1354   -1.7990   21.3694 H   0  0  0  0  0  0  0  0  0  0  0  0
  1  3  2  0  0  0  0
  1  8  1  0  0  0  0
  2  4  1  0  0  0  0
  2  8  2  0  0  0  0
  3 10  1  0  0  0  0
  4 10  2  0  0  0  0
  5  6  2  0  0  0  0
  5  9  1  0  0  0  0
  6 32  1  0  0  0  0
  7  9  2  0  0  0  0
  7 32  1  0  0  0  0
  8 24  1  0  0  0  0
  9 23  1  0  0  0  0
 10 28  1  0  0  0  0
 11 12  2  0  0  0  0
 11 13  1  0  0  0  0
 11 27  1  0  0  0  0
 12 25  1  0  0  0  0
 12 29  1  0  0  0  0
 13 14  2  0  0  0  0
 14 15  1  0  0  0  0
 15 16  2  0  0  0  0
 16 27  1  0  0  0  0
 17 19  1  0  0  0  0
 17 28  1  0  0  0  0
 17 30  2  0  0  0  0
 18 24  1  1  0  0  0
 18 29  1  0  0  0  0
 18 31  2  0  0  0  0
 19 20  1  0  0  0  0
 20 21  1  0  0  0  0
 21 22  1  0  0  0  0
 22 28  1  0  0  0  0
 23 24  1  0  0  0  0
 25 26  2  0  0  0  0
 26 27  1  0  0  0  0
  1 33  1  0  0  0  0
  2 34  1  0  0  0  0
  3 35  1  0  0  0  0
  4 36  1  0  0  0  0
  5 37  1  0  0  0  0
  6 38  1  0  0  0  0
  7 39  1  0  0  0  0
 13 40  1  0  0  0  0
 14 41  1  0  0  0  0
 15 42  1  0  0  0  0
 16 43  1  0  0  0  0
 19 44  1  0  0  0  0
 19 45  1  0  0  0  0
 20 46  1  0  0  0  0
 20 47  1  0  0  0  0
 21 48  1  0  0  0  0
 21 49  1  0  0  0  0
 22 50  1  0  0  0  0
 22 51  1  0  0  0  0
 23 52  1  0  0  0  0
 23 53  1  0  0  0  0
 24 54  1  0  0  0  0
 29 55  1  0  0  0  0
M  END
> <clash_score>
1.2728248649063287

> <docking_score>
-8.307467460632324

> <overlap_score>
0.8719334602355957

$$$$
BENZO_272_2
  -OEChem-08232013493D

 55 59  0     1  0  0  0  0  0999 V2000
    8.3510   -1.5420   24.6110 C   0  0  0  0  0  0  0  0  0  0  0  0
   10.2760   -2.3270   23.4020 C   0  0  0  0  0  0  0  0  0  0  0  0
    8.3310   -2.7170   25.3430 C   0  0  0  0  0  0  0  0  0  0  0  0
   10.2570   -3.5000   24.1350 C   0  0  0  0  0  0  0  0  0  0  0  0
   11.9035    2.6860   22.1682 C   0  0  0  0  0  0  0  0  0  0  0  0
   11.8836    4.0408   22.4166 C   0  0  0  0  0  0  0  0  0  0  0  0
   10.5617    2.7801   24.0638 C   0  0  0  0  0  0  0  0  0  0  0  0
    9.3300   -1.3350   23.6390 C   0  0  0  0  0  0  0  0  0  0  0  0
   11.1377    1.9556   23.1223 C   0  0  0  0  0  0  0  0  0  0  0  0
    9.2850   -3.7090   25.1090 C   0  0  0  0  0  0  0  0  0  0  0  0
    6.1600    0.3870   20.1140 C   0  0  0  0  0  0  0  0  0  0  0  0
    7.2210   -0.4620   20.0350 C   0  0  0  0  0  0  0  0  0  0  0  0
    5.3360    0.8000   21.1530 C   0  0  0  0  0  0  0  0  0  0  0  0
    4.2970    1.6690   20.8430 C   0  0  0  0  0  0  0  0  0  0  0  0
    4.0980    2.1130   19.5350 C   0  0  0  0  0  0  0  0  0  0  0  0
    4.9400    1.7060   18.5060 C   0  0  0  0  0  0  0  0  0  0  0  0
    8.0643   -5.4721   26.3672 C   0  0  0  0  0  0  0  0  0  0  0  0
    8.9510    0.1280   21.6880 C   0  0  0  0  0  0  0  0  0  0  0  0
    8.2649   -6.7591   27.1477 C   0  0  0  0  0  0  0  0  0  0  0  0
    9.4073   -6.6157   28.1377 C   0  0  0  0  0  0  0  0  0  0  0  0
   10.6967   -6.1489   27.4694 C   0  0  0  0  0  0  0  0  0  0  0  0
   10.4950   -5.7059   26.0212 C   0  0  0  0  0  0  0  0  0  0  0  0
   10.9782    0.4527   23.1025 C   0  0  0  0  0  0  0  0  0  0  0  0
    9.4200   -0.0840   22.9530 C   0  0  2  0  0  0  0  0  0  0  0  0
    7.6830   -0.5170   18.7600 N   0  0  0  0  0  0  0  0  0  0  0  0
    6.9440    0.2550   18.0100 N   0  0  0  0  0  0  0  0  0  0  0  0
    5.9810    0.8330   18.8060 N   0  0  0  0  0  0  0  0  0  0  0  0
    9.2624   -4.9267   25.8634 N   0  0  0  0  0  0  0  0  0  0  0  0
    8.0810   -0.9750   21.0820 N   0  0  0  0  0  0  0  0  0  0  0  0
    6.9247   -5.0497   26.1749 O   0  0  0  0  0  0  0  0  0  0  0  0
    9.1870    1.1500   21.0630 O   0  0  0  0  0  0  0  0  0  0  0  0
   10.9445    4.4274   23.7954 S   0  0  0  0  0  0  0  0  0  0  0  0
    7.5948   -0.7783   24.7966 H   0  0  0  0  0  0  0  0  0  0  0  0
   11.0389   -2.1844   22.6342 H   0  0  0  0  0  0  0  0  0  0  0  0
    7.5642   -2.8624   26.1050 H   0  0  0  0  0  0  0  0  0  0  0  0
   11.0137   -4.2649   23.9418 H   0  0  0  0  0  0  0  0  0  0  0  0
   12.4436    2.2440   21.3404 H   0  0  0  0  0  0  0  0  0  0  0  0
   12.3760    4.8219   21.8549 H   0  0  0  0  0  0  0  0  0  0  0  0
    9.9349    2.4980   24.8984 H   0  0  0  0  0  0  0  0  0  0  0  0
    5.4735    0.4758   22.1644 H   0  0  0  0  0  0  0  0  0  0  0  0
    3.6415    1.9967   21.6408 H   0  0  0  0  0  0  0  0  0  0  0  0
    3.2720    2.7926   19.2920 H   0  0  0  0  0  0  0  0  0  0  0  0
    4.8119    2.0418   17.5005 H   0  0  0  0  0  0  0  0  0  0  0  0
    7.3543   -6.9829   27.6818 H   0  0  0  0  0  0  0  0  0  0  0  0
    8.4783   -7.5436   26.4372 H   0  0  0  0  0  0  0  0  0  0  0  0
    9.1257   -5.9021   28.9399 H   0  0  0  0  0  0  0  0  0  0  0  0
    9.5814   -7.5840   28.6486 H   0  0  0  0  0  0  0  0  0  0  0  0
   11.1319   -5.3094   28.0513 H   0  0  0  0  0  0  0  0  0  0  0  0
   11.4591   -6.9570   27.5118 H   0  0  0  0  0  0  0  0  0  0  0  0
   11.3214   -5.0711   25.7158 H   0  0  0  0  0  0  0  0  0  0  0  0
   10.4496   -6.5786   25.3788 H   0  0  0  0  0  0  0  0  0  0  0  0
   11.5374    0.0399   22.2527 H   0  0  0  0  0  0  0  0  0  0  0  0
   11.4700    0.0494   23.9985 H   0  0  0  0  0  0  0  0  0  0  0  0
    8.9187    0.7273   23.6745 H   0  0  0  0  0  0  0  0  0  0  0  0
    8.1354   -1.7990   21.3694 H   0  0  0  0  0  0  0  0  0  0  0  0
  1  3  2  0  0  0  0
  1  8  1  0  0  0  0
  2  4  1  0  0  0  0
  2  8  2  0  0  0  0
  3 10  1  0  0  0  0
  4 10  2  0  0  0  0
  5  6  2  0  0  0  0
  5  9  1  0  0  0  0
  6 32  1  0  0  0  0
  7  9  2  0  0  0  0
  7 32  1  0  0  0  0
  8 24  1  0  0  0  0
  9 23  1  0  0  0  0
 10 28  1  0  0  0  0
 11 12  2  0  0  0  0
 11 13  1  0  0  0  0
 11 27  1  0  0  0  0
 12 25  1  0  0  0  0
 12 29  1  0  0  0  0
 13 14  2  0  0  0  0
 14 15  1  0  0  0  0
 15 16  2  0  0  0  0
 16 27  1  0  0  0  0
 17 19  1  0  0  0  0
 17 28  1  0  0  0  0
 17 30  2  0  0  0  0
 18 24  1  6  0  0  0
 18 29  1  0  0  0  0
 18 31  2  0  0  0  0
 19 20  1  0  0  0  0
 20 21  1  0  0  0  0
 21 22  1  0  0  0  0
 22 28  1  0  0  0  0
 23 24  1  0  0  0  0
 25 26  2  0  0  0  0
 26 27  1  0  0  0  0
  1 33  1  0  0  0  0
  2 34  1  0  0  0  0
  3 35  1  0  0  0  0
  4 36  1  0  0  0  0
  5 37  1  0  0  0  0
  6 38  1  0  0  0  0
  7 39  1  0  0  0  0
 13 40  1  0  0  0  0
 14 41  1  0  0  0  0
 15 42  1  0  0  0  0
 16 43  1  0  0  0  0
 19 44  1  0  0  0  0
 19 45  1  0  0  0  0
 20 46  1  0  0  0  0
 20 47  1  0  0  0  0
 21 48  1  0  0  0  0
 21 49  1  0  0  0  0
 22 50  1  0  0  0  0
 22 51  1  0  0  0  0
 23 52  1  0  0  0  0
 23 53  1  0  0  0  0
 24 54  1  0  0  0  0
 29 55  1  0  0  0  0
M  END
> <clash_score>
1.2728248649063287

> <docking_score>
-8.256644248962402

> <overlap_score>
0.9351983666419983

$$$$
BENZO_274_1
  -OEChem-08232013493D

 58 62  0     1  0  0  0  0  0999 V2000
    9.2914    4.8680   24.0266 C   0  0  0  0  0  0  0  0  0  0  0  0
    8.7312    3.5975   24.1588 C   0  0  0  0  0  0  0  0  0  0  0  0
    8.3510   -1.5420   24.6110 C   0  0  0  0  0  0  0  0  0  0  0  0
   10.2760   -2.3270   23.4020 C   0  0  0  0  0  0  0  0  0  0  0  0
    8.3310   -2.7170   25.3430 C   0  0  0  0  0  0  0  0  0  0  0  0
   10.2570   -3.5000   24.1350 C   0  0  0  0  0  0  0  0  0  0  0  0
   10.6034    5.0082   23.5739 C   0  0  0  0  0  0  0  0  0  0  0  0
   10.7949    2.6071   23.3859 C   0  0  0  0  0  0  0  0  0  0  0  0
    9.3300   -1.3350   23.6390 C   0  0  0  0  0  0  0  0  0  0  0  0
    9.4830    2.4670   23.8385 C   0  0  0  0  0  0  0  0  0  0  0  0
    9.2850   -3.7090   25.1090 C   0  0  0  0  0  0  0  0  0  0  0  0
   11.3551    3.8777   23.2536 C   0  0  0  0  0  0  0  0  0  0  0  0
    6.1600    0.3870   20.1140 C   0  0  0  0  0  0  0  0  0  0  0  0
    7.2210   -0.4620   20.0350 C   0  0  0  0  0  0  0  0  0  0  0  0
    5.3360    0.8000   21.1530 C   0  0  0  0  0  0  0  0  0  0  0  0
    4.2970    1.6690   20.8430 C   0  0  0  0  0  0  0  0  0  0  0  0
    4.0980    2.1130   19.5350 C   0  0  0  0  0  0  0  0  0  0  0  0
    4.9400    1.7060   18.5060 C   0  0  0  0  0  0  0  0  0  0  0  0
    8.0643   -5.4721   26.3672 C   0  0  0  0  0  0  0  0  0  0  0  0
    8.9510    0.1280   21.6880 C   0  0  0  0  0  0  0  0  0  0  0  0
    8.2649   -6.7591   27.1477 C   0  0  0  0  0  0  0  0  0  0  0  0
    9.4073   -6.6157   28.1377 C   0  0  0  0  0  0  0  0  0  0  0  0
   10.6967   -6.1489   27.4694 C   0  0  0  0  0  0  0  0  0  0  0  0
   10.4950   -5.7059   26.0212 C   0  0  0  0  0  0  0  0  0  0  0  0
    8.8757    1.0906   23.9832 C   0  0  0  0  0  0  0  0  0  0  0  0
    9.4200   -0.0840   22.9530 C   0  0  1  0  0  0  0  0  0  0  0  0
    7.6830   -0.5170   18.7600 N   0  0  0  0  0  0  0  0  0  0  0  0
    6.9440    0.2550   18.0100 N   0  0  0  0  0  0  0  0  0  0  0  0
    5.9810    0.8330   18.8060 N   0  0  0  0  0  0  0  0  0  0  0  0
    9.2624   -4.9267   25.8634 N   0  0  0  0  0  0  0  0  0  0  0  0
    8.0810   -0.9750   21.0820 N   0  0  0  0  0  0  0  0  0  0  0  0
    6.9247   -5.0497   26.1749 O   0  0  0  0  0  0  0  0  0  0  0  0
    9.1870    1.1500   21.0630 O   0  0  0  0  0  0  0  0  0  0  0  0
   12.9741    4.0512   22.6963 Cl  0  0  0  0  0  0  0  0  0  0  0  0
    8.7057    5.7480   24.2763 H   0  0  0  0  0  0  0  0  0  0  0  0
    7.7083    3.4977   24.5123 H   0  0  0  0  0  0  0  0  0  0  0  0
    7.5948   -0.7783   24.7966 H   0  0  0  0  0  0  0  0  0  0  0  0
   11.0389   -2.1844   22.6342 H   0  0  0  0  0  0  0  0  0  0  0  0
    7.5642   -2.8624   26.1050 H   0  0  0  0  0  0  0  0  0  0  0  0
   11.0137   -4.2649   23.9418 H   0  0  0  0  0  0  0  0  0  0  0  0
   11.0271    6.0046   23.4760 H   0  0  0  0  0  0  0  0  0  0  0  0
   11.3767    1.7227   23.1369 H   0  0  0  0  0  0  0  0  0  0  0  0
    5.4735    0.4758   22.1644 H   0  0  0  0  0  0  0  0  0  0  0  0
    3.6415    1.9967   21.6408 H   0  0  0  0  0  0  0  0  0  0  0  0
    3.2720    2.7926   19.2921 H   0  0  0  0  0  0  0  0  0  0  0  0
    4.8119    2.0418   17.5005 H   0  0  0  0  0  0  0  0  0  0  0  0
    7.3543   -6.9829   27.6818 H   0  0  0  0  0  0  0  0  0  0  0  0
    8.4783   -7.5436   26.4372 H   0  0  0  0  0  0  0  0  0  0  0  0
    9.1257   -5.9021   28.9399 H   0  0  0  0  0  0  0  0  0  0  0  0
    9.5814   -7.5840   28.6486 H   0  0  0  0  0  0  0  0  0  0  0  0
   11.1319   -5.3094   28.0513 H   0  0  0  0  0  0  0  0  0  0  0  0
   11.4591   -6.9570   27.5118 H   0  0  0  0  0  0  0  0  0  0  0  0
   11.3214   -5.0711   25.7158 H   0  0  0  0  0  0  0  0  0  0  0  0
   10.4496   -6.5786   25.3788 H   0  0  0  0  0  0  0  0  0  0  0  0
    8.9639    0.7632   25.0273 H   0  0  0  0  0  0  0  0  0  0  0  0
    7.7964    1.1765   23.7950 H   0  0  0  0  0  0  0  0  0  0  0  0
   10.5749    0.2253   22.9765 H   0  0  0  0  0  0  0  0  0  0  0  0
    8.1354   -1.7990   21.3694 H   0  0  0  0  0  0  0  0  0  0  0  0
  1  2  2  0  0  0  0
  1  7  1  0  0  0  0
  2 10  1  0  0  0  0
  3  5  2  0  0  0  0
  3  9  1  0  0  0  0
  4  6  1  0  0  0  0
  4  9  2  0  0  0  0
  5 11  1  0  0  0  0
  6 11  2  0  0  0  0
  7 12  2  0  0  0  0
  8 10  2  0  0  0  0
  8 12  1  0  0  0  0
  9 26  1  0  0  0  0
 10 25  1  0  0  0  0
 11 30  1  0  0  0  0
 12 34  1  0  0  0  0
 13 14  2  0  0  0  0
 13 15  1  0  0  0  0
 13 29  1  0  0  0  0
 14 27  1  0  0  0  0
 14 31  1  0  0  0  0
 15 16  2  0  0  0  0
 16 17  1  0  0  0  0
 17 18  2  0  0  0  0
 18 29  1  0  0  0  0
 19 21  1  0  0  0  0
 19 30  1  0  0  0  0
 19 32  2  0  0  0  0
 20 26  1  1  0  0  0
 20 31  1  0  0  0  0
 20 33  2  0  0  0  0
 21 22  1  0  0  0  0
 22 23  1  0  0  0  0
 23 24  1  0  0  0  0
 24 30  1  0  0  0  0
 25 26  1  0  0  0  0
 27 28  2  0  0  0  0
 28 29  1  0  0  0  0
  1 35  1  0  0  0  0
  2 36  1  0  0  0  0
  3 37  1  0  0  0  0
  4 38  1  0  0  0  0
  5 39  1  0  0  0  0
  6 40  1  0  0  0  0
  7 41  1  0  0  0  0
  8 42  1  0  0  0  0
 15 43  1  0  0  0  0
 16 44  1  0  0  0  0
 17 45  1  0  0  0  0
 18 46  1  0  0  0  0
 21 47  1  0  0  0  0
 21 48  1  0  0  0  0
 22 49  1  0  0  0  0
 22 50  1  0  0  0  0
 23 51  1  0  0  0  0
 23 52  1  0  0  0  0
 24 53  1  0  0  0  0
 24 54  1  0  0  0  0
 25 55  1  0  0  0  0
 25 56  1  0  0  0  0
 26 57  1  0  0  0  0
 31 58  1  0  0  0  0
M  END
> <clash_score>
1.2728248649063287

> <docking_score>
-9.13504409790039

> <overlap_score>
0.8818500638008118

$$$$
BENZO_274_2
  -OEChem-08232013493D

 58 62  0     1  0  0  0  0  0999 V2000
   10.2658    4.1447   23.6556 C   0  0  0  0  0  0  0  0  0  0  0  0
   10.1187    2.7577   23.6360 C   0  0  0  0  0  0  0  0  0  0  0  0
    8.3510   -1.5420   24.6110 C   0  0  0  0  0  0  0  0  0  0  0  0
   10.2760   -2.3270   23.4020 C   0  0  0  0  0  0  0  0  0  0  0  0
    8.3310   -2.7170   25.3430 C   0  0  0  0  0  0  0  0  0  0  0  0
   10.2570   -3.5000   24.1350 C   0  0  0  0  0  0  0  0  0  0  0  0
   11.4318    4.7295   23.1615 C   0  0  0  0  0  0  0  0  0  0  0  0
   12.3037    2.5404   22.6282 C   0  0  0  0  0  0  0  0  0  0  0  0
    9.3300   -1.3350   23.6390 C   0  0  0  0  0  0  0  0  0  0  0  0
   11.1377    1.9556   23.1223 C   0  0  0  0  0  0  0  0  0  0  0  0
    9.2850   -3.7090   25.1090 C   0  0  0  0  0  0  0  0  0  0  0  0
   12.4507    3.9273   22.6478 C   0  0  0  0  0  0  0  0  0  0  0  0
    6.1600    0.3870   20.1140 C   0  0  0  0  0  0  0  0  0  0  0  0
    7.2210   -0.4620   20.0350 C   0  0  0  0  0  0  0  0  0  0  0  0
    5.3360    0.8000   21.1530 C   0  0  0  0  0  0  0  0  0  0  0  0
    4.2970    1.6690   20.8430 C   0  0  0  0  0  0  0  0  0  0  0  0
    4.0980    2.1130   19.5350 C   0  0  0  0  0  0  0  0  0  0  0  0
    4.9400    1.7060   18.5060 C   0  0  0  0  0  0  0  0  0  0  0  0
    8.0643   -5.4721   26.3672 C   0  0  0  0  0  0  0  0  0  0  0  0
    8.9510    0.1280   21.6880 C   0  0  0  0  0  0  0  0  0  0  0  0
    8.2649   -6.7591   27.1477 C   0  0  0  0  0  0  0  0  0  0  0  0
    9.4073   -6.6157   28.1377 C   0  0  0  0  0  0  0  0  0  0  0  0
   10.6967   -6.1489   27.4694 C   0  0  0  0  0  0  0  0  0  0  0  0
   10.4950   -5.7059   26.0212 C   0  0  0  0  0  0  0  0  0  0  0  0
   10.9782    0.4527   23.1025 C   0  0  0  0  0  0  0  0  0  0  0  0
    9.4200   -0.0840   22.9530 C   0  0  2  0  0  0  0  0  0  0  0  0
    7.6830   -0.5170   18.7600 N   0  0  0  0  0  0  0  0  0  0  0  0
    6.9440    0.2550   18.0100 N   0  0  0  0  0  0  0  0  0  0  0  0
    5.9810    0.8330   18.8060 N   0  0  0  0  0  0  0  0  0  0  0  0
    9.2624   -4.9267   25.8634 N   0  0  0  0  0  0  0  0  0  0  0  0
    8.0810   -0.9750   21.0820 N   0  0  0  0  0  0  0  0  0  0  0  0
    6.9247   -5.0497   26.1749 O   0  0  0  0  0  0  0  0  0  0  0  0
    9.1870    1.1500   21.0630 O   0  0  0  0  0  0  0  0  0  0  0  0
   13.8895    4.6494   22.0393 Cl  0  0  0  0  0  0  0  0  0  0  0  0
    9.4721    4.7689   24.0559 H   0  0  0  0  0  0  0  0  0  0  0  0
    9.2068    2.3107   24.0232 H   0  0  0  0  0  0  0  0  0  0  0  0
    7.5948   -0.7783   24.7966 H   0  0  0  0  0  0  0  0  0  0  0  0
   11.0389   -2.1844   22.6342 H   0  0  0  0  0  0  0  0  0  0  0  0
    7.5642   -2.8624   26.1050 H   0  0  0  0  0  0  0  0  0  0  0  0
   11.0137   -4.2649   23.9418 H   0  0  0  0  0  0  0  0  0  0  0  0
   11.5327    5.8118   23.1834 H   0  0  0  0  0  0  0  0  0  0  0  0
   13.0951    1.9106   22.2282 H   0  0  0  0  0  0  0  0  0  0  0  0
    5.4735    0.4758   22.1644 H   0  0  0  0  0  0  0  0  0  0  0  0
    3.6415    1.9967   21.6408 H   0  0  0  0  0  0  0  0  0  0  0  0
    3.2720    2.7926   19.2920 H   0  0  0  0  0  0  0  0  0  0  0  0
    4.8119    2.0418   17.5005 H   0  0  0  0  0  0  0  0  0  0  0  0
    7.3543   -6.9829   27.6818 H   0  0  0  0  0  0  0  0  0  0  0  0
    8.4783   -7.5436   26.4372 H   0  0  0  0  0  0  0  0  0  0  0  0
    9.1257   -5.9021   28.9399 H   0  0  0  0  0  0  0  0  0  0  0  0
    9.5814   -7.5840   28.6486 H   0  0  0  0  0  0  0  0  0  0  0  0
   11.1319   -5.3094   28.0513 H   0  0  0  0  0  0  0  0  0  0  0  0
   11.4591   -6.9570   27.5118 H   0  0  0  0  0  0  0  0  0  0  0  0
   11.3214   -5.0711   25.7158 H   0  0  0  0  0  0  0  0  0  0  0  0
   10.4496   -6.5786   25.3788 H   0  0  0  0  0  0  0  0  0  0  0  0
   11.5374    0.0399   22.2527 H   0  0  0  0  0  0  0  0  0  0  0  0
   11.4700    0.0494   23.9985 H   0  0  0  0  0  0  0  0  0  0  0  0
    8.9187    0.7273   23.6745 H   0  0  0  0  0  0  0  0  0  0  0  0
    8.1354   -1.7990   21.3694 H   0  0  0  0  0  0  0  0  0  0  0  0
  1  2  2  0  0  0  0
  1  7  1  0  0  0  0
  2 10  1  0  0  0  0
  3  5  2  0  0  0  0
  3  9  1  0  0  0  0
  4  6  1  0  0  0  0
  4  9  2  0  0  0  0
  5 11  1  0  0  0  0
  6 11  2  0  0  0  0
  7 12  2  0  0  0  0
  8 10  2  0  0  0  0
  8 12  1  0  0  0  0
  9 26  1  0  0  0  0
 10 25  1  0  0  0  0
 11 30  1  0  0  0  0
 12 34  1  0  0  0  0
 13 14  2  0  0  0  0
 13 15  1  0  0  0  0
 13 29  1  0  0  0  0
 14 27  1  0  0  0  0
 14 31  1  0  0  0  0
 15 16  2  0  0  0  0
 16 17  1  0  0  0  0
 17 18  2  0  0  0  0
 18 29  1  0  0  0  0
 19 21  1  0  0  0  0
 19 30  1  0  0  0  0
 19 32  2  0  0  0  0
 20 26  1  6  0  0  0
 20 31  1  0  0  0  0
 20 33  2  0  0  0  0
 21 22  1  0  0  0  0
 22 23  1  0  0  0  0
 23 24  1  0  0  0  0
 24 30  1  0  0  0  0
 25 26  1  0  0  0  0
 27 28  2  0  0  0  0
 28 29  1  0  0  0  0
  1 35  1  0  0  0  0
  2 36  1  0  0  0  0
  3 37  1  0  0  0  0
  4 38  1  0  0  0  0
  5 39  1  0  0  0  0
  6 40  1  0  0  0  0
  7 41  1  0  0  0  0
  8 42  1  0  0  0  0
 15 43  1  0  0  0  0
 16 44  1  0  0  0  0
 17 45  1  0  0  0  0
 18 46  1  0  0  0  0
 21 47  1  0  0  0  0
 21 48  1  0  0  0  0
 22 49  1  0  0  0  0
 22 50  1  0  0  0  0
 23 51  1  0  0  0  0
 23 52  1  0  0  0  0
 24 53  1  0  0  0  0
 24 54  1  0  0  0  0
 25 55  1  0  0  0  0
 25 56  1  0  0  0  0
 26 57  1  0  0  0  0
 31 58  1  0  0  0  0
M  END
> <clash_score>
1.2728248649063287

> <docking_score>
-10.116608619689941

> <overlap_score>
0.946629524230957

$$$$
BENZO_275_1
  -OEChem-08232013493D

 58 62  0     1  0  0  0  0  0999 V2000
    8.3510   -1.5420   24.6110 C   0  0  0  0  0  0  0  0  0  0  0  0
   10.2760   -2.3270   23.4020 C   0  0  0  0  0  0  0  0  0  0  0  0
    8.3310   -2.7170   25.3430 C   0  0  0  0  0  0  0  0  0  0  0  0
   10.2570   -3.5000   24.1350 C   0  0  0  0  0  0  0  0  0  0  0  0
   10.2246    2.9150   23.5994 C   0  0  0  0  0  0  0  0  0  0  0  0
   12.2096    2.6918   22.6803 C   0  0  0  0  0  0  0  0  0  0  0  0
    9.3300   -1.3350   23.6390 C   0  0  0  0  0  0  0  0  0  0  0  0
   11.1377    1.9556   23.1223 C   0  0  0  0  0  0  0  0  0  0  0  0
    9.2850   -3.7090   25.1090 C   0  0  0  0  0  0  0  0  0  0  0  0
    6.1600    0.3870   20.1140 C   0  0  0  0  0  0  0  0  0  0  0  0
    7.2210   -0.4620   20.0350 C   0  0  0  0  0  0  0  0  0  0  0  0
    5.3360    0.8000   21.1530 C   0  0  0  0  0  0  0  0  0  0  0  0
    4.2970    1.6690   20.8430 C   0  0  0  0  0  0  0  0  0  0  0  0
    4.0980    2.1130   19.5350 C   0  0  0  0  0  0  0  0  0  0  0  0
    4.9400    1.7060   18.5060 C   0  0  0  0  0  0  0  0  0  0  0  0
    8.0643   -5.4721   26.3672 C   0  0  0  0  0  0  0  0  0  0  0  0
    8.9510    0.1280   21.6880 C   0  0  0  0  0  0  0  0  0  0  0  0
    8.2649   -6.7591   27.1477 C   0  0  0  0  0  0  0  0  0  0  0  0
    9.4073   -6.6157   28.1377 C   0  0  0  0  0  0  0  0  0  0  0  0
   10.6967   -6.1489   27.4694 C   0  0  0  0  0  0  0  0  0  0  0  0
   10.4950   -5.7059   26.0212 C   0  0  0  0  0  0  0  0  0  0  0  0
   12.7040    5.1473   22.6111 C   0  0  0  0  0  0  0  0  0  0  0  0
   10.9782    0.4527   23.1025 C   0  0  0  0  0  0  0  0  0  0  0  0
    9.4200   -0.0840   22.9530 C   0  0  1  0  0  0  0  0  0  0  0  0
   10.6770    4.1653   23.4725 N   0  0  0  0  0  0  0  0  0  0  0  0
    7.6830   -0.5170   18.7600 N   0  0  0  0  0  0  0  0  0  0  0  0
    6.9440    0.2550   18.0100 N   0  0  0  0  0  0  0  0  0  0  0  0
   11.8861    3.9966   22.9108 N   0  0  0  0  0  0  0  0  0  0  0  0
    5.9810    0.8330   18.8060 N   0  0  0  0  0  0  0  0  0  0  0  0
    9.2624   -4.9267   25.8634 N   0  0  0  0  0  0  0  0  0  0  0  0
    8.0810   -0.9750   21.0820 N   0  0  0  0  0  0  0  0  0  0  0  0
    6.9247   -5.0497   26.1749 O   0  0  0  0  0  0  0  0  0  0  0  0
    9.1870    1.1500   21.0630 O   0  0  0  0  0  0  0  0  0  0  0  0
    7.5948   -0.7783   24.7966 H   0  0  0  0  0  0  0  0  0  0  0  0
   11.0389   -2.1844   22.6342 H   0  0  0  0  0  0  0  0  0  0  0  0
    7.5642   -2.8624   26.1050 H   0  0  0  0  0  0  0  0  0  0  0  0
   11.0137   -4.2649   23.9418 H   0  0  0  0  0  0  0  0  0  0  0  0
    9.2482    2.7575   24.0354 H   0  0  0  0  0  0  0  0  0  0  0  0
   13.1522    2.4055   22.2336 H   0  0  0  0  0  0  0  0  0  0  0  0
    5.4735    0.4758   22.1644 H   0  0  0  0  0  0  0  0  0  0  0  0
    3.6415    1.9967   21.6408 H   0  0  0  0  0  0  0  0  0  0  0  0
    3.2720    2.7926   19.2920 H   0  0  0  0  0  0  0  0  0  0  0  0
    4.8119    2.0418   17.5005 H   0  0  0  0  0  0  0  0  0  0  0  0
    7.3543   -6.9829   27.6818 H   0  0  0  0  0  0  0  0  0  0  0  0
    8.4783   -7.5436   26.4372 H   0  0  0  0  0  0  0  0  0  0  0  0
    9.1257   -5.9021   28.9399 H   0  0  0  0  0  0  0  0  0  0  0  0
    9.5814   -7.5840   28.6486 H   0  0  0  0  0  0  0  0  0  0  0  0
   11.1319   -5.3094   28.0513 H   0  0  0  0  0  0  0  0  0  0  0  0
   11.4591   -6.9570   27.5118 H   0  0  0  0  0  0  0  0  0  0  0  0
   11.3214   -5.0711   25.7158 H   0  0  0  0  0  0  0  0  0  0  0  0
   10.4496   -6.5786   25.3788 H   0  0  0  0  0  0  0  0  0  0  0  0
   12.4645    5.4764   21.5965 H   0  0  0  0  0  0  0  0  0  0  0  0
   12.4916    5.9425   23.3310 H   0  0  0  0  0  0  0  0  0  0  0  0
   13.7592    4.8698   22.6850 H   0  0  0  0  0  0  0  0  0  0  0  0
   11.5374    0.0399   22.2527 H   0  0  0  0  0  0  0  0  0  0  0  0
   11.4700    0.0494   23.9985 H   0  0  0  0  0  0  0  0  0  0  0  0
    8.9187    0.7273   23.6745 H   0  0  0  0  0  0  0  0  0  0  0  0
    8.1354   -1.7990   21.3694 H   0  0  0  0  0  0  0  0  0  0  0  0
  1  3  2  0  0  0  0
  1  7  1  0  0  0  0
  2  4  1  0  0  0  0
  2  7  2  0  0  0  0
  3  9  1  0  0  0  0
  4  9  2  0  0  0  0
  5  8  1  0  0  0  0
  5 25  2  0  0  0  0
  6  8  2  0  0  0  0
  6 28  1  0  0  0  0
  7 24  1  0  0  0  0
  8 23  1  0  0  0  0
  9 30  1  0  0  0  0
 10 11  2  0  0  0  0
 10 12  1  0  0  0  0
 10 29  1  0  0  0  0
 11 26  1  0  0  0  0
 11 31  1  0  0  0  0
 12 13  2  0  0  0  0
 13 14  1  0  0  0  0
 14 15  2  0  0  0  0
 15 29  1  0  0  0  0
 16 18  1  0  0  0  0
 16 30  1  0  0  0  0
 16 32  2  0  0  0  0
 17 24  1  0  0  0  0
 17 31  1  0  0  0  0
 17 33  2  0  0  0  0
 18 19  1  0  0  0  0
 19 20  1  0  0  0  0
 20 21  1  0  0  0  0
 21 30  1  0  0  0  0
 22 28  1  0  0  0  0
 23 24  1  1  0  0  0
 25 28  1  0  0  0  0
 26 27  2  0  0  0  0
 27 29  1  0  0  0  0
  1 34  1  0  0  0  0
  2 35  1  0  0  0  0
  3 36  1  0  0  0  0
  4 37  1  0  0  0  0
  5 38  1  0  0  0  0
  6 39  1  0  0  0  0
 12 40  1  0  0  0  0
 13 41  1  0  0  0  0
 14 42  1  0  0  0  0
 15 43  1  0  0  0  0
 18 44  1  0  0  0  0
 18 45  1  0  0  0  0
 19 46  1  0  0  0  0
 19 47  1  0  0  0  0
 20 48  1  0  0  0  0
 20 49  1  0  0  0  0
 21 50  1  0  0  0  0
 21 51  1  0  0  0  0
 22 52  1  0  0  0  0
 22 53  1  0  0  0  0
 22 54  1  0  0  0  0
 23 55  1  0  0  0  0
 23 56  1  0  0  0  0
 24 57  1  0  0  0  0
 31 58  1  0  0  0  0
M  END
> <clash_score>
1.2728248649063287

> <docking_score>
-9.643472671508789

> <overlap_score>
0.9406476020812988

$$$$
BENZO_275_2
  -OEChem-08232013493D

 58 62  0     1  0  0  0  0  0999 V2000
    8.3510   -1.5420   24.6110 C   0  0  0  0  0  0  0  0  0  0  0  0
   10.2760   -2.3270   23.4020 C   0  0  0  0  0  0  0  0  0  0  0  0
    8.3310   -2.7170   25.3430 C   0  0  0  0  0  0  0  0  0  0  0  0
   10.2570   -3.5000   24.1350 C   0  0  0  0  0  0  0  0  0  0  0  0
   10.7785    2.7976   23.3981 C   0  0  0  0  0  0  0  0  0  0  0  0
    8.8917    3.6777   24.1054 C   0  0  0  0  0  0  0  0  0  0  0  0
    9.3300   -1.3350   23.6390 C   0  0  0  0  0  0  0  0  0  0  0  0
    9.4830    2.4670   23.8385 C   0  0  0  0  0  0  0  0  0  0  0  0
    9.2850   -3.7090   25.1090 C   0  0  0  0  0  0  0  0  0  0  0  0
    6.1600    0.3870   20.1140 C   0  0  0  0  0  0  0  0  0  0  0  0
    7.2210   -0.4620   20.0350 C   0  0  0  0  0  0  0  0  0  0  0  0
    5.3360    0.8000   21.1530 C   0  0  0  0  0  0  0  0  0  0  0  0
    4.2970    1.6690   20.8430 C   0  0  0  0  0  0  0  0  0  0  0  0
    4.0980    2.1130   19.5350 C   0  0  0  0  0  0  0  0  0  0  0  0
    4.9400    1.7060   18.5060 C   0  0  0  0  0  0  0  0  0  0  0  0
    8.0643   -5.4721   26.3672 C   0  0  0  0  0  0  0  0  0  0  0  0
    8.9510    0.1280   21.6880 C   0  0  0  0  0  0  0  0  0  0  0  0
    8.2649   -6.7591   27.1477 C   0  0  0  0  0  0  0  0  0  0  0  0
    9.4073   -6.6157   28.1377 C   0  0  0  0  0  0  0  0  0  0  0  0
   10.6967   -6.1489   27.4694 C   0  0  0  0  0  0  0  0  0  0  0  0
   10.4950   -5.7059   26.0212 C   0  0  0  0  0  0  0  0  0  0  0  0
    9.6751    6.0523   23.9438 C   0  0  0  0  0  0  0  0  0  0  0  0
    8.8757    1.0906   23.9832 C   0  0  0  0  0  0  0  0  0  0  0  0
    9.4200   -0.0840   22.9530 C   0  0  2  0  0  0  0  0  0  0  0  0
   10.9980    4.1151   23.3844 N   0  0  0  0  0  0  0  0  0  0  0  0
    7.6830   -0.5170   18.7600 N   0  0  0  0  0  0  0  0  0  0  0  0
    6.9440    0.2550   18.0100 N   0  0  0  0  0  0  0  0  0  0  0  0
    9.8323    4.6230   23.8195 N   0  0  0  0  0  0  0  0  0  0  0  0
    5.9810    0.8330   18.8060 N   0  0  0  0  0  0  0  0  0  0  0  0
    9.2624   -4.9267   25.8634 N   0  0  0  0  0  0  0  0  0  0  0  0
    8.0810   -0.9750   21.0820 N   0  0  0  0  0  0  0  0  0  0  0  0
    6.9247   -5.0497   26.1749 O   0  0  0  0  0  0  0  0  0  0  0  0
    9.1870    1.1500   21.0630 O   0  0  0  0  0  0  0  0  0  0  0  0
    7.5948   -0.7783   24.7966 H   0  0  0  0  0  0  0  0  0  0  0  0
   11.0389   -2.1844   22.6342 H   0  0  0  0  0  0  0  0  0  0  0  0
    7.5642   -2.8624   26.1050 H   0  0  0  0  0  0  0  0  0  0  0  0
   11.0137   -4.2649   23.9418 H   0  0  0  0  0  0  0  0  0  0  0  0
   11.5733    2.1353   23.0852 H   0  0  0  0  0  0  0  0  0  0  0  0
    7.9058    3.9405   24.4643 H   0  0  0  0  0  0  0  0  0  0  0  0
    5.4735    0.4758   22.1644 H   0  0  0  0  0  0  0  0  0  0  0  0
    3.6415    1.9967   21.6408 H   0  0  0  0  0  0  0  0  0  0  0  0
    3.2720    2.7926   19.2921 H   0  0  0  0  0  0  0  0  0  0  0  0
    4.8119    2.0418   17.5005 H   0  0  0  0  0  0  0  0  0  0  0  0
    7.3543   -6.9829   27.6818 H   0  0  0  0  0  0  0  0  0  0  0  0
    8.4783   -7.5436   26.4372 H   0  0  0  0  0  0  0  0  0  0  0  0
    9.1257   -5.9021   28.9399 H   0  0  0  0  0  0  0  0  0  0  0  0
    9.5814   -7.5840   28.6486 H   0  0  0  0  0  0  0  0  0  0  0  0
   11.1319   -5.3094   28.0513 H   0  0  0  0  0  0  0  0  0  0  0  0
   11.4591   -6.9570   27.5118 H   0  0  0  0  0  0  0  0  0  0  0  0
   11.3214   -5.0711   25.7158 H   0  0  0  0  0  0  0  0  0  0  0  0
   10.4496   -6.5786   25.3788 H   0  0  0  0  0  0  0  0  0  0  0  0
    9.9837    6.3390   24.9526 H   0  0  0  0  0  0  0  0  0  0  0  0
   10.2971    6.5534   23.1968 H   0  0  0  0  0  0  0  0  0  0  0  0
    8.6278    6.3169   23.7735 H   0  0  0  0  0  0  0  0  0  0  0  0
    8.9639    0.7632   25.0273 H   0  0  0  0  0  0  0  0  0  0  0  0
    7.7964    1.1765   23.7950 H   0  0  0  0  0  0  0  0  0  0  0  0
   10.5749    0.2253   22.9765 H   0  0  0  0  0  0  0  0  0  0  0  0
    8.1354   -1.7990   21.3694 H   0  0  0  0  0  0  0  0  0  0  0  0
  1  3  2  0  0  0  0
  1  7  1  0  0  0  0
  2  4  1  0  0  0  0
  2  7  2  0  0  0  0
  3  9  1  0  0  0  0
  4  9  2  0  0  0  0
  5  8  1  0  0  0  0
  5 25  2  0  0  0  0
  6  8  2  0  0  0  0
  6 28  1  0  0  0  0
  7 24  1  0  0  0  0
  8 23  1  0  0  0  0
  9 30  1  0  0  0  0
 10 11  2  0  0  0  0
 10 12  1  0  0  0  0
 10 29  1  0  0  0  0
 11 26  1  0  0  0  0
 11 31  1  0  0  0  0
 12 13  2  0  0  0  0
 13 14  1  0  0  0  0
 14 15  2  0  0  0  0
 15 29  1  0  0  0  0
 16 18  1  0  0  0  0
 16 30  1  0  0  0  0
 16 32  2  0  0  0  0
 17 24  1  0  0  0  0
 17 31  1  0  0  0  0
 17 33  2  0  0  0  0
 18 19  1  0  0  0  0
 19 20  1  0  0  0  0
 20 21  1  0  0  0  0
 21 30  1  0  0  0  0
 22 28  1  0  0  0  0
 23 24  1  6  0  0  0
 25 28  1  0  0  0  0
 26 27  2  0  0  0  0
 27 29  1  0  0  0  0
  1 34  1  0  0  0  0
  2 35  1  0  0  0  0
  3 36  1  0  0  0  0
  4 37  1  0  0  0  0
  5 38  1  0  0  0  0
  6 39  1  0  0  0  0
 12 40  1  0  0  0  0
 13 41  1  0  0  0  0
 14 42  1  0  0  0  0
 15 43  1  0  0  0  0
 18 44  1  0  0  0  0
 18 45  1  0  0  0  0
 19 46  1  0  0  0  0
 19 47  1  0  0  0  0
 20 48  1  0  0  0  0
 20 49  1  0  0  0  0
 21 50  1  0  0  0  0
 21 51  1  0  0  0  0
 22 52  1  0  0  0  0
 22 53  1  0  0  0  0
 22 54  1  0  0  0  0
 23 55  1  0  0  0  0
 23 56  1  0  0  0  0
 24 57  1  0  0  0  0
 31 58  1  0  0  0  0
M  END
> <clash_score>
1.2728248649063287

> <docking_score>
-8.438687324523926

> <overlap_score>
0.8674866557121277

$$$$
BENZO_277_1
  -OEChem-08232013493D

 57 61  0     1  0  0  0  0  0999 V2000
   10.6051    5.0072   23.5714 C   0  0  0  0  0  0  0  0  0  0  0  0
    9.2931    4.8685   24.0240 C   0  0  0  0  0  0  0  0  0  0  0  0
   11.3561    3.8759   23.2522 C   0  0  0  0  0  0  0  0  0  0  0  0
    8.7320    3.5984   24.1576 C   0  0  0  0  0  0  0  0  0  0  0  0
   10.7950    2.6058   23.3857 C   0  0  0  0  0  0  0  0  0  0  0  0
    8.3510   -1.5420   24.6110 C   0  0  0  0  0  0  0  0  0  0  0  0
   10.2760   -2.3270   23.4020 C   0  0  0  0  0  0  0  0  0  0  0  0
    8.3310   -2.7170   25.3430 C   0  0  0  0  0  0  0  0  0  0  0  0
   10.2570   -3.5000   24.1350 C   0  0  0  0  0  0  0  0  0  0  0  0
    9.4829    2.4671   23.8384 C   0  0  0  0  0  0  0  0  0  0  0  0
    9.3300   -1.3350   23.6390 C   0  0  0  0  0  0  0  0  0  0  0  0
    9.2850   -3.7090   25.1090 C   0  0  0  0  0  0  0  0  0  0  0  0
    6.1600    0.3870   20.1140 C   0  0  0  0  0  0  0  0  0  0  0  0
    7.2210   -0.4620   20.0350 C   0  0  0  0  0  0  0  0  0  0  0  0
    5.3360    0.8000   21.1530 C   0  0  0  0  0  0  0  0  0  0  0  0
    4.2970    1.6690   20.8430 C   0  0  0  0  0  0  0  0  0  0  0  0
    4.0980    2.1130   19.5350 C   0  0  0  0  0  0  0  0  0  0  0  0
    4.9400    1.7060   18.5060 C   0  0  0  0  0  0  0  0  0  0  0  0
    8.9510    0.1280   21.6880 C   0  0  0  0  0  0  0  0  0  0  0  0
    8.7671   -4.9535   27.2147 C   0  0  0  0  0  0  0  0  0  0  0  0
    9.3066   -6.1865   25.1649 C   0  0  0  0  0  0  0  0  0  0  0  0
    7.3847   -5.5970   27.2000 C   0  0  0  0  0  0  0  0  0  0  0  0
    7.9070   -6.7999   25.2264 C   0  0  0  0  0  0  0  0  0  0  0  0
    8.8757    1.0906   23.9831 C   0  0  0  0  0  0  0  0  0  0  0  0
    9.4200   -0.0840   22.9530 C   0  0  1  0  0  0  0  0  0  0  0  0
    7.6830   -0.5170   18.7600 N   0  0  0  0  0  0  0  0  0  0  0  0
    6.9440    0.2550   18.0100 N   0  0  0  0  0  0  0  0  0  0  0  0
    5.9810    0.8330   18.8060 N   0  0  0  0  0  0  0  0  0  0  0  0
    9.2641   -4.8845   25.8388 N   0  0  0  0  0  0  0  0  0  0  0  0
    8.0810   -0.9750   21.0820 N   0  0  0  0  0  0  0  0  0  0  0  0
    9.1870    1.1500   21.0630 O   0  0  0  0  0  0  0  0  0  0  0  0
    7.4533   -6.8877   26.5818 O   0  0  0  0  0  0  0  0  0  0  0  0
   11.0414    5.9962   23.4662 H   0  0  0  0  0  0  0  0  0  0  0  0
    8.7078    5.7493   24.2716 H   0  0  0  0  0  0  0  0  0  0  0  0
   12.3772    3.9835   22.8987 H   0  0  0  0  0  0  0  0  0  0  0  0
    7.7090    3.4999   24.5112 H   0  0  0  0  0  0  0  0  0  0  0  0
   11.3876    1.7301   23.1348 H   0  0  0  0  0  0  0  0  0  0  0  0
    7.5957   -0.7779   24.7973 H   0  0  0  0  0  0  0  0  0  0  0  0
   11.0384   -2.1852   22.6338 H   0  0  0  0  0  0  0  0  0  0  0  0
    7.5634   -2.8637   26.1037 H   0  0  0  0  0  0  0  0  0  0  0  0
   11.0139   -4.2645   23.9419 H   0  0  0  0  0  0  0  0  0  0  0  0
    5.4735    0.4758   22.1644 H   0  0  0  0  0  0  0  0  0  0  0  0
    3.6415    1.9967   21.6408 H   0  0  0  0  0  0  0  0  0  0  0  0
    3.2720    2.7926   19.2921 H   0  0  0  0  0  0  0  0  0  0  0  0
    4.8119    2.0418   17.5005 H   0  0  0  0  0  0  0  0  0  0  0  0
    8.7013   -3.9575   27.6574 H   0  0  0  0  0  0  0  0  0  0  0  0
    9.4480   -5.5636   27.8142 H   0  0  0  0  0  0  0  0  0  0  0  0
   10.0131   -6.8375   25.6814 H   0  0  0  0  0  0  0  0  0  0  0  0
    9.6116   -6.0794   24.1250 H   0  0  0  0  0  0  0  0  0  0  0  0
    7.0306   -5.7388   28.2232 H   0  0  0  0  0  0  0  0  0  0  0  0
    6.6546   -4.9740   26.6757 H   0  0  0  0  0  0  0  0  0  0  0  0
    7.1892   -6.2226   24.6319 H   0  0  0  0  0  0  0  0  0  0  0  0
    7.9315   -7.8151   24.8187 H   0  0  0  0  0  0  0  0  0  0  0  0
    8.9639    0.7632   25.0273 H   0  0  0  0  0  0  0  0  0  0  0  0
    7.7964    1.1765   23.7949 H   0  0  0  0  0  0  0  0  0  0  0  0
   10.5749    0.2253   22.9765 H   0  0  0  0  0  0  0  0  0  0  0  0
    8.1354   -1.7990   21.3694 H   0  0  0  0  0  0  0  0  0  0  0  0
  1  2  1  0  0  0  0
  1  3  2  0  0  0  0
  2  4  2  0  0  0  0
  3  5  1  0  0  0  0
  4 10  1  0  0  0  0
  5 10  2  0  0  0  0
  6  8  2  0  0  0  0
  6 11  1  0  0  0  0
  7  9  1  0  0  0  0
  7 11  2  0  0  0  0
  8 12  1  0  0  0  0
  9 12  2  0  0  0  0
 10 24  1  0  0  0  0
 11 25  1  0  0  0  0
 12 29  1  0  0  0  0
 13 14  2  0  0  0  0
 13 15  1  0  0  0  0
 13 28  1  0  0  0  0
 14 26  1  0  0  0  0
 14 30  1  0  0  0  0
 15 16  2  0  0  0  0
 16 17  1  0  0  0  0
 17 18  2  0  0  0  0
 18 28  1  0  0  0  0
 19 25  1  1  0  0  0
 19 30  1  0  0  0  0
 19 31  2  0  0  0  0
 20 22  1  0  0  0  0
 20 29  1  0  0  0  0
 21 23  1  0  0  0  0
 21 29  1  0  0  0  0
 22 32  1  0  0  0  0
 23 32  1  0  0  0  0
 24 25  1  0  0  0  0
 26 27  2  0  0  0  0
 27 28  1  0  0  0  0
  1 33  1  0  0  0  0
  2 34  1  0  0  0  0
  3 35  1  0  0  0  0
  4 36  1  0  0  0  0
  5 37  1  0  0  0  0
  6 38  1  0  0  0  0
  7 39  1  0  0  0  0
  8 40  1  0  0  0  0
  9 41  1  0  0  0  0
 15 42  1  0  0  0  0
 16 43  1  0  0  0  0
 17 44  1  0  0  0  0
 18 45  1  0  0  0  0
 20 46  1  0  0  0  0
 20 47  1  0  0  0  0
 21 48  1  0  0  0  0
 21 49  1  0  0  0  0
 22 50  1  0  0  0  0
 22 51  1  0  0  0  0
 23 52  1  0  0  0  0
 23 53  1  0  0  0  0
 24 54  1  0  0  0  0
 24 55  1  0  0  0  0
 25 56  1  0  0  0  0
 30 57  1  0  0  0  0
M  END
> <clash_score>
0

> <docking_score>
-9.824005126953125

> <overlap_score>
0.8748704791069031

$$$$
BENZO_277_2
  -OEChem-08232013493D

 57 61  0     1  0  0  0  0  0999 V2000
   11.4307    4.7297   23.1589 C   0  0  0  0  0  0  0  0  0  0  0  0
   12.4501    3.9274   22.6463 C   0  0  0  0  0  0  0  0  0  0  0  0
   10.2648    4.1449   23.6533 C   0  0  0  0  0  0  0  0  0  0  0  0
   12.3036    2.5404   22.6279 C   0  0  0  0  0  0  0  0  0  0  0  0
   10.1183    2.7579   23.6349 C   0  0  0  0  0  0  0  0  0  0  0  0
    8.3510   -1.5420   24.6110 C   0  0  0  0  0  0  0  0  0  0  0  0
   10.2760   -2.3270   23.4020 C   0  0  0  0  0  0  0  0  0  0  0  0
    8.3310   -2.7170   25.3430 C   0  0  0  0  0  0  0  0  0  0  0  0
   10.2570   -3.5000   24.1350 C   0  0  0  0  0  0  0  0  0  0  0  0
   11.1377    1.9556   23.1223 C   0  0  0  0  0  0  0  0  0  0  0  0
    9.3300   -1.3350   23.6390 C   0  0  0  0  0  0  0  0  0  0  0  0
    9.2850   -3.7090   25.1090 C   0  0  0  0  0  0  0  0  0  0  0  0
    6.1600    0.3870   20.1140 C   0  0  0  0  0  0  0  0  0  0  0  0
    7.2210   -0.4620   20.0350 C   0  0  0  0  0  0  0  0  0  0  0  0
    5.3360    0.8000   21.1530 C   0  0  0  0  0  0  0  0  0  0  0  0
    4.2970    1.6690   20.8430 C   0  0  0  0  0  0  0  0  0  0  0  0
    4.0980    2.1130   19.5350 C   0  0  0  0  0  0  0  0  0  0  0  0
    4.9400    1.7060   18.5060 C   0  0  0  0  0  0  0  0  0  0  0  0
    8.9510    0.1280   21.6880 C   0  0  0  0  0  0  0  0  0  0  0  0
    8.7671   -4.9535   27.2147 C   0  0  0  0  0  0  0  0  0  0  0  0
    9.3066   -6.1865   25.1649 C   0  0  0  0  0  0  0  0  0  0  0  0
    7.3847   -5.5970   27.2000 C   0  0  0  0  0  0  0  0  0  0  0  0
    7.9070   -6.7999   25.2264 C   0  0  0  0  0  0  0  0  0  0  0  0
   10.9782    0.4528   23.1025 C   0  0  0  0  0  0  0  0  0  0  0  0
    9.4200   -0.0840   22.9530 C   0  0  2  0  0  0  0  0  0  0  0  0
    7.6830   -0.5170   18.7600 N   0  0  0  0  0  0  0  0  0  0  0  0
    6.9440    0.2550   18.0100 N   0  0  0  0  0  0  0  0  0  0  0  0
    5.9810    0.8330   18.8060 N   0  0  0  0  0  0  0  0  0  0  0  0
    9.2641   -4.8845   25.8388 N   0  0  0  0  0  0  0  0  0  0  0  0
    8.0810   -0.9750   21.0820 N   0  0  0  0  0  0  0  0  0  0  0  0
    9.1870    1.1500   21.0630 O   0  0  0  0  0  0  0  0  0  0  0  0
    7.4533   -6.8877   26.5818 O   0  0  0  0  0  0  0  0  0  0  0  0
   11.5455    5.8096   23.1743 H   0  0  0  0  0  0  0  0  0  0  0  0
   13.3585    4.3825   22.2623 H   0  0  0  0  0  0  0  0  0  0  0  0
    9.4714    4.7691   24.0535 H   0  0  0  0  0  0  0  0  0  0  0  0
   13.1030    1.9232   22.2264 H   0  0  0  0  0  0  0  0  0  0  0  0
    9.2064    2.3111   24.0221 H   0  0  0  0  0  0  0  0  0  0  0  0
    7.5957   -0.7779   24.7973 H   0  0  0  0  0  0  0  0  0  0  0  0
   11.0384   -2.1852   22.6338 H   0  0  0  0  0  0  0  0  0  0  0  0
    7.5634   -2.8637   26.1037 H   0  0  0  0  0  0  0  0  0  0  0  0
   11.0139   -4.2645   23.9419 H   0  0  0  0  0  0  0  0  0  0  0  0
    5.4735    0.4758   22.1644 H   0  0  0  0  0  0  0  0  0  0  0  0
    3.6415    1.9967   21.6408 H   0  0  0  0  0  0  0  0  0  0  0  0
    3.2720    2.7926   19.2921 H   0  0  0  0  0  0  0  0  0  0  0  0
    4.8119    2.0418   17.5005 H   0  0  0  0  0  0  0  0  0  0  0  0
    8.7013   -3.9575   27.6574 H   0  0  0  0  0  0  0  0  0  0  0  0
    9.4480   -5.5636   27.8142 H   0  0  0  0  0  0  0  0  0  0  0  0
   10.0131   -6.8375   25.6814 H   0  0  0  0  0  0  0  0  0  0  0  0
    9.6116   -6.0794   24.1250 H   0  0  0  0  0  0  0  0  0  0  0  0
    7.0306   -5.7388   28.2232 H   0  0  0  0  0  0  0  0  0  0  0  0
    6.6546   -4.9740   26.6757 H   0  0  0  0  0  0  0  0  0  0  0  0
    7.1892   -6.2226   24.6319 H   0  0  0  0  0  0  0  0  0  0  0  0
    7.9315   -7.8151   24.8187 H   0  0  0  0  0  0  0  0  0  0  0  0
   11.5374    0.0399   22.2527 H   0  0  0  0  0  0  0  0  0  0  0  0
   11.4700    0.0494   23.9985 H   0  0  0  0  0  0  0  0  0  0  0  0
    8.9187    0.7273   23.6745 H   0  0  0  0  0  0  0  0  0  0  0  0
    8.1354   -1.7990   21.3694 H   0  0  0  0  0  0  0  0  0  0  0  0
  1  2  1  0  0  0  0
  1  3  2  0  0  0  0
  2  4  2  0  0  0  0
  3  5  1  0  0  0  0
  4 10  1  0  0  0  0
  5 10  2  0  0  0  0
  6  8  2  0  0  0  0
  6 11  1  0  0  0  0
  7  9  1  0  0  0  0
  7 11  2  0  0  0  0
  8 12  1  0  0  0  0
  9 12  2  0  0  0  0
 10 24  1  0  0  0  0
 11 25  1  0  0  0  0
 12 29  1  0  0  0  0
 13 14  2  0  0  0  0
 13 15  1  0  0  0  0
 13 28  1  0  0  0  0
 14 26  1  0  0  0  0
 14 30  1  0  0  0  0
 15 16  2  0  0  0  0
 16 17  1  0  0  0  0
 17 18  2  0  0  0  0
 18 28  1  0  0  0  0
 19 25  1  6  0  0  0
 19 30  1  0  0  0  0
 19 31  2  0  0  0  0
 20 22  1  0  0  0  0
 20 29  1  0  0  0  0
 21 23  1  0  0  0  0
 21 29  1  0  0  0  0
 22 32  1  0  0  0  0
 23 32  1  0  0  0  0
 24 25  1  0  0  0  0
 26 27  2  0  0  0  0
 27 28  1  0  0  0  0
  1 33  1  0  0  0  0
  2 34  1  0  0  0  0
  3 35  1  0  0  0  0
  4 36  1  0  0  0  0
  5 37  1  0  0  0  0
  6 38  1  0  0  0  0
  7 39  1  0  0  0  0
  8 40  1  0  0  0  0
  9 41  1  0  0  0  0
 15 42  1  0  0  0  0
 16 43  1  0  0  0  0
 17 44  1  0  0  0  0
 18 45  1  0  0  0  0
 20 46  1  0  0  0  0
 20 47  1  0  0  0  0
 21 48  1  0  0  0  0
 21 49  1  0  0  0  0
 22 50  1  0  0  0  0
 22 51  1  0  0  0  0
 23 52  1  0  0  0  0
 23 53  1  0  0  0  0
 24 54  1  0  0  0  0
 24 55  1  0  0  0  0
 25 56  1  0  0  0  0
 30 57  1  0  0  0  0
M  END
> <clash_score>
0

> <docking_score>
-10.929927825927734

> <overlap_score>
0.9464921355247498

$$$$
BENZO_276_1
  -OEChem-08232013493D

 54 58  0     1  0  0  0  0  0999 V2000
    8.3510   -1.5420   24.6110 C   0  0  0  0  0  0  0  0  0  0  0  0
   10.2760   -2.3270   23.4020 C   0  0  0  0  0  0  0  0  0  0  0  0
    8.3310   -2.7170   25.3430 C   0  0  0  0  0  0  0  0  0  0  0  0
   10.2570   -3.5000   24.1350 C   0  0  0  0  0  0  0  0  0  0  0  0
   10.8518    2.7022   23.5205 C   0  0  0  0  0  0  0  0  0  0  0  0
   11.1431    4.0467   23.4499 C   0  0  0  0  0  0  0  0  0  0  0  0
    8.7801    3.6410   23.9989 C   0  0  0  0  0  0  0  0  0  0  0  0
    9.3300   -1.3350   23.6390 C   0  0  0  0  0  0  0  0  0  0  0  0
    9.4829    2.4671   23.8384 C   0  0  0  0  0  0  0  0  0  0  0  0
    9.2850   -3.7090   25.1090 C   0  0  0  0  0  0  0  0  0  0  0  0
    6.1600    0.3870   20.1140 C   0  0  0  0  0  0  0  0  0  0  0  0
    7.2210   -0.4620   20.0350 C   0  0  0  0  0  0  0  0  0  0  0  0
    5.3360    0.8000   21.1530 C   0  0  0  0  0  0  0  0  0  0  0  0
    4.2970    1.6690   20.8430 C   0  0  0  0  0  0  0  0  0  0  0  0
    4.0980    2.1130   19.5350 C   0  0  0  0  0  0  0  0  0  0  0  0
    4.9400    1.7060   18.5060 C   0  0  0  0  0  0  0  0  0  0  0  0
    8.9510    0.1280   21.6880 C   0  0  0  0  0  0  0  0  0  0  0  0
    8.7671   -4.9535   27.2147 C   0  0  0  0  0  0  0  0  0  0  0  0
    9.3066   -6.1865   25.1649 C   0  0  0  0  0  0  0  0  0  0  0  0
    7.3847   -5.5970   27.2000 C   0  0  0  0  0  0  0  0  0  0  0  0
    7.9070   -6.7999   25.2264 C   0  0  0  0  0  0  0  0  0  0  0  0
    8.8757    1.0906   23.9831 C   0  0  0  0  0  0  0  0  0  0  0  0
    9.4200   -0.0840   22.9530 C   0  0  1  0  0  0  0  0  0  0  0  0
    7.6830   -0.5170   18.7600 N   0  0  0  0  0  0  0  0  0  0  0  0
    6.9440    0.2550   18.0100 N   0  0  0  0  0  0  0  0  0  0  0  0
    5.9810    0.8330   18.8060 N   0  0  0  0  0  0  0  0  0  0  0  0
    9.2641   -4.8845   25.8388 N   0  0  0  0  0  0  0  0  0  0  0  0
    8.0810   -0.9750   21.0820 N   0  0  0  0  0  0  0  0  0  0  0  0
    9.1870    1.1500   21.0630 O   0  0  0  0  0  0  0  0  0  0  0  0
    7.4533   -6.8877   26.5818 O   0  0  0  0  0  0  0  0  0  0  0  0
    9.7695    5.0191   23.7662 S   0  0  0  0  0  0  0  0  0  0  0  0
    7.5957   -0.7779   24.7973 H   0  0  0  0  0  0  0  0  0  0  0  0
   11.0384   -2.1852   22.6338 H   0  0  0  0  0  0  0  0  0  0  0  0
    7.5634   -2.8637   26.1037 H   0  0  0  0  0  0  0  0  0  0  0  0
   11.0139   -4.2645   23.9419 H   0  0  0  0  0  0  0  0  0  0  0  0
   11.5890    1.9274   23.3518 H   0  0  0  0  0  0  0  0  0  0  0  0
   12.0968    4.5045   23.2284 H   0  0  0  0  0  0  0  0  0  0  0  0
    7.7334    3.7598   24.2427 H   0  0  0  0  0  0  0  0  0  0  0  0
    5.4735    0.4758   22.1644 H   0  0  0  0  0  0  0  0  0  0  0  0
    3.6415    1.9967   21.6408 H   0  0  0  0  0  0  0  0  0  0  0  0
    3.2720    2.7926   19.2921 H   0  0  0  0  0  0  0  0  0  0  0  0
    4.8119    2.0418   17.5005 H   0  0  0  0  0  0  0  0  0  0  0  0
    8.7013   -3.9575   27.6574 H   0  0  0  0  0  0  0  0  0  0  0  0
    9.4480   -5.5636   27.8142 H   0  0  0  0  0  0  0  0  0  0  0  0
   10.0131   -6.8375   25.6814 H   0  0  0  0  0  0  0  0  0  0  0  0
    9.6116   -6.0794   24.1250 H   0  0  0  0  0  0  0  0  0  0  0  0
    7.0306   -5.7388   28.2232 H   0  0  0  0  0  0  0  0  0  0  0  0
    6.6546   -4.9740   26.6757 H   0  0  0  0  0  0  0  0  0  0  0  0
    7.1892   -6.2226   24.6319 H   0  0  0  0  0  0  0  0  0  0  0  0
    7.9315   -7.8151   24.8187 H   0  0  0  0  0  0  0  0  0  0  0  0
    8.9639    0.7632   25.0273 H   0  0  0  0  0  0  0  0  0  0  0  0
    7.7964    1.1765   23.7949 H   0  0  0  0  0  0  0  0  0  0  0  0
   10.5749    0.2253   22.9765 H   0  0  0  0  0  0  0  0  0  0  0  0
    8.1354   -1.7990   21.3694 H   0  0  0  0  0  0  0  0  0  0  0  0
  1  3  2  0  0  0  0
  1  8  1  0  0  0  0
  2  4  1  0  0  0  0
  2  8  2  0  0  0  0
  3 10  1  0  0  0  0
  4 10  2  0  0  0  0
  5  6  2  0  0  0  0
  5  9  1  0  0  0  0
  6 31  1  0  0  0  0
  7  9  2  0  0  0  0
  7 31  1  0  0  0  0
  8 23  1  0  0  0  0
  9 22  1  0  0  0  0
 10 27  1  0  0  0  0
 11 12  2  0  0  0  0
 11 13  1  0  0  0  0
 11 26  1  0  0  0  0
 12 24  1  0  0  0  0
 12 28  1  0  0  0  0
 13 14  2  0  0  0  0
 14 15  1  0  0  0  0
 15 16  2  0  0  0  0
 16 26  1  0  0  0  0
 17 23  1  1  0  0  0
 17 28  1  0  0  0  0
 17 29  2  0  0  0  0
 18 20  1  0  0  0  0
 18 27  1  0  0  0  0
 19 21  1  0  0  0  0
 19 27  1  0  0  0  0
 20 30  1  0  0  0  0
 21 30  1  0  0  0  0
 22 23  1  0  0  0  0
 24 25  2  0  0  0  0
 25 26  1  0  0  0  0
  1 32  1  0  0  0  0
  2 33  1  0  0  0  0
  3 34  1  0  0  0  0
  4 35  1  0  0  0  0
  5 36  1  0  0  0  0
  6 37  1  0  0  0  0
  7 38  1  0  0  0  0
 13 39  1  0  0  0  0
 14 40  1  0  0  0  0
 15 41  1  0  0  0  0
 16 42  1  0  0  0  0
 18 43  1  0  0  0  0
 18 44  1  0  0  0  0
 19 45  1  0  0  0  0
 19 46  1  0  0  0  0
 20 47  1  0  0  0  0
 20 48  1  0  0  0  0
 21 49  1  0  0  0  0
 21 50  1  0  0  0  0
 22 51  1  0  0  0  0
 22 52  1  0  0  0  0
 23 53  1  0  0  0  0
 28 54  1  0  0  0  0
M  END
> <clash_score>
0

> <docking_score>
-9.54345703125

> <overlap_score>
0.8722468018531799

$$$$
BENZO_276_2
  -OEChem-08232013493D

 54 58  0     1  0  0  0  0  0999 V2000
    8.3510   -1.5420   24.6110 C   0  0  0  0  0  0  0  0  0  0  0  0
   10.2760   -2.3270   23.4020 C   0  0  0  0  0  0  0  0  0  0  0  0
    8.3310   -2.7170   25.3430 C   0  0  0  0  0  0  0  0  0  0  0  0
   10.2570   -3.5000   24.1350 C   0  0  0  0  0  0  0  0  0  0  0  0
   11.9035    2.6860   22.1682 C   0  0  0  0  0  0  0  0  0  0  0  0
   11.8836    4.0408   22.4165 C   0  0  0  0  0  0  0  0  0  0  0  0
   10.5617    2.7801   24.0637 C   0  0  0  0  0  0  0  0  0  0  0  0
    9.3300   -1.3350   23.6390 C   0  0  0  0  0  0  0  0  0  0  0  0
   11.1377    1.9556   23.1223 C   0  0  0  0  0  0  0  0  0  0  0  0
    9.2850   -3.7090   25.1090 C   0  0  0  0  0  0  0  0  0  0  0  0
    6.1600    0.3870   20.1140 C   0  0  0  0  0  0  0  0  0  0  0  0
    7.2210   -0.4620   20.0350 C   0  0  0  0  0  0  0  0  0  0  0  0
    5.3360    0.8000   21.1530 C   0  0  0  0  0  0  0  0  0  0  0  0
    4.2970    1.6690   20.8430 C   0  0  0  0  0  0  0  0  0  0  0  0
    4.0980    2.1130   19.5350 C   0  0  0  0  0  0  0  0  0  0  0  0
    4.9400    1.7060   18.5060 C   0  0  0  0  0  0  0  0  0  0  0  0
    8.9510    0.1280   21.6880 C   0  0  0  0  0  0  0  0  0  0  0  0
    8.7671   -4.9535   27.2147 C   0  0  0  0  0  0  0  0  0  0  0  0
    9.3066   -6.1865   25.1649 C   0  0  0  0  0  0  0  0  0  0  0  0
    7.3847   -5.5970   27.2000 C   0  0  0  0  0  0  0  0  0  0  0  0
    7.9070   -6.7999   25.2264 C   0  0  0  0  0  0  0  0  0  0  0  0
   10.9782    0.4528   23.1025 C   0  0  0  0  0  0  0  0  0  0  0  0
    9.4200   -0.0840   22.9530 C   0  0  2  0  0  0  0  0  0  0  0  0
    7.6830   -0.5170   18.7600 N   0  0  0  0  0  0  0  0  0  0  0  0
    6.9440    0.2550   18.0100 N   0  0  0  0  0  0  0  0  0  0  0  0
    5.9810    0.8330   18.8060 N   0  0  0  0  0  0  0  0  0  0  0  0
    9.2641   -4.8845   25.8388 N   0  0  0  0  0  0  0  0  0  0  0  0
    8.0810   -0.9750   21.0820 N   0  0  0  0  0  0  0  0  0  0  0  0
    9.1870    1.1500   21.0630 O   0  0  0  0  0  0  0  0  0  0  0  0
    7.4533   -6.8877   26.5818 O   0  0  0  0  0  0  0  0  0  0  0  0
   10.9445    4.4275   23.7953 S   0  0  0  0  0  0  0  0  0  0  0  0
    7.5957   -0.7779   24.7973 H   0  0  0  0  0  0  0  0  0  0  0  0
   11.0384   -2.1852   22.6338 H   0  0  0  0  0  0  0  0  0  0  0  0
    7.5634   -2.8637   26.1037 H   0  0  0  0  0  0  0  0  0  0  0  0
   11.0139   -4.2645   23.9419 H   0  0  0  0  0  0  0  0  0  0  0  0
   12.4436    2.2440   21.3404 H   0  0  0  0  0  0  0  0  0  0  0  0
   12.3760    4.8219   21.8548 H   0  0  0  0  0  0  0  0  0  0  0  0
    9.9349    2.4981   24.8983 H   0  0  0  0  0  0  0  0  0  0  0  0
    5.4735    0.4758   22.1644 H   0  0  0  0  0  0  0  0  0  0  0  0
    3.6415    1.9967   21.6408 H   0  0  0  0  0  0  0  0  0  0  0  0
    3.2720    2.7926   19.2921 H   0  0  0  0  0  0  0  0  0  0  0  0
    4.8119    2.0418   17.5005 H   0  0  0  0  0  0  0  0  0  0  0  0
    8.7013   -3.9575   27.6574 H   0  0  0  0  0  0  0  0  0  0  0  0
    9.4480   -5.5636   27.8142 H   0  0  0  0  0  0  0  0  0  0  0  0
   10.0131   -6.8375   25.6814 H   0  0  0  0  0  0  0  0  0  0  0  0
    9.6116   -6.0794   24.1250 H   0  0  0  0  0  0  0  0  0  0  0  0
    7.0306   -5.7388   28.2232 H   0  0  0  0  0  0  0  0  0  0  0  0
    6.6546   -4.9740   26.6757 H   0  0  0  0  0  0  0  0  0  0  0  0
    7.1892   -6.2226   24.6319 H   0  0  0  0  0  0  0  0  0  0  0  0
    7.9315   -7.8151   24.8187 H   0  0  0  0  0  0  0  0  0  0  0  0
   11.5374    0.0399   22.2527 H   0  0  0  0  0  0  0  0  0  0  0  0
   11.4700    0.0494   23.9985 H   0  0  0  0  0  0  0  0  0  0  0  0
    8.9187    0.7273   23.6745 H   0  0  0  0  0  0  0  0  0  0  0  0
    8.1354   -1.7990   21.3694 H   0  0  0  0  0  0  0  0  0  0  0  0
  1  3  2  0  0  0  0
  1  8  1  0  0  0  0
  2  4  1  0  0  0  0
  2  8  2  0  0  0  0
  3 10  1  0  0  0  0
  4 10  2  0  0  0  0
  5  6  2  0  0  0  0
  5  9  1  0  0  0  0
  6 31  1  0  0  0  0
  7  9  2  0  0  0  0
  7 31  1  0  0  0  0
  8 23  1  0  0  0  0
  9 22  1  0  0  0  0
 10 27  1  0  0  0  0
 11 12  2  0  0  0  0
 11 13  1  0  0  0  0
 11 26  1  0  0  0  0
 12 24  1  0  0  0  0
 12 28  1  0  0  0  0
 13 14  2  0  0  0  0
 14 15  1  0  0  0  0
 15 16  2  0  0  0  0
 16 26  1  0  0  0  0
 17 23  1  6  0  0  0
 17 28  1  0  0  0  0
 17 29  2  0  0  0  0
 18 20  1  0  0  0  0
 18 27  1  0  0  0  0
 19 21  1  0  0  0  0
 19 27  1  0  0  0  0
 20 30  1  0  0  0  0
 21 30  1  0  0  0  0
 22 23  1  0  0  0  0
 24 25  2  0  0  0  0
 25 26  1  0  0  0  0
  1 32  1  0  0  0  0
  2 33  1  0  0  0  0
  3 34  1  0  0  0  0
  4 35  1  0  0  0  0
  5 36  1  0  0  0  0
  6 37  1  0  0  0  0
  7 38  1  0  0  0  0
 13 39  1  0  0  0  0
 14 40  1  0  0  0  0
 15 41  1  0  0  0  0
 16 42  1  0  0  0  0
 18 43  1  0  0  0  0
 18 44  1  0  0  0  0
 19 45  1  0  0  0  0
 19 46  1  0  0  0  0
 20 47  1  0  0  0  0
 20 48  1  0  0  0  0
 21 49  1  0  0  0  0
 21 50  1  0  0  0  0
 22 51  1  0  0  0  0
 22 52  1  0  0  0  0
 23 53  1  0  0  0  0
 28 54  1  0  0  0  0
M  END
> <clash_score>
0

> <docking_score>
-9.492656707763672

> <overlap_score>
0.9356263279914856

$$$$
BENZO_281_1
  -OEChem-08232013503D

 54 57  0     1  0  0  0  0  0999 V2000
   11.4296    4.7207   23.1993 C   0  0  0  0  0  0  0  0  0  0  0  0
    4.2970    1.6690   20.8430 C   0  0  0  0  0  0  0  0  0  0  0  0
   12.4494    3.9228   22.6806 C   0  0  0  0  0  0  0  0  0  0  0  0
   10.2636    4.1317   23.6883 C   0  0  0  0  0  0  0  0  0  0  0  0
    4.0980    2.1130   19.5350 C   0  0  0  0  0  0  0  0  0  0  0  0
    5.3360    0.8000   21.1530 C   0  0  0  0  0  0  0  0  0  0  0  0
   12.3031    2.5360   22.6508 C   0  0  0  0  0  0  0  0  0  0  0  0
   10.1173    2.7449   23.6585 C   0  0  0  0  0  0  0  0  0  0  0  0
    8.3510   -1.5420   24.6110 C   0  0  0  0  0  0  0  0  0  0  0  0
   10.2760   -2.3270   23.4020 C   0  0  0  0  0  0  0  0  0  0  0  0
    4.9400    1.7060   18.5060 C   0  0  0  0  0  0  0  0  0  0  0  0
    8.3310   -2.7170   25.3430 C   0  0  0  0  0  0  0  0  0  0  0  0
   10.2570   -3.5000   24.1350 C   0  0  0  0  0  0  0  0  0  0  0  0
    7.6830   -0.5170   18.7600 C   0  0  0  0  0  0  0  0  0  0  0  0
    6.1600    0.3870   20.1140 C   0  0  0  0  0  0  0  0  0  0  0  0
   11.1370    1.9470   23.1397 C   0  0  0  0  0  0  0  0  0  0  0  0
    9.3300   -1.3350   23.6390 C   0  0  0  0  0  0  0  0  0  0  0  0
    5.9810    0.8330   18.8060 C   0  0  0  0  0  0  0  0  0  0  0  0
    9.2850   -3.7090   25.1090 C   0  0  0  0  0  0  0  0  0  0  0  0
    7.2210   -0.4620   20.0350 C   0  0  0  0  0  0  0  0  0  0  0  0
    8.9510    0.1280   21.6880 C   0  0  0  0  0  0  0  0  0  0  0  0
    8.2520   -5.1175   26.8652 C   0  0  0  0  0  0  0  0  0  0  0  0
   10.2437   -5.9407   25.5988 C   0  0  0  0  0  0  0  0  0  0  0  0
   10.9777    0.4443   23.1075 C   0  0  0  0  0  0  0  0  0  0  0  0
    9.4200   -0.0840   22.9530 C   0  0  1  0  0  0  0  0  0  0  0  0
    6.9440    0.2550   18.0100 N   0  0  0  0  0  0  0  0  0  0  0  0
    8.0810   -0.9750   21.0820 N   0  0  0  0  0  0  0  0  0  0  0  0
    9.2638   -4.9025   25.8500 N   0  0  0  0  0  0  0  0  0  0  0  0
    9.1870    1.1500   21.0630 O   0  0  0  0  0  0  0  0  0  0  0  0
   11.5443    5.8005   23.2237 H   0  0  0  0  0  0  0  0  0  0  0  0
    3.6256    2.0106   21.6303 H   0  0  0  0  0  0  0  0  0  0  0  0
   13.3579    4.3812   22.3008 H   0  0  0  0  0  0  0  0  0  0  0  0
    9.4699    4.7525   24.0932 H   0  0  0  0  0  0  0  0  0  0  0  0
    3.2724    2.7868   19.3204 H   0  0  0  0  0  0  0  0  0  0  0  0
    5.4858    0.4664   22.1692 H   0  0  0  0  0  0  0  0  0  0  0  0
   13.1028    1.9222   22.2446 H   0  0  0  0  0  0  0  0  0  0  0  0
    9.2052    2.2948   24.0415 H   0  0  0  0  0  0  0  0  0  0  0  0
    7.5957   -0.7779   24.7973 H   0  0  0  0  0  0  0  0  0  0  0  0
   11.0384   -2.1852   22.6338 H   0  0  0  0  0  0  0  0  0  0  0  0
    4.7836    2.0664   17.4848 H   0  0  0  0  0  0  0  0  0  0  0  0
    7.5634   -2.8637   26.1037 H   0  0  0  0  0  0  0  0  0  0  0  0
   11.0139   -4.2645   23.9419 H   0  0  0  0  0  0  0  0  0  0  0  0
    8.5274   -1.0858   18.3384 H   0  0  0  0  0  0  0  0  0  0  0  0
    8.4015   -6.1034   27.3297 H   0  0  0  0  0  0  0  0  0  0  0  0
    8.3315   -4.3345   27.6337 H   0  0  0  0  0  0  0  0  0  0  0  0
    7.2546   -5.0776   26.4029 H   0  0  0  0  0  0  0  0  0  0  0  0
   10.0610   -6.7893   26.2745 H   0  0  0  0  0  0  0  0  0  0  0  0
   10.1605   -6.2786   24.5553 H   0  0  0  0  0  0  0  0  0  0  0  0
   11.2536   -5.5421   25.7758 H   0  0  0  0  0  0  0  0  0  0  0  0
   11.5363    0.0386   22.2539 H   0  0  0  0  0  0  0  0  0  0  0  0
   11.4704    0.0336   23.9998 H   0  0  0  0  0  0  0  0  0  0  0  0
    8.9182    0.7194   23.6789 H   0  0  0  0  0  0  0  0  0  0  0  0
    7.0325    0.4238   17.0175 H   0  0  0  0  0  0  0  0  0  0  0  0
    8.1175   -1.8104   21.3538 H   0  0  0  0  0  0  0  0  0  0  0  0
  1  3  1  0  0  0  0
  1  4  2  0  0  0  0
  2  5  1  0  0  0  0
  2  6  2  0  0  0  0
  3  7  2  0  0  0  0
  4  8  1  0  0  0  0
  5 11  2  0  0  0  0
  6 15  1  0  0  0  0
  7 16  1  0  0  0  0
  8 16  2  0  0  0  0
  9 12  2  0  0  0  0
  9 17  1  0  0  0  0
 10 13  1  0  0  0  0
 10 17  2  0  0  0  0
 11 18  1  0  0  0  0
 12 19  1  0  0  0  0
 13 19  2  0  0  0  0
 14 20  2  0  0  0  0
 14 26  1  0  0  0  0
 15 18  2  0  0  0  0
 15 20  1  0  0  0  0
 16 24  1  0  0  0  0
 17 25  1  0  0  0  0
 18 26  1  0  0  0  0
 19 28  1  0  0  0  0
 20 27  1  0  0  0  0
 21 25  1  0  0  0  0
 21 27  1  0  0  0  0
 21 29  2  0  0  0  0
 22 28  1  0  0  0  0
 23 28  1  0  0  0  0
 24 25  1  1  0  0  0
  1 30  1  0  0  0  0
  2 31  1  0  0  0  0
  3 32  1  0  0  0  0
  4 33  1  0  0  0  0
  5 34  1  0  0  0  0
  6 35  1  0  0  0  0
  7 36  1  0  0  0  0
  8 37  1  0  0  0  0
  9 38  1  0  0  0  0
 10 39  1  0  0  0  0
 11 40  1  0  0  0  0
 12 41  1  0  0  0  0
 13 42  1  0  0  0  0
 14 43  1  0  0  0  0
 22 44  1  0  0  0  0
 22 45  1  0  0  0  0
 22 46  1  0  0  0  0
 23 47  1  0  0  0  0
 23 48  1  0  0  0  0
 23 49  1  0  0  0  0
 24 50  1  0  0  0  0
 24 51  1  0  0  0  0
 25 52  1  0  0  0  0
 26 53  1  0  0  0  0
 27 54  1  0  0  0  0
M  END
> <clash_score>
0

> <docking_score>
-11.011075973510742

> <overlap_score>
0.9330863356590271

$$$$
BENZO_280_1
  -OEChem-08232013503D

 51 54  0     1  0  0  0  0  0999 V2000
    4.2970    1.6690   20.8430 C   0  0  0  0  0  0  0  0  0  0  0  0
    4.0980    2.1130   19.5350 C   0  0  0  0  0  0  0  0  0  0  0  0
    5.3360    0.8000   21.1530 C   0  0  0  0  0  0  0  0  0  0  0  0
    8.3510   -1.5420   24.6110 C   0  0  0  0  0  0  0  0  0  0  0  0
   10.2760   -2.3270   23.4020 C   0  0  0  0  0  0  0  0  0  0  0  0
    4.9400    1.7060   18.5060 C   0  0  0  0  0  0  0  0  0  0  0  0
    8.3310   -2.7170   25.3430 C   0  0  0  0  0  0  0  0  0  0  0  0
   10.2570   -3.5000   24.1350 C   0  0  0  0  0  0  0  0  0  0  0  0
   11.9019    2.6854   22.1912 C   0  0  0  0  0  0  0  0  0  0  0  0
    7.6830   -0.5170   18.7600 C   0  0  0  0  0  0  0  0  0  0  0  0
   11.8820    4.0381   22.4508 C   0  0  0  0  0  0  0  0  0  0  0  0
   10.5617    2.7635   24.0885 C   0  0  0  0  0  0  0  0  0  0  0  0
    6.1600    0.3870   20.1140 C   0  0  0  0  0  0  0  0  0  0  0  0
    9.3300   -1.3350   23.6390 C   0  0  0  0  0  0  0  0  0  0  0  0
   11.1370    1.9470   23.1397 C   0  0  0  0  0  0  0  0  0  0  0  0
    5.9810    0.8330   18.8060 C   0  0  0  0  0  0  0  0  0  0  0  0
    9.2850   -3.7090   25.1090 C   0  0  0  0  0  0  0  0  0  0  0  0
    7.2210   -0.4620   20.0350 C   0  0  0  0  0  0  0  0  0  0  0  0
    8.9510    0.1280   21.6880 C   0  0  0  0  0  0  0  0  0  0  0  0
    8.2520   -5.1175   26.8652 C   0  0  0  0  0  0  0  0  0  0  0  0
   10.2437   -5.9407   25.5988 C   0  0  0  0  0  0  0  0  0  0  0  0
   10.9777    0.4443   23.1075 C   0  0  0  0  0  0  0  0  0  0  0  0
    9.4200   -0.0840   22.9530 C   0  0  1  0  0  0  0  0  0  0  0  0
    6.9440    0.2550   18.0100 N   0  0  0  0  0  0  0  0  0  0  0  0
    8.0810   -0.9750   21.0820 N   0  0  0  0  0  0  0  0  0  0  0  0
    9.2638   -4.9025   25.8500 N   0  0  0  0  0  0  0  0  0  0  0  0
    9.1870    1.1500   21.0630 O   0  0  0  0  0  0  0  0  0  0  0  0
   10.9440    4.4131   23.8335 S   0  0  0  0  0  0  0  0  0  0  0  0
    3.6256    2.0106   21.6303 H   0  0  0  0  0  0  0  0  0  0  0  0
    3.2724    2.7868   19.3204 H   0  0  0  0  0  0  0  0  0  0  0  0
    5.4858    0.4664   22.1692 H   0  0  0  0  0  0  0  0  0  0  0  0
    7.5957   -0.7779   24.7973 H   0  0  0  0  0  0  0  0  0  0  0  0
   11.0384   -2.1852   22.6338 H   0  0  0  0  0  0  0  0  0  0  0  0
    4.7836    2.0664   17.4848 H   0  0  0  0  0  0  0  0  0  0  0  0
    7.5634   -2.8637   26.1037 H   0  0  0  0  0  0  0  0  0  0  0  0
   11.0139   -4.2645   23.9419 H   0  0  0  0  0  0  0  0  0  0  0  0
   12.4414    2.2505   21.3593 H   0  0  0  0  0  0  0  0  0  0  0  0
    8.5274   -1.0858   18.3384 H   0  0  0  0  0  0  0  0  0  0  0  0
   12.3738    4.8240   21.8953 H   0  0  0  0  0  0  0  0  0  0  0  0
    9.9357    2.4743   24.9213 H   0  0  0  0  0  0  0  0  0  0  0  0
    8.4015   -6.1034   27.3297 H   0  0  0  0  0  0  0  0  0  0  0  0
    8.3315   -4.3345   27.6337 H   0  0  0  0  0  0  0  0  0  0  0  0
    7.2546   -5.0776   26.4029 H   0  0  0  0  0  0  0  0  0  0  0  0
   10.0610   -6.7893   26.2745 H   0  0  0  0  0  0  0  0  0  0  0  0
   10.1605   -6.2786   24.5553 H   0  0  0  0  0  0  0  0  0  0  0  0
   11.2536   -5.5421   25.7758 H   0  0  0  0  0  0  0  0  0  0  0  0
   11.5363    0.0386   22.2539 H   0  0  0  0  0  0  0  0  0  0  0  0
   11.4704    0.0336   23.9998 H   0  0  0  0  0  0  0  0  0  0  0  0
    8.9182    0.7194   23.6789 H   0  0  0  0  0  0  0  0  0  0  0  0
    7.0325    0.4238   17.0175 H   0  0  0  0  0  0  0  0  0  0  0  0
    8.1175   -1.8104   21.3538 H   0  0  0  0  0  0  0  0  0  0  0  0
  1  2  1  0  0  0  0
  1  3  2  0  0  0  0
  2  6  2  0  0  0  0
  3 13  1  0  0  0  0
  4  7  2  0  0  0  0
  4 14  1  0  0  0  0
  5  8  1  0  0  0  0
  5 14  2  0  0  0  0
  6 16  1  0  0  0  0
  7 17  1  0  0  0  0
  8 17  2  0  0  0  0
  9 11  2  0  0  0  0
  9 15  1  0  0  0  0
 10 18  2  0  0  0  0
 10 24  1  0  0  0  0
 11 28  1  0  0  0  0
 12 15  2  0  0  0  0
 12 28  1  0  0  0  0
 13 16  2  0  0  0  0
 13 18  1  0  0  0  0
 14 23  1  0  0  0  0
 15 22  1  0  0  0  0
 16 24  1  0  0  0  0
 17 26  1  0  0  0  0
 18 25  1  0  0  0  0
 19 23  1  0  0  0  0
 19 25  1  0  0  0  0
 19 27  2  0  0  0  0
 20 26  1  0  0  0  0
 21 26  1  0  0  0  0
 22 23  1  1  0  0  0
  1 29  1  0  0  0  0
  2 30  1  0  0  0  0
  3 31  1  0  0  0  0
  4 32  1  0  0  0  0
  5 33  1  0  0  0  0
  6 34  1  0  0  0  0
  7 35  1  0  0  0  0
  8 36  1  0  0  0  0
  9 37  1  0  0  0  0
 10 38  1  0  0  0  0
 11 39  1  0  0  0  0
 12 40  1  0  0  0  0
 20 41  1  0  0  0  0
 20 42  1  0  0  0  0
 20 43  1  0  0  0  0
 21 44  1  0  0  0  0
 21 45  1  0  0  0  0
 21 46  1  0  0  0  0
 22 47  1  0  0  0  0
 22 48  1  0  0  0  0
 23 49  1  0  0  0  0
 24 50  1  0  0  0  0
 25 51  1  0  0  0  0
M  END
> <clash_score>
0

> <docking_score>
-9.552252769470215

> <overlap_score>
0.9221593737602234

$$$$
BENZO_281_2
  -OEChem-08232013503D

 54 57  0     1  0  0  0  0  0999 V2000
   10.6367    4.9868   23.6018 C   0  0  0  0  0  0  0  0  0  0  0  0
    4.2970    1.6690   20.8430 C   0  0  0  0  0  0  0  0  0  0  0  0
    9.3228    4.8557   24.0511 C   0  0  0  0  0  0  0  0  0  0  0  0
   11.3798    3.8515   23.2784 C   0  0  0  0  0  0  0  0  0  0  0  0
    4.0980    2.1130   19.5350 C   0  0  0  0  0  0  0  0  0  0  0  0
    5.3360    0.8000   21.1530 C   0  0  0  0  0  0  0  0  0  0  0  0
    8.7519    3.5893   24.1772 C   0  0  0  0  0  0  0  0  0  0  0  0
   10.8090    2.5851   23.4045 C   0  0  0  0  0  0  0  0  0  0  0  0
    8.3510   -1.5420   24.6110 C   0  0  0  0  0  0  0  0  0  0  0  0
   10.2760   -2.3270   23.4020 C   0  0  0  0  0  0  0  0  0  0  0  0
    4.9400    1.7060   18.5060 C   0  0  0  0  0  0  0  0  0  0  0  0
    8.3310   -2.7170   25.3430 C   0  0  0  0  0  0  0  0  0  0  0  0
   10.2570   -3.5000   24.1350 C   0  0  0  0  0  0  0  0  0  0  0  0
    7.6830   -0.5170   18.7600 C   0  0  0  0  0  0  0  0  0  0  0  0
    6.1600    0.3870   20.1140 C   0  0  0  0  0  0  0  0  0  0  0  0
    9.4950    2.4539   23.8539 C   0  0  0  0  0  0  0  0  0  0  0  0
    9.3300   -1.3350   23.6390 C   0  0  0  0  0  0  0  0  0  0  0  0
    5.9810    0.8330   18.8060 C   0  0  0  0  0  0  0  0  0  0  0  0
    9.2850   -3.7090   25.1090 C   0  0  0  0  0  0  0  0  0  0  0  0
    7.2210   -0.4620   20.0350 C   0  0  0  0  0  0  0  0  0  0  0  0
    8.9510    0.1280   21.6880 C   0  0  0  0  0  0  0  0  0  0  0  0
    8.2520   -5.1175   26.8652 C   0  0  0  0  0  0  0  0  0  0  0  0
   10.2437   -5.9407   25.5988 C   0  0  0  0  0  0  0  0  0  0  0  0
    8.8771    1.0813   23.9905 C   0  0  0  0  0  0  0  0  0  0  0  0
    9.4200   -0.0840   22.9530 C   0  0  2  0  0  0  0  0  0  0  0  0
    6.9440    0.2550   18.0100 N   0  0  0  0  0  0  0  0  0  0  0  0
    8.0810   -0.9750   21.0820 N   0  0  0  0  0  0  0  0  0  0  0  0
    9.2638   -4.9025   25.8500 N   0  0  0  0  0  0  0  0  0  0  0  0
    9.1870    1.1500   21.0630 O   0  0  0  0  0  0  0  0  0  0  0  0
   11.0806    5.9731   23.5024 H   0  0  0  0  0  0  0  0  0  0  0  0
    3.6256    2.0106   21.6303 H   0  0  0  0  0  0  0  0  0  0  0  0
    8.7437    5.7397   24.3019 H   0  0  0  0  0  0  0  0  0  0  0  0
   12.4025    3.9533   22.9274 H   0  0  0  0  0  0  0  0  0  0  0  0
    3.2724    2.7868   19.3204 H   0  0  0  0  0  0  0  0  0  0  0  0
    5.4858    0.4664   22.1692 H   0  0  0  0  0  0  0  0  0  0  0  0
    7.7275    3.4967   24.5283 H   0  0  0  0  0  0  0  0  0  0  0  0
   11.3955    1.7061   23.1503 H   0  0  0  0  0  0  0  0  0  0  0  0
    7.5957   -0.7779   24.7973 H   0  0  0  0  0  0  0  0  0  0  0  0
   11.0384   -2.1852   22.6338 H   0  0  0  0  0  0  0  0  0  0  0  0
    4.7836    2.0664   17.4848 H   0  0  0  0  0  0  0  0  0  0  0  0
    7.5634   -2.8637   26.1037 H   0  0  0  0  0  0  0  0  0  0  0  0
   11.0139   -4.2645   23.9419 H   0  0  0  0  0  0  0  0  0  0  0  0
    8.5274   -1.0858   18.3384 H   0  0  0  0  0  0  0  0  0  0  0  0
    8.4015   -6.1034   27.3297 H   0  0  0  0  0  0  0  0  0  0  0  0
    8.3315   -4.3345   27.6337 H   0  0  0  0  0  0  0  0  0  0  0  0
    7.2546   -5.0776   26.4029 H   0  0  0  0  0  0  0  0  0  0  0  0
   10.0610   -6.7893   26.2745 H   0  0  0  0  0  0  0  0  0  0  0  0
   10.1605   -6.2786   24.5553 H   0  0  0  0  0  0  0  0  0  0  0  0
   11.2536   -5.5421   25.7758 H   0  0  0  0  0  0  0  0  0  0  0  0
    8.9708    0.7434   25.0308 H   0  0  0  0  0  0  0  0  0  0  0  0
    7.7972    1.1781   23.8117 H   0  0  0  0  0  0  0  0  0  0  0  0
   10.5743    0.2174   22.9808 H   0  0  0  0  0  0  0  0  0  0  0  0
    7.0325    0.4238   17.0175 H   0  0  0  0  0  0  0  0  0  0  0  0
    8.1175   -1.8104   21.3538 H   0  0  0  0  0  0  0  0  0  0  0  0
  1  3  1  0  0  0  0
  1  4  2  0  0  0  0
  2  5  1  0  0  0  0
  2  6  2  0  0  0  0
  3  7  2  0  0  0  0
  4  8  1  0  0  0  0
  5 11  2  0  0  0  0
  6 15  1  0  0  0  0
  7 16  1  0  0  0  0
  8 16  2  0  0  0  0
  9 12  2  0  0  0  0
  9 17  1  0  0  0  0
 10 13  1  0  0  0  0
 10 17  2  0  0  0  0
 11 18  1  0  0  0  0
 12 19  1  0  0  0  0
 13 19  2  0  0  0  0
 14 20  2  0  0  0  0
 14 26  1  0  0  0  0
 15 18  2  0  0  0  0
 15 20  1  0  0  0  0
 16 24  1  0  0  0  0
 17 25  1  0  0  0  0
 18 26  1  0  0  0  0
 19 28  1  0  0  0  0
 20 27  1  0  0  0  0
 21 25  1  0  0  0  0
 21 27  1  0  0  0  0
 21 29  2  0  0  0  0
 22 28  1  0  0  0  0
 23 28  1  0  0  0  0
 24 25  1  6  0  0  0
  1 30  1  0  0  0  0
  2 31  1  0  0  0  0
  3 32  1  0  0  0  0
  4 33  1  0  0  0  0
  5 34  1  0  0  0  0
  6 35  1  0  0  0  0
  7 36  1  0  0  0  0
  8 37  1  0  0  0  0
  9 38  1  0  0  0  0
 10 39  1  0  0  0  0
 11 40  1  0  0  0  0
 12 41  1  0  0  0  0
 13 42  1  0  0  0  0
 14 43  1  0  0  0  0
 22 44  1  0  0  0  0
 22 45  1  0  0  0  0
 22 46  1  0  0  0  0
 23 47  1  0  0  0  0
 23 48  1  0  0  0  0
 23 49  1  0  0  0  0
 24 50  1  0  0  0  0
 24 51  1  0  0  0  0
 25 52  1  0  0  0  0
 26 53  1  0  0  0  0
 27 54  1  0  0  0  0
M  END
> <clash_score>
0

> <docking_score>
-9.896439552307129

> <overlap_score>
0.8615378141403198

$$$$
BENZO_278_1
  -OEChem-08232013503D

 57 61  0     1  0  0  0  0  0999 V2000
    9.2913    4.8680   24.0265 C   0  0  0  0  0  0  0  0  0  0  0  0
    8.7312    3.5975   24.1588 C   0  0  0  0  0  0  0  0  0  0  0  0
    8.3510   -1.5420   24.6110 C   0  0  0  0  0  0  0  0  0  0  0  0
   10.2760   -2.3270   23.4020 C   0  0  0  0  0  0  0  0  0  0  0  0
    8.3310   -2.7170   25.3430 C   0  0  0  0  0  0  0  0  0  0  0  0
   10.2570   -3.5000   24.1350 C   0  0  0  0  0  0  0  0  0  0  0  0
   10.6033    5.0082   23.5739 C   0  0  0  0  0  0  0  0  0  0  0  0
   10.7949    2.6072   23.3858 C   0  0  0  0  0  0  0  0  0  0  0  0
    9.3300   -1.3350   23.6390 C   0  0  0  0  0  0  0  0  0  0  0  0
    9.4829    2.4671   23.8384 C   0  0  0  0  0  0  0  0  0  0  0  0
    9.2850   -3.7090   25.1090 C   0  0  0  0  0  0  0  0  0  0  0  0
   11.3551    3.8778   23.2536 C   0  0  0  0  0  0  0  0  0  0  0  0
    6.1600    0.3870   20.1140 C   0  0  0  0  0  0  0  0  0  0  0  0
    7.2210   -0.4620   20.0350 C   0  0  0  0  0  0  0  0  0  0  0  0
    5.3360    0.8000   21.1530 C   0  0  0  0  0  0  0  0  0  0  0  0
    4.2970    1.6690   20.8430 C   0  0  0  0  0  0  0  0  0  0  0  0
    4.0980    2.1130   19.5350 C   0  0  0  0  0  0  0  0  0  0  0  0
    4.9400    1.7060   18.5060 C   0  0  0  0  0  0  0  0  0  0  0  0
    8.9510    0.1280   21.6880 C   0  0  0  0  0  0  0  0  0  0  0  0
    8.7671   -4.9535   27.2147 C   0  0  0  0  0  0  0  0  0  0  0  0
    9.3066   -6.1865   25.1649 C   0  0  0  0  0  0  0  0  0  0  0  0
    7.3847   -5.5970   27.2000 C   0  0  0  0  0  0  0  0  0  0  0  0
    7.9070   -6.7999   25.2264 C   0  0  0  0  0  0  0  0  0  0  0  0
    8.8757    1.0906   23.9831 C   0  0  0  0  0  0  0  0  0  0  0  0
    9.4200   -0.0840   22.9530 C   0  0  1  0  0  0  0  0  0  0  0  0
    7.6830   -0.5170   18.7600 N   0  0  0  0  0  0  0  0  0  0  0  0
    6.9440    0.2550   18.0100 N   0  0  0  0  0  0  0  0  0  0  0  0
    5.9810    0.8330   18.8060 N   0  0  0  0  0  0  0  0  0  0  0  0
    9.2641   -4.8845   25.8388 N   0  0  0  0  0  0  0  0  0  0  0  0
    8.0810   -0.9750   21.0820 N   0  0  0  0  0  0  0  0  0  0  0  0
    9.1870    1.1500   21.0630 O   0  0  0  0  0  0  0  0  0  0  0  0
    7.4533   -6.8877   26.5818 O   0  0  0  0  0  0  0  0  0  0  0  0
   12.9740    4.0513   22.6963 Cl  0  0  0  0  0  0  0  0  0  0  0  0
    8.7057    5.7481   24.2762 H   0  0  0  0  0  0  0  0  0  0  0  0
    7.7082    3.4977   24.5123 H   0  0  0  0  0  0  0  0  0  0  0  0
    7.5957   -0.7779   24.7973 H   0  0  0  0  0  0  0  0  0  0  0  0
   11.0384   -2.1852   22.6338 H   0  0  0  0  0  0  0  0  0  0  0  0
    7.5634   -2.8637   26.1037 H   0  0  0  0  0  0  0  0  0  0  0  0
   11.0139   -4.2645   23.9419 H   0  0  0  0  0  0  0  0  0  0  0  0
   11.0270    6.0047   23.4760 H   0  0  0  0  0  0  0  0  0  0  0  0
   11.3767    1.7227   23.1369 H   0  0  0  0  0  0  0  0  0  0  0  0
    5.4735    0.4758   22.1644 H   0  0  0  0  0  0  0  0  0  0  0  0
    3.6415    1.9967   21.6408 H   0  0  0  0  0  0  0  0  0  0  0  0
    3.2720    2.7926   19.2921 H   0  0  0  0  0  0  0  0  0  0  0  0
    4.8119    2.0418   17.5005 H   0  0  0  0  0  0  0  0  0  0  0  0
    8.7013   -3.9575   27.6574 H   0  0  0  0  0  0  0  0  0  0  0  0
    9.4480   -5.5636   27.8142 H   0  0  0  0  0  0  0  0  0  0  0  0
   10.0131   -6.8375   25.6814 H   0  0  0  0  0  0  0  0  0  0  0  0
    9.6116   -6.0794   24.1250 H   0  0  0  0  0  0  0  0  0  0  0  0
    7.0306   -5.7388   28.2232 H   0  0  0  0  0  0  0  0  0  0  0  0
    6.6546   -4.9740   26.6757 H   0  0  0  0  0  0  0  0  0  0  0  0
    7.1892   -6.2226   24.6319 H   0  0  0  0  0  0  0  0  0  0  0  0
    7.9315   -7.8151   24.8187 H   0  0  0  0  0  0  0  0  0  0  0  0
    8.9639    0.7632   25.0273 H   0  0  0  0  0  0  0  0  0  0  0  0
    7.7964    1.1765   23.7949 H   0  0  0  0  0  0  0  0  0  0  0  0
   10.5749    0.2253   22.9765 H   0  0  0  0  0  0  0  0  0  0  0  0
    8.1354   -1.7990   21.3694 H   0  0  0  0  0  0  0  0  0  0  0  0
  1  2  2  0  0  0  0
  1  7  1  0  0  0  0
  2 10  1  0  0  0  0
  3  5  2  0  0  0  0
  3  9  1  0  0  0  0
  4  6  1  0  0  0  0
  4  9  2  0  0  0  0
  5 11  1  0  0  0  0
  6 11  2  0  0  0  0
  7 12  2  0  0  0  0
  8 10  2  0  0  0  0
  8 12  1  0  0  0  0
  9 25  1  0  0  0  0
 10 24  1  0  0  0  0
 11 29  1  0  0  0  0
 12 33  1  0  0  0  0
 13 14  2  0  0  0  0
 13 15  1  0  0  0  0
 13 28  1  0  0  0  0
 14 26  1  0  0  0  0
 14 30  1  0  0  0  0
 15 16  2  0  0  0  0
 16 17  1  0  0  0  0
 17 18  2  0  0  0  0
 18 28  1  0  0  0  0
 19 25  1  1  0  0  0
 19 30  1  0  0  0  0
 19 31  2  0  0  0  0
 20 22  1  0  0  0  0
 20 29  1  0  0  0  0
 21 23  1  0  0  0  0
 21 29  1  0  0  0  0
 22 32  1  0  0  0  0
 23 32  1  0  0  0  0
 24 25  1  0  0  0  0
 26 27  2  0  0  0  0
 27 28  1  0  0  0  0
  1 34  1  0  0  0  0
  2 35  1  0  0  0  0
  3 36  1  0  0  0  0
  4 37  1  0  0  0  0
  5 38  1  0  0  0  0
  6 39  1  0  0  0  0
  7 40  1  0  0  0  0
  8 41  1  0  0  0  0
 15 42  1  0  0  0  0
 16 43  1  0  0  0  0
 17 44  1  0  0  0  0
 18 45  1  0  0  0  0
 20 46  1  0  0  0  0
 20 47  1  0  0  0  0
 21 48  1  0  0  0  0
 21 49  1  0  0  0  0
 22 50  1  0  0  0  0
 22 51  1  0  0  0  0
 23 52  1  0  0  0  0
 23 53  1  0  0  0  0
 24 54  1  0  0  0  0
 24 55  1  0  0  0  0
 25 56  1  0  0  0  0
 30 57  1  0  0  0  0
M  END
> <clash_score>
0

> <docking_score>
-10.371055603027344

> <overlap_score>
0.8821789622306824

$$$$
BENZO_278_2
  -OEChem-08232013503D

 57 61  0     1  0  0  0  0  0999 V2000
   10.2658    4.1447   23.6556 C   0  0  0  0  0  0  0  0  0  0  0  0
   10.1187    2.7578   23.6359 C   0  0  0  0  0  0  0  0  0  0  0  0
    8.3510   -1.5420   24.6110 C   0  0  0  0  0  0  0  0  0  0  0  0
   10.2760   -2.3270   23.4020 C   0  0  0  0  0  0  0  0  0  0  0  0
    8.3310   -2.7170   25.3430 C   0  0  0  0  0  0  0  0  0  0  0  0
   10.2570   -3.5000   24.1350 C   0  0  0  0  0  0  0  0  0  0  0  0
   11.4317    4.7295   23.1614 C   0  0  0  0  0  0  0  0  0  0  0  0
   12.3037    2.5404   22.6281 C   0  0  0  0  0  0  0  0  0  0  0  0
    9.3300   -1.3350   23.6390 C   0  0  0  0  0  0  0  0  0  0  0  0
   11.1377    1.9556   23.1223 C   0  0  0  0  0  0  0  0  0  0  0  0
    9.2850   -3.7090   25.1090 C   0  0  0  0  0  0  0  0  0  0  0  0
   12.4507    3.9274   22.6477 C   0  0  0  0  0  0  0  0  0  0  0  0
    6.1600    0.3870   20.1140 C   0  0  0  0  0  0  0  0  0  0  0  0
    7.2210   -0.4620   20.0350 C   0  0  0  0  0  0  0  0  0  0  0  0
    5.3360    0.8000   21.1530 C   0  0  0  0  0  0  0  0  0  0  0  0
    4.2970    1.6690   20.8430 C   0  0  0  0  0  0  0  0  0  0  0  0
    4.0980    2.1130   19.5350 C   0  0  0  0  0  0  0  0  0  0  0  0
    4.9400    1.7060   18.5060 C   0  0  0  0  0  0  0  0  0  0  0  0
    8.9510    0.1280   21.6880 C   0  0  0  0  0  0  0  0  0  0  0  0
    8.7671   -4.9535   27.2147 C   0  0  0  0  0  0  0  0  0  0  0  0
    9.3066   -6.1865   25.1649 C   0  0  0  0  0  0  0  0  0  0  0  0
    7.3847   -5.5970   27.2000 C   0  0  0  0  0  0  0  0  0  0  0  0
    7.9070   -6.7999   25.2264 C   0  0  0  0  0  0  0  0  0  0  0  0
   10.9782    0.4528   23.1025 C   0  0  0  0  0  0  0  0  0  0  0  0
    9.4200   -0.0840   22.9530 C   0  0  2  0  0  0  0  0  0  0  0  0
    7.6830   -0.5170   18.7600 N   0  0  0  0  0  0  0  0  0  0  0  0
    6.9440    0.2550   18.0100 N   0  0  0  0  0  0  0  0  0  0  0  0
    5.9810    0.8330   18.8060 N   0  0  0  0  0  0  0  0  0  0  0  0
    9.2641   -4.8845   25.8388 N   0  0  0  0  0  0  0  0  0  0  0  0
    8.0810   -0.9750   21.0820 N   0  0  0  0  0  0  0  0  0  0  0  0
    9.1870    1.1500   21.0630 O   0  0  0  0  0  0  0  0  0  0  0  0
    7.4533   -6.8877   26.5818 O   0  0  0  0  0  0  0  0  0  0  0  0
   13.8895    4.6494   22.0392 Cl  0  0  0  0  0  0  0  0  0  0  0  0
    9.4721    4.7690   24.0558 H   0  0  0  0  0  0  0  0  0  0  0  0
    9.2068    2.3107   24.0232 H   0  0  0  0  0  0  0  0  0  0  0  0
    7.5957   -0.7779   24.7973 H   0  0  0  0  0  0  0  0  0  0  0  0
   11.0384   -2.1852   22.6338 H   0  0  0  0  0  0  0  0  0  0  0  0
    7.5634   -2.8637   26.1037 H   0  0  0  0  0  0  0  0  0  0  0  0
   11.0139   -4.2645   23.9419 H   0  0  0  0  0  0  0  0  0  0  0  0
   11.5327    5.8118   23.1833 H   0  0  0  0  0  0  0  0  0  0  0  0
   13.0951    1.9106   22.2282 H   0  0  0  0  0  0  0  0  0  0  0  0
    5.4735    0.4758   22.1644 H   0  0  0  0  0  0  0  0  0  0  0  0
    3.6415    1.9967   21.6408 H   0  0  0  0  0  0  0  0  0  0  0  0
    3.2720    2.7926   19.2921 H   0  0  0  0  0  0  0  0  0  0  0  0
    4.8119    2.0418   17.5005 H   0  0  0  0  0  0  0  0  0  0  0  0
    8.7013   -3.9575   27.6574 H   0  0  0  0  0  0  0  0  0  0  0  0
    9.4480   -5.5636   27.8142 H   0  0  0  0  0  0  0  0  0  0  0  0
   10.0131   -6.8375   25.6814 H   0  0  0  0  0  0  0  0  0  0  0  0
    9.6116   -6.0794   24.1250 H   0  0  0  0  0  0  0  0  0  0  0  0
    7.0306   -5.7388   28.2232 H   0  0  0  0  0  0  0  0  0  0  0  0
    6.6546   -4.9740   26.6757 H   0  0  0  0  0  0  0  0  0  0  0  0
    7.1892   -6.2226   24.6319 H   0  0  0  0  0  0  0  0  0  0  0  0
    7.9315   -7.8151   24.8187 H   0  0  0  0  0  0  0  0  0  0  0  0
   11.5374    0.0399   22.2527 H   0  0  0  0  0  0  0  0  0  0  0  0
   11.4700    0.0494   23.9985 H   0  0  0  0  0  0  0  0  0  0  0  0
    8.9187    0.7273   23.6745 H   0  0  0  0  0  0  0  0  0  0  0  0
    8.1354   -1.7990   21.3694 H   0  0  0  0  0  0  0  0  0  0  0  0
  1  2  2  0  0  0  0
  1  7  1  0  0  0  0
  2 10  1  0  0  0  0
  3  5  2  0  0  0  0
  3  9  1  0  0  0  0
  4  6  1  0  0  0  0
  4  9  2  0  0  0  0
  5 11  1  0  0  0  0
  6 11  2  0  0  0  0
  7 12  2  0  0  0  0
  8 10  2  0  0  0  0
  8 12  1  0  0  0  0
  9 25  1  0  0  0  0
 10 24  1  0  0  0  0
 11 29  1  0  0  0  0
 12 33  1  0  0  0  0
 13 14  2  0  0  0  0
 13 15  1  0  0  0  0
 13 28  1  0  0  0  0
 14 26  1  0  0  0  0
 14 30  1  0  0  0  0
 15 16  2  0  0  0  0
 16 17  1  0  0  0  0
 17 18  2  0  0  0  0
 18 28  1  0  0  0  0
 19 25  1  6  0  0  0
 19 30  1  0  0  0  0
 19 31  2  0  0  0  0
 20 22  1  0  0  0  0
 20 29  1  0  0  0  0
 21 23  1  0  0  0  0
 21 29  1  0  0  0  0
 22 32  1  0  0  0  0
 23 32  1  0  0  0  0
 24 25  1  0  0  0  0
 26 27  2  0  0  0  0
 27 28  1  0  0  0  0
  1 34  1  0  0  0  0
  2 35  1  0  0  0  0
  3 36  1  0  0  0  0
  4 37  1  0  0  0  0
  5 38  1  0  0  0  0
  6 39  1  0  0  0  0
  7 40  1  0  0  0  0
  8 41  1  0  0  0  0
 15 42  1  0  0  0  0
 16 43  1  0  0  0  0
 17 44  1  0  0  0  0
 18 45  1  0  0  0  0
 20 46  1  0  0  0  0
 20 47  1  0  0  0  0
 21 48  1  0  0  0  0
 21 49  1  0  0  0  0
 22 50  1  0  0  0  0
 22 51  1  0  0  0  0
 23 52  1  0  0  0  0
 23 53  1  0  0  0  0
 24 54  1  0  0  0  0
 24 55  1  0  0  0  0
 25 56  1  0  0  0  0
 30 57  1  0  0  0  0
M  END
> <clash_score>
0

> <docking_score>
-11.352544784545898

> <overlap_score>
0.9470763206481934

$$$$
BENZO_280_2
  -OEChem-08232013503D

 51 54  0     1  0  0  0  0  0999 V2000
    4.2970    1.6690   20.8430 C   0  0  0  0  0  0  0  0  0  0  0  0
    4.0980    2.1130   19.5350 C   0  0  0  0  0  0  0  0  0  0  0  0
    5.3360    0.8000   21.1530 C   0  0  0  0  0  0  0  0  0  0  0  0
    8.3510   -1.5420   24.6110 C   0  0  0  0  0  0  0  0  0  0  0  0
   10.2760   -2.3270   23.4020 C   0  0  0  0  0  0  0  0  0  0  0  0
    4.9400    1.7060   18.5060 C   0  0  0  0  0  0  0  0  0  0  0  0
    8.3310   -2.7170   25.3430 C   0  0  0  0  0  0  0  0  0  0  0  0
   10.2570   -3.5000   24.1350 C   0  0  0  0  0  0  0  0  0  0  0  0
   10.8633    2.6804   23.5273 C   0  0  0  0  0  0  0  0  0  0  0  0
    7.6830   -0.5170   18.7600 C   0  0  0  0  0  0  0  0  0  0  0  0
   11.1655    4.0230   23.4669 C   0  0  0  0  0  0  0  0  0  0  0  0
    8.8035    3.6322   24.0309 C   0  0  0  0  0  0  0  0  0  0  0  0
    6.1600    0.3870   20.1140 C   0  0  0  0  0  0  0  0  0  0  0  0
    9.3300   -1.3350   23.6390 C   0  0  0  0  0  0  0  0  0  0  0  0
    9.4950    2.4539   23.8539 C   0  0  0  0  0  0  0  0  0  0  0  0
    5.9810    0.8330   18.8060 C   0  0  0  0  0  0  0  0  0  0  0  0
    9.2850   -3.7090   25.1090 C   0  0  0  0  0  0  0  0  0  0  0  0
    7.2210   -0.4620   20.0350 C   0  0  0  0  0  0  0  0  0  0  0  0
    8.9510    0.1280   21.6880 C   0  0  0  0  0  0  0  0  0  0  0  0
    8.2520   -5.1175   26.8652 C   0  0  0  0  0  0  0  0  0  0  0  0
   10.2437   -5.9407   25.5988 C   0  0  0  0  0  0  0  0  0  0  0  0
    8.8771    1.0813   23.9905 C   0  0  0  0  0  0  0  0  0  0  0  0
    9.4200   -0.0840   22.9530 C   0  0  2  0  0  0  0  0  0  0  0  0
    6.9440    0.2550   18.0100 N   0  0  0  0  0  0  0  0  0  0  0  0
    8.0810   -0.9750   21.0820 N   0  0  0  0  0  0  0  0  0  0  0  0
    9.2638   -4.9025   25.8500 N   0  0  0  0  0  0  0  0  0  0  0  0
    9.1870    1.1500   21.0630 O   0  0  0  0  0  0  0  0  0  0  0  0
    9.8028    5.0040   23.8033 S   0  0  0  0  0  0  0  0  0  0  0  0
    3.6256    2.0106   21.6303 H   0  0  0  0  0  0  0  0  0  0  0  0
    3.2724    2.7868   19.3204 H   0  0  0  0  0  0  0  0  0  0  0  0
    5.4858    0.4664   22.1692 H   0  0  0  0  0  0  0  0  0  0  0  0
    7.5957   -0.7779   24.7973 H   0  0  0  0  0  0  0  0  0  0  0  0
   11.0384   -2.1852   22.6338 H   0  0  0  0  0  0  0  0  0  0  0  0
    4.7836    2.0664   17.4848 H   0  0  0  0  0  0  0  0  0  0  0  0
    7.5634   -2.8637   26.1037 H   0  0  0  0  0  0  0  0  0  0  0  0
   11.0139   -4.2645   23.9419 H   0  0  0  0  0  0  0  0  0  0  0  0
   11.5925    1.9010   23.3455 H   0  0  0  0  0  0  0  0  0  0  0  0
    8.5274   -1.0858   18.3384 H   0  0  0  0  0  0  0  0  0  0  0  0
   12.1213    4.4748   23.2422 H   0  0  0  0  0  0  0  0  0  0  0  0
    7.7599    3.7576   24.2842 H   0  0  0  0  0  0  0  0  0  0  0  0
    8.4015   -6.1034   27.3297 H   0  0  0  0  0  0  0  0  0  0  0  0
    8.3315   -4.3345   27.6337 H   0  0  0  0  0  0  0  0  0  0  0  0
    7.2546   -5.0776   26.4029 H   0  0  0  0  0  0  0  0  0  0  0  0
   10.0610   -6.7893   26.2745 H   0  0  0  0  0  0  0  0  0  0  0  0
   10.1605   -6.2786   24.5553 H   0  0  0  0  0  0  0  0  0  0  0  0
   11.2536   -5.5421   25.7758 H   0  0  0  0  0  0  0  0  0  0  0  0
    8.9708    0.7434   25.0308 H   0  0  0  0  0  0  0  0  0  0  0  0
    7.7972    1.1781   23.8117 H   0  0  0  0  0  0  0  0  0  0  0  0
   10.5743    0.2174   22.9808 H   0  0  0  0  0  0  0  0  0  0  0  0
    7.0325    0.4238   17.0175 H   0  0  0  0  0  0  0  0  0  0  0  0
    8.1175   -1.8104   21.3538 H   0  0  0  0  0  0  0  0  0  0  0  0
  1  2  1  0  0  0  0
  1  3  2  0  0  0  0
  2  6  2  0  0  0  0
  3 13  1  0  0  0  0
  4  7  2  0  0  0  0
  4 14  1  0  0  0  0
  5  8  1  0  0  0  0
  5 14  2  0  0  0  0
  6 16  1  0  0  0  0
  7 17  1  0  0  0  0
  8 17  2  0  0  0  0
  9 11  2  0  0  0  0
  9 15  1  0  0  0  0
 10 18  2  0  0  0  0
 10 24  1  0  0  0  0
 11 28  1  0  0  0  0
 12 15  2  0  0  0  0
 12 28  1  0  0  0  0
 13 16  2  0  0  0  0
 13 18  1  0  0  0  0
 14 23  1  0  0  0  0
 15 22  1  0  0  0  0
 16 24  1  0  0  0  0
 17 26  1  0  0  0  0
 18 25  1  0  0  0  0
 19 23  1  0  0  0  0
 19 25  1  0  0  0  0
 19 27  2  0  0  0  0
 20 26  1  0  0  0  0
 21 26  1  0  0  0  0
 22 23  1  6  0  0  0
  1 29  1  0  0  0  0
  2 30  1  0  0  0  0
  3 31  1  0  0  0  0
  4 32  1  0  0  0  0
  5 33  1  0  0  0  0
  6 34  1  0  0  0  0
  7 35  1  0  0  0  0
  8 36  1  0  0  0  0
  9 37  1  0  0  0  0
 10 38  1  0  0  0  0
 11 39  1  0  0  0  0
 12 40  1  0  0  0  0
 20 41  1  0  0  0  0
 20 42  1  0  0  0  0
 20 43  1  0  0  0  0
 21 44  1  0  0  0  0
 21 45  1  0  0  0  0
 21 46  1  0  0  0  0
 22 47  1  0  0  0  0
 22 48  1  0  0  0  0
 23 49  1  0  0  0  0
 24 50  1  0  0  0  0
 25 51  1  0  0  0  0
M  END
> <clash_score>
0

> <docking_score>
-9.619802474975586

> <overlap_score>
0.8587754368782043

$$$$
BENZO_279_1
  -OEChem-08232013503D

 57 61  0     1  0  0  0  0  0999 V2000
    8.3510   -1.5420   24.6110 C   0  0  0  0  0  0  0  0  0  0  0  0
   10.2760   -2.3270   23.4020 C   0  0  0  0  0  0  0  0  0  0  0  0
    8.3310   -2.7170   25.3430 C   0  0  0  0  0  0  0  0  0  0  0  0
   10.2570   -3.5000   24.1350 C   0  0  0  0  0  0  0  0  0  0  0  0
   10.2246    2.9150   23.5993 C   0  0  0  0  0  0  0  0  0  0  0  0
   12.2096    2.6918   22.6802 C   0  0  0  0  0  0  0  0  0  0  0  0
    9.3300   -1.3350   23.6390 C   0  0  0  0  0  0  0  0  0  0  0  0
   11.1377    1.9556   23.1223 C   0  0  0  0  0  0  0  0  0  0  0  0
    9.2850   -3.7090   25.1090 C   0  0  0  0  0  0  0  0  0  0  0  0
    6.1600    0.3870   20.1140 C   0  0  0  0  0  0  0  0  0  0  0  0
    7.2210   -0.4620   20.0350 C   0  0  0  0  0  0  0  0  0  0  0  0
    5.3360    0.8000   21.1530 C   0  0  0  0  0  0  0  0  0  0  0  0
    4.2970    1.6690   20.8430 C   0  0  0  0  0  0  0  0  0  0  0  0
    4.0980    2.1130   19.5350 C   0  0  0  0  0  0  0  0  0  0  0  0
    4.9400    1.7060   18.5060 C   0  0  0  0  0  0  0  0  0  0  0  0
    8.9510    0.1280   21.6880 C   0  0  0  0  0  0  0  0  0  0  0  0
    8.7671   -4.9535   27.2147 C   0  0  0  0  0  0  0  0  0  0  0  0
    9.3066   -6.1865   25.1649 C   0  0  0  0  0  0  0  0  0  0  0  0
    7.3847   -5.5970   27.2000 C   0  0  0  0  0  0  0  0  0  0  0  0
    7.9070   -6.7999   25.2264 C   0  0  0  0  0  0  0  0  0  0  0  0
   12.7040    5.1473   22.6110 C   0  0  0  0  0  0  0  0  0  0  0  0
   10.9782    0.4528   23.1025 C   0  0  0  0  0  0  0  0  0  0  0  0
    9.4200   -0.0840   22.9530 C   0  0  1  0  0  0  0  0  0  0  0  0
   10.6770    4.1653   23.4725 N   0  0  0  0  0  0  0  0  0  0  0  0
    7.6830   -0.5170   18.7600 N   0  0  0  0  0  0  0  0  0  0  0  0
    6.9440    0.2550   18.0100 N   0  0  0  0  0  0  0  0  0  0  0  0
   11.8861    3.9966   22.9107 N   0  0  0  0  0  0  0  0  0  0  0  0
    5.9810    0.8330   18.8060 N   0  0  0  0  0  0  0  0  0  0  0  0
    9.2641   -4.8845   25.8388 N   0  0  0  0  0  0  0  0  0  0  0  0
    8.0810   -0.9750   21.0820 N   0  0  0  0  0  0  0  0  0  0  0  0
    9.1870    1.1500   21.0630 O   0  0  0  0  0  0  0  0  0  0  0  0
    7.4533   -6.8877   26.5818 O   0  0  0  0  0  0  0  0  0  0  0  0
    7.5957   -0.7779   24.7973 H   0  0  0  0  0  0  0  0  0  0  0  0
   11.0384   -2.1852   22.6338 H   0  0  0  0  0  0  0  0  0  0  0  0
    7.5634   -2.8637   26.1037 H   0  0  0  0  0  0  0  0  0  0  0  0
   11.0139   -4.2645   23.9419 H   0  0  0  0  0  0  0  0  0  0  0  0
    9.2482    2.7576   24.0354 H   0  0  0  0  0  0  0  0  0  0  0  0
   13.1522    2.4055   22.2336 H   0  0  0  0  0  0  0  0  0  0  0  0
    5.4735    0.4758   22.1644 H   0  0  0  0  0  0  0  0  0  0  0  0
    3.6415    1.9967   21.6408 H   0  0  0  0  0  0  0  0  0  0  0  0
    3.2720    2.7926   19.2921 H   0  0  0  0  0  0  0  0  0  0  0  0
    4.8119    2.0418   17.5005 H   0  0  0  0  0  0  0  0  0  0  0  0
    8.7013   -3.9575   27.6574 H   0  0  0  0  0  0  0  0  0  0  0  0
    9.4480   -5.5636   27.8142 H   0  0  0  0  0  0  0  0  0  0  0  0
   10.0131   -6.8375   25.6814 H   0  0  0  0  0  0  0  0  0  0  0  0
    9.6116   -6.0794   24.1250 H   0  0  0  0  0  0  0  0  0  0  0  0
    7.0306   -5.7388   28.2232 H   0  0  0  0  0  0  0  0  0  0  0  0
    6.6546   -4.9740   26.6757 H   0  0  0  0  0  0  0  0  0  0  0  0
    7.1892   -6.2226   24.6319 H   0  0  0  0  0  0  0  0  0  0  0  0
    7.9315   -7.8151   24.8187 H   0  0  0  0  0  0  0  0  0  0  0  0
   12.4645    5.4764   21.5964 H   0  0  0  0  0  0  0  0  0  0  0  0
   12.4916    5.9426   23.3309 H   0  0  0  0  0  0  0  0  0  0  0  0
   13.7592    4.8699   22.6849 H   0  0  0  0  0  0  0  0  0  0  0  0
   11.5374    0.0399   22.2527 H   0  0  0  0  0  0  0  0  0  0  0  0
   11.4700    0.0494   23.9985 H   0  0  0  0  0  0  0  0  0  0  0  0
    8.9187    0.7273   23.6745 H   0  0  0  0  0  0  0  0  0  0  0  0
    8.1354   -1.7990   21.3694 H   0  0  0  0  0  0  0  0  0  0  0  0
  1  3  2  0  0  0  0
  1  7  1  0  0  0  0
  2  4  1  0  0  0  0
  2  7  2  0  0  0  0
  3  9  1  0  0  0  0
  4  9  2  0  0  0  0
  5  8  1  0  0  0  0
  5 24  2  0  0  0  0
  6  8  2  0  0  0  0
  6 27  1  0  0  0  0
  7 23  1  0  0  0  0
  8 22  1  0  0  0  0
  9 29  1  0  0  0  0
 10 11  2  0  0  0  0
 10 12  1  0  0  0  0
 10 28  1  0  0  0  0
 11 25  1  0  0  0  0
 11 30  1  0  0  0  0
 12 13  2  0  0  0  0
 13 14  1  0  0  0  0
 14 15  2  0  0  0  0
 15 28  1  0  0  0  0
 16 23  1  0  0  0  0
 16 30  1  0  0  0  0
 16 31  2  0  0  0  0
 17 19  1  0  0  0  0
 17 29  1  0  0  0  0
 18 20  1  0  0  0  0
 18 29  1  0  0  0  0
 19 32  1  0  0  0  0
 20 32  1  0  0  0  0
 21 27  1  0  0  0  0
 22 23  1  1  0  0  0
 24 27  1  0  0  0  0
 25 26  2  0  0  0  0
 26 28  1  0  0  0  0
  1 33  1  0  0  0  0
  2 34  1  0  0  0  0
  3 35  1  0  0  0  0
  4 36  1  0  0  0  0
  5 37  1  0  0  0  0
  6 38  1  0  0  0  0
 12 39  1  0  0  0  0
 13 40  1  0  0  0  0
 14 41  1  0  0  0  0
 15 42  1  0  0  0  0
 17 43  1  0  0  0  0
 17 44  1  0  0  0  0
 18 45  1  0  0  0  0
 18 46  1  0  0  0  0
 19 47  1  0  0  0  0
 19 48  1  0  0  0  0
 20 49  1  0  0  0  0
 20 50  1  0  0  0  0
 21 51  1  0  0  0  0
 21 52  1  0  0  0  0
 21 53  1  0  0  0  0
 22 54  1  0  0  0  0
 22 55  1  0  0  0  0
 23 56  1  0  0  0  0
 30 57  1  0  0  0  0
M  END
> <clash_score>
0

> <docking_score>
-10.879440307617188

> <overlap_score>
0.9410843849182129

$$$$
BENZO_279_2
  -OEChem-08232013503D

 57 61  0     1  0  0  0  0  0999 V2000
    8.3510   -1.5420   24.6110 C   0  0  0  0  0  0  0  0  0  0  0  0
   10.2760   -2.3270   23.4020 C   0  0  0  0  0  0  0  0  0  0  0  0
    8.3310   -2.7170   25.3430 C   0  0  0  0  0  0  0  0  0  0  0  0
   10.2570   -3.5000   24.1350 C   0  0  0  0  0  0  0  0  0  0  0  0
   10.7785    2.7977   23.3980 C   0  0  0  0  0  0  0  0  0  0  0  0
    8.8916    3.6777   24.1053 C   0  0  0  0  0  0  0  0  0  0  0  0
    9.3300   -1.3350   23.6390 C   0  0  0  0  0  0  0  0  0  0  0  0
    9.4829    2.4671   23.8384 C   0  0  0  0  0  0  0  0  0  0  0  0
    9.2850   -3.7090   25.1090 C   0  0  0  0  0  0  0  0  0  0  0  0
    6.1600    0.3870   20.1140 C   0  0  0  0  0  0  0  0  0  0  0  0
    7.2210   -0.4620   20.0350 C   0  0  0  0  0  0  0  0  0  0  0  0
    5.3360    0.8000   21.1530 C   0  0  0  0  0  0  0  0  0  0  0  0
    4.2970    1.6690   20.8430 C   0  0  0  0  0  0  0  0  0  0  0  0
    4.0980    2.1130   19.5350 C   0  0  0  0  0  0  0  0  0  0  0  0
    4.9400    1.7060   18.5060 C   0  0  0  0  0  0  0  0  0  0  0  0
    8.9510    0.1280   21.6880 C   0  0  0  0  0  0  0  0  0  0  0  0
    8.7671   -4.9535   27.2147 C   0  0  0  0  0  0  0  0  0  0  0  0
    9.3066   -6.1865   25.1649 C   0  0  0  0  0  0  0  0  0  0  0  0
    7.3847   -5.5970   27.2000 C   0  0  0  0  0  0  0  0  0  0  0  0
    7.9070   -6.7999   25.2264 C   0  0  0  0  0  0  0  0  0  0  0  0
    9.6751    6.0523   23.9437 C   0  0  0  0  0  0  0  0  0  0  0  0
    8.8757    1.0906   23.9831 C   0  0  0  0  0  0  0  0  0  0  0  0
    9.4200   -0.0840   22.9530 C   0  0  2  0  0  0  0  0  0  0  0  0
   10.9979    4.1151   23.3843 N   0  0  0  0  0  0  0  0  0  0  0  0
    7.6830   -0.5170   18.7600 N   0  0  0  0  0  0  0  0  0  0  0  0
    6.9440    0.2550   18.0100 N   0  0  0  0  0  0  0  0  0  0  0  0
    9.8322    4.6230   23.8194 N   0  0  0  0  0  0  0  0  0  0  0  0
    5.9810    0.8330   18.8060 N   0  0  0  0  0  0  0  0  0  0  0  0
    9.2641   -4.8845   25.8388 N   0  0  0  0  0  0  0  0  0  0  0  0
    8.0810   -0.9750   21.0820 N   0  0  0  0  0  0  0  0  0  0  0  0
    9.1870    1.1500   21.0630 O   0  0  0  0  0  0  0  0  0  0  0  0
    7.4533   -6.8877   26.5818 O   0  0  0  0  0  0  0  0  0  0  0  0
    7.5957   -0.7779   24.7973 H   0  0  0  0  0  0  0  0  0  0  0  0
   11.0384   -2.1852   22.6338 H   0  0  0  0  0  0  0  0  0  0  0  0
    7.5634   -2.8637   26.1037 H   0  0  0  0  0  0  0  0  0  0  0  0
   11.0139   -4.2645   23.9419 H   0  0  0  0  0  0  0  0  0  0  0  0
   11.5733    2.1354   23.0851 H   0  0  0  0  0  0  0  0  0  0  0  0
    7.9057    3.9405   24.4642 H   0  0  0  0  0  0  0  0  0  0  0  0
    5.4735    0.4758   22.1644 H   0  0  0  0  0  0  0  0  0  0  0  0
    3.6415    1.9967   21.6408 H   0  0  0  0  0  0  0  0  0  0  0  0
    3.2720    2.7926   19.2921 H   0  0  0  0  0  0  0  0  0  0  0  0
    4.8119    2.0418   17.5005 H   0  0  0  0  0  0  0  0  0  0  0  0
    8.7013   -3.9575   27.6574 H   0  0  0  0  0  0  0  0  0  0  0  0
    9.4480   -5.5636   27.8142 H   0  0  0  0  0  0  0  0  0  0  0  0
   10.0131   -6.8375   25.6814 H   0  0  0  0  0  0  0  0  0  0  0  0
    9.6116   -6.0794   24.1250 H   0  0  0  0  0  0  0  0  0  0  0  0
    7.0306   -5.7388   28.2232 H   0  0  0  0  0  0  0  0  0  0  0  0
    6.6546   -4.9740   26.6757 H   0  0  0  0  0  0  0  0  0  0  0  0
    7.1892   -6.2226   24.6319 H   0  0  0  0  0  0  0  0  0  0  0  0
    7.9315   -7.8151   24.8187 H   0  0  0  0  0  0  0  0  0  0  0  0
    9.9837    6.3391   24.9525 H   0  0  0  0  0  0  0  0  0  0  0  0
   10.2970    6.5534   23.1967 H   0  0  0  0  0  0  0  0  0  0  0  0
    8.6277    6.3169   23.7734 H   0  0  0  0  0  0  0  0  0  0  0  0
    8.9639    0.7632   25.0273 H   0  0  0  0  0  0  0  0  0  0  0  0
    7.7964    1.1765   23.7949 H   0  0  0  0  0  0  0  0  0  0  0  0
   10.5749    0.2253   22.9765 H   0  0  0  0  0  0  0  0  0  0  0  0
    8.1354   -1.7990   21.3694 H   0  0  0  0  0  0  0  0  0  0  0  0
  1  3  2  0  0  0  0
  1  7  1  0  0  0  0
  2  4  1  0  0  0  0
  2  7  2  0  0  0  0
  3  9  1  0  0  0  0
  4  9  2  0  0  0  0
  5  8  1  0  0  0  0
  5 24  2  0  0  0  0
  6  8  2  0  0  0  0
  6 27  1  0  0  0  0
  7 23  1  0  0  0  0
  8 22  1  0  0  0  0
  9 29  1  0  0  0  0
 10 11  2  0  0  0  0
 10 12  1  0  0  0  0
 10 28  1  0  0  0  0
 11 25  1  0  0  0  0
 11 30  1  0  0  0  0
 12 13  2  0  0  0  0
 13 14  1  0  0  0  0
 14 15  2  0  0  0  0
 15 28  1  0  0  0  0
 16 23  1  0  0  0  0
 16 30  1  0  0  0  0
 16 31  2  0  0  0  0
 17 19  1  0  0  0  0
 17 29  1  0  0  0  0
 18 20  1  0  0  0  0
 18 29  1  0  0  0  0
 19 32  1  0  0  0  0
 20 32  1  0  0  0  0
 21 27  1  0  0  0  0
 22 23  1  6  0  0  0
 24 27  1  0  0  0  0
 25 26  2  0  0  0  0
 26 28  1  0  0  0  0
  1 33  1  0  0  0  0
  2 34  1  0  0  0  0
  3 35  1  0  0  0  0
  4 36  1  0  0  0  0
  5 37  1  0  0  0  0
  6 38  1  0  0  0  0
 12 39  1  0  0  0  0
 13 40  1  0  0  0  0
 14 41  1  0  0  0  0
 15 42  1  0  0  0  0
 17 43  1  0  0  0  0
 17 44  1  0  0  0  0
 18 45  1  0  0  0  0
 18 46  1  0  0  0  0
 19 47  1  0  0  0  0
 19 48  1  0  0  0  0
 20 49  1  0  0  0  0
 20 50  1  0  0  0  0
 21 51  1  0  0  0  0
 21 52  1  0  0  0  0
 21 53  1  0  0  0  0
 22 54  1  0  0  0  0
 22 55  1  0  0  0  0
 23 56  1  0  0  0  0
 30 57  1  0  0  0  0
M  END
> <clash_score>
0

> <docking_score>
-9.674631118774414

> <overlap_score>
0.8677912950515747

$$$$
BENZO_283_1
  -OEChem-08232013503D

 54 57  0     1  0  0  0  0  0999 V2000
    4.2970    1.6690   20.8430 C   0  0  0  0  0  0  0  0  0  0  0  0
    4.0980    2.1130   19.5350 C   0  0  0  0  0  0  0  0  0  0  0  0
    5.3360    0.8000   21.1530 C   0  0  0  0  0  0  0  0  0  0  0  0
    8.3510   -1.5420   24.6110 C   0  0  0  0  0  0  0  0  0  0  0  0
   10.2760   -2.3270   23.4020 C   0  0  0  0  0  0  0  0  0  0  0  0
    4.9400    1.7060   18.5060 C   0  0  0  0  0  0  0  0  0  0  0  0
    8.3310   -2.7170   25.3430 C   0  0  0  0  0  0  0  0  0  0  0  0
   10.2570   -3.5000   24.1350 C   0  0  0  0  0  0  0  0  0  0  0  0
   10.2235    2.9023   23.6242 C   0  0  0  0  0  0  0  0  0  0  0  0
   12.2091    2.6870   22.7043 C   0  0  0  0  0  0  0  0  0  0  0  0
    7.6830   -0.5170   18.7600 C   0  0  0  0  0  0  0  0  0  0  0  0
    6.1600    0.3870   20.1140 C   0  0  0  0  0  0  0  0  0  0  0  0
    9.3300   -1.3350   23.6390 C   0  0  0  0  0  0  0  0  0  0  0  0
   11.1370    1.9470   23.1397 C   0  0  0  0  0  0  0  0  0  0  0  0
    5.9810    0.8330   18.8060 C   0  0  0  0  0  0  0  0  0  0  0  0
    9.2850   -3.7090   25.1090 C   0  0  0  0  0  0  0  0  0  0  0  0
    7.2210   -0.4620   20.0350 C   0  0  0  0  0  0  0  0  0  0  0  0
    8.9510    0.1280   21.6880 C   0  0  0  0  0  0  0  0  0  0  0  0
   12.7031    5.1430   22.6554 C   0  0  0  0  0  0  0  0  0  0  0  0
    8.2520   -5.1175   26.8652 C   0  0  0  0  0  0  0  0  0  0  0  0
   10.2437   -5.9407   25.5988 C   0  0  0  0  0  0  0  0  0  0  0  0
   10.9777    0.4443   23.1075 C   0  0  0  0  0  0  0  0  0  0  0  0
    9.4200   -0.0840   22.9530 C   0  0  1  0  0  0  0  0  0  0  0  0
   10.6758    4.1536   23.5079 N   0  0  0  0  0  0  0  0  0  0  0  0
    6.9440    0.2550   18.0100 N   0  0  0  0  0  0  0  0  0  0  0  0
   11.8853    3.9898   22.9453 N   0  0  0  0  0  0  0  0  0  0  0  0
    8.0810   -0.9750   21.0820 N   0  0  0  0  0  0  0  0  0  0  0  0
    9.2638   -4.9025   25.8500 N   0  0  0  0  0  0  0  0  0  0  0  0
    9.1870    1.1500   21.0630 O   0  0  0  0  0  0  0  0  0  0  0  0
    3.6256    2.0106   21.6303 H   0  0  0  0  0  0  0  0  0  0  0  0
    3.2724    2.7868   19.3204 H   0  0  0  0  0  0  0  0  0  0  0  0
    5.4858    0.4664   22.1692 H   0  0  0  0  0  0  0  0  0  0  0  0
    7.5957   -0.7779   24.7973 H   0  0  0  0  0  0  0  0  0  0  0  0
   11.0384   -2.1852   22.6338 H   0  0  0  0  0  0  0  0  0  0  0  0
    4.7836    2.0664   17.4848 H   0  0  0  0  0  0  0  0  0  0  0  0
    7.5634   -2.8637   26.1037 H   0  0  0  0  0  0  0  0  0  0  0  0
   11.0139   -4.2645   23.9419 H   0  0  0  0  0  0  0  0  0  0  0  0
    9.2470    2.7411   24.0585 H   0  0  0  0  0  0  0  0  0  0  0  0
   13.1519    2.4044   22.2557 H   0  0  0  0  0  0  0  0  0  0  0  0
    8.5274   -1.0858   18.3384 H   0  0  0  0  0  0  0  0  0  0  0  0
   12.4640    5.4803   21.6435 H   0  0  0  0  0  0  0  0  0  0  0  0
   12.4902    5.9323   23.3818 H   0  0  0  0  0  0  0  0  0  0  0  0
   13.7583    4.8651   22.7277 H   0  0  0  0  0  0  0  0  0  0  0  0
    8.4015   -6.1034   27.3297 H   0  0  0  0  0  0  0  0  0  0  0  0
    8.3315   -4.3345   27.6337 H   0  0  0  0  0  0  0  0  0  0  0  0
    7.2546   -5.0776   26.4029 H   0  0  0  0  0  0  0  0  0  0  0  0
   10.0610   -6.7893   26.2745 H   0  0  0  0  0  0  0  0  0  0  0  0
   10.1605   -6.2786   24.5553 H   0  0  0  0  0  0  0  0  0  0  0  0
   11.2536   -5.5421   25.7758 H   0  0  0  0  0  0  0  0  0  0  0  0
   11.5363    0.0386   22.2539 H   0  0  0  0  0  0  0  0  0  0  0  0
   11.4704    0.0336   23.9998 H   0  0  0  0  0  0  0  0  0  0  0  0
    8.9182    0.7194   23.6789 H   0  0  0  0  0  0  0  0  0  0  0  0
    7.0325    0.4238   17.0175 H   0  0  0  0  0  0  0  0  0  0  0  0
    8.1175   -1.8104   21.3538 H   0  0  0  0  0  0  0  0  0  0  0  0
  1  2  1  0  0  0  0
  1  3  2  0  0  0  0
  2  6  2  0  0  0  0
  3 12  1  0  0  0  0
  4  7  2  0  0  0  0
  4 13  1  0  0  0  0
  5  8  1  0  0  0  0
  5 13  2  0  0  0  0
  6 15  1  0  0  0  0
  7 16  1  0  0  0  0
  8 16  2  0  0  0  0
  9 14  1  0  0  0  0
  9 24  2  0  0  0  0
 10 14  2  0  0  0  0
 10 26  1  0  0  0  0
 11 17  2  0  0  0  0
 11 25  1  0  0  0  0
 12 15  2  0  0  0  0
 12 17  1  0  0  0  0
 13 23  1  0  0  0  0
 14 22  1  0  0  0  0
 15 25  1  0  0  0  0
 16 28  1  0  0  0  0
 17 27  1  0  0  0  0
 18 23  1  0  0  0  0
 18 27  1  0  0  0  0
 18 29  2  0  0  0  0
 19 26  1  0  0  0  0
 20 28  1  0  0  0  0
 21 28  1  0  0  0  0
 22 23  1  1  0  0  0
 24 26  1  0  0  0  0
  1 30  1  0  0  0  0
  2 31  1  0  0  0  0
  3 32  1  0  0  0  0
  4 33  1  0  0  0  0
  5 34  1  0  0  0  0
  6 35  1  0  0  0  0
  7 36  1  0  0  0  0
  8 37  1  0  0  0  0
  9 38  1  0  0  0  0
 10 39  1  0  0  0  0
 11 40  1  0  0  0  0
 19 41  1  0  0  0  0
 19 42  1  0  0  0  0
 19 43  1  0  0  0  0
 20 44  1  0  0  0  0
 20 45  1  0  0  0  0
 20 46  1  0  0  0  0
 21 47  1  0  0  0  0
 21 48  1  0  0  0  0
 21 49  1  0  0  0  0
 22 50  1  0  0  0  0
 22 51  1  0  0  0  0
 23 52  1  0  0  0  0
 25 53  1  0  0  0  0
 27 54  1  0  0  0  0
M  END
> <clash_score>
0

> <docking_score>
-10.967551231384277

> <overlap_score>
0.927582859992981

$$$$
BENZO_283_2
  -OEChem-08232013503D

 54 57  0     1  0  0  0  0  0999 V2000
    4.2970    1.6690   20.8430 C   0  0  0  0  0  0  0  0  0  0  0  0
    4.0980    2.1130   19.5350 C   0  0  0  0  0  0  0  0  0  0  0  0
    5.3360    0.8000   21.1530 C   0  0  0  0  0  0  0  0  0  0  0  0
    8.3510   -1.5420   24.6110 C   0  0  0  0  0  0  0  0  0  0  0  0
   10.2760   -2.3270   23.4020 C   0  0  0  0  0  0  0  0  0  0  0  0
    4.9400    1.7060   18.5060 C   0  0  0  0  0  0  0  0  0  0  0  0
    8.3310   -2.7170   25.3430 C   0  0  0  0  0  0  0  0  0  0  0  0
   10.2570   -3.5000   24.1350 C   0  0  0  0  0  0  0  0  0  0  0  0
   10.7939    2.7770   23.4177 C   0  0  0  0  0  0  0  0  0  0  0  0
    8.9123    3.6676   24.1257 C   0  0  0  0  0  0  0  0  0  0  0  0
    7.6830   -0.5170   18.7600 C   0  0  0  0  0  0  0  0  0  0  0  0
    6.1600    0.3870   20.1140 C   0  0  0  0  0  0  0  0  0  0  0  0
    9.3300   -1.3350   23.6390 C   0  0  0  0  0  0  0  0  0  0  0  0
    9.4950    2.4539   23.8539 C   0  0  0  0  0  0  0  0  0  0  0  0
    5.9810    0.8330   18.8060 C   0  0  0  0  0  0  0  0  0  0  0  0
    9.2850   -3.7090   25.1090 C   0  0  0  0  0  0  0  0  0  0  0  0
    7.2210   -0.4620   20.0350 C   0  0  0  0  0  0  0  0  0  0  0  0
    8.9510    0.1280   21.6880 C   0  0  0  0  0  0  0  0  0  0  0  0
    9.7138    6.0371   23.9775 C   0  0  0  0  0  0  0  0  0  0  0  0
    8.2520   -5.1175   26.8652 C   0  0  0  0  0  0  0  0  0  0  0  0
   10.2437   -5.9407   25.5988 C   0  0  0  0  0  0  0  0  0  0  0  0
    8.8771    1.0813   23.9905 C   0  0  0  0  0  0  0  0  0  0  0  0
    9.4200   -0.0840   22.9530 C   0  0  2  0  0  0  0  0  0  0  0  0
   11.0232    4.0928   23.4110 N   0  0  0  0  0  0  0  0  0  0  0  0
    6.9440    0.2550   18.0100 N   0  0  0  0  0  0  0  0  0  0  0  0
    9.8605    4.6073   23.8463 N   0  0  0  0  0  0  0  0  0  0  0  0
    8.0810   -0.9750   21.0820 N   0  0  0  0  0  0  0  0  0  0  0  0
    9.2638   -4.9025   25.8500 N   0  0  0  0  0  0  0  0  0  0  0  0
    9.1870    1.1500   21.0630 O   0  0  0  0  0  0  0  0  0  0  0  0
    3.6256    2.0106   21.6303 H   0  0  0  0  0  0  0  0  0  0  0  0
    3.2724    2.7868   19.3204 H   0  0  0  0  0  0  0  0  0  0  0  0
    5.4858    0.4664   22.1692 H   0  0  0  0  0  0  0  0  0  0  0  0
    7.5957   -0.7779   24.7973 H   0  0  0  0  0  0  0  0  0  0  0  0
   11.0384   -2.1852   22.6338 H   0  0  0  0  0  0  0  0  0  0  0  0
    4.7836    2.0664   17.4848 H   0  0  0  0  0  0  0  0  0  0  0  0
    7.5634   -2.8637   26.1037 H   0  0  0  0  0  0  0  0  0  0  0  0
   11.0139   -4.2645   23.9419 H   0  0  0  0  0  0  0  0  0  0  0  0
   11.5843    2.1103   23.1031 H   0  0  0  0  0  0  0  0  0  0  0  0
    7.9277    3.9360   24.4839 H   0  0  0  0  0  0  0  0  0  0  0  0
    8.5274   -1.0858   18.3384 H   0  0  0  0  0  0  0  0  0  0  0  0
   10.0225    6.3165   24.9883 H   0  0  0  0  0  0  0  0  0  0  0  0
   10.3410    6.5371   23.2342 H   0  0  0  0  0  0  0  0  0  0  0  0
    8.6688    6.3103   23.8064 H   0  0  0  0  0  0  0  0  0  0  0  0
    8.4015   -6.1034   27.3297 H   0  0  0  0  0  0  0  0  0  0  0  0
    8.3315   -4.3345   27.6337 H   0  0  0  0  0  0  0  0  0  0  0  0
    7.2546   -5.0776   26.4029 H   0  0  0  0  0  0  0  0  0  0  0  0
   10.0610   -6.7893   26.2745 H   0  0  0  0  0  0  0  0  0  0  0  0
   10.1605   -6.2786   24.5553 H   0  0  0  0  0  0  0  0  0  0  0  0
   11.2536   -5.5421   25.7758 H   0  0  0  0  0  0  0  0  0  0  0  0
    8.9708    0.7434   25.0308 H   0  0  0  0  0  0  0  0  0  0  0  0
    7.7972    1.1781   23.8117 H   0  0  0  0  0  0  0  0  0  0  0  0
   10.5743    0.2174   22.9808 H   0  0  0  0  0  0  0  0  0  0  0  0
    7.0325    0.4238   17.0175 H   0  0  0  0  0  0  0  0  0  0  0  0
    8.1175   -1.8104   21.3538 H   0  0  0  0  0  0  0  0  0  0  0  0
  1  2  1  0  0  0  0
  1  3  2  0  0  0  0
  2  6  2  0  0  0  0
  3 12  1  0  0  0  0
  4  7  2  0  0  0  0
  4 13  1  0  0  0  0
  5  8  1  0  0  0  0
  5 13  2  0  0  0  0
  6 15  1  0  0  0  0
  7 16  1  0  0  0  0
  8 16  2  0  0  0  0
  9 14  1  0  0  0  0
  9 24  2  0  0  0  0
 10 14  2  0  0  0  0
 10 26  1  0  0  0  0
 11 17  2  0  0  0  0
 11 25  1  0  0  0  0
 12 15  2  0  0  0  0
 12 17  1  0  0  0  0
 13 23  1  0  0  0  0
 14 22  1  0  0  0  0
 15 25  1  0  0  0  0
 16 28  1  0  0  0  0
 17 27  1  0  0  0  0
 18 23  1  0  0  0  0
 18 27  1  0  0  0  0
 18 29  2  0  0  0  0
 19 26  1  0  0  0  0
 20 28  1  0  0  0  0
 21 28  1  0  0  0  0
 22 23  1  6  0  0  0
 24 26  1  0  0  0  0
  1 30  1  0  0  0  0
  2 31  1  0  0  0  0
  3 32  1  0  0  0  0
  4 33  1  0  0  0  0
  5 34  1  0  0  0  0
  6 35  1  0  0  0  0
  7 36  1  0  0  0  0
  8 37  1  0  0  0  0
  9 38  1  0  0  0  0
 10 39  1  0  0  0  0
 11 40  1  0  0  0  0
 19 41  1  0  0  0  0
 19 42  1  0  0  0  0
 19 43  1  0  0  0  0
 20 44  1  0  0  0  0
 20 45  1  0  0  0  0
 20 46  1  0  0  0  0
 21 47  1  0  0  0  0
 21 48  1  0  0  0  0
 21 49  1  0  0  0  0
 22 50  1  0  0  0  0
 22 51  1  0  0  0  0
 23 52  1  0  0  0  0
 25 53  1  0  0  0  0
 27 54  1  0  0  0  0
M  END
> <clash_score>
0

> <docking_score>
-9.771855354309082

> <overlap_score>
0.8542826175689697

$$$$
BENZO_282_1
  -OEChem-08232013503D

 54 57  0     1  0  0  0  0  0999 V2000
    4.2970    1.6690   20.8430 C   0  0  0  0  0  0  0  0  0  0  0  0
    4.0980    2.1130   19.5350 C   0  0  0  0  0  0  0  0  0  0  0  0
   10.2645    4.1315   23.6906 C   0  0  0  0  0  0  0  0  0  0  0  0
    5.3360    0.8000   21.1530 C   0  0  0  0  0  0  0  0  0  0  0  0
   10.1177    2.7447   23.6595 C   0  0  0  0  0  0  0  0  0  0  0  0
    8.3510   -1.5420   24.6110 C   0  0  0  0  0  0  0  0  0  0  0  0
   10.2760   -2.3270   23.4020 C   0  0  0  0  0  0  0  0  0  0  0  0
    4.9400    1.7060   18.5060 C   0  0  0  0  0  0  0  0  0  0  0  0
    8.3310   -2.7170   25.3430 C   0  0  0  0  0  0  0  0  0  0  0  0
   10.2570   -3.5000   24.1350 C   0  0  0  0  0  0  0  0  0  0  0  0
   11.4306    4.7205   23.2018 C   0  0  0  0  0  0  0  0  0  0  0  0
   12.3032    2.5360   22.6510 C   0  0  0  0  0  0  0  0  0  0  0  0
    7.6830   -0.5170   18.7600 C   0  0  0  0  0  0  0  0  0  0  0  0
    6.1600    0.3870   20.1140 C   0  0  0  0  0  0  0  0  0  0  0  0
    9.3300   -1.3350   23.6390 C   0  0  0  0  0  0  0  0  0  0  0  0
   11.1370    1.9470   23.1397 C   0  0  0  0  0  0  0  0  0  0  0  0
    5.9810    0.8330   18.8060 C   0  0  0  0  0  0  0  0  0  0  0  0
    9.2850   -3.7090   25.1090 C   0  0  0  0  0  0  0  0  0  0  0  0
    7.2210   -0.4620   20.0350 C   0  0  0  0  0  0  0  0  0  0  0  0
   12.4500    3.9227   22.6820 C   0  0  0  0  0  0  0  0  0  0  0  0
    8.9510    0.1280   21.6880 C   0  0  0  0  0  0  0  0  0  0  0  0
    8.2520   -5.1175   26.8652 C   0  0  0  0  0  0  0  0  0  0  0  0
   10.2437   -5.9407   25.5988 C   0  0  0  0  0  0  0  0  0  0  0  0
   10.9777    0.4443   23.1075 C   0  0  0  0  0  0  0  0  0  0  0  0
    9.4200   -0.0840   22.9530 C   0  0  1  0  0  0  0  0  0  0  0  0
    6.9440    0.2550   18.0100 N   0  0  0  0  0  0  0  0  0  0  0  0
    8.0810   -0.9750   21.0820 N   0  0  0  0  0  0  0  0  0  0  0  0
    9.2638   -4.9025   25.8500 N   0  0  0  0  0  0  0  0  0  0  0  0
    9.1870    1.1500   21.0630 O   0  0  0  0  0  0  0  0  0  0  0  0
   13.8890    4.6500   22.0802 Cl  0  0  0  0  0  0  0  0  0  0  0  0
    3.6256    2.0106   21.6303 H   0  0  0  0  0  0  0  0  0  0  0  0
    3.2724    2.7868   19.3204 H   0  0  0  0  0  0  0  0  0  0  0  0
    9.4706    4.7523   24.0955 H   0  0  0  0  0  0  0  0  0  0  0  0
    5.4858    0.4664   22.1692 H   0  0  0  0  0  0  0  0  0  0  0  0
    9.2057    2.2944   24.0426 H   0  0  0  0  0  0  0  0  0  0  0  0
    7.5957   -0.7779   24.7973 H   0  0  0  0  0  0  0  0  0  0  0  0
   11.0384   -2.1852   22.6338 H   0  0  0  0  0  0  0  0  0  0  0  0
    4.7836    2.0664   17.4848 H   0  0  0  0  0  0  0  0  0  0  0  0
    7.5634   -2.8637   26.1037 H   0  0  0  0  0  0  0  0  0  0  0  0
   11.0139   -4.2645   23.9419 H   0  0  0  0  0  0  0  0  0  0  0  0
   11.5314    5.8026   23.2326 H   0  0  0  0  0  0  0  0  0  0  0  0
   13.0949    1.9096   22.2463 H   0  0  0  0  0  0  0  0  0  0  0  0
    8.5274   -1.0858   18.3384 H   0  0  0  0  0  0  0  0  0  0  0  0
    8.4015   -6.1034   27.3297 H   0  0  0  0  0  0  0  0  0  0  0  0
    8.3315   -4.3345   27.6337 H   0  0  0  0  0  0  0  0  0  0  0  0
    7.2546   -5.0776   26.4029 H   0  0  0  0  0  0  0  0  0  0  0  0
   10.0610   -6.7893   26.2745 H   0  0  0  0  0  0  0  0  0  0  0  0
   10.1605   -6.2786   24.5553 H   0  0  0  0  0  0  0  0  0  0  0  0
   11.2536   -5.5421   25.7758 H   0  0  0  0  0  0  0  0  0  0  0  0
   11.5363    0.0386   22.2539 H   0  0  0  0  0  0  0  0  0  0  0  0
   11.4704    0.0336   23.9998 H   0  0  0  0  0  0  0  0  0  0  0  0
    8.9182    0.7194   23.6789 H   0  0  0  0  0  0  0  0  0  0  0  0
    7.0325    0.4238   17.0175 H   0  0  0  0  0  0  0  0  0  0  0  0
    8.1175   -1.8104   21.3538 H   0  0  0  0  0  0  0  0  0  0  0  0
  1  2  1  0  0  0  0
  1  4  2  0  0  0  0
  2  8  2  0  0  0  0
  3  5  2  0  0  0  0
  3 11  1  0  0  0  0
  4 14  1  0  0  0  0
  5 16  1  0  0  0  0
  6  9  2  0  0  0  0
  6 15  1  0  0  0  0
  7 10  1  0  0  0  0
  7 15  2  0  0  0  0
  8 17  1  0  0  0  0
  9 18  1  0  0  0  0
 10 18  2  0  0  0  0
 11 20  2  0  0  0  0
 12 16  2  0  0  0  0
 12 20  1  0  0  0  0
 13 19  2  0  0  0  0
 13 26  1  0  0  0  0
 14 17  2  0  0  0  0
 14 19  1  0  0  0  0
 15 25  1  0  0  0  0
 16 24  1  0  0  0  0
 17 26  1  0  0  0  0
 18 28  1  0  0  0  0
 19 27  1  0  0  0  0
 20 30  1  0  0  0  0
 21 25  1  0  0  0  0
 21 27  1  0  0  0  0
 21 29  2  0  0  0  0
 22 28  1  0  0  0  0
 23 28  1  0  0  0  0
 24 25  1  1  0  0  0
  1 31  1  0  0  0  0
  2 32  1  0  0  0  0
  3 33  1  0  0  0  0
  4 34  1  0  0  0  0
  5 35  1  0  0  0  0
  6 36  1  0  0  0  0
  7 37  1  0  0  0  0
  8 38  1  0  0  0  0
  9 39  1  0  0  0  0
 10 40  1  0  0  0  0
 11 41  1  0  0  0  0
 12 42  1  0  0  0  0
 13 43  1  0  0  0  0
 22 44  1  0  0  0  0
 22 45  1  0  0  0  0
 22 46  1  0  0  0  0
 23 47  1  0  0  0  0
 23 48  1  0  0  0  0
 23 49  1  0  0  0  0
 24 50  1  0  0  0  0
 24 51  1  0  0  0  0
 25 52  1  0  0  0  0
 26 53  1  0  0  0  0
 27 54  1  0  0  0  0
M  END
> <clash_score>
0

> <docking_score>
-11.438861846923828

> <overlap_score>
0.9337277412414551

$$$$
BENZO_282_2
  -OEChem-08232013503D

 54 57  0     1  0  0  0  0  0999 V2000
    4.2970    1.6690   20.8430 C   0  0  0  0  0  0  0  0  0  0  0  0
    4.0980    2.1130   19.5350 C   0  0  0  0  0  0  0  0  0  0  0  0
    9.3211    4.8553   24.0536 C   0  0  0  0  0  0  0  0  0  0  0  0
    5.3360    0.8000   21.1530 C   0  0  0  0  0  0  0  0  0  0  0  0
    8.7511    3.5884   24.1784 C   0  0  0  0  0  0  0  0  0  0  0  0
    8.3510   -1.5420   24.6110 C   0  0  0  0  0  0  0  0  0  0  0  0
   10.2760   -2.3270   23.4020 C   0  0  0  0  0  0  0  0  0  0  0  0
    4.9400    1.7060   18.5060 C   0  0  0  0  0  0  0  0  0  0  0  0
    8.3310   -2.7170   25.3430 C   0  0  0  0  0  0  0  0  0  0  0  0
   10.2570   -3.5000   24.1350 C   0  0  0  0  0  0  0  0  0  0  0  0
   10.6349    4.9878   23.6043 C   0  0  0  0  0  0  0  0  0  0  0  0
   10.8089    2.5864   23.4046 C   0  0  0  0  0  0  0  0  0  0  0  0
    7.6830   -0.5170   18.7600 C   0  0  0  0  0  0  0  0  0  0  0  0
    6.1600    0.3870   20.1140 C   0  0  0  0  0  0  0  0  0  0  0  0
    9.3300   -1.3350   23.6390 C   0  0  0  0  0  0  0  0  0  0  0  0
    9.4950    2.4539   23.8539 C   0  0  0  0  0  0  0  0  0  0  0  0
    5.9810    0.8330   18.8060 C   0  0  0  0  0  0  0  0  0  0  0  0
    9.2850   -3.7090   25.1090 C   0  0  0  0  0  0  0  0  0  0  0  0
    7.2210   -0.4620   20.0350 C   0  0  0  0  0  0  0  0  0  0  0  0
   11.3788    3.8534   23.2798 C   0  0  0  0  0  0  0  0  0  0  0  0
    8.9510    0.1280   21.6880 C   0  0  0  0  0  0  0  0  0  0  0  0
    8.2520   -5.1175   26.8652 C   0  0  0  0  0  0  0  0  0  0  0  0
   10.2437   -5.9407   25.5988 C   0  0  0  0  0  0  0  0  0  0  0  0
    8.8771    1.0813   23.9905 C   0  0  0  0  0  0  0  0  0  0  0  0
    9.4200   -0.0840   22.9530 C   0  0  2  0  0  0  0  0  0  0  0  0
    6.9440    0.2550   18.0100 N   0  0  0  0  0  0  0  0  0  0  0  0
    8.0810   -0.9750   21.0820 N   0  0  0  0  0  0  0  0  0  0  0  0
    9.2638   -4.9025   25.8500 N   0  0  0  0  0  0  0  0  0  0  0  0
    9.1870    1.1500   21.0630 O   0  0  0  0  0  0  0  0  0  0  0  0
   13.0002    4.0175   22.7265 Cl  0  0  0  0  0  0  0  0  0  0  0  0
    3.6256    2.0106   21.6303 H   0  0  0  0  0  0  0  0  0  0  0  0
    3.2724    2.7868   19.3204 H   0  0  0  0  0  0  0  0  0  0  0  0
    8.7415    5.7384   24.3065 H   0  0  0  0  0  0  0  0  0  0  0  0
    5.4858    0.4664   22.1692 H   0  0  0  0  0  0  0  0  0  0  0  0
    7.7267    3.4945   24.5294 H   0  0  0  0  0  0  0  0  0  0  0  0
    7.5957   -0.7779   24.7973 H   0  0  0  0  0  0  0  0  0  0  0  0
   11.0384   -2.1852   22.6338 H   0  0  0  0  0  0  0  0  0  0  0  0
    4.7836    2.0664   17.4848 H   0  0  0  0  0  0  0  0  0  0  0  0
    7.5634   -2.8637   26.1037 H   0  0  0  0  0  0  0  0  0  0  0  0
   11.0139   -4.2645   23.9419 H   0  0  0  0  0  0  0  0  0  0  0  0
   11.0663    5.9816   23.5122 H   0  0  0  0  0  0  0  0  0  0  0  0
   11.3846    1.6989   23.1523 H   0  0  0  0  0  0  0  0  0  0  0  0
    8.5274   -1.0858   18.3384 H   0  0  0  0  0  0  0  0  0  0  0  0
    8.4015   -6.1034   27.3297 H   0  0  0  0  0  0  0  0  0  0  0  0
    8.3315   -4.3345   27.6337 H   0  0  0  0  0  0  0  0  0  0  0  0
    7.2546   -5.0776   26.4029 H   0  0  0  0  0  0  0  0  0  0  0  0
   10.0610   -6.7893   26.2745 H   0  0  0  0  0  0  0  0  0  0  0  0
   10.1605   -6.2786   24.5553 H   0  0  0  0  0  0  0  0  0  0  0  0
   11.2536   -5.5421   25.7758 H   0  0  0  0  0  0  0  0  0  0  0  0
    8.9708    0.7434   25.0308 H   0  0  0  0  0  0  0  0  0  0  0  0
    7.7972    1.1781   23.8117 H   0  0  0  0  0  0  0  0  0  0  0  0
   10.5743    0.2174   22.9808 H   0  0  0  0  0  0  0  0  0  0  0  0
    7.0325    0.4238   17.0175 H   0  0  0  0  0  0  0  0  0  0  0  0
    8.1175   -1.8104   21.3538 H   0  0  0  0  0  0  0  0  0  0  0  0
  1  2  1  0  0  0  0
  1  4  2  0  0  0  0
  2  8  2  0  0  0  0
  3  5  2  0  0  0  0
  3 11  1  0  0  0  0
  4 14  1  0  0  0  0
  5 16  1  0  0  0  0
  6  9  2  0  0  0  0
  6 15  1  0  0  0  0
  7 10  1  0  0  0  0
  7 15  2  0  0  0  0
  8 17  1  0  0  0  0
  9 18  1  0  0  0  0
 10 18  2  0  0  0  0
 11 20  2  0  0  0  0
 12 16  2  0  0  0  0
 12 20  1  0  0  0  0
 13 19  2  0  0  0  0
 13 26  1  0  0  0  0
 14 17  2  0  0  0  0
 14 19  1  0  0  0  0
 15 25  1  0  0  0  0
 16 24  1  0  0  0  0
 17 26  1  0  0  0  0
 18 28  1  0  0  0  0
 19 27  1  0  0  0  0
 20 30  1  0  0  0  0
 21 25  1  0  0  0  0
 21 27  1  0  0  0  0
 21 29  2  0  0  0  0
 22 28  1  0  0  0  0
 23 28  1  0  0  0  0
 24 25  1  6  0  0  0
  1 31  1  0  0  0  0
  2 32  1  0  0  0  0
  3 33  1  0  0  0  0
  4 34  1  0  0  0  0
  5 35  1  0  0  0  0
  6 36  1  0  0  0  0
  7 37  1  0  0  0  0
  8 38  1  0  0  0  0
  9 39  1  0  0  0  0
 10 40  1  0  0  0  0
 11 41  1  0  0  0  0
 12 42  1  0  0  0  0
 13 43  1  0  0  0  0
 22 44  1  0  0  0  0
 22 45  1  0  0  0  0
 22 46  1  0  0  0  0
 23 47  1  0  0  0  0
 23 48  1  0  0  0  0
 23 49  1  0  0  0  0
 24 50  1  0  0  0  0
 24 51  1  0  0  0  0
 25 52  1  0  0  0  0
 26 53  1  0  0  0  0
 27 54  1  0  0  0  0
M  END
> <clash_score>
0

> <docking_score>
-10.430987358093262

> <overlap_score>
0.8692758679389954

$$$$
BENZO_285_1
  -OEChem-08232013503D

 56 59  0     1  0  0  0  0  0999 V2000
   11.4296    4.7207   23.1993 C   0  0  0  0  0  0  0  0  0  0  0  0
    4.2970    1.6690   20.8430 C   0  0  0  0  0  0  0  0  0  0  0  0
   12.4494    3.9228   22.6806 C   0  0  0  0  0  0  0  0  0  0  0  0
   10.2636    4.1317   23.6883 C   0  0  0  0  0  0  0  0  0  0  0  0
    4.0980    2.1130   19.5350 C   0  0  0  0  0  0  0  0  0  0  0  0
    5.3360    0.8000   21.1530 C   0  0  0  0  0  0  0  0  0  0  0  0
   12.3031    2.5360   22.6508 C   0  0  0  0  0  0  0  0  0  0  0  0
   10.1173    2.7449   23.6585 C   0  0  0  0  0  0  0  0  0  0  0  0
    8.3510   -1.5420   24.6110 C   0  0  0  0  0  0  0  0  0  0  0  0
   10.2760   -2.3270   23.4020 C   0  0  0  0  0  0  0  0  0  0  0  0
    4.9400    1.7060   18.5060 C   0  0  0  0  0  0  0  0  0  0  0  0
    8.3310   -2.7170   25.3430 C   0  0  0  0  0  0  0  0  0  0  0  0
   10.2570   -3.5000   24.1350 C   0  0  0  0  0  0  0  0  0  0  0  0
    7.6830   -0.5170   18.7600 C   0  0  0  0  0  0  0  0  0  0  0  0
    6.1600    0.3870   20.1140 C   0  0  0  0  0  0  0  0  0  0  0  0
   11.1370    1.9470   23.1397 C   0  0  0  0  0  0  0  0  0  0  0  0
    9.3300   -1.3350   23.6390 C   0  0  0  0  0  0  0  0  0  0  0  0
    5.9810    0.8330   18.8060 C   0  0  0  0  0  0  0  0  0  0  0  0
    9.2850   -3.7090   25.1090 C   0  0  0  0  0  0  0  0  0  0  0  0
    7.2210   -0.4620   20.0350 C   0  0  0  0  0  0  0  0  0  0  0  0
    8.1532   -5.5459   26.3982 C   0  0  0  0  0  0  0  0  0  0  0  0
    8.9510    0.1280   21.6880 C   0  0  0  0  0  0  0  0  0  0  0  0
    9.2299   -7.8281   26.2037 C   0  0  0  0  0  0  0  0  0  0  0  0
   10.9777    0.4443   23.1075 C   0  0  0  0  0  0  0  0  0  0  0  0
    8.5721   -6.8157   27.1241 C   0  0  0  0  0  0  0  0  0  0  0  0
    9.4200   -0.0840   22.9530 C   0  0  1  0  0  0  0  0  0  0  0  0
    6.9440    0.2550   18.0100 N   0  0  0  0  0  0  0  0  0  0  0  0
    9.2630   -4.8903   25.8409 N   0  0  0  0  0  0  0  0  0  0  0  0
    8.0810   -0.9750   21.0820 N   0  0  0  0  0  0  0  0  0  0  0  0
    6.9817   -5.1874   26.3377 O   0  0  0  0  0  0  0  0  0  0  0  0
    9.1870    1.1500   21.0630 O   0  0  0  0  0  0  0  0  0  0  0  0
   11.5443    5.8005   23.2237 H   0  0  0  0  0  0  0  0  0  0  0  0
    3.6256    2.0106   21.6303 H   0  0  0  0  0  0  0  0  0  0  0  0
   13.3579    4.3812   22.3008 H   0  0  0  0  0  0  0  0  0  0  0  0
    9.4699    4.7525   24.0932 H   0  0  0  0  0  0  0  0  0  0  0  0
    3.2724    2.7868   19.3204 H   0  0  0  0  0  0  0  0  0  0  0  0
    5.4858    0.4664   22.1692 H   0  0  0  0  0  0  0  0  0  0  0  0
   13.1028    1.9222   22.2446 H   0  0  0  0  0  0  0  0  0  0  0  0
    9.2052    2.2948   24.0415 H   0  0  0  0  0  0  0  0  0  0  0  0
    7.5948   -0.7783   24.7966 H   0  0  0  0  0  0  0  0  0  0  0  0
   11.0389   -2.1844   22.6342 H   0  0  0  0  0  0  0  0  0  0  0  0
    4.7836    2.0664   17.4848 H   0  0  0  0  0  0  0  0  0  0  0  0
    7.5642   -2.8624   26.1050 H   0  0  0  0  0  0  0  0  0  0  0  0
   11.0137   -4.2649   23.9418 H   0  0  0  0  0  0  0  0  0  0  0  0
    8.5274   -1.0858   18.3384 H   0  0  0  0  0  0  0  0  0  0  0  0
    8.5551   -8.1180   25.3915 H   0  0  0  0  0  0  0  0  0  0  0  0
    9.5014   -8.7298   26.7611 H   0  0  0  0  0  0  0  0  0  0  0  0
   10.1397   -7.4172   25.7536 H   0  0  0  0  0  0  0  0  0  0  0  0
   11.5363    0.0386   22.2539 H   0  0  0  0  0  0  0  0  0  0  0  0
   11.4704    0.0336   23.9998 H   0  0  0  0  0  0  0  0  0  0  0  0
    9.2685   -6.5440   27.9257 H   0  0  0  0  0  0  0  0  0  0  0  0
    7.6830   -7.2628   27.5835 H   0  0  0  0  0  0  0  0  0  0  0  0
    8.9182    0.7194   23.6789 H   0  0  0  0  0  0  0  0  0  0  0  0
    7.0325    0.4238   17.0175 H   0  0  0  0  0  0  0  0  0  0  0  0
   10.1695   -5.3467   25.9960 H   0  0  0  0  0  0  0  0  0  0  0  0
    8.1175   -1.8104   21.3538 H   0  0  0  0  0  0  0  0  0  0  0  0
  1  3  1  0  0  0  0
  1  4  2  0  0  0  0
  2  5  1  0  0  0  0
  2  6  2  0  0  0  0
  3  7  2  0  0  0  0
  4  8  1  0  0  0  0
  5 11  2  0  0  0  0
  6 15  1  0  0  0  0
  7 16  1  0  0  0  0
  8 16  2  0  0  0  0
  9 12  2  0  0  0  0
  9 17  1  0  0  0  0
 10 13  1  0  0  0  0
 10 17  2  0  0  0  0
 11 18  1  0  0  0  0
 12 19  1  0  0  0  0
 13 19  2  0  0  0  0
 14 20  2  0  0  0  0
 14 27  1  0  0  0  0
 15 18  2  0  0  0  0
 15 20  1  0  0  0  0
 16 24  1  0  0  0  0
 17 26  1  0  0  0  0
 18 27  1  0  0  0  0
 19 28  1  0  0  0  0
 20 29  1  0  0  0  0
 21 25  1  0  0  0  0
 21 28  1  0  0  0  0
 21 30  2  0  0  0  0
 22 26  1  0  0  0  0
 22 29  1  0  0  0  0
 22 31  2  0  0  0  0
 23 25  1  0  0  0  0
 24 26  1  1  0  0  0
  1 32  1  0  0  0  0
  2 33  1  0  0  0  0
  3 34  1  0  0  0  0
  4 35  1  0  0  0  0
  5 36  1  0  0  0  0
  6 37  1  0  0  0  0
  7 38  1  0  0  0  0
  8 39  1  0  0  0  0
  9 40  1  0  0  0  0
 10 41  1  0  0  0  0
 11 42  1  0  0  0  0
 12 43  1  0  0  0  0
 13 44  1  0  0  0  0
 14 45  1  0  0  0  0
 23 46  1  0  0  0  0
 23 47  1  0  0  0  0
 23 48  1  0  0  0  0
 24 49  1  0  0  0  0
 24 50  1  0  0  0  0
 25 51  1  0  0  0  0
 25 52  1  0  0  0  0
 26 53  1  0  0  0  0
 27 54  1  0  0  0  0
 28 55  1  0  0  0  0
 29 56  1  0  0  0  0
M  END
> <clash_score>
1.2358167048071818

> <docking_score>
-9.111017227172852

> <overlap_score>
0.9388284087181091

$$$$
BENZO_285_2
  -OEChem-08232013503D

 56 59  0     1  0  0  0  0  0999 V2000
   10.6367    4.9868   23.6018 C   0  0  0  0  0  0  0  0  0  0  0  0
    4.2970    1.6690   20.8430 C   0  0  0  0  0  0  0  0  0  0  0  0
    9.3228    4.8557   24.0511 C   0  0  0  0  0  0  0  0  0  0  0  0
   11.3798    3.8515   23.2784 C   0  0  0  0  0  0  0  0  0  0  0  0
    4.0980    2.1130   19.5350 C   0  0  0  0  0  0  0  0  0  0  0  0
    5.3360    0.8000   21.1530 C   0  0  0  0  0  0  0  0  0  0  0  0
    8.7519    3.5893   24.1772 C   0  0  0  0  0  0  0  0  0  0  0  0
   10.8090    2.5851   23.4045 C   0  0  0  0  0  0  0  0  0  0  0  0
    8.3510   -1.5420   24.6110 C   0  0  0  0  0  0  0  0  0  0  0  0
   10.2760   -2.3270   23.4020 C   0  0  0  0  0  0  0  0  0  0  0  0
    4.9400    1.7060   18.5060 C   0  0  0  0  0  0  0  0  0  0  0  0
    8.3310   -2.7170   25.3430 C   0  0  0  0  0  0  0  0  0  0  0  0
   10.2570   -3.5000   24.1350 C   0  0  0  0  0  0  0  0  0  0  0  0
    7.6830   -0.5170   18.7600 C   0  0  0  0  0  0  0  0  0  0  0  0
    6.1600    0.3870   20.1140 C   0  0  0  0  0  0  0  0  0  0  0  0
    9.4950    2.4539   23.8539 C   0  0  0  0  0  0  0  0  0  0  0  0
    9.3300   -1.3350   23.6390 C   0  0  0  0  0  0  0  0  0  0  0  0
    5.9810    0.8330   18.8060 C   0  0  0  0  0  0  0  0  0  0  0  0
    9.2850   -3.7090   25.1090 C   0  0  0  0  0  0  0  0  0  0  0  0
    7.2210   -0.4620   20.0350 C   0  0  0  0  0  0  0  0  0  0  0  0
    8.1532   -5.5459   26.3982 C   0  0  0  0  0  0  0  0  0  0  0  0
    8.9510    0.1280   21.6880 C   0  0  0  0  0  0  0  0  0  0  0  0
    9.2299   -7.8281   26.2037 C   0  0  0  0  0  0  0  0  0  0  0  0
    8.8771    1.0813   23.9905 C   0  0  0  0  0  0  0  0  0  0  0  0
    8.5721   -6.8157   27.1241 C   0  0  0  0  0  0  0  0  0  0  0  0
    9.4200   -0.0840   22.9530 C   0  0  2  0  0  0  0  0  0  0  0  0
    6.9440    0.2550   18.0100 N   0  0  0  0  0  0  0  0  0  0  0  0
    9.2630   -4.8903   25.8409 N   0  0  0  0  0  0  0  0  0  0  0  0
    8.0810   -0.9750   21.0820 N   0  0  0  0  0  0  0  0  0  0  0  0
    6.9817   -5.1874   26.3377 O   0  0  0  0  0  0  0  0  0  0  0  0
    9.1870    1.1500   21.0630 O   0  0  0  0  0  0  0  0  0  0  0  0
   11.0806    5.9731   23.5024 H   0  0  0  0  0  0  0  0  0  0  0  0
    3.6256    2.0106   21.6303 H   0  0  0  0  0  0  0  0  0  0  0  0
    8.7437    5.7397   24.3019 H   0  0  0  0  0  0  0  0  0  0  0  0
   12.4025    3.9533   22.9274 H   0  0  0  0  0  0  0  0  0  0  0  0
    3.2724    2.7868   19.3204 H   0  0  0  0  0  0  0  0  0  0  0  0
    5.4858    0.4664   22.1692 H   0  0  0  0  0  0  0  0  0  0  0  0
    7.7275    3.4967   24.5283 H   0  0  0  0  0  0  0  0  0  0  0  0
   11.3955    1.7061   23.1503 H   0  0  0  0  0  0  0  0  0  0  0  0
    7.5948   -0.7783   24.7966 H   0  0  0  0  0  0  0  0  0  0  0  0
   11.0389   -2.1844   22.6342 H   0  0  0  0  0  0  0  0  0  0  0  0
    4.7836    2.0664   17.4848 H   0  0  0  0  0  0  0  0  0  0  0  0
    7.5642   -2.8624   26.1050 H   0  0  0  0  0  0  0  0  0  0  0  0
   11.0137   -4.2649   23.9418 H   0  0  0  0  0  0  0  0  0  0  0  0
    8.5274   -1.0858   18.3384 H   0  0  0  0  0  0  0  0  0  0  0  0
    8.5551   -8.1180   25.3915 H   0  0  0  0  0  0  0  0  0  0  0  0
    9.5014   -8.7298   26.7611 H   0  0  0  0  0  0  0  0  0  0  0  0
   10.1397   -7.4172   25.7536 H   0  0  0  0  0  0  0  0  0  0  0  0
    8.9708    0.7434   25.0308 H   0  0  0  0  0  0  0  0  0  0  0  0
    7.7972    1.1781   23.8117 H   0  0  0  0  0  0  0  0  0  0  0  0
    9.2685   -6.5440   27.9257 H   0  0  0  0  0  0  0  0  0  0  0  0
    7.6830   -7.2628   27.5835 H   0  0  0  0  0  0  0  0  0  0  0  0
   10.5743    0.2174   22.9808 H   0  0  0  0  0  0  0  0  0  0  0  0
    7.0325    0.4238   17.0175 H   0  0  0  0  0  0  0  0  0  0  0  0
   10.1695   -5.3467   25.9960 H   0  0  0  0  0  0  0  0  0  0  0  0
    8.1175   -1.8104   21.3538 H   0  0  0  0  0  0  0  0  0  0  0  0
  1  3  1  0  0  0  0
  1  4  2  0  0  0  0
  2  5  1  0  0  0  0
  2  6  2  0  0  0  0
  3  7  2  0  0  0  0
  4  8  1  0  0  0  0
  5 11  2  0  0  0  0
  6 15  1  0  0  0  0
  7 16  1  0  0  0  0
  8 16  2  0  0  0  0
  9 12  2  0  0  0  0
  9 17  1  0  0  0  0
 10 13  1  0  0  0  0
 10 17  2  0  0  0  0
 11 18  1  0  0  0  0
 12 19  1  0  0  0  0
 13 19  2  0  0  0  0
 14 20  2  0  0  0  0
 14 27  1  0  0  0  0
 15 18  2  0  0  0  0
 15 20  1  0  0  0  0
 16 24  1  0  0  0  0
 17 26  1  0  0  0  0
 18 27  1  0  0  0  0
 19 28  1  0  0  0  0
 20 29  1  0  0  0  0
 21 25  1  0  0  0  0
 21 28  1  0  0  0  0
 21 30  2  0  0  0  0
 22 26  1  0  0  0  0
 22 29  1  0  0  0  0
 22 31  2  0  0  0  0
 23 25  1  0  0  0  0
 24 26  1  6  0  0  0
  1 32  1  0  0  0  0
  2 33  1  0  0  0  0
  3 34  1  0  0  0  0
  4 35  1  0  0  0  0
  5 36  1  0  0  0  0
  6 37  1  0  0  0  0
  7 38  1  0  0  0  0
  8 39  1  0  0  0  0
  9 40  1  0  0  0  0
 10 41  1  0  0  0  0
 11 42  1  0  0  0  0
 12 43  1  0  0  0  0
 13 44  1  0  0  0  0
 14 45  1  0  0  0  0
 23 46  1  0  0  0  0
 23 47  1  0  0  0  0
 23 48  1  0  0  0  0
 24 49  1  0  0  0  0
 24 50  1  0  0  0  0
 25 51  1  0  0  0  0
 25 52  1  0  0  0  0
 26 53  1  0  0  0  0
 27 54  1  0  0  0  0
 28 55  1  0  0  0  0
 29 56  1  0  0  0  0
M  END
> <clash_score>
1.2358167048071818

> <docking_score>
-7.996381759643555

> <overlap_score>
0.8675255179405212

$$$$
BENZO_284_1
  -OEChem-08232013503D

 53 56  0     1  0  0  0  0  0999 V2000
    4.2970    1.6690   20.8430 C   0  0  0  0  0  0  0  0  0  0  0  0
    4.0980    2.1130   19.5350 C   0  0  0  0  0  0  0  0  0  0  0  0
    5.3360    0.8000   21.1530 C   0  0  0  0  0  0  0  0  0  0  0  0
    8.3510   -1.5420   24.6110 C   0  0  0  0  0  0  0  0  0  0  0  0
   10.2760   -2.3270   23.4020 C   0  0  0  0  0  0  0  0  0  0  0  0
    4.9400    1.7060   18.5060 C   0  0  0  0  0  0  0  0  0  0  0  0
    8.3310   -2.7170   25.3430 C   0  0  0  0  0  0  0  0  0  0  0  0
   10.2570   -3.5000   24.1350 C   0  0  0  0  0  0  0  0  0  0  0  0
   11.9019    2.6854   22.1912 C   0  0  0  0  0  0  0  0  0  0  0  0
    7.6830   -0.5170   18.7600 C   0  0  0  0  0  0  0  0  0  0  0  0
   11.8820    4.0381   22.4508 C   0  0  0  0  0  0  0  0  0  0  0  0
   10.5617    2.7635   24.0885 C   0  0  0  0  0  0  0  0  0  0  0  0
    6.1600    0.3870   20.1140 C   0  0  0  0  0  0  0  0  0  0  0  0
    9.3300   -1.3350   23.6390 C   0  0  0  0  0  0  0  0  0  0  0  0
   11.1370    1.9470   23.1397 C   0  0  0  0  0  0  0  0  0  0  0  0
    5.9810    0.8330   18.8060 C   0  0  0  0  0  0  0  0  0  0  0  0
    9.2850   -3.7090   25.1090 C   0  0  0  0  0  0  0  0  0  0  0  0
    7.2210   -0.4620   20.0350 C   0  0  0  0  0  0  0  0  0  0  0  0
    8.1532   -5.5459   26.3982 C   0  0  0  0  0  0  0  0  0  0  0  0
    8.9510    0.1280   21.6880 C   0  0  0  0  0  0  0  0  0  0  0  0
    9.2299   -7.8281   26.2037 C   0  0  0  0  0  0  0  0  0  0  0  0
   10.9777    0.4443   23.1075 C   0  0  0  0  0  0  0  0  0  0  0  0
    8.5721   -6.8157   27.1241 C   0  0  0  0  0  0  0  0  0  0  0  0
    9.4200   -0.0840   22.9530 C   0  0  1  0  0  0  0  0  0  0  0  0
    6.9440    0.2550   18.0100 N   0  0  0  0  0  0  0  0  0  0  0  0
    9.2630   -4.8903   25.8409 N   0  0  0  0  0  0  0  0  0  0  0  0
    8.0810   -0.9750   21.0820 N   0  0  0  0  0  0  0  0  0  0  0  0
    6.9817   -5.1874   26.3377 O   0  0  0  0  0  0  0  0  0  0  0  0
    9.1870    1.1500   21.0630 O   0  0  0  0  0  0  0  0  0  0  0  0
   10.9440    4.4131   23.8335 S   0  0  0  0  0  0  0  0  0  0  0  0
    3.6256    2.0106   21.6303 H   0  0  0  0  0  0  0  0  0  0  0  0
    3.2724    2.7868   19.3204 H   0  0  0  0  0  0  0  0  0  0  0  0
    5.4858    0.4664   22.1692 H   0  0  0  0  0  0  0  0  0  0  0  0
    7.5948   -0.7783   24.7966 H   0  0  0  0  0  0  0  0  0  0  0  0
   11.0389   -2.1844   22.6342 H   0  0  0  0  0  0  0  0  0  0  0  0
    4.7836    2.0664   17.4848 H   0  0  0  0  0  0  0  0  0  0  0  0
    7.5642   -2.8624   26.1050 H   0  0  0  0  0  0  0  0  0  0  0  0
   11.0137   -4.2649   23.9418 H   0  0  0  0  0  0  0  0  0  0  0  0
   12.4414    2.2505   21.3593 H   0  0  0  0  0  0  0  0  0  0  0  0
    8.5274   -1.0858   18.3384 H   0  0  0  0  0  0  0  0  0  0  0  0
   12.3738    4.8240   21.8953 H   0  0  0  0  0  0  0  0  0  0  0  0
    9.9357    2.4743   24.9213 H   0  0  0  0  0  0  0  0  0  0  0  0
    8.5551   -8.1180   25.3915 H   0  0  0  0  0  0  0  0  0  0  0  0
    9.5014   -8.7298   26.7611 H   0  0  0  0  0  0  0  0  0  0  0  0
   10.1397   -7.4172   25.7536 H   0  0  0  0  0  0  0  0  0  0  0  0
   11.5363    0.0386   22.2539 H   0  0  0  0  0  0  0  0  0  0  0  0
   11.4704    0.0336   23.9998 H   0  0  0  0  0  0  0  0  0  0  0  0
    9.2685   -6.5440   27.9257 H   0  0  0  0  0  0  0  0  0  0  0  0
    7.6830   -7.2628   27.5835 H   0  0  0  0  0  0  0  0  0  0  0  0
    8.9182    0.7194   23.6789 H   0  0  0  0  0  0  0  0  0  0  0  0
    7.0325    0.4238   17.0175 H   0  0  0  0  0  0  0  0  0  0  0  0
   10.1695   -5.3467   25.9960 H   0  0  0  0  0  0  0  0  0  0  0  0
    8.1175   -1.8104   21.3538 H   0  0  0  0  0  0  0  0  0  0  0  0
  1  2  1  0  0  0  0
  1  3  2  0  0  0  0
  2  6  2  0  0  0  0
  3 13  1  0  0  0  0
  4  7  2  0  0  0  0
  4 14  1  0  0  0  0
  5  8  1  0  0  0  0
  5 14  2  0  0  0  0
  6 16  1  0  0  0  0
  7 17  1  0  0  0  0
  8 17  2  0  0  0  0
  9 11  2  0  0  0  0
  9 15  1  0  0  0  0
 10 18  2  0  0  0  0
 10 25  1  0  0  0  0
 11 30  1  0  0  0  0
 12 15  2  0  0  0  0
 12 30  1  0  0  0  0
 13 16  2  0  0  0  0
 13 18  1  0  0  0  0
 14 24  1  0  0  0  0
 15 22  1  0  0  0  0
 16 25  1  0  0  0  0
 17 26  1  0  0  0  0
 18 27  1  0  0  0  0
 19 23  1  0  0  0  0
 19 26  1  0  0  0  0
 19 28  2  0  0  0  0
 20 24  1  0  0  0  0
 20 27  1  0  0  0  0
 20 29  2  0  0  0  0
 21 23  1  0  0  0  0
 22 24  1  1  0  0  0
  1 31  1  0  0  0  0
  2 32  1  0  0  0  0
  3 33  1  0  0  0  0
  4 34  1  0  0  0  0
  5 35  1  0  0  0  0
  6 36  1  0  0  0  0
  7 37  1  0  0  0  0
  8 38  1  0  0  0  0
  9 39  1  0  0  0  0
 10 40  1  0  0  0  0
 11 41  1  0  0  0  0
 12 42  1  0  0  0  0
 21 43  1  0  0  0  0
 21 44  1  0  0  0  0
 21 45  1  0  0  0  0
 22 46  1  0  0  0  0
 22 47  1  0  0  0  0
 23 48  1  0  0  0  0
 23 49  1  0  0  0  0
 24 50  1  0  0  0  0
 25 51  1  0  0  0  0
 26 52  1  0  0  0  0
 27 53  1  0  0  0  0
M  END
> <clash_score>
1.2358167048071818

> <docking_score>
-7.652194976806641

> <overlap_score>
0.9279530644416809

$$$$
BENZO_284_2
  -OEChem-08232013503D

 53 56  0     1  0  0  0  0  0999 V2000
    4.2970    1.6690   20.8430 C   0  0  0  0  0  0  0  0  0  0  0  0
    4.0980    2.1130   19.5350 C   0  0  0  0  0  0  0  0  0  0  0  0
    5.3360    0.8000   21.1530 C   0  0  0  0  0  0  0  0  0  0  0  0
    8.3510   -1.5420   24.6110 C   0  0  0  0  0  0  0  0  0  0  0  0
   10.2760   -2.3270   23.4020 C   0  0  0  0  0  0  0  0  0  0  0  0
    4.9400    1.7060   18.5060 C   0  0  0  0  0  0  0  0  0  0  0  0
    8.3310   -2.7170   25.3430 C   0  0  0  0  0  0  0  0  0  0  0  0
   10.2570   -3.5000   24.1350 C   0  0  0  0  0  0  0  0  0  0  0  0
   10.8633    2.6804   23.5273 C   0  0  0  0  0  0  0  0  0  0  0  0
    7.6830   -0.5170   18.7600 C   0  0  0  0  0  0  0  0  0  0  0  0
   11.1655    4.0230   23.4669 C   0  0  0  0  0  0  0  0  0  0  0  0
    8.8035    3.6322   24.0309 C   0  0  0  0  0  0  0  0  0  0  0  0
    6.1600    0.3870   20.1140 C   0  0  0  0  0  0  0  0  0  0  0  0
    9.3300   -1.3350   23.6390 C   0  0  0  0  0  0  0  0  0  0  0  0
    9.4950    2.4539   23.8539 C   0  0  0  0  0  0  0  0  0  0  0  0
    5.9810    0.8330   18.8060 C   0  0  0  0  0  0  0  0  0  0  0  0
    9.2850   -3.7090   25.1090 C   0  0  0  0  0  0  0  0  0  0  0  0
    7.2210   -0.4620   20.0350 C   0  0  0  0  0  0  0  0  0  0  0  0
    8.1532   -5.5459   26.3982 C   0  0  0  0  0  0  0  0  0  0  0  0
    8.9510    0.1280   21.6880 C   0  0  0  0  0  0  0  0  0  0  0  0
    9.2299   -7.8281   26.2037 C   0  0  0  0  0  0  0  0  0  0  0  0
    8.8771    1.0813   23.9905 C   0  0  0  0  0  0  0  0  0  0  0  0
    8.5721   -6.8157   27.1241 C   0  0  0  0  0  0  0  0  0  0  0  0
    9.4200   -0.0840   22.9530 C   0  0  2  0  0  0  0  0  0  0  0  0
    6.9440    0.2550   18.0100 N   0  0  0  0  0  0  0  0  0  0  0  0
    9.2630   -4.8903   25.8409 N   0  0  0  0  0  0  0  0  0  0  0  0
    8.0810   -0.9750   21.0820 N   0  0  0  0  0  0  0  0  0  0  0  0
    6.9817   -5.1874   26.3377 O   0  0  0  0  0  0  0  0  0  0  0  0
    9.1870    1.1500   21.0630 O   0  0  0  0  0  0  0  0  0  0  0  0
    9.8028    5.0040   23.8033 S   0  0  0  0  0  0  0  0  0  0  0  0
    3.6256    2.0106   21.6303 H   0  0  0  0  0  0  0  0  0  0  0  0
    3.2724    2.7868   19.3204 H   0  0  0  0  0  0  0  0  0  0  0  0
    5.4858    0.4664   22.1692 H   0  0  0  0  0  0  0  0  0  0  0  0
    7.5948   -0.7783   24.7966 H   0  0  0  0  0  0  0  0  0  0  0  0
   11.0389   -2.1844   22.6342 H   0  0  0  0  0  0  0  0  0  0  0  0
    4.7836    2.0664   17.4848 H   0  0  0  0  0  0  0  0  0  0  0  0
    7.5642   -2.8624   26.1050 H   0  0  0  0  0  0  0  0  0  0  0  0
   11.0137   -4.2649   23.9418 H   0  0  0  0  0  0  0  0  0  0  0  0
   11.5925    1.9010   23.3455 H   0  0  0  0  0  0  0  0  0  0  0  0
    8.5274   -1.0858   18.3384 H   0  0  0  0  0  0  0  0  0  0  0  0
   12.1213    4.4748   23.2422 H   0  0  0  0  0  0  0  0  0  0  0  0
    7.7599    3.7576   24.2842 H   0  0  0  0  0  0  0  0  0  0  0  0
    8.5551   -8.1180   25.3915 H   0  0  0  0  0  0  0  0  0  0  0  0
    9.5014   -8.7298   26.7611 H   0  0  0  0  0  0  0  0  0  0  0  0
   10.1397   -7.4172   25.7536 H   0  0  0  0  0  0  0  0  0  0  0  0
    8.9708    0.7434   25.0308 H   0  0  0  0  0  0  0  0  0  0  0  0
    7.7972    1.1781   23.8117 H   0  0  0  0  0  0  0  0  0  0  0  0
    9.2685   -6.5440   27.9257 H   0  0  0  0  0  0  0  0  0  0  0  0
    7.6830   -7.2628   27.5835 H   0  0  0  0  0  0  0  0  0  0  0  0
   10.5743    0.2174   22.9808 H   0  0  0  0  0  0  0  0  0  0  0  0
    7.0325    0.4238   17.0175 H   0  0  0  0  0  0  0  0  0  0  0  0
   10.1695   -5.3467   25.9960 H   0  0  0  0  0  0  0  0  0  0  0  0
    8.1175   -1.8104   21.3538 H   0  0  0  0  0  0  0  0  0  0  0  0
  1  2  1  0  0  0  0
  1  3  2  0  0  0  0
  2  6  2  0  0  0  0
  3 13  1  0  0  0  0
  4  7  2  0  0  0  0
  4 14  1  0  0  0  0
  5  8  1  0  0  0  0
  5 14  2  0  0  0  0
  6 16  1  0  0  0  0
  7 17  1  0  0  0  0
  8 17  2  0  0  0  0
  9 11  2  0  0  0  0
  9 15  1  0  0  0  0
 10 18  2  0  0  0  0
 10 25  1  0  0  0  0
 11 30  1  0  0  0  0
 12 15  2  0  0  0  0
 12 30  1  0  0  0  0
 13 16  2  0  0  0  0
 13 18  1  0  0  0  0
 14 24  1  0  0  0  0
 15 22  1  0  0  0  0
 16 25  1  0  0  0  0
 17 26  1  0  0  0  0
 18 27  1  0  0  0  0
 19 23  1  0  0  0  0
 19 26  1  0  0  0  0
 19 28  2  0  0  0  0
 20 24  1  0  0  0  0
 20 27  1  0  0  0  0
 20 29  2  0  0  0  0
 21 23  1  0  0  0  0
 22 24  1  6  0  0  0
  1 31  1  0  0  0  0
  2 32  1  0  0  0  0
  3 33  1  0  0  0  0
  4 34  1  0  0  0  0
  5 35  1  0  0  0  0
  6 36  1  0  0  0  0
  7 37  1  0  0  0  0
  8 38  1  0  0  0  0
  9 39  1  0  0  0  0
 10 40  1  0  0  0  0
 11 41  1  0  0  0  0
 12 42  1  0  0  0  0
 21 43  1  0  0  0  0
 21 44  1  0  0  0  0
 21 45  1  0  0  0  0
 22 46  1  0  0  0  0
 22 47  1  0  0  0  0
 23 48  1  0  0  0  0
 23 49  1  0  0  0  0
 24 50  1  0  0  0  0
 25 51  1  0  0  0  0
 26 52  1  0  0  0  0
 27 53  1  0  0  0  0
M  END
> <clash_score>
1.2358167048071818

> <docking_score>
-7.719743728637695

> <overlap_score>
0.8647869825363159

$$$$
BENZO_286_1
  -OEChem-08232013503D

 56 59  0     1  0  0  0  0  0999 V2000
    4.2970    1.6690   20.8430 C   0  0  0  0  0  0  0  0  0  0  0  0
    4.0980    2.1130   19.5350 C   0  0  0  0  0  0  0  0  0  0  0  0
   10.2645    4.1315   23.6906 C   0  0  0  0  0  0  0  0  0  0  0  0
    5.3360    0.8000   21.1530 C   0  0  0  0  0  0  0  0  0  0  0  0
   10.1177    2.7447   23.6595 C   0  0  0  0  0  0  0  0  0  0  0  0
    8.3510   -1.5420   24.6110 C   0  0  0  0  0  0  0  0  0  0  0  0
   10.2760   -2.3270   23.4020 C   0  0  0  0  0  0  0  0  0  0  0  0
    4.9400    1.7060   18.5060 C   0  0  0  0  0  0  0  0  0  0  0  0
    8.3310   -2.7170   25.3430 C   0  0  0  0  0  0  0  0  0  0  0  0
   10.2570   -3.5000   24.1350 C   0  0  0  0  0  0  0  0  0  0  0  0
   11.4306    4.7205   23.2018 C   0  0  0  0  0  0  0  0  0  0  0  0
   12.3032    2.5360   22.6510 C   0  0  0  0  0  0  0  0  0  0  0  0
    7.6830   -0.5170   18.7600 C   0  0  0  0  0  0  0  0  0  0  0  0
    6.1600    0.3870   20.1140 C   0  0  0  0  0  0  0  0  0  0  0  0
    9.3300   -1.3350   23.6390 C   0  0  0  0  0  0  0  0  0  0  0  0
   11.1370    1.9470   23.1397 C   0  0  0  0  0  0  0  0  0  0  0  0
    5.9810    0.8330   18.8060 C   0  0  0  0  0  0  0  0  0  0  0  0
    9.2850   -3.7090   25.1090 C   0  0  0  0  0  0  0  0  0  0  0  0
    7.2210   -0.4620   20.0350 C   0  0  0  0  0  0  0  0  0  0  0  0
   12.4500    3.9227   22.6820 C   0  0  0  0  0  0  0  0  0  0  0  0
    8.3642   -5.2691   26.8512 C   0  0  0  0  0  0  0  0  0  0  0  0
    8.9510    0.1280   21.6880 C   0  0  0  0  0  0  0  0  0  0  0  0
    7.9641   -7.7612   26.6648 C   0  0  0  0  0  0  0  0  0  0  0  0
   10.9777    0.4443   23.1075 C   0  0  0  0  0  0  0  0  0  0  0  0
    8.6980   -6.6505   27.3945 C   0  0  0  0  0  0  0  0  0  0  0  0
    9.4200   -0.0840   22.9530 C   0  0  1  0  0  0  0  0  0  0  0  0
    6.9440    0.2550   18.0100 N   0  0  0  0  0  0  0  0  0  0  0  0
    9.2630   -4.8903   25.8409 N   0  0  0  0  0  0  0  0  0  0  0  0
    8.0810   -0.9750   21.0820 N   0  0  0  0  0  0  0  0  0  0  0  0
    7.4190   -4.6135   27.2771 O   0  0  0  0  0  0  0  0  0  0  0  0
    9.1870    1.1500   21.0630 O   0  0  0  0  0  0  0  0  0  0  0  0
   13.8890    4.6500   22.0802 Cl  0  0  0  0  0  0  0  0  0  0  0  0
    3.6256    2.0106   21.6303 H   0  0  0  0  0  0  0  0  0  0  0  0
    3.2724    2.7868   19.3204 H   0  0  0  0  0  0  0  0  0  0  0  0
    9.4706    4.7523   24.0955 H   0  0  0  0  0  0  0  0  0  0  0  0
    5.4858    0.4664   22.1692 H   0  0  0  0  0  0  0  0  0  0  0  0
    9.2057    2.2944   24.0426 H   0  0  0  0  0  0  0  0  0  0  0  0
    7.5948   -0.7783   24.7966 H   0  0  0  0  0  0  0  0  0  0  0  0
   11.0389   -2.1844   22.6342 H   0  0  0  0  0  0  0  0  0  0  0  0
    4.7836    2.0664   17.4848 H   0  0  0  0  0  0  0  0  0  0  0  0
    7.5642   -2.8624   26.1050 H   0  0  0  0  0  0  0  0  0  0  0  0
   11.0137   -4.2649   23.9418 H   0  0  0  0  0  0  0  0  0  0  0  0
   11.5314    5.8026   23.2326 H   0  0  0  0  0  0  0  0  0  0  0  0
   13.0949    1.9096   22.2463 H   0  0  0  0  0  0  0  0  0  0  0  0
    8.5274   -1.0858   18.3384 H   0  0  0  0  0  0  0  0  0  0  0  0
    6.8795   -7.6299   26.7375 H   0  0  0  0  0  0  0  0  0  0  0  0
    8.2203   -8.7342   27.0952 H   0  0  0  0  0  0  0  0  0  0  0  0
    8.2299   -7.7764   25.6026 H   0  0  0  0  0  0  0  0  0  0  0  0
   11.5363    0.0386   22.2539 H   0  0  0  0  0  0  0  0  0  0  0  0
   11.4704    0.0336   23.9998 H   0  0  0  0  0  0  0  0  0  0  0  0
    9.7792   -6.8069   27.3054 H   0  0  0  0  0  0  0  0  0  0  0  0
    8.4374   -6.6778   28.4588 H   0  0  0  0  0  0  0  0  0  0  0  0
    8.9182    0.7194   23.6789 H   0  0  0  0  0  0  0  0  0  0  0  0
    7.0325    0.4238   17.0175 H   0  0  0  0  0  0  0  0  0  0  0  0
    9.9928   -5.5773   25.6186 H   0  0  0  0  0  0  0  0  0  0  0  0
    8.1175   -1.8104   21.3538 H   0  0  0  0  0  0  0  0  0  0  0  0
  1  2  1  0  0  0  0
  1  4  2  0  0  0  0
  2  8  2  0  0  0  0
  3  5  2  0  0  0  0
  3 11  1  0  0  0  0
  4 14  1  0  0  0  0
  5 16  1  0  0  0  0
  6  9  2  0  0  0  0
  6 15  1  0  0  0  0
  7 10  1  0  0  0  0
  7 15  2  0  0  0  0
  8 17  1  0  0  0  0
  9 18  1  0  0  0  0
 10 18  2  0  0  0  0
 11 20  2  0  0  0  0
 12 16  2  0  0  0  0
 12 20  1  0  0  0  0
 13 19  2  0  0  0  0
 13 27  1  0  0  0  0
 14 17  2  0  0  0  0
 14 19  1  0  0  0  0
 15 26  1  0  0  0  0
 16 24  1  0  0  0  0
 17 27  1  0  0  0  0
 18 28  1  0  0  0  0
 19 29  1  0  0  0  0
 20 32  1  0  0  0  0
 21 25  1  0  0  0  0
 21 28  1  0  0  0  0
 21 30  2  0  0  0  0
 22 26  1  0  0  0  0
 22 29  1  0  0  0  0
 22 31  2  0  0  0  0
 23 25  1  0  0  0  0
 24 26  1  1  0  0  0
  1 33  1  0  0  0  0
  2 34  1  0  0  0  0
  3 35  1  0  0  0  0
  4 36  1  0  0  0  0
  5 37  1  0  0  0  0
  6 38  1  0  0  0  0
  7 39  1  0  0  0  0
  8 40  1  0  0  0  0
  9 41  1  0  0  0  0
 10 42  1  0  0  0  0
 11 43  1  0  0  0  0
 12 44  1  0  0  0  0
 13 45  1  0  0  0  0
 23 46  1  0  0  0  0
 23 47  1  0  0  0  0
 23 48  1  0  0  0  0
 24 49  1  0  0  0  0
 24 50  1  0  0  0  0
 25 51  1  0  0  0  0
 25 52  1  0  0  0  0
 26 53  1  0  0  0  0
 27 54  1  0  0  0  0
 28 55  1  0  0  0  0
 29 56  1  0  0  0  0
M  END
> <clash_score>
0.7805843719873787

> <docking_score>
-9.27212905883789

> <overlap_score>
0.9408255219459534

$$$$
BENZO_289_2
  -OEChem-08232013503D

 61 65  0     1  0  0  0  0  0999 V2000
   11.4307    4.7297   23.1589 C   0  0  0  0  0  0  0  0  0  0  0  0
    4.2970    1.6690   20.8430 C   0  0  0  0  0  0  0  0  0  0  0  0
   12.4501    3.9274   22.6463 C   0  0  0  0  0  0  0  0  0  0  0  0
   10.2648    4.1449   23.6533 C   0  0  0  0  0  0  0  0  0  0  0  0
    4.0980    2.1130   19.5350 C   0  0  0  0  0  0  0  0  0  0  0  0
    5.3360    0.8000   21.1530 C   0  0  0  0  0  0  0  0  0  0  0  0
   12.3036    2.5404   22.6279 C   0  0  0  0  0  0  0  0  0  0  0  0
   10.1183    2.7579   23.6349 C   0  0  0  0  0  0  0  0  0  0  0  0
    8.3510   -1.5420   24.6110 C   0  0  0  0  0  0  0  0  0  0  0  0
   10.2760   -2.3270   23.4020 C   0  0  0  0  0  0  0  0  0  0  0  0
    4.9400    1.7060   18.5060 C   0  0  0  0  0  0  0  0  0  0  0  0
    8.3310   -2.7170   25.3430 C   0  0  0  0  0  0  0  0  0  0  0  0
   10.2570   -3.5000   24.1350 C   0  0  0  0  0  0  0  0  0  0  0  0
    7.6830   -0.5170   18.7600 C   0  0  0  0  0  0  0  0  0  0  0  0
    6.1600    0.3870   20.1140 C   0  0  0  0  0  0  0  0  0  0  0  0
   11.1377    1.9556   23.1223 C   0  0  0  0  0  0  0  0  0  0  0  0
    9.3300   -1.3350   23.6390 C   0  0  0  0  0  0  0  0  0  0  0  0
    5.9810    0.8330   18.8060 C   0  0  0  0  0  0  0  0  0  0  0  0
    9.2850   -3.7090   25.1090 C   0  0  0  0  0  0  0  0  0  0  0  0
    7.2210   -0.4620   20.0350 C   0  0  0  0  0  0  0  0  0  0  0  0
    8.9510    0.1280   21.6880 C   0  0  0  0  0  0  0  0  0  0  0  0
    7.3211   -6.8875   26.5227 C   0  0  0  0  0  0  0  0  0  0  0  0
    7.3523   -5.5278   27.2244 C   0  0  0  0  0  0  0  0  0  0  0  0
    7.9422   -6.8107   25.1261 C   0  0  0  0  0  0  0  0  0  0  0  0
    8.7641   -4.9418   27.2163 C   0  0  0  0  0  0  0  0  0  0  0  0
    9.3411   -6.1879   25.1670 C   0  0  0  0  0  0  0  0  0  0  0  0
   10.9782    0.4528   23.1025 C   0  0  0  0  0  0  0  0  0  0  0  0
    9.4200   -0.0840   22.9530 C   0  0  2  0  0  0  0  0  0  0  0  0
    6.9440    0.2550   18.0100 N   0  0  0  0  0  0  0  0  0  0  0  0
    9.2641   -4.8861   25.8398 N   0  0  0  0  0  0  0  0  0  0  0  0
    8.0810   -0.9750   21.0820 N   0  0  0  0  0  0  0  0  0  0  0  0
    9.1870    1.1500   21.0630 O   0  0  0  0  0  0  0  0  0  0  0  0
   11.5455    5.8096   23.1743 H   0  0  0  0  0  0  0  0  0  0  0  0
    3.6256    2.0106   21.6303 H   0  0  0  0  0  0  0  0  0  0  0  0
   13.3585    4.3825   22.2623 H   0  0  0  0  0  0  0  0  0  0  0  0
    9.4714    4.7691   24.0535 H   0  0  0  0  0  0  0  0  0  0  0  0
    3.2724    2.7868   19.3204 H   0  0  0  0  0  0  0  0  0  0  0  0
    5.4858    0.4664   22.1692 H   0  0  0  0  0  0  0  0  0  0  0  0
   13.1031    1.9232   22.2264 H   0  0  0  0  0  0  0  0  0  0  0  0
    9.2064    2.3111   24.0221 H   0  0  0  0  0  0  0  0  0  0  0  0
    7.5957   -0.7779   24.7973 H   0  0  0  0  0  0  0  0  0  0  0  0
   11.0384   -2.1852   22.6338 H   0  0  0  0  0  0  0  0  0  0  0  0
    4.7836    2.0664   17.4848 H   0  0  0  0  0  0  0  0  0  0  0  0
    7.5634   -2.8637   26.1037 H   0  0  0  0  0  0  0  0  0  0  0  0
   11.0139   -4.2645   23.9419 H   0  0  0  0  0  0  0  0  0  0  0  0
    8.5274   -1.0858   18.3384 H   0  0  0  0  0  0  0  0  0  0  0  0
    7.8644   -7.6283   27.1289 H   0  0  0  0  0  0  0  0  0  0  0  0
    6.2830   -7.2423   26.4478 H   0  0  0  0  0  0  0  0  0  0  0  0
    6.6663   -4.8405   26.7221 H   0  0  0  0  0  0  0  0  0  0  0  0
    7.0062   -5.6400   28.2540 H   0  0  0  0  0  0  0  0  0  0  0  0
    8.0018   -7.8160   24.6962 H   0  0  0  0  0  0  0  0  0  0  0  0
    7.2963   -6.2182   24.4678 H   0  0  0  0  0  0  0  0  0  0  0  0
    8.7322   -3.9404   27.6532 H   0  0  0  0  0  0  0  0  0  0  0  0
    9.4260   -5.5610   27.8283 H   0  0  0  0  0  0  0  0  0  0  0  0
   10.0249   -6.8474   25.7028 H   0  0  0  0  0  0  0  0  0  0  0  0
    9.7015   -6.0700   24.1446 H   0  0  0  0  0  0  0  0  0  0  0  0
   11.5374    0.0399   22.2527 H   0  0  0  0  0  0  0  0  0  0  0  0
   11.4700    0.0494   23.9985 H   0  0  0  0  0  0  0  0  0  0  0  0
    8.9187    0.7273   23.6745 H   0  0  0  0  0  0  0  0  0  0  0  0
    7.0325    0.4238   17.0175 H   0  0  0  0  0  0  0  0  0  0  0  0
    8.1354   -1.7990   21.3694 H   0  0  0  0  0  0  0  0  0  0  0  0
  1  3  1  0  0  0  0
  1  4  2  0  0  0  0
  2  5  1  0  0  0  0
  2  6  2  0  0  0  0
  3  7  2  0  0  0  0
  4  8  1  0  0  0  0
  5 11  2  0  0  0  0
  6 15  1  0  0  0  0
  7 16  1  0  0  0  0
  8 16  2  0  0  0  0
  9 12  2  0  0  0  0
  9 17  1  0  0  0  0
 10 13  1  0  0  0  0
 10 17  2  0  0  0  0
 11 18  1  0  0  0  0
 12 19  1  0  0  0  0
 13 19  2  0  0  0  0
 14 20  2  0  0  0  0
 14 29  1  0  0  0  0
 15 18  2  0  0  0  0
 15 20  1  0  0  0  0
 16 27  1  0  0  0  0
 17 28  1  0  0  0  0
 18 29  1  0  0  0  0
 19 30  1  0  0  0  0
 20 31  1  0  0  0  0
 21 28  1  6  0  0  0
 21 31  1  0  0  0  0
 21 32  2  0  0  0  0
 22 23  1  0  0  0  0
 22 24  1  0  0  0  0
 23 25  1  0  0  0  0
 24 26  1  0  0  0  0
 25 30  1  0  0  0  0
 26 30  1  0  0  0  0
 27 28  1  0  0  0  0
  1 33  1  0  0  0  0
  2 34  1  0  0  0  0
  3 35  1  0  0  0  0
  4 36  1  0  0  0  0
  5 37  1  0  0  0  0
  6 38  1  0  0  0  0
  7 39  1  0  0  0  0
  8 40  1  0  0  0  0
  9 41  1  0  0  0  0
 10 42  1  0  0  0  0
 11 43  1  0  0  0  0
 12 44  1  0  0  0  0
 13 45  1  0  0  0  0
 14 46  1  0  0  0  0
 22 47  1  0  0  0  0
 22 48  1  0  0  0  0
 23 49  1  0  0  0  0
 23 50  1  0  0  0  0
 24 51  1  0  0  0  0
 24 52  1  0  0  0  0
 25 53  1  0  0  0  0
 25 54  1  0  0  0  0
 26 55  1  0  0  0  0
 26 56  1  0  0  0  0
 27 57  1  0  0  0  0
 27 58  1  0  0  0  0
 28 59  1  0  0  0  0
 29 60  1  0  0  0  0
 31 61  1  0  0  0  0
M  END
> <clash_score>
0

> <docking_score>
-9.680264472961426

> <overlap_score>
0.9455479383468628

$$$$
BENZO_286_2
  -OEChem-08232013503D

 56 59  0     1  0  0  0  0  0999 V2000
    4.2970    1.6690   20.8430 C   0  0  0  0  0  0  0  0  0  0  0  0
    4.0980    2.1130   19.5350 C   0  0  0  0  0  0  0  0  0  0  0  0
    9.3211    4.8553   24.0536 C   0  0  0  0  0  0  0  0  0  0  0  0
    5.3360    0.8000   21.1530 C   0  0  0  0  0  0  0  0  0  0  0  0
    8.7511    3.5884   24.1784 C   0  0  0  0  0  0  0  0  0  0  0  0
    8.3510   -1.5420   24.6110 C   0  0  0  0  0  0  0  0  0  0  0  0
   10.2760   -2.3270   23.4020 C   0  0  0  0  0  0  0  0  0  0  0  0
    4.9400    1.7060   18.5060 C   0  0  0  0  0  0  0  0  0  0  0  0
    8.3310   -2.7170   25.3430 C   0  0  0  0  0  0  0  0  0  0  0  0
   10.2570   -3.5000   24.1350 C   0  0  0  0  0  0  0  0  0  0  0  0
   10.6349    4.9878   23.6043 C   0  0  0  0  0  0  0  0  0  0  0  0
   10.8089    2.5864   23.4046 C   0  0  0  0  0  0  0  0  0  0  0  0
    7.6830   -0.5170   18.7600 C   0  0  0  0  0  0  0  0  0  0  0  0
    6.1600    0.3870   20.1140 C   0  0  0  0  0  0  0  0  0  0  0  0
    9.3300   -1.3350   23.6390 C   0  0  0  0  0  0  0  0  0  0  0  0
    9.4950    2.4539   23.8539 C   0  0  0  0  0  0  0  0  0  0  0  0
    5.9810    0.8330   18.8060 C   0  0  0  0  0  0  0  0  0  0  0  0
    9.2850   -3.7090   25.1090 C   0  0  0  0  0  0  0  0  0  0  0  0
    7.2210   -0.4620   20.0350 C   0  0  0  0  0  0  0  0  0  0  0  0
   11.3788    3.8534   23.2798 C   0  0  0  0  0  0  0  0  0  0  0  0
    8.3642   -5.2691   26.8512 C   0  0  0  0  0  0  0  0  0  0  0  0
    8.9510    0.1280   21.6880 C   0  0  0  0  0  0  0  0  0  0  0  0
    7.9641   -7.7612   26.6648 C   0  0  0  0  0  0  0  0  0  0  0  0
    8.8771    1.0813   23.9905 C   0  0  0  0  0  0  0  0  0  0  0  0
    8.6980   -6.6505   27.3945 C   0  0  0  0  0  0  0  0  0  0  0  0
    9.4200   -0.0840   22.9530 C   0  0  2  0  0  0  0  0  0  0  0  0
    6.9440    0.2550   18.0100 N   0  0  0  0  0  0  0  0  0  0  0  0
    9.2630   -4.8903   25.8409 N   0  0  0  0  0  0  0  0  0  0  0  0
    8.0810   -0.9750   21.0820 N   0  0  0  0  0  0  0  0  0  0  0  0
    7.4190   -4.6135   27.2771 O   0  0  0  0  0  0  0  0  0  0  0  0
    9.1870    1.1500   21.0630 O   0  0  0  0  0  0  0  0  0  0  0  0
   13.0002    4.0175   22.7265 Cl  0  0  0  0  0  0  0  0  0  0  0  0
    3.6256    2.0106   21.6303 H   0  0  0  0  0  0  0  0  0  0  0  0
    3.2724    2.7868   19.3204 H   0  0  0  0  0  0  0  0  0  0  0  0
    8.7415    5.7384   24.3065 H   0  0  0  0  0  0  0  0  0  0  0  0
    5.4858    0.4664   22.1692 H   0  0  0  0  0  0  0  0  0  0  0  0
    7.7267    3.4945   24.5294 H   0  0  0  0  0  0  0  0  0  0  0  0
    7.5948   -0.7783   24.7966 H   0  0  0  0  0  0  0  0  0  0  0  0
   11.0389   -2.1844   22.6342 H   0  0  0  0  0  0  0  0  0  0  0  0
    4.7836    2.0664   17.4848 H   0  0  0  0  0  0  0  0  0  0  0  0
    7.5642   -2.8624   26.1050 H   0  0  0  0  0  0  0  0  0  0  0  0
   11.0137   -4.2649   23.9418 H   0  0  0  0  0  0  0  0  0  0  0  0
   11.0663    5.9816   23.5122 H   0  0  0  0  0  0  0  0  0  0  0  0
   11.3846    1.6989   23.1523 H   0  0  0  0  0  0  0  0  0  0  0  0
    8.5274   -1.0858   18.3384 H   0  0  0  0  0  0  0  0  0  0  0  0
    6.8795   -7.6299   26.7375 H   0  0  0  0  0  0  0  0  0  0  0  0
    8.2203   -8.7342   27.0952 H   0  0  0  0  0  0  0  0  0  0  0  0
    8.2299   -7.7764   25.6026 H   0  0  0  0  0  0  0  0  0  0  0  0
    8.9708    0.7434   25.0308 H   0  0  0  0  0  0  0  0  0  0  0  0
    7.7972    1.1781   23.8117 H   0  0  0  0  0  0  0  0  0  0  0  0
    9.7792   -6.8069   27.3054 H   0  0  0  0  0  0  0  0  0  0  0  0
    8.4374   -6.6778   28.4588 H   0  0  0  0  0  0  0  0  0  0  0  0
   10.5743    0.2174   22.9808 H   0  0  0  0  0  0  0  0  0  0  0  0
    7.0325    0.4238   17.0175 H   0  0  0  0  0  0  0  0  0  0  0  0
    9.9928   -5.5773   25.6186 H   0  0  0  0  0  0  0  0  0  0  0  0
    8.1175   -1.8104   21.3538 H   0  0  0  0  0  0  0  0  0  0  0  0
  1  2  1  0  0  0  0
  1  4  2  0  0  0  0
  2  8  2  0  0  0  0
  3  5  2  0  0  0  0
  3 11  1  0  0  0  0
  4 14  1  0  0  0  0
  5 16  1  0  0  0  0
  6  9  2  0  0  0  0
  6 15  1  0  0  0  0
  7 10  1  0  0  0  0
  7 15  2  0  0  0  0
  8 17  1  0  0  0  0
  9 18  1  0  0  0  0
 10 18  2  0  0  0  0
 11 20  2  0  0  0  0
 12 16  2  0  0  0  0
 12 20  1  0  0  0  0
 13 19  2  0  0  0  0
 13 27  1  0  0  0  0
 14 17  2  0  0  0  0
 14 19  1  0  0  0  0
 15 26  1  0  0  0  0
 16 24  1  0  0  0  0
 17 27  1  0  0  0  0
 18 28  1  0  0  0  0
 19 29  1  0  0  0  0
 20 32  1  0  0  0  0
 21 25  1  0  0  0  0
 21 28  1  0  0  0  0
 21 30  2  0  0  0  0
 22 26  1  0  0  0  0
 22 29  1  0  0  0  0
 22 31  2  0  0  0  0
 23 25  1  0  0  0  0
 24 26  1  6  0  0  0
  1 33  1  0  0  0  0
  2 34  1  0  0  0  0
  3 35  1  0  0  0  0
  4 36  1  0  0  0  0
  5 37  1  0  0  0  0
  6 38  1  0  0  0  0
  7 39  1  0  0  0  0
  8 40  1  0  0  0  0
  9 41  1  0  0  0  0
 10 42  1  0  0  0  0
 11 43  1  0  0  0  0
 12 44  1  0  0  0  0
 13 45  1  0  0  0  0
 23 46  1  0  0  0  0
 23 47  1  0  0  0  0
 23 48  1  0  0  0  0
 24 49  1  0  0  0  0
 24 50  1  0  0  0  0
 25 51  1  0  0  0  0
 25 52  1  0  0  0  0
 26 53  1  0  0  0  0
 27 54  1  0  0  0  0
 28 55  1  0  0  0  0
 29 56  1  0  0  0  0
M  END
> <clash_score>
0.7805843719873787

> <docking_score>
-8.26425552368164

> <overlap_score>
0.8765946626663208

$$$$
BENZO_288_1
  -OEChem-08232013503D

 58 62  0     1  0  0  0  0  0999 V2000
    4.2970    1.6690   20.8430 C   0  0  0  0  0  0  0  0  0  0  0  0
    4.0980    2.1130   19.5350 C   0  0  0  0  0  0  0  0  0  0  0  0
    5.3360    0.8000   21.1530 C   0  0  0  0  0  0  0  0  0  0  0  0
    8.3510   -1.5420   24.6110 C   0  0  0  0  0  0  0  0  0  0  0  0
   10.2760   -2.3270   23.4020 C   0  0  0  0  0  0  0  0  0  0  0  0
    4.9400    1.7060   18.5060 C   0  0  0  0  0  0  0  0  0  0  0  0
    8.3310   -2.7170   25.3430 C   0  0  0  0  0  0  0  0  0  0  0  0
   10.2570   -3.5000   24.1350 C   0  0  0  0  0  0  0  0  0  0  0  0
   10.8518    2.7022   23.5205 C   0  0  0  0  0  0  0  0  0  0  0  0
    7.6830   -0.5170   18.7600 C   0  0  0  0  0  0  0  0  0  0  0  0
   11.1431    4.0467   23.4499 C   0  0  0  0  0  0  0  0  0  0  0  0
    8.7801    3.6410   23.9989 C   0  0  0  0  0  0  0  0  0  0  0  0
    6.1600    0.3870   20.1140 C   0  0  0  0  0  0  0  0  0  0  0  0
    9.3300   -1.3350   23.6390 C   0  0  0  0  0  0  0  0  0  0  0  0
    9.4829    2.4671   23.8384 C   0  0  0  0  0  0  0  0  0  0  0  0
    5.9810    0.8330   18.8060 C   0  0  0  0  0  0  0  0  0  0  0  0
    9.2850   -3.7090   25.1090 C   0  0  0  0  0  0  0  0  0  0  0  0
    7.2210   -0.4620   20.0350 C   0  0  0  0  0  0  0  0  0  0  0  0
    8.9510    0.1280   21.6880 C   0  0  0  0  0  0  0  0  0  0  0  0
    7.3211   -6.8875   26.5227 C   0  0  0  0  0  0  0  0  0  0  0  0
    7.3523   -5.5278   27.2244 C   0  0  0  0  0  0  0  0  0  0  0  0
    7.9422   -6.8107   25.1261 C   0  0  0  0  0  0  0  0  0  0  0  0
    8.7641   -4.9418   27.2163 C   0  0  0  0  0  0  0  0  0  0  0  0
    9.3411   -6.1879   25.1670 C   0  0  0  0  0  0  0  0  0  0  0  0
    8.8757    1.0906   23.9831 C   0  0  0  0  0  0  0  0  0  0  0  0
    9.4200   -0.0840   22.9530 C   0  0  1  0  0  0  0  0  0  0  0  0
    6.9440    0.2550   18.0100 N   0  0  0  0  0  0  0  0  0  0  0  0
    9.2641   -4.8861   25.8398 N   0  0  0  0  0  0  0  0  0  0  0  0
    8.0810   -0.9750   21.0820 N   0  0  0  0  0  0  0  0  0  0  0  0
    9.1870    1.1500   21.0630 O   0  0  0  0  0  0  0  0  0  0  0  0
    9.7695    5.0191   23.7662 S   0  0  0  0  0  0  0  0  0  0  0  0
    3.6256    2.0106   21.6303 H   0  0  0  0  0  0  0  0  0  0  0  0
    3.2724    2.7868   19.3204 H   0  0  0  0  0  0  0  0  0  0  0  0
    5.4858    0.4664   22.1692 H   0  0  0  0  0  0  0  0  0  0  0  0
    7.5957   -0.7779   24.7973 H   0  0  0  0  0  0  0  0  0  0  0  0
   11.0384   -2.1852   22.6338 H   0  0  0  0  0  0  0  0  0  0  0  0
    4.7836    2.0664   17.4848 H   0  0  0  0  0  0  0  0  0  0  0  0
    7.5634   -2.8637   26.1037 H   0  0  0  0  0  0  0  0  0  0  0  0
   11.0139   -4.2645   23.9419 H   0  0  0  0  0  0  0  0  0  0  0  0
   11.5890    1.9274   23.3518 H   0  0  0  0  0  0  0  0  0  0  0  0
    8.5274   -1.0858   18.3384 H   0  0  0  0  0  0  0  0  0  0  0  0
   12.0968    4.5045   23.2284 H   0  0  0  0  0  0  0  0  0  0  0  0
    7.7334    3.7598   24.2427 H   0  0  0  0  0  0  0  0  0  0  0  0
    7.8644   -7.6283   27.1289 H   0  0  0  0  0  0  0  0  0  0  0  0
    6.2830   -7.2423   26.4478 H   0  0  0  0  0  0  0  0  0  0  0  0
    6.6663   -4.8405   26.7221 H   0  0  0  0  0  0  0  0  0  0  0  0
    7.0062   -5.6400   28.2540 H   0  0  0  0  0  0  0  0  0  0  0  0
    8.0018   -7.8160   24.6962 H   0  0  0  0  0  0  0  0  0  0  0  0
    7.2963   -6.2182   24.4678 H   0  0  0  0  0  0  0  0  0  0  0  0
    8.7322   -3.9404   27.6532 H   0  0  0  0  0  0  0  0  0  0  0  0
    9.4260   -5.5610   27.8283 H   0  0  0  0  0  0  0  0  0  0  0  0
   10.0249   -6.8474   25.7028 H   0  0  0  0  0  0  0  0  0  0  0  0
    9.7015   -6.0700   24.1446 H   0  0  0  0  0  0  0  0  0  0  0  0
    8.9639    0.7632   25.0273 H   0  0  0  0  0  0  0  0  0  0  0  0
    7.7964    1.1765   23.7949 H   0  0  0  0  0  0  0  0  0  0  0  0
   10.5749    0.2253   22.9765 H   0  0  0  0  0  0  0  0  0  0  0  0
    7.0325    0.4238   17.0175 H   0  0  0  0  0  0  0  0  0  0  0  0
    8.1354   -1.7990   21.3694 H   0  0  0  0  0  0  0  0  0  0  0  0
  1  2  1  0  0  0  0
  1  3  2  0  0  0  0
  2  6  2  0  0  0  0
  3 13  1  0  0  0  0
  4  7  2  0  0  0  0
  4 14  1  0  0  0  0
  5  8  1  0  0  0  0
  5 14  2  0  0  0  0
  6 16  1  0  0  0  0
  7 17  1  0  0  0  0
  8 17  2  0  0  0  0
  9 11  2  0  0  0  0
  9 15  1  0  0  0  0
 10 18  2  0  0  0  0
 10 27  1  0  0  0  0
 11 31  1  0  0  0  0
 12 15  2  0  0  0  0
 12 31  1  0  0  0  0
 13 16  2  0  0  0  0
 13 18  1  0  0  0  0
 14 26  1  0  0  0  0
 15 25  1  0  0  0  0
 16 27  1  0  0  0  0
 17 28  1  0  0  0  0
 18 29  1  0  0  0  0
 19 26  1  1  0  0  0
 19 29  1  0  0  0  0
 19 30  2  0  0  0  0
 20 21  1  0  0  0  0
 20 22  1  0  0  0  0
 21 23  1  0  0  0  0
 22 24  1  0  0  0  0
 23 28  1  0  0  0  0
 24 28  1  0  0  0  0
 25 26  1  0  0  0  0
  1 32  1  0  0  0  0
  2 33  1  0  0  0  0
  3 34  1  0  0  0  0
  4 35  1  0  0  0  0
  5 36  1  0  0  0  0
  6 37  1  0  0  0  0
  7 38  1  0  0  0  0
  8 39  1  0  0  0  0
  9 40  1  0  0  0  0
 10 41  1  0  0  0  0
 11 42  1  0  0  0  0
 12 43  1  0  0  0  0
 20 44  1  0  0  0  0
 20 45  1  0  0  0  0
 21 46  1  0  0  0  0
 21 47  1  0  0  0  0
 22 48  1  0  0  0  0
 22 49  1  0  0  0  0
 23 50  1  0  0  0  0
 23 51  1  0  0  0  0
 24 52  1  0  0  0  0
 24 53  1  0  0  0  0
 25 54  1  0  0  0  0
 25 55  1  0  0  0  0
 26 56  1  0  0  0  0
 27 57  1  0  0  0  0
 29 58  1  0  0  0  0
M  END
> <clash_score>
0

> <docking_score>
-8.293770790100098

> <overlap_score>
0.8712783455848694

$$$$
BENZO_289_1
  -OEChem-08232013503D

 61 65  0     1  0  0  0  0  0999 V2000
   10.6051    5.0072   23.5714 C   0  0  0  0  0  0  0  0  0  0  0  0
    4.2970    1.6690   20.8430 C   0  0  0  0  0  0  0  0  0  0  0  0
    9.2931    4.8685   24.0240 C   0  0  0  0  0  0  0  0  0  0  0  0
   11.3561    3.8759   23.2522 C   0  0  0  0  0  0  0  0  0  0  0  0
    4.0980    2.1130   19.5350 C   0  0  0  0  0  0  0  0  0  0  0  0
    5.3360    0.8000   21.1530 C   0  0  0  0  0  0  0  0  0  0  0  0
    8.7320    3.5984   24.1576 C   0  0  0  0  0  0  0  0  0  0  0  0
   10.7950    2.6058   23.3857 C   0  0  0  0  0  0  0  0  0  0  0  0
    8.3510   -1.5420   24.6110 C   0  0  0  0  0  0  0  0  0  0  0  0
   10.2760   -2.3270   23.4020 C   0  0  0  0  0  0  0  0  0  0  0  0
    4.9400    1.7060   18.5060 C   0  0  0  0  0  0  0  0  0  0  0  0
    8.3310   -2.7170   25.3430 C   0  0  0  0  0  0  0  0  0  0  0  0
   10.2570   -3.5000   24.1350 C   0  0  0  0  0  0  0  0  0  0  0  0
    7.6830   -0.5170   18.7600 C   0  0  0  0  0  0  0  0  0  0  0  0
    6.1600    0.3870   20.1140 C   0  0  0  0  0  0  0  0  0  0  0  0
    9.4829    2.4671   23.8384 C   0  0  0  0  0  0  0  0  0  0  0  0
    9.3300   -1.3350   23.6390 C   0  0  0  0  0  0  0  0  0  0  0  0
    5.9810    0.8330   18.8060 C   0  0  0  0  0  0  0  0  0  0  0  0
    9.2850   -3.7090   25.1090 C   0  0  0  0  0  0  0  0  0  0  0  0
    7.2210   -0.4620   20.0350 C   0  0  0  0  0  0  0  0  0  0  0  0
    8.9510    0.1280   21.6880 C   0  0  0  0  0  0  0  0  0  0  0  0
    7.3211   -6.8875   26.5227 C   0  0  0  0  0  0  0  0  0  0  0  0
    7.3523   -5.5278   27.2244 C   0  0  0  0  0  0  0  0  0  0  0  0
    7.9422   -6.8107   25.1261 C   0  0  0  0  0  0  0  0  0  0  0  0
    8.7641   -4.9418   27.2163 C   0  0  0  0  0  0  0  0  0  0  0  0
    9.3411   -6.1879   25.1670 C   0  0  0  0  0  0  0  0  0  0  0  0
    8.8757    1.0906   23.9831 C   0  0  0  0  0  0  0  0  0  0  0  0
    9.4200   -0.0840   22.9530 C   0  0  1  0  0  0  0  0  0  0  0  0
    6.9440    0.2550   18.0100 N   0  0  0  0  0  0  0  0  0  0  0  0
    9.2641   -4.8861   25.8398 N   0  0  0  0  0  0  0  0  0  0  0  0
    8.0810   -0.9750   21.0820 N   0  0  0  0  0  0  0  0  0  0  0  0
    9.1870    1.1500   21.0630 O   0  0  0  0  0  0  0  0  0  0  0  0
   11.0414    5.9962   23.4662 H   0  0  0  0  0  0  0  0  0  0  0  0
    3.6256    2.0106   21.6303 H   0  0  0  0  0  0  0  0  0  0  0  0
    8.7078    5.7493   24.2716 H   0  0  0  0  0  0  0  0  0  0  0  0
   12.3772    3.9835   22.8987 H   0  0  0  0  0  0  0  0  0  0  0  0
    3.2724    2.7868   19.3204 H   0  0  0  0  0  0  0  0  0  0  0  0
    5.4858    0.4664   22.1692 H   0  0  0  0  0  0  0  0  0  0  0  0
    7.7090    3.4999   24.5112 H   0  0  0  0  0  0  0  0  0  0  0  0
   11.3876    1.7301   23.1348 H   0  0  0  0  0  0  0  0  0  0  0  0
    7.5957   -0.7779   24.7973 H   0  0  0  0  0  0  0  0  0  0  0  0
   11.0384   -2.1852   22.6338 H   0  0  0  0  0  0  0  0  0  0  0  0
    4.7836    2.0664   17.4848 H   0  0  0  0  0  0  0  0  0  0  0  0
    7.5634   -2.8637   26.1037 H   0  0  0  0  0  0  0  0  0  0  0  0
   11.0139   -4.2645   23.9419 H   0  0  0  0  0  0  0  0  0  0  0  0
    8.5274   -1.0858   18.3384 H   0  0  0  0  0  0  0  0  0  0  0  0
    7.8644   -7.6283   27.1289 H   0  0  0  0  0  0  0  0  0  0  0  0
    6.2830   -7.2423   26.4478 H   0  0  0  0  0  0  0  0  0  0  0  0
    6.6663   -4.8405   26.7221 H   0  0  0  0  0  0  0  0  0  0  0  0
    7.0062   -5.6400   28.2540 H   0  0  0  0  0  0  0  0  0  0  0  0
    8.0018   -7.8160   24.6962 H   0  0  0  0  0  0  0  0  0  0  0  0
    7.2963   -6.2182   24.4678 H   0  0  0  0  0  0  0  0  0  0  0  0
    8.7322   -3.9404   27.6532 H   0  0  0  0  0  0  0  0  0  0  0  0
    9.4260   -5.5610   27.8283 H   0  0  0  0  0  0  0  0  0  0  0  0
   10.0249   -6.8474   25.7028 H   0  0  0  0  0  0  0  0  0  0  0  0
    9.7015   -6.0700   24.1446 H   0  0  0  0  0  0  0  0  0  0  0  0
    8.9639    0.7632   25.0273 H   0  0  0  0  0  0  0  0  0  0  0  0
    7.7964    1.1765   23.7949 H   0  0  0  0  0  0  0  0  0  0  0  0
   10.5749    0.2253   22.9765 H   0  0  0  0  0  0  0  0  0  0  0  0
    7.0325    0.4238   17.0175 H   0  0  0  0  0  0  0  0  0  0  0  0
    8.1354   -1.7990   21.3694 H   0  0  0  0  0  0  0  0  0  0  0  0
  1  3  1  0  0  0  0
  1  4  2  0  0  0  0
  2  5  1  0  0  0  0
  2  6  2  0  0  0  0
  3  7  2  0  0  0  0
  4  8  1  0  0  0  0
  5 11  2  0  0  0  0
  6 15  1  0  0  0  0
  7 16  1  0  0  0  0
  8 16  2  0  0  0  0
  9 12  2  0  0  0  0
  9 17  1  0  0  0  0
 10 13  1  0  0  0  0
 10 17  2  0  0  0  0
 11 18  1  0  0  0  0
 12 19  1  0  0  0  0
 13 19  2  0  0  0  0
 14 20  2  0  0  0  0
 14 29  1  0  0  0  0
 15 18  2  0  0  0  0
 15 20  1  0  0  0  0
 16 27  1  0  0  0  0
 17 28  1  0  0  0  0
 18 29  1  0  0  0  0
 19 30  1  0  0  0  0
 20 31  1  0  0  0  0
 21 28  1  1  0  0  0
 21 31  1  0  0  0  0
 21 32  2  0  0  0  0
 22 23  1  0  0  0  0
 22 24  1  0  0  0  0
 23 25  1  0  0  0  0
 24 26  1  0  0  0  0
 25 30  1  0  0  0  0
 26 30  1  0  0  0  0
 27 28  1  0  0  0  0
  1 33  1  0  0  0  0
  2 34  1  0  0  0  0
  3 35  1  0  0  0  0
  4 36  1  0  0  0  0
  5 37  1  0  0  0  0
  6 38  1  0  0  0  0
  7 39  1  0  0  0  0
  8 40  1  0  0  0  0
  9 41  1  0  0  0  0
 10 42  1  0  0  0  0
 11 43  1  0  0  0  0
 12 44  1  0  0  0  0
 13 45  1  0  0  0  0
 14 46  1  0  0  0  0
 22 47  1  0  0  0  0
 22 48  1  0  0  0  0
 23 49  1  0  0  0  0
 23 50  1  0  0  0  0
 24 51  1  0  0  0  0
 24 52  1  0  0  0  0
 25 53  1  0  0  0  0
 25 54  1  0  0  0  0
 26 55  1  0  0  0  0
 26 56  1  0  0  0  0
 27 57  1  0  0  0  0
 27 58  1  0  0  0  0
 28 59  1  0  0  0  0
 29 60  1  0  0  0  0
 31 61  1  0  0  0  0
M  END
> <clash_score>
0

> <docking_score>
-8.574323654174805

> <overlap_score>
0.8739050030708313

$$$$
BENZO_288_2
  -OEChem-08232013503D

 58 62  0     1  0  0  0  0  0999 V2000
    4.2970    1.6690   20.8430 C   0  0  0  0  0  0  0  0  0  0  0  0
    4.0980    2.1130   19.5350 C   0  0  0  0  0  0  0  0  0  0  0  0
    5.3360    0.8000   21.1530 C   0  0  0  0  0  0  0  0  0  0  0  0
    8.3510   -1.5420   24.6110 C   0  0  0  0  0  0  0  0  0  0  0  0
   10.2760   -2.3270   23.4020 C   0  0  0  0  0  0  0  0  0  0  0  0
    4.9400    1.7060   18.5060 C   0  0  0  0  0  0  0  0  0  0  0  0
    8.3310   -2.7170   25.3430 C   0  0  0  0  0  0  0  0  0  0  0  0
   10.2570   -3.5000   24.1350 C   0  0  0  0  0  0  0  0  0  0  0  0
   11.9035    2.6860   22.1682 C   0  0  0  0  0  0  0  0  0  0  0  0
    7.6830   -0.5170   18.7600 C   0  0  0  0  0  0  0  0  0  0  0  0
   11.8836    4.0408   22.4165 C   0  0  0  0  0  0  0  0  0  0  0  0
   10.5617    2.7801   24.0637 C   0  0  0  0  0  0  0  0  0  0  0  0
    6.1600    0.3870   20.1140 C   0  0  0  0  0  0  0  0  0  0  0  0
    9.3300   -1.3350   23.6390 C   0  0  0  0  0  0  0  0  0  0  0  0
   11.1377    1.9556   23.1223 C   0  0  0  0  0  0  0  0  0  0  0  0
    5.9810    0.8330   18.8060 C   0  0  0  0  0  0  0  0  0  0  0  0
    9.2850   -3.7090   25.1090 C   0  0  0  0  0  0  0  0  0  0  0  0
    7.2210   -0.4620   20.0350 C   0  0  0  0  0  0  0  0  0  0  0  0
    8.9510    0.1280   21.6880 C   0  0  0  0  0  0  0  0  0  0  0  0
    7.3211   -6.8875   26.5227 C   0  0  0  0  0  0  0  0  0  0  0  0
    7.3523   -5.5278   27.2244 C   0  0  0  0  0  0  0  0  0  0  0  0
    7.9422   -6.8107   25.1261 C   0  0  0  0  0  0  0  0  0  0  0  0
    8.7641   -4.9418   27.2163 C   0  0  0  0  0  0  0  0  0  0  0  0
    9.3411   -6.1879   25.1670 C   0  0  0  0  0  0  0  0  0  0  0  0
   10.9782    0.4528   23.1025 C   0  0  0  0  0  0  0  0  0  0  0  0
    9.4200   -0.0840   22.9530 C   0  0  2  0  0  0  0  0  0  0  0  0
    6.9440    0.2550   18.0100 N   0  0  0  0  0  0  0  0  0  0  0  0
    9.2641   -4.8861   25.8398 N   0  0  0  0  0  0  0  0  0  0  0  0
    8.0810   -0.9750   21.0820 N   0  0  0  0  0  0  0  0  0  0  0  0
    9.1870    1.1500   21.0630 O   0  0  0  0  0  0  0  0  0  0  0  0
   10.9445    4.4275   23.7953 S   0  0  0  0  0  0  0  0  0  0  0  0
    3.6256    2.0106   21.6303 H   0  0  0  0  0  0  0  0  0  0  0  0
    3.2724    2.7868   19.3204 H   0  0  0  0  0  0  0  0  0  0  0  0
    5.4858    0.4664   22.1692 H   0  0  0  0  0  0  0  0  0  0  0  0
    7.5957   -0.7779   24.7973 H   0  0  0  0  0  0  0  0  0  0  0  0
   11.0384   -2.1852   22.6338 H   0  0  0  0  0  0  0  0  0  0  0  0
    4.7836    2.0664   17.4848 H   0  0  0  0  0  0  0  0  0  0  0  0
    7.5634   -2.8637   26.1037 H   0  0  0  0  0  0  0  0  0  0  0  0
   11.0139   -4.2645   23.9419 H   0  0  0  0  0  0  0  0  0  0  0  0
   12.4436    2.2440   21.3404 H   0  0  0  0  0  0  0  0  0  0  0  0
    8.5274   -1.0858   18.3384 H   0  0  0  0  0  0  0  0  0  0  0  0
   12.3760    4.8219   21.8548 H   0  0  0  0  0  0  0  0  0  0  0  0
    9.9349    2.4981   24.8983 H   0  0  0  0  0  0  0  0  0  0  0  0
    7.8644   -7.6283   27.1289 H   0  0  0  0  0  0  0  0  0  0  0  0
    6.2830   -7.2423   26.4478 H   0  0  0  0  0  0  0  0  0  0  0  0
    6.6663   -4.8405   26.7221 H   0  0  0  0  0  0  0  0  0  0  0  0
    7.0062   -5.6400   28.2540 H   0  0  0  0  0  0  0  0  0  0  0  0
    8.0018   -7.8160   24.6962 H   0  0  0  0  0  0  0  0  0  0  0  0
    7.2963   -6.2182   24.4678 H   0  0  0  0  0  0  0  0  0  0  0  0
    8.7322   -3.9404   27.6532 H   0  0  0  0  0  0  0  0  0  0  0  0
    9.4260   -5.5610   27.8283 H   0  0  0  0  0  0  0  0  0  0  0  0
   10.0249   -6.8474   25.7028 H   0  0  0  0  0  0  0  0  0  0  0  0
    9.7015   -6.0700   24.1446 H   0  0  0  0  0  0  0  0  0  0  0  0
   11.5374    0.0399   22.2527 H   0  0  0  0  0  0  0  0  0  0  0  0
   11.4700    0.0494   23.9985 H   0  0  0  0  0  0  0  0  0  0  0  0
    8.9187    0.7273   23.6745 H   0  0  0  0  0  0  0  0  0  0  0  0
    7.0325    0.4238   17.0175 H   0  0  0  0  0  0  0  0  0  0  0  0
    8.1354   -1.7990   21.3694 H   0  0  0  0  0  0  0  0  0  0  0  0
  1  2  1  0  0  0  0
  1  3  2  0  0  0  0
  2  6  2  0  0  0  0
  3 13  1  0  0  0  0
  4  7  2  0  0  0  0
  4 14  1  0  0  0  0
  5  8  1  0  0  0  0
  5 14  2  0  0  0  0
  6 16  1  0  0  0  0
  7 17  1  0  0  0  0
  8 17  2  0  0  0  0
  9 11  2  0  0  0  0
  9 15  1  0  0  0  0
 10 18  2  0  0  0  0
 10 27  1  0  0  0  0
 11 31  1  0  0  0  0
 12 15  2  0  0  0  0
 12 31  1  0  0  0  0
 13 16  2  0  0  0  0
 13 18  1  0  0  0  0
 14 26  1  0  0  0  0
 15 25  1  0  0  0  0
 16 27  1  0  0  0  0
 17 28  1  0  0  0  0
 18 29  1  0  0  0  0
 19 26  1  6  0  0  0
 19 29  1  0  0  0  0
 19 30  2  0  0  0  0
 20 21  1  0  0  0  0
 20 22  1  0  0  0  0
 21 23  1  0  0  0  0
 22 24  1  0  0  0  0
 23 28  1  0  0  0  0
 24 28  1  0  0  0  0
 25 26  1  0  0  0  0
  1 32  1  0  0  0  0
  2 33  1  0  0  0  0
  3 34  1  0  0  0  0
  4 35  1  0  0  0  0
  5 36  1  0  0  0  0
  6 37  1  0  0  0  0
  7 38  1  0  0  0  0
  8 39  1  0  0  0  0
  9 40  1  0  0  0  0
 10 41  1  0  0  0  0
 11 42  1  0  0  0  0
 12 43  1  0  0  0  0
 20 44  1  0  0  0  0
 20 45  1  0  0  0  0
 21 46  1  0  0  0  0
 21 47  1  0  0  0  0
 22 48  1  0  0  0  0
 22 49  1  0  0  0  0
 23 50  1  0  0  0  0
 23 51  1  0  0  0  0
 24 52  1  0  0  0  0
 24 53  1  0  0  0  0
 25 54  1  0  0  0  0
 25 55  1  0  0  0  0
 26 56  1  0  0  0  0
 27 57  1  0  0  0  0
 29 58  1  0  0  0  0
M  END
> <clash_score>
0

> <docking_score>
-8.2429838180542

> <overlap_score>
0.9346765875816345

$$$$
BENZO_287_1
  -OEChem-08232013503D

 56 59  0     1  0  0  0  0  0999 V2000
    4.2970    1.6690   20.8430 C   0  0  0  0  0  0  0  0  0  0  0  0
    4.0980    2.1130   19.5350 C   0  0  0  0  0  0  0  0  0  0  0  0
    5.3360    0.8000   21.1530 C   0  0  0  0  0  0  0  0  0  0  0  0
    8.3510   -1.5420   24.6110 C   0  0  0  0  0  0  0  0  0  0  0  0
   10.2760   -2.3270   23.4020 C   0  0  0  0  0  0  0  0  0  0  0  0
    4.9400    1.7060   18.5060 C   0  0  0  0  0  0  0  0  0  0  0  0
    8.3310   -2.7170   25.3430 C   0  0  0  0  0  0  0  0  0  0  0  0
   10.2570   -3.5000   24.1350 C   0  0  0  0  0  0  0  0  0  0  0  0
   10.2235    2.9023   23.6242 C   0  0  0  0  0  0  0  0  0  0  0  0
   12.2091    2.6870   22.7043 C   0  0  0  0  0  0  0  0  0  0  0  0
    7.6830   -0.5170   18.7600 C   0  0  0  0  0  0  0  0  0  0  0  0
    6.1600    0.3870   20.1140 C   0  0  0  0  0  0  0  0  0  0  0  0
    9.3300   -1.3350   23.6390 C   0  0  0  0  0  0  0  0  0  0  0  0
   11.1370    1.9470   23.1397 C   0  0  0  0  0  0  0  0  0  0  0  0
    5.9810    0.8330   18.8060 C   0  0  0  0  0  0  0  0  0  0  0  0
    9.2850   -3.7090   25.1090 C   0  0  0  0  0  0  0  0  0  0  0  0
    7.2210   -0.4620   20.0350 C   0  0  0  0  0  0  0  0  0  0  0  0
    8.1532   -5.5459   26.3982 C   0  0  0  0  0  0  0  0  0  0  0  0
    8.9510    0.1280   21.6880 C   0  0  0  0  0  0  0  0  0  0  0  0
    9.2299   -7.8281   26.2037 C   0  0  0  0  0  0  0  0  0  0  0  0
   12.7031    5.1430   22.6554 C   0  0  0  0  0  0  0  0  0  0  0  0
   10.9777    0.4443   23.1075 C   0  0  0  0  0  0  0  0  0  0  0  0
    8.5721   -6.8157   27.1241 C   0  0  0  0  0  0  0  0  0  0  0  0
    9.4200   -0.0840   22.9530 C   0  0  1  0  0  0  0  0  0  0  0  0
   10.6758    4.1536   23.5079 N   0  0  0  0  0  0  0  0  0  0  0  0
    6.9440    0.2550   18.0100 N   0  0  0  0  0  0  0  0  0  0  0  0
   11.8853    3.9898   22.9453 N   0  0  0  0  0  0  0  0  0  0  0  0
    9.2630   -4.8903   25.8409 N   0  0  0  0  0  0  0  0  0  0  0  0
    8.0810   -0.9750   21.0820 N   0  0  0  0  0  0  0  0  0  0  0  0
    6.9817   -5.1874   26.3377 O   0  0  0  0  0  0  0  0  0  0  0  0
    9.1870    1.1500   21.0630 O   0  0  0  0  0  0  0  0  0  0  0  0
    3.6256    2.0106   21.6303 H   0  0  0  0  0  0  0  0  0  0  0  0
    3.2724    2.7868   19.3204 H   0  0  0  0  0  0  0  0  0  0  0  0
    5.4858    0.4664   22.1692 H   0  0  0  0  0  0  0  0  0  0  0  0
    7.5948   -0.7783   24.7966 H   0  0  0  0  0  0  0  0  0  0  0  0
   11.0389   -2.1844   22.6342 H   0  0  0  0  0  0  0  0  0  0  0  0
    4.7836    2.0664   17.4848 H   0  0  0  0  0  0  0  0  0  0  0  0
    7.5642   -2.8624   26.1050 H   0  0  0  0  0  0  0  0  0  0  0  0
   11.0137   -4.2649   23.9418 H   0  0  0  0  0  0  0  0  0  0  0  0
    9.2470    2.7411   24.0585 H   0  0  0  0  0  0  0  0  0  0  0  0
   13.1519    2.4044   22.2557 H   0  0  0  0  0  0  0  0  0  0  0  0
    8.5274   -1.0858   18.3384 H   0  0  0  0  0  0  0  0  0  0  0  0
    8.5551   -8.1180   25.3915 H   0  0  0  0  0  0  0  0  0  0  0  0
    9.5014   -8.7298   26.7611 H   0  0  0  0  0  0  0  0  0  0  0  0
   10.1397   -7.4172   25.7536 H   0  0  0  0  0  0  0  0  0  0  0  0
   12.4640    5.4803   21.6435 H   0  0  0  0  0  0  0  0  0  0  0  0
   12.4902    5.9323   23.3818 H   0  0  0  0  0  0  0  0  0  0  0  0
   13.7583    4.8651   22.7277 H   0  0  0  0  0  0  0  0  0  0  0  0
   11.5363    0.0386   22.2539 H   0  0  0  0  0  0  0  0  0  0  0  0
   11.4704    0.0336   23.9998 H   0  0  0  0  0  0  0  0  0  0  0  0
    9.2685   -6.5440   27.9257 H   0  0  0  0  0  0  0  0  0  0  0  0
    7.6830   -7.2628   27.5835 H   0  0  0  0  0  0  0  0  0  0  0  0
    8.9182    0.7194   23.6789 H   0  0  0  0  0  0  0  0  0  0  0  0
    7.0325    0.4238   17.0175 H   0  0  0  0  0  0  0  0  0  0  0  0
   10.1695   -5.3467   25.9960 H   0  0  0  0  0  0  0  0  0  0  0  0
    8.1175   -1.8104   21.3538 H   0  0  0  0  0  0  0  0  0  0  0  0
  1  2  1  0  0  0  0
  1  3  2  0  0  0  0
  2  6  2  0  0  0  0
  3 12  1  0  0  0  0
  4  7  2  0  0  0  0
  4 13  1  0  0  0  0
  5  8  1  0  0  0  0
  5 13  2  0  0  0  0
  6 15  1  0  0  0  0
  7 16  1  0  0  0  0
  8 16  2  0  0  0  0
  9 14  1  0  0  0  0
  9 25  2  0  0  0  0
 10 14  2  0  0  0  0
 10 27  1  0  0  0  0
 11 17  2  0  0  0  0
 11 26  1  0  0  0  0
 12 15  2  0  0  0  0
 12 17  1  0  0  0  0
 13 24  1  0  0  0  0
 14 22  1  0  0  0  0
 15 26  1  0  0  0  0
 16 28  1  0  0  0  0
 17 29  1  0  0  0  0
 18 23  1  0  0  0  0
 18 28  1  0  0  0  0
 18 30  2  0  0  0  0
 19 24  1  0  0  0  0
 19 29  1  0  0  0  0
 19 31  2  0  0  0  0
 20 23  1  0  0  0  0
 21 27  1  0  0  0  0
 22 24  1  1  0  0  0
 25 27  1  0  0  0  0
  1 32  1  0  0  0  0
  2 33  1  0  0  0  0
  3 34  1  0  0  0  0
  4 35  1  0  0  0  0
  5 36  1  0  0  0  0
  6 37  1  0  0  0  0
  7 38  1  0  0  0  0
  8 39  1  0  0  0  0
  9 40  1  0  0  0  0
 10 41  1  0  0  0  0
 11 42  1  0  0  0  0
 20 43  1  0  0  0  0
 20 44  1  0  0  0  0
 20 45  1  0  0  0  0
 21 46  1  0  0  0  0
 21 47  1  0  0  0  0
 21 48  1  0  0  0  0
 22 49  1  0  0  0  0
 22 50  1  0  0  0  0
 23 51  1  0  0  0  0
 23 52  1  0  0  0  0
 24 53  1  0  0  0  0
 26 54  1  0  0  0  0
 28 55  1  0  0  0  0
 29 56  1  0  0  0  0
M  END
> <clash_score>
1.2358167048071818

> <docking_score>
-9.067492485046387

> <overlap_score>
0.933341920375824

$$$$
BENZO_287_2
  -OEChem-08232013503D

 56 59  0     1  0  0  0  0  0999 V2000
    4.2970    1.6690   20.8430 C   0  0  0  0  0  0  0  0  0  0  0  0
    4.0980    2.1130   19.5350 C   0  0  0  0  0  0  0  0  0  0  0  0
    5.3360    0.8000   21.1530 C   0  0  0  0  0  0  0  0  0  0  0  0
    8.3510   -1.5420   24.6110 C   0  0  0  0  0  0  0  0  0  0  0  0
   10.2760   -2.3270   23.4020 C   0  0  0  0  0  0  0  0  0  0  0  0
    4.9400    1.7060   18.5060 C   0  0  0  0  0  0  0  0  0  0  0  0
    8.3310   -2.7170   25.3430 C   0  0  0  0  0  0  0  0  0  0  0  0
   10.2570   -3.5000   24.1350 C   0  0  0  0  0  0  0  0  0  0  0  0
   10.7939    2.7770   23.4177 C   0  0  0  0  0  0  0  0  0  0  0  0
    8.9123    3.6676   24.1257 C   0  0  0  0  0  0  0  0  0  0  0  0
    7.6830   -0.5170   18.7600 C   0  0  0  0  0  0  0  0  0  0  0  0
    6.1600    0.3870   20.1140 C   0  0  0  0  0  0  0  0  0  0  0  0
    9.3300   -1.3350   23.6390 C   0  0  0  0  0  0  0  0  0  0  0  0
    9.4950    2.4539   23.8539 C   0  0  0  0  0  0  0  0  0  0  0  0
    5.9810    0.8330   18.8060 C   0  0  0  0  0  0  0  0  0  0  0  0
    9.2850   -3.7090   25.1090 C   0  0  0  0  0  0  0  0  0  0  0  0
    7.2210   -0.4620   20.0350 C   0  0  0  0  0  0  0  0  0  0  0  0
    8.1532   -5.5459   26.3982 C   0  0  0  0  0  0  0  0  0  0  0  0
    8.9510    0.1280   21.6880 C   0  0  0  0  0  0  0  0  0  0  0  0
    9.2299   -7.8281   26.2037 C   0  0  0  0  0  0  0  0  0  0  0  0
    9.7138    6.0371   23.9775 C   0  0  0  0  0  0  0  0  0  0  0  0
    8.8771    1.0813   23.9905 C   0  0  0  0  0  0  0  0  0  0  0  0
    8.5721   -6.8157   27.1241 C   0  0  0  0  0  0  0  0  0  0  0  0
    9.4200   -0.0840   22.9530 C   0  0  2  0  0  0  0  0  0  0  0  0
   11.0232    4.0928   23.4110 N   0  0  0  0  0  0  0  0  0  0  0  0
    6.9440    0.2550   18.0100 N   0  0  0  0  0  0  0  0  0  0  0  0
    9.8605    4.6073   23.8463 N   0  0  0  0  0  0  0  0  0  0  0  0
    9.2630   -4.8903   25.8409 N   0  0  0  0  0  0  0  0  0  0  0  0
    8.0810   -0.9750   21.0820 N   0  0  0  0  0  0  0  0  0  0  0  0
    6.9817   -5.1874   26.3377 O   0  0  0  0  0  0  0  0  0  0  0  0
    9.1870    1.1500   21.0630 O   0  0  0  0  0  0  0  0  0  0  0  0
    3.6256    2.0106   21.6303 H   0  0  0  0  0  0  0  0  0  0  0  0
    3.2724    2.7868   19.3204 H   0  0  0  0  0  0  0  0  0  0  0  0
    5.4858    0.4664   22.1692 H   0  0  0  0  0  0  0  0  0  0  0  0
    7.5948   -0.7783   24.7966 H   0  0  0  0  0  0  0  0  0  0  0  0
   11.0389   -2.1844   22.6342 H   0  0  0  0  0  0  0  0  0  0  0  0
    4.7836    2.0664   17.4848 H   0  0  0  0  0  0  0  0  0  0  0  0
    7.5642   -2.8624   26.1050 H   0  0  0  0  0  0  0  0  0  0  0  0
   11.0137   -4.2649   23.9418 H   0  0  0  0  0  0  0  0  0  0  0  0
   11.5843    2.1103   23.1031 H   0  0  0  0  0  0  0  0  0  0  0  0
    7.9277    3.9360   24.4839 H   0  0  0  0  0  0  0  0  0  0  0  0
    8.5274   -1.0858   18.3384 H   0  0  0  0  0  0  0  0  0  0  0  0
    8.5551   -8.1180   25.3915 H   0  0  0  0  0  0  0  0  0  0  0  0
    9.5014   -8.7298   26.7611 H   0  0  0  0  0  0  0  0  0  0  0  0
   10.1397   -7.4172   25.7536 H   0  0  0  0  0  0  0  0  0  0  0  0
   10.0225    6.3165   24.9883 H   0  0  0  0  0  0  0  0  0  0  0  0
   10.3410    6.5371   23.2342 H   0  0  0  0  0  0  0  0  0  0  0  0
    8.6688    6.3103   23.8064 H   0  0  0  0  0  0  0  0  0  0  0  0
    8.9708    0.7434   25.0308 H   0  0  0  0  0  0  0  0  0  0  0  0
    7.7972    1.1781   23.8117 H   0  0  0  0  0  0  0  0  0  0  0  0
    9.2685   -6.5440   27.9257 H   0  0  0  0  0  0  0  0  0  0  0  0
    7.6830   -7.2628   27.5835 H   0  0  0  0  0  0  0  0  0  0  0  0
   10.5743    0.2174   22.9808 H   0  0  0  0  0  0  0  0  0  0  0  0
    7.0325    0.4238   17.0175 H   0  0  0  0  0  0  0  0  0  0  0  0
   10.1695   -5.3467   25.9960 H   0  0  0  0  0  0  0  0  0  0  0  0
    8.1175   -1.8104   21.3538 H   0  0  0  0  0  0  0  0  0  0  0  0
  1  2  1  0  0  0  0
  1  3  2  0  0  0  0
  2  6  2  0  0  0  0
  3 12  1  0  0  0  0
  4  7  2  0  0  0  0
  4 13  1  0  0  0  0
  5  8  1  0  0  0  0
  5 13  2  0  0  0  0
  6 15  1  0  0  0  0
  7 16  1  0  0  0  0
  8 16  2  0  0  0  0
  9 14  1  0  0  0  0
  9 25  2  0  0  0  0
 10 14  2  0  0  0  0
 10 27  1  0  0  0  0
 11 17  2  0  0  0  0
 11 26  1  0  0  0  0
 12 15  2  0  0  0  0
 12 17  1  0  0  0  0
 13 24  1  0  0  0  0
 14 22  1  0  0  0  0
 15 26  1  0  0  0  0
 16 28  1  0  0  0  0
 17 29  1  0  0  0  0
 18 23  1  0  0  0  0
 18 28  1  0  0  0  0
 18 30  2  0  0  0  0
 19 24  1  0  0  0  0
 19 29  1  0  0  0  0
 19 31  2  0  0  0  0
 20 23  1  0  0  0  0
 21 27  1  0  0  0  0
 22 24  1  6  0  0  0
 25 27  1  0  0  0  0
  1 32  1  0  0  0  0
  2 33  1  0  0  0  0
  3 34  1  0  0  0  0
  4 35  1  0  0  0  0
  5 36  1  0  0  0  0
  6 37  1  0  0  0  0
  7 38  1  0  0  0  0
  8 39  1  0  0  0  0
  9 40  1  0  0  0  0
 10 41  1  0  0  0  0
 11 42  1  0  0  0  0
 20 43  1  0  0  0  0
 20 44  1  0  0  0  0
 20 45  1  0  0  0  0
 21 46  1  0  0  0  0
 21 47  1  0  0  0  0
 21 48  1  0  0  0  0
 22 49  1  0  0  0  0
 22 50  1  0  0  0  0
 23 51  1  0  0  0  0
 23 52  1  0  0  0  0
 24 53  1  0  0  0  0
 26 54  1  0  0  0  0
 28 55  1  0  0  0  0
 29 56  1  0  0  0  0
M  END
> <clash_score>
1.2358167048071818

> <docking_score>
-7.871797561645508

> <overlap_score>
0.8602931499481201

$$$$
BENZO_292_1
  -OEChem-08232013503D

 46 49  0     1  0  0  0  0  0999 V2000
    4.2970    1.6690   20.8430 C   0  0  0  0  0  0  0  0  0  0  0  0
    4.0980    2.1130   19.5350 C   0  0  0  0  0  0  0  0  0  0  0  0
    5.3360    0.8000   21.1530 C   0  0  0  0  0  0  0  0  0  0  0  0
    8.3310   -2.7170   25.3430 C   0  0  0  0  0  0  0  0  0  0  0  0
   10.2570   -3.5000   24.1350 C   0  0  0  0  0  0  0  0  0  0  0  0
    8.3510   -1.5420   24.6110 C   0  0  0  0  0  0  0  0  0  0  0  0
   10.2760   -2.3270   23.4020 C   0  0  0  0  0  0  0  0  0  0  0  0
    4.9400    1.7060   18.5060 C   0  0  0  0  0  0  0  0  0  0  0  0
   11.9019    2.6854   22.1912 C   0  0  0  0  0  0  0  0  0  0  0  0
    7.6830   -0.5170   18.7600 C   0  0  0  0  0  0  0  0  0  0  0  0
   11.8820    4.0381   22.4508 C   0  0  0  0  0  0  0  0  0  0  0  0
   10.5617    2.7635   24.0885 C   0  0  0  0  0  0  0  0  0  0  0  0
    6.1600    0.3870   20.1140 C   0  0  0  0  0  0  0  0  0  0  0  0
    9.2850   -3.7090   25.1090 C   0  0  0  0  0  0  0  0  0  0  0  0
    9.3300   -1.3350   23.6390 C   0  0  0  0  0  0  0  0  0  0  0  0
   11.1370    1.9470   23.1397 C   0  0  0  0  0  0  0  0  0  0  0  0
    5.9810    0.8330   18.8060 C   0  0  0  0  0  0  0  0  0  0  0  0
    7.2210   -0.4620   20.0350 C   0  0  0  0  0  0  0  0  0  0  0  0
    8.9510    0.1280   21.6880 C   0  0  0  0  0  0  0  0  0  0  0  0
    9.2618   -4.9724   25.8910 C   0  0  0  0  0  0  0  0  0  0  0  0
   10.9777    0.4443   23.1075 C   0  0  0  0  0  0  0  0  0  0  0  0
    9.4200   -0.0840   22.9530 C   0  0  1  0  0  0  0  0  0  0  0  0
    6.9440    0.2550   18.0100 N   0  0  0  0  0  0  0  0  0  0  0  0
    8.0810   -0.9750   21.0820 N   0  0  0  0  0  0  0  0  0  0  0  0
    9.1870    1.1500   21.0630 O   0  0  0  0  0  0  0  0  0  0  0  0
   10.9440    4.4131   23.8335 S   0  0  0  0  0  0  0  0  0  0  0  0
    3.6256    2.0106   21.6303 H   0  0  0  0  0  0  0  0  0  0  0  0
    3.2724    2.7868   19.3204 H   0  0  0  0  0  0  0  0  0  0  0  0
    5.4858    0.4664   22.1692 H   0  0  0  0  0  0  0  0  0  0  0  0
    7.5655   -2.8644   26.1055 H   0  0  0  0  0  0  0  0  0  0  0  0
   11.0125   -4.2662   23.9435 H   0  0  0  0  0  0  0  0  0  0  0  0
    7.5953   -0.7782   24.7971 H   0  0  0  0  0  0  0  0  0  0  0  0
   11.0394   -2.1837   22.6349 H   0  0  0  0  0  0  0  0  0  0  0  0
    4.7836    2.0664   17.4848 H   0  0  0  0  0  0  0  0  0  0  0  0
   12.4414    2.2505   21.3593 H   0  0  0  0  0  0  0  0  0  0  0  0
    8.5274   -1.0858   18.3384 H   0  0  0  0  0  0  0  0  0  0  0  0
   12.3738    4.8240   21.8953 H   0  0  0  0  0  0  0  0  0  0  0  0
    9.9357    2.4743   24.9213 H   0  0  0  0  0  0  0  0  0  0  0  0
    8.6408   -5.7227   25.3864 H   0  0  0  0  0  0  0  0  0  0  0  0
   10.2726   -5.3829   26.0135 H   0  0  0  0  0  0  0  0  0  0  0  0
    8.8606   -4.8102   26.9000 H   0  0  0  0  0  0  0  0  0  0  0  0
   11.5363    0.0386   22.2539 H   0  0  0  0  0  0  0  0  0  0  0  0
   11.4704    0.0336   23.9998 H   0  0  0  0  0  0  0  0  0  0  0  0
    8.9182    0.7194   23.6789 H   0  0  0  0  0  0  0  0  0  0  0  0
    7.0325    0.4238   17.0175 H   0  0  0  0  0  0  0  0  0  0  0  0
    8.1175   -1.8104   21.3538 H   0  0  0  0  0  0  0  0  0  0  0  0
  1  2  1  0  0  0  0
  1  3  2  0  0  0  0
  2  8  2  0  0  0  0
  3 13  1  0  0  0  0
  4  6  2  0  0  0  0
  4 14  1  0  0  0  0
  5  7  1  0  0  0  0
  5 14  2  0  0  0  0
  6 15  1  0  0  0  0
  7 15  2  0  0  0  0
  8 17  1  0  0  0  0
  9 11  2  0  0  0  0
  9 16  1  0  0  0  0
 10 18  2  0  0  0  0
 10 23  1  0  0  0  0
 11 26  1  0  0  0  0
 12 16  2  0  0  0  0
 12 26  1  0  0  0  0
 13 17  2  0  0  0  0
 13 18  1  0  0  0  0
 14 20  1  0  0  0  0
 15 22  1  0  0  0  0
 16 21  1  0  0  0  0
 17 23  1  0  0  0  0
 18 24  1  0  0  0  0
 19 22  1  0  0  0  0
 19 24  1  0  0  0  0
 19 25  2  0  0  0  0
 21 22  1  1  0  0  0
  1 27  1  0  0  0  0
  2 28  1  0  0  0  0
  3 29  1  0  0  0  0
  4 30  1  0  0  0  0
  5 31  1  0  0  0  0
  6 32  1  0  0  0  0
  7 33  1  0  0  0  0
  8 34  1  0  0  0  0
  9 35  1  0  0  0  0
 10 36  1  0  0  0  0
 11 37  1  0  0  0  0
 12 38  1  0  0  0  0
 20 39  1  0  0  0  0
 20 40  1  0  0  0  0
 20 41  1  0  0  0  0
 21 42  1  0  0  0  0
 21 43  1  0  0  0  0
 22 44  1  0  0  0  0
 23 45  1  0  0  0  0
 24 46  1  0  0  0  0
M  END
> <clash_score>
0

> <docking_score>
-9.223492622375488

> <overlap_score>
0.8904837369918823

$$$$
BENZO_293_2
  -OEChem-08232013503D

 49 52  0     1  0  0  0  0  0999 V2000
   10.6367    4.9868   23.6018 C   0  0  0  0  0  0  0  0  0  0  0  0
    4.2970    1.6690   20.8430 C   0  0  0  0  0  0  0  0  0  0  0  0
    9.3228    4.8557   24.0511 C   0  0  0  0  0  0  0  0  0  0  0  0
   11.3798    3.8515   23.2784 C   0  0  0  0  0  0  0  0  0  0  0  0
    4.0980    2.1130   19.5350 C   0  0  0  0  0  0  0  0  0  0  0  0
    5.3360    0.8000   21.1530 C   0  0  0  0  0  0  0  0  0  0  0  0
    8.7519    3.5893   24.1772 C   0  0  0  0  0  0  0  0  0  0  0  0
   10.8090    2.5851   23.4045 C   0  0  0  0  0  0  0  0  0  0  0  0
    8.3310   -2.7170   25.3430 C   0  0  0  0  0  0  0  0  0  0  0  0
   10.2570   -3.5000   24.1350 C   0  0  0  0  0  0  0  0  0  0  0  0
    8.3510   -1.5420   24.6110 C   0  0  0  0  0  0  0  0  0  0  0  0
   10.2760   -2.3270   23.4020 C   0  0  0  0  0  0  0  0  0  0  0  0
    4.9400    1.7060   18.5060 C   0  0  0  0  0  0  0  0  0  0  0  0
    7.6830   -0.5170   18.7600 C   0  0  0  0  0  0  0  0  0  0  0  0
    6.1600    0.3870   20.1140 C   0  0  0  0  0  0  0  0  0  0  0  0
    9.2850   -3.7090   25.1090 C   0  0  0  0  0  0  0  0  0  0  0  0
    9.4950    2.4539   23.8539 C   0  0  0  0  0  0  0  0  0  0  0  0
    9.3300   -1.3350   23.6390 C   0  0  0  0  0  0  0  0  0  0  0  0
    5.9810    0.8330   18.8060 C   0  0  0  0  0  0  0  0  0  0  0  0
    7.2210   -0.4620   20.0350 C   0  0  0  0  0  0  0  0  0  0  0  0
    8.9510    0.1280   21.6880 C   0  0  0  0  0  0  0  0  0  0  0  0
    9.2618   -4.9724   25.8910 C   0  0  0  0  0  0  0  0  0  0  0  0
    8.8771    1.0813   23.9905 C   0  0  0  0  0  0  0  0  0  0  0  0
    9.4200   -0.0840   22.9530 C   0  0  2  0  0  0  0  0  0  0  0  0
    6.9440    0.2550   18.0100 N   0  0  0  0  0  0  0  0  0  0  0  0
    8.0810   -0.9750   21.0820 N   0  0  0  0  0  0  0  0  0  0  0  0
    9.1870    1.1500   21.0630 O   0  0  0  0  0  0  0  0  0  0  0  0
   11.0806    5.9731   23.5024 H   0  0  0  0  0  0  0  0  0  0  0  0
    3.6256    2.0106   21.6303 H   0  0  0  0  0  0  0  0  0  0  0  0
    8.7437    5.7397   24.3019 H   0  0  0  0  0  0  0  0  0  0  0  0
   12.4025    3.9533   22.9274 H   0  0  0  0  0  0  0  0  0  0  0  0
    3.2724    2.7868   19.3204 H   0  0  0  0  0  0  0  0  0  0  0  0
    5.4858    0.4664   22.1692 H   0  0  0  0  0  0  0  0  0  0  0  0
    7.7275    3.4967   24.5283 H   0  0  0  0  0  0  0  0  0  0  0  0
   11.3955    1.7061   23.1503 H   0  0  0  0  0  0  0  0  0  0  0  0
    7.5655   -2.8644   26.1055 H   0  0  0  0  0  0  0  0  0  0  0  0
   11.0125   -4.2662   23.9435 H   0  0  0  0  0  0  0  0  0  0  0  0
    7.5953   -0.7782   24.7971 H   0  0  0  0  0  0  0  0  0  0  0  0
   11.0394   -2.1837   22.6349 H   0  0  0  0  0  0  0  0  0  0  0  0
    4.7836    2.0664   17.4848 H   0  0  0  0  0  0  0  0  0  0  0  0
    8.5274   -1.0858   18.3384 H   0  0  0  0  0  0  0  0  0  0  0  0
    8.6408   -5.7227   25.3864 H   0  0  0  0  0  0  0  0  0  0  0  0
   10.2726   -5.3829   26.0135 H   0  0  0  0  0  0  0  0  0  0  0  0
    8.8606   -4.8102   26.9000 H   0  0  0  0  0  0  0  0  0  0  0  0
    8.9708    0.7434   25.0308 H   0  0  0  0  0  0  0  0  0  0  0  0
    7.7972    1.1781   23.8117 H   0  0  0  0  0  0  0  0  0  0  0  0
   10.5743    0.2174   22.9808 H   0  0  0  0  0  0  0  0  0  0  0  0
    7.0325    0.4238   17.0175 H   0  0  0  0  0  0  0  0  0  0  0  0
    8.1175   -1.8104   21.3538 H   0  0  0  0  0  0  0  0  0  0  0  0
  1  3  1  0  0  0  0
  1  4  2  0  0  0  0
  2  5  1  0  0  0  0
  2  6  2  0  0  0  0
  3  7  2  0  0  0  0
  4  8  1  0  0  0  0
  5 13  2  0  0  0  0
  6 15  1  0  0  0  0
  7 17  1  0  0  0  0
  8 17  2  0  0  0  0
  9 11  2  0  0  0  0
  9 16  1  0  0  0  0
 10 12  1  0  0  0  0
 10 16  2  0  0  0  0
 11 18  1  0  0  0  0
 12 18  2  0  0  0  0
 13 19  1  0  0  0  0
 14 20  2  0  0  0  0
 14 25  1  0  0  0  0
 15 19  2  0  0  0  0
 15 20  1  0  0  0  0
 16 22  1  0  0  0  0
 17 23  1  0  0  0  0
 18 24  1  0  0  0  0
 19 25  1  0  0  0  0
 20 26  1  0  0  0  0
 21 24  1  0  0  0  0
 21 26  1  0  0  0  0
 21 27  2  0  0  0  0
 23 24  1  6  0  0  0
  1 28  1  0  0  0  0
  2 29  1  0  0  0  0
  3 30  1  0  0  0  0
  4 31  1  0  0  0  0
  5 32  1  0  0  0  0
  6 33  1  0  0  0  0
  7 34  1  0  0  0  0
  8 35  1  0  0  0  0
  9 36  1  0  0  0  0
 10 37  1  0  0  0  0
 11 38  1  0  0  0  0
 12 39  1  0  0  0  0
 13 40  1  0  0  0  0
 14 41  1  0  0  0  0
 22 42  1  0  0  0  0
 22 43  1  0  0  0  0
 22 44  1  0  0  0  0
 23 45  1  0  0  0  0
 23 46  1  0  0  0  0
 24 47  1  0  0  0  0
 25 48  1  0  0  0  0
 26 49  1  0  0  0  0
M  END
> <clash_score>
0

> <docking_score>
-9.567681312561035

> <overlap_score>
0.8297222852706909

$$$$
BENZO_293_1
  -OEChem-08232013503D

 49 52  0     1  0  0  0  0  0999 V2000
   11.4296    4.7207   23.1993 C   0  0  0  0  0  0  0  0  0  0  0  0
    4.2970    1.6690   20.8430 C   0  0  0  0  0  0  0  0  0  0  0  0
   12.4494    3.9228   22.6806 C   0  0  0  0  0  0  0  0  0  0  0  0
   10.2636    4.1317   23.6883 C   0  0  0  0  0  0  0  0  0  0  0  0
    4.0980    2.1130   19.5350 C   0  0  0  0  0  0  0  0  0  0  0  0
    5.3360    0.8000   21.1530 C   0  0  0  0  0  0  0  0  0  0  0  0
   12.3031    2.5360   22.6508 C   0  0  0  0  0  0  0  0  0  0  0  0
   10.1173    2.7449   23.6585 C   0  0  0  0  0  0  0  0  0  0  0  0
    8.3310   -2.7170   25.3430 C   0  0  0  0  0  0  0  0  0  0  0  0
   10.2570   -3.5000   24.1350 C   0  0  0  0  0  0  0  0  0  0  0  0
    8.3510   -1.5420   24.6110 C   0  0  0  0  0  0  0  0  0  0  0  0
   10.2760   -2.3270   23.4020 C   0  0  0  0  0  0  0  0  0  0  0  0
    4.9400    1.7060   18.5060 C   0  0  0  0  0  0  0  0  0  0  0  0
    7.6830   -0.5170   18.7600 C   0  0  0  0  0  0  0  0  0  0  0  0
    6.1600    0.3870   20.1140 C   0  0  0  0  0  0  0  0  0  0  0  0
    9.2850   -3.7090   25.1090 C   0  0  0  0  0  0  0  0  0  0  0  0
   11.1370    1.9470   23.1397 C   0  0  0  0  0  0  0  0  0  0  0  0
    9.3300   -1.3350   23.6390 C   0  0  0  0  0  0  0  0  0  0  0  0
    5.9810    0.8330   18.8060 C   0  0  0  0  0  0  0  0  0  0  0  0
    7.2210   -0.4620   20.0350 C   0  0  0  0  0  0  0  0  0  0  0  0
    8.9510    0.1280   21.6880 C   0  0  0  0  0  0  0  0  0  0  0  0
    9.2618   -4.9724   25.8910 C   0  0  0  0  0  0  0  0  0  0  0  0
   10.9777    0.4443   23.1075 C   0  0  0  0  0  0  0  0  0  0  0  0
    9.4200   -0.0840   22.9530 C   0  0  1  0  0  0  0  0  0  0  0  0
    6.9440    0.2550   18.0100 N   0  0  0  0  0  0  0  0  0  0  0  0
    8.0810   -0.9750   21.0820 N   0  0  0  0  0  0  0  0  0  0  0  0
    9.1870    1.1500   21.0630 O   0  0  0  0  0  0  0  0  0  0  0  0
   11.5443    5.8005   23.2237 H   0  0  0  0  0  0  0  0  0  0  0  0
    3.6256    2.0106   21.6303 H   0  0  0  0  0  0  0  0  0  0  0  0
   13.3579    4.3812   22.3008 H   0  0  0  0  0  0  0  0  0  0  0  0
    9.4699    4.7525   24.0932 H   0  0  0  0  0  0  0  0  0  0  0  0
    3.2724    2.7868   19.3204 H   0  0  0  0  0  0  0  0  0  0  0  0
    5.4858    0.4664   22.1692 H   0  0  0  0  0  0  0  0  0  0  0  0
   13.1028    1.9222   22.2446 H   0  0  0  0  0  0  0  0  0  0  0  0
    9.2052    2.2948   24.0415 H   0  0  0  0  0  0  0  0  0  0  0  0
    7.5655   -2.8644   26.1055 H   0  0  0  0  0  0  0  0  0  0  0  0
   11.0125   -4.2662   23.9435 H   0  0  0  0  0  0  0  0  0  0  0  0
    7.5953   -0.7782   24.7971 H   0  0  0  0  0  0  0  0  0  0  0  0
   11.0394   -2.1837   22.6349 H   0  0  0  0  0  0  0  0  0  0  0  0
    4.7836    2.0664   17.4848 H   0  0  0  0  0  0  0  0  0  0  0  0
    8.5274   -1.0858   18.3384 H   0  0  0  0  0  0  0  0  0  0  0  0
    8.6408   -5.7227   25.3864 H   0  0  0  0  0  0  0  0  0  0  0  0
   10.2726   -5.3829   26.0135 H   0  0  0  0  0  0  0  0  0  0  0  0
    8.8606   -4.8102   26.9000 H   0  0  0  0  0  0  0  0  0  0  0  0
   11.5363    0.0386   22.2539 H   0  0  0  0  0  0  0  0  0  0  0  0
   11.4704    0.0336   23.9998 H   0  0  0  0  0  0  0  0  0  0  0  0
    8.9182    0.7194   23.6789 H   0  0  0  0  0  0  0  0  0  0  0  0
    7.0325    0.4238   17.0175 H   0  0  0  0  0  0  0  0  0  0  0  0
    8.1175   -1.8104   21.3538 H   0  0  0  0  0  0  0  0  0  0  0  0
  1  3  1  0  0  0  0
  1  4  2  0  0  0  0
  2  5  1  0  0  0  0
  2  6  2  0  0  0  0
  3  7  2  0  0  0  0
  4  8  1  0  0  0  0
  5 13  2  0  0  0  0
  6 15  1  0  0  0  0
  7 17  1  0  0  0  0
  8 17  2  0  0  0  0
  9 11  2  0  0  0  0
  9 16  1  0  0  0  0
 10 12  1  0  0  0  0
 10 16  2  0  0  0  0
 11 18  1  0  0  0  0
 12 18  2  0  0  0  0
 13 19  1  0  0  0  0
 14 20  2  0  0  0  0
 14 25  1  0  0  0  0
 15 19  2  0  0  0  0
 15 20  1  0  0  0  0
 16 22  1  0  0  0  0
 17 23  1  0  0  0  0
 18 24  1  0  0  0  0
 19 25  1  0  0  0  0
 20 26  1  0  0  0  0
 21 24  1  0  0  0  0
 21 26  1  0  0  0  0
 21 27  2  0  0  0  0
 23 24  1  1  0  0  0
  1 28  1  0  0  0  0
  2 29  1  0  0  0  0
  3 30  1  0  0  0  0
  4 31  1  0  0  0  0
  5 32  1  0  0  0  0
  6 33  1  0  0  0  0
  7 34  1  0  0  0  0
  8 35  1  0  0  0  0
  9 36  1  0  0  0  0
 10 37  1  0  0  0  0
 11 38  1  0  0  0  0
 12 39  1  0  0  0  0
 13 40  1  0  0  0  0
 14 41  1  0  0  0  0
 22 42  1  0  0  0  0
 22 43  1  0  0  0  0
 22 44  1  0  0  0  0
 23 45  1  0  0  0  0
 23 46  1  0  0  0  0
 24 47  1  0  0  0  0
 25 48  1  0  0  0  0
 26 49  1  0  0  0  0
M  END
> <clash_score>
0

> <docking_score>
-10.6823148727417

> <overlap_score>
0.9015266299247742

$$$$
BENZO_292_2
  -OEChem-08232013503D

 46 49  0     1  0  0  0  0  0999 V2000
    4.2970    1.6690   20.8430 C   0  0  0  0  0  0  0  0  0  0  0  0
    4.0980    2.1130   19.5350 C   0  0  0  0  0  0  0  0  0  0  0  0
    5.3360    0.8000   21.1530 C   0  0  0  0  0  0  0  0  0  0  0  0
    8.3310   -2.7170   25.3430 C   0  0  0  0  0  0  0  0  0  0  0  0
   10.2570   -3.5000   24.1350 C   0  0  0  0  0  0  0  0  0  0  0  0
    8.3510   -1.5420   24.6110 C   0  0  0  0  0  0  0  0  0  0  0  0
   10.2760   -2.3270   23.4020 C   0  0  0  0  0  0  0  0  0  0  0  0
    4.9400    1.7060   18.5060 C   0  0  0  0  0  0  0  0  0  0  0  0
   10.8633    2.6804   23.5273 C   0  0  0  0  0  0  0  0  0  0  0  0
    7.6830   -0.5170   18.7600 C   0  0  0  0  0  0  0  0  0  0  0  0
   11.1655    4.0230   23.4669 C   0  0  0  0  0  0  0  0  0  0  0  0
    8.8035    3.6322   24.0309 C   0  0  0  0  0  0  0  0  0  0  0  0
    6.1600    0.3870   20.1140 C   0  0  0  0  0  0  0  0  0  0  0  0
    9.2850   -3.7090   25.1090 C   0  0  0  0  0  0  0  0  0  0  0  0
    9.3300   -1.3350   23.6390 C   0  0  0  0  0  0  0  0  0  0  0  0
    9.4950    2.4539   23.8539 C   0  0  0  0  0  0  0  0  0  0  0  0
    5.9810    0.8330   18.8060 C   0  0  0  0  0  0  0  0  0  0  0  0
    7.2210   -0.4620   20.0350 C   0  0  0  0  0  0  0  0  0  0  0  0
    8.9510    0.1280   21.6880 C   0  0  0  0  0  0  0  0  0  0  0  0
    9.2618   -4.9724   25.8910 C   0  0  0  0  0  0  0  0  0  0  0  0
    8.8771    1.0813   23.9905 C   0  0  0  0  0  0  0  0  0  0  0  0
    9.4200   -0.0840   22.9530 C   0  0  2  0  0  0  0  0  0  0  0  0
    6.9440    0.2550   18.0100 N   0  0  0  0  0  0  0  0  0  0  0  0
    8.0810   -0.9750   21.0820 N   0  0  0  0  0  0  0  0  0  0  0  0
    9.1870    1.1500   21.0630 O   0  0  0  0  0  0  0  0  0  0  0  0
    9.8028    5.0040   23.8033 S   0  0  0  0  0  0  0  0  0  0  0  0
    3.6256    2.0106   21.6303 H   0  0  0  0  0  0  0  0  0  0  0  0
    3.2724    2.7868   19.3204 H   0  0  0  0  0  0  0  0  0  0  0  0
    5.4858    0.4664   22.1692 H   0  0  0  0  0  0  0  0  0  0  0  0
    7.5655   -2.8644   26.1055 H   0  0  0  0  0  0  0  0  0  0  0  0
   11.0125   -4.2662   23.9435 H   0  0  0  0  0  0  0  0  0  0  0  0
    7.5953   -0.7782   24.7971 H   0  0  0  0  0  0  0  0  0  0  0  0
   11.0394   -2.1837   22.6349 H   0  0  0  0  0  0  0  0  0  0  0  0
    4.7836    2.0664   17.4848 H   0  0  0  0  0  0  0  0  0  0  0  0
   11.5925    1.9010   23.3455 H   0  0  0  0  0  0  0  0  0  0  0  0
    8.5274   -1.0858   18.3384 H   0  0  0  0  0  0  0  0  0  0  0  0
   12.1213    4.4748   23.2422 H   0  0  0  0  0  0  0  0  0  0  0  0
    7.7599    3.7576   24.2842 H   0  0  0  0  0  0  0  0  0  0  0  0
    8.6408   -5.7227   25.3864 H   0  0  0  0  0  0  0  0  0  0  0  0
   10.2726   -5.3829   26.0135 H   0  0  0  0  0  0  0  0  0  0  0  0
    8.8606   -4.8102   26.9000 H   0  0  0  0  0  0  0  0  0  0  0  0
    8.9708    0.7434   25.0308 H   0  0  0  0  0  0  0  0  0  0  0  0
    7.7972    1.1781   23.8117 H   0  0  0  0  0  0  0  0  0  0  0  0
   10.5743    0.2174   22.9808 H   0  0  0  0  0  0  0  0  0  0  0  0
    7.0325    0.4238   17.0175 H   0  0  0  0  0  0  0  0  0  0  0  0
    8.1175   -1.8104   21.3538 H   0  0  0  0  0  0  0  0  0  0  0  0
  1  2  1  0  0  0  0
  1  3  2  0  0  0  0
  2  8  2  0  0  0  0
  3 13  1  0  0  0  0
  4  6  2  0  0  0  0
  4 14  1  0  0  0  0
  5  7  1  0  0  0  0
  5 14  2  0  0  0  0
  6 15  1  0  0  0  0
  7 15  2  0  0  0  0
  8 17  1  0  0  0  0
  9 11  2  0  0  0  0
  9 16  1  0  0  0  0
 10 18  2  0  0  0  0
 10 23  1  0  0  0  0
 11 26  1  0  0  0  0
 12 16  2  0  0  0  0
 12 26  1  0  0  0  0
 13 17  2  0  0  0  0
 13 18  1  0  0  0  0
 14 20  1  0  0  0  0
 15 22  1  0  0  0  0
 16 21  1  0  0  0  0
 17 23  1  0  0  0  0
 18 24  1  0  0  0  0
 19 22  1  0  0  0  0
 19 24  1  0  0  0  0
 19 25  2  0  0  0  0
 21 22  1  6  0  0  0
  1 27  1  0  0  0  0
  2 28  1  0  0  0  0
  3 29  1  0  0  0  0
  4 30  1  0  0  0  0
  5 31  1  0  0  0  0
  6 32  1  0  0  0  0
  7 33  1  0  0  0  0
  8 34  1  0  0  0  0
  9 35  1  0  0  0  0
 10 36  1  0  0  0  0
 11 37  1  0  0  0  0
 12 38  1  0  0  0  0
 20 39  1  0  0  0  0
 20 40  1  0  0  0  0
 20 41  1  0  0  0  0
 21 42  1  0  0  0  0
 21 43  1  0  0  0  0
 22 44  1  0  0  0  0
 23 45  1  0  0  0  0
 24 46  1  0  0  0  0
M  END
> <clash_score>
0

> <docking_score>
-9.291041374206543

> <overlap_score>
0.8268728256225586

$$$$
BENZO_290_1
  -OEChem-08232013503D

 61 65  0     1  0  0  0  0  0999 V2000
    4.2970    1.6690   20.8430 C   0  0  0  0  0  0  0  0  0  0  0  0
    4.0980    2.1130   19.5350 C   0  0  0  0  0  0  0  0  0  0  0  0
    9.2913    4.8680   24.0265 C   0  0  0  0  0  0  0  0  0  0  0  0
    5.3360    0.8000   21.1530 C   0  0  0  0  0  0  0  0  0  0  0  0
    8.7312    3.5975   24.1588 C   0  0  0  0  0  0  0  0  0  0  0  0
    8.3510   -1.5420   24.6110 C   0  0  0  0  0  0  0  0  0  0  0  0
   10.2760   -2.3270   23.4020 C   0  0  0  0  0  0  0  0  0  0  0  0
    4.9400    1.7060   18.5060 C   0  0  0  0  0  0  0  0  0  0  0  0
    8.3310   -2.7170   25.3430 C   0  0  0  0  0  0  0  0  0  0  0  0
   10.2570   -3.5000   24.1350 C   0  0  0  0  0  0  0  0  0  0  0  0
   10.6033    5.0082   23.5739 C   0  0  0  0  0  0  0  0  0  0  0  0
   10.7949    2.6072   23.3858 C   0  0  0  0  0  0  0  0  0  0  0  0
    7.6830   -0.5170   18.7600 C   0  0  0  0  0  0  0  0  0  0  0  0
    6.1600    0.3870   20.1140 C   0  0  0  0  0  0  0  0  0  0  0  0
    9.3300   -1.3350   23.6390 C   0  0  0  0  0  0  0  0  0  0  0  0
    9.4829    2.4671   23.8384 C   0  0  0  0  0  0  0  0  0  0  0  0
    5.9810    0.8330   18.8060 C   0  0  0  0  0  0  0  0  0  0  0  0
    9.2850   -3.7090   25.1090 C   0  0  0  0  0  0  0  0  0  0  0  0
    7.2210   -0.4620   20.0350 C   0  0  0  0  0  0  0  0  0  0  0  0
   11.3551    3.8778   23.2536 C   0  0  0  0  0  0  0  0  0  0  0  0
    8.9510    0.1280   21.6880 C   0  0  0  0  0  0  0  0  0  0  0  0
    7.3211   -6.8875   26.5227 C   0  0  0  0  0  0  0  0  0  0  0  0
    7.3523   -5.5278   27.2244 C   0  0  0  0  0  0  0  0  0  0  0  0
    7.9422   -6.8107   25.1261 C   0  0  0  0  0  0  0  0  0  0  0  0
    8.7641   -4.9418   27.2163 C   0  0  0  0  0  0  0  0  0  0  0  0
    9.3411   -6.1879   25.1670 C   0  0  0  0  0  0  0  0  0  0  0  0
    8.8757    1.0906   23.9831 C   0  0  0  0  0  0  0  0  0  0  0  0
    9.4200   -0.0840   22.9530 C   0  0  1  0  0  0  0  0  0  0  0  0
    6.9440    0.2550   18.0100 N   0  0  0  0  0  0  0  0  0  0  0  0
    9.2641   -4.8861   25.8398 N   0  0  0  0  0  0  0  0  0  0  0  0
    8.0810   -0.9750   21.0820 N   0  0  0  0  0  0  0  0  0  0  0  0
    9.1870    1.1500   21.0630 O   0  0  0  0  0  0  0  0  0  0  0  0
   12.9740    4.0513   22.6963 Cl  0  0  0  0  0  0  0  0  0  0  0  0
    3.6256    2.0106   21.6303 H   0  0  0  0  0  0  0  0  0  0  0  0
    3.2724    2.7868   19.3204 H   0  0  0  0  0  0  0  0  0  0  0  0
    8.7056    5.7481   24.2762 H   0  0  0  0  0  0  0  0  0  0  0  0
    5.4858    0.4664   22.1692 H   0  0  0  0  0  0  0  0  0  0  0  0
    7.7082    3.4977   24.5123 H   0  0  0  0  0  0  0  0  0  0  0  0
    7.5957   -0.7779   24.7973 H   0  0  0  0  0  0  0  0  0  0  0  0
   11.0384   -2.1852   22.6338 H   0  0  0  0  0  0  0  0  0  0  0  0
    4.7836    2.0664   17.4848 H   0  0  0  0  0  0  0  0  0  0  0  0
    7.5634   -2.8637   26.1037 H   0  0  0  0  0  0  0  0  0  0  0  0
   11.0139   -4.2645   23.9419 H   0  0  0  0  0  0  0  0  0  0  0  0
   11.0270    6.0047   23.4760 H   0  0  0  0  0  0  0  0  0  0  0  0
   11.3767    1.7227   23.1369 H   0  0  0  0  0  0  0  0  0  0  0  0
    8.5274   -1.0858   18.3384 H   0  0  0  0  0  0  0  0  0  0  0  0
    7.8644   -7.6283   27.1289 H   0  0  0  0  0  0  0  0  0  0  0  0
    6.2830   -7.2423   26.4478 H   0  0  0  0  0  0  0  0  0  0  0  0
    6.6663   -4.8405   26.7221 H   0  0  0  0  0  0  0  0  0  0  0  0
    7.0062   -5.6400   28.2540 H   0  0  0  0  0  0  0  0  0  0  0  0
    8.0018   -7.8160   24.6962 H   0  0  0  0  0  0  0  0  0  0  0  0
    7.2963   -6.2182   24.4678 H   0  0  0  0  0  0  0  0  0  0  0  0
    8.7322   -3.9404   27.6532 H   0  0  0  0  0  0  0  0  0  0  0  0
    9.4260   -5.5610   27.8283 H   0  0  0  0  0  0  0  0  0  0  0  0
   10.0249   -6.8474   25.7028 H   0  0  0  0  0  0  0  0  0  0  0  0
    9.7015   -6.0700   24.1446 H   0  0  0  0  0  0  0  0  0  0  0  0
    8.9639    0.7632   25.0273 H   0  0  0  0  0  0  0  0  0  0  0  0
    7.7964    1.1765   23.7949 H   0  0  0  0  0  0  0  0  0  0  0  0
   10.5749    0.2253   22.9765 H   0  0  0  0  0  0  0  0  0  0  0  0
    7.0325    0.4238   17.0175 H   0  0  0  0  0  0  0  0  0  0  0  0
    8.1354   -1.7990   21.3694 H   0  0  0  0  0  0  0  0  0  0  0  0
  1  2  1  0  0  0  0
  1  4  2  0  0  0  0
  2  8  2  0  0  0  0
  3  5  2  0  0  0  0
  3 11  1  0  0  0  0
  4 14  1  0  0  0  0
  5 16  1  0  0  0  0
  6  9  2  0  0  0  0
  6 15  1  0  0  0  0
  7 10  1  0  0  0  0
  7 15  2  0  0  0  0
  8 17  1  0  0  0  0
  9 18  1  0  0  0  0
 10 18  2  0  0  0  0
 11 20  2  0  0  0  0
 12 16  2  0  0  0  0
 12 20  1  0  0  0  0
 13 19  2  0  0  0  0
 13 29  1  0  0  0  0
 14 17  2  0  0  0  0
 14 19  1  0  0  0  0
 15 28  1  0  0  0  0
 16 27  1  0  0  0  0
 17 29  1  0  0  0  0
 18 30  1  0  0  0  0
 19 31  1  0  0  0  0
 20 33  1  0  0  0  0
 21 28  1  1  0  0  0
 21 31  1  0  0  0  0
 21 32  2  0  0  0  0
 22 23  1  0  0  0  0
 22 24  1  0  0  0  0
 23 25  1  0  0  0  0
 24 26  1  0  0  0  0
 25 30  1  0  0  0  0
 26 30  1  0  0  0  0
 27 28  1  0  0  0  0
  1 34  1  0  0  0  0
  2 35  1  0  0  0  0
  3 36  1  0  0  0  0
  4 37  1  0  0  0  0
  5 38  1  0  0  0  0
  6 39  1  0  0  0  0
  7 40  1  0  0  0  0
  8 41  1  0  0  0  0
  9 42  1  0  0  0  0
 10 43  1  0  0  0  0
 11 44  1  0  0  0  0
 12 45  1  0  0  0  0
 13 46  1  0  0  0  0
 22 47  1  0  0  0  0
 22 48  1  0  0  0  0
 23 49  1  0  0  0  0
 23 50  1  0  0  0  0
 24 51  1  0  0  0  0
 24 52  1  0  0  0  0
 25 53  1  0  0  0  0
 25 54  1  0  0  0  0
 26 55  1  0  0  0  0
 26 56  1  0  0  0  0
 27 57  1  0  0  0  0
 27 58  1  0  0  0  0
 28 59  1  0  0  0  0
 29 60  1  0  0  0  0
 31 61  1  0  0  0  0
M  END
> <clash_score>
0

> <docking_score>
-9.121376991271973

> <overlap_score>
0.8812171220779419

$$$$
BENZO_290_2
  -OEChem-08232013503D

 61 65  0     1  0  0  0  0  0999 V2000
    4.2970    1.6690   20.8430 C   0  0  0  0  0  0  0  0  0  0  0  0
    4.0980    2.1130   19.5350 C   0  0  0  0  0  0  0  0  0  0  0  0
   10.2658    4.1447   23.6556 C   0  0  0  0  0  0  0  0  0  0  0  0
    5.3360    0.8000   21.1530 C   0  0  0  0  0  0  0  0  0  0  0  0
   10.1187    2.7578   23.6359 C   0  0  0  0  0  0  0  0  0  0  0  0
    8.3510   -1.5420   24.6110 C   0  0  0  0  0  0  0  0  0  0  0  0
   10.2760   -2.3270   23.4020 C   0  0  0  0  0  0  0  0  0  0  0  0
    4.9400    1.7060   18.5060 C   0  0  0  0  0  0  0  0  0  0  0  0
    8.3310   -2.7170   25.3430 C   0  0  0  0  0  0  0  0  0  0  0  0
   10.2570   -3.5000   24.1350 C   0  0  0  0  0  0  0  0  0  0  0  0
   11.4317    4.7295   23.1614 C   0  0  0  0  0  0  0  0  0  0  0  0
   12.3037    2.5404   22.6281 C   0  0  0  0  0  0  0  0  0  0  0  0
    7.6830   -0.5170   18.7600 C   0  0  0  0  0  0  0  0  0  0  0  0
    6.1600    0.3870   20.1140 C   0  0  0  0  0  0  0  0  0  0  0  0
    9.3300   -1.3350   23.6390 C   0  0  0  0  0  0  0  0  0  0  0  0
   11.1377    1.9556   23.1223 C   0  0  0  0  0  0  0  0  0  0  0  0
    5.9810    0.8330   18.8060 C   0  0  0  0  0  0  0  0  0  0  0  0
    9.2850   -3.7090   25.1090 C   0  0  0  0  0  0  0  0  0  0  0  0
    7.2210   -0.4620   20.0350 C   0  0  0  0  0  0  0  0  0  0  0  0
   12.4507    3.9274   22.6477 C   0  0  0  0  0  0  0  0  0  0  0  0
    8.9510    0.1280   21.6880 C   0  0  0  0  0  0  0  0  0  0  0  0
    7.3211   -6.8875   26.5227 C   0  0  0  0  0  0  0  0  0  0  0  0
    7.3523   -5.5278   27.2244 C   0  0  0  0  0  0  0  0  0  0  0  0
    7.9422   -6.8107   25.1261 C   0  0  0  0  0  0  0  0  0  0  0  0
    8.7641   -4.9418   27.2163 C   0  0  0  0  0  0  0  0  0  0  0  0
    9.3411   -6.1879   25.1670 C   0  0  0  0  0  0  0  0  0  0  0  0
   10.9782    0.4528   23.1025 C   0  0  0  0  0  0  0  0  0  0  0  0
    9.4200   -0.0840   22.9530 C   0  0  2  0  0  0  0  0  0  0  0  0
    6.9440    0.2550   18.0100 N   0  0  0  0  0  0  0  0  0  0  0  0
    9.2641   -4.8861   25.8398 N   0  0  0  0  0  0  0  0  0  0  0  0
    8.0810   -0.9750   21.0820 N   0  0  0  0  0  0  0  0  0  0  0  0
    9.1870    1.1500   21.0630 O   0  0  0  0  0  0  0  0  0  0  0  0
   13.8895    4.6494   22.0392 Cl  0  0  0  0  0  0  0  0  0  0  0  0
    3.6256    2.0106   21.6303 H   0  0  0  0  0  0  0  0  0  0  0  0
    3.2724    2.7868   19.3204 H   0  0  0  0  0  0  0  0  0  0  0  0
    9.4721    4.7690   24.0558 H   0  0  0  0  0  0  0  0  0  0  0  0
    5.4858    0.4664   22.1692 H   0  0  0  0  0  0  0  0  0  0  0  0
    9.2068    2.3107   24.0232 H   0  0  0  0  0  0  0  0  0  0  0  0
    7.5957   -0.7779   24.7973 H   0  0  0  0  0  0  0  0  0  0  0  0
   11.0384   -2.1852   22.6338 H   0  0  0  0  0  0  0  0  0  0  0  0
    4.7836    2.0664   17.4848 H   0  0  0  0  0  0  0  0  0  0  0  0
    7.5634   -2.8637   26.1037 H   0  0  0  0  0  0  0  0  0  0  0  0
   11.0139   -4.2645   23.9419 H   0  0  0  0  0  0  0  0  0  0  0  0
   11.5327    5.8118   23.1833 H   0  0  0  0  0  0  0  0  0  0  0  0
   13.0951    1.9106   22.2282 H   0  0  0  0  0  0  0  0  0  0  0  0
    8.5274   -1.0858   18.3384 H   0  0  0  0  0  0  0  0  0  0  0  0
    7.8644   -7.6283   27.1289 H   0  0  0  0  0  0  0  0  0  0  0  0
    6.2830   -7.2423   26.4478 H   0  0  0  0  0  0  0  0  0  0  0  0
    6.6663   -4.8405   26.7221 H   0  0  0  0  0  0  0  0  0  0  0  0
    7.0062   -5.6400   28.2540 H   0  0  0  0  0  0  0  0  0  0  0  0
    8.0018   -7.8160   24.6962 H   0  0  0  0  0  0  0  0  0  0  0  0
    7.2963   -6.2182   24.4678 H   0  0  0  0  0  0  0  0  0  0  0  0
    8.7322   -3.9404   27.6532 H   0  0  0  0  0  0  0  0  0  0  0  0
    9.4260   -5.5610   27.8283 H   0  0  0  0  0  0  0  0  0  0  0  0
   10.0249   -6.8474   25.7028 H   0  0  0  0  0  0  0  0  0  0  0  0
    9.7015   -6.0700   24.1446 H   0  0  0  0  0  0  0  0  0  0  0  0
   11.5374    0.0399   22.2527 H   0  0  0  0  0  0  0  0  0  0  0  0
   11.4700    0.0494   23.9985 H   0  0  0  0  0  0  0  0  0  0  0  0
    8.9187    0.7273   23.6745 H   0  0  0  0  0  0  0  0  0  0  0  0
    7.0325    0.4238   17.0175 H   0  0  0  0  0  0  0  0  0  0  0  0
    8.1354   -1.7990   21.3694 H   0  0  0  0  0  0  0  0  0  0  0  0
  1  2  1  0  0  0  0
  1  4  2  0  0  0  0
  2  8  2  0  0  0  0
  3  5  2  0  0  0  0
  3 11  1  0  0  0  0
  4 14  1  0  0  0  0
  5 16  1  0  0  0  0
  6  9  2  0  0  0  0
  6 15  1  0  0  0  0
  7 10  1  0  0  0  0
  7 15  2  0  0  0  0
  8 17  1  0  0  0  0
  9 18  1  0  0  0  0
 10 18  2  0  0  0  0
 11 20  2  0  0  0  0
 12 16  2  0  0  0  0
 12 20  1  0  0  0  0
 13 19  2  0  0  0  0
 13 29  1  0  0  0  0
 14 17  2  0  0  0  0
 14 19  1  0  0  0  0
 15 28  1  0  0  0  0
 16 27  1  0  0  0  0
 17 29  1  0  0  0  0
 18 30  1  0  0  0  0
 19 31  1  0  0  0  0
 20 33  1  0  0  0  0
 21 28  1  6  0  0  0
 21 31  1  0  0  0  0
 21 32  2  0  0  0  0
 22 23  1  0  0  0  0
 22 24  1  0  0  0  0
 23 25  1  0  0  0  0
 24 26  1  0  0  0  0
 25 30  1  0  0  0  0
 26 30  1  0  0  0  0
 27 28  1  0  0  0  0
  1 34  1  0  0  0  0
  2 35  1  0  0  0  0
  3 36  1  0  0  0  0
  4 37  1  0  0  0  0
  5 38  1  0  0  0  0
  6 39  1  0  0  0  0
  7 40  1  0  0  0  0
  8 41  1  0  0  0  0
  9 42  1  0  0  0  0
 10 43  1  0  0  0  0
 11 44  1  0  0  0  0
 12 45  1  0  0  0  0
 13 46  1  0  0  0  0
 22 47  1  0  0  0  0
 22 48  1  0  0  0  0
 23 49  1  0  0  0  0
 23 50  1  0  0  0  0
 24 51  1  0  0  0  0
 24 52  1  0  0  0  0
 25 53  1  0  0  0  0
 25 54  1  0  0  0  0
 26 55  1  0  0  0  0
 26 56  1  0  0  0  0
 27 57  1  0  0  0  0
 27 58  1  0  0  0  0
 28 59  1  0  0  0  0
 29 60  1  0  0  0  0
 31 61  1  0  0  0  0
M  END
> <clash_score>
0

> <docking_score>
-10.102856636047363

> <overlap_score>
0.9461336731910706

$$$$
BENZO_291_1
  -OEChem-08232013503D

 61 65  0     1  0  0  0  0  0999 V2000
    4.2970    1.6690   20.8430 C   0  0  0  0  0  0  0  0  0  0  0  0
    4.0980    2.1130   19.5350 C   0  0  0  0  0  0  0  0  0  0  0  0
    5.3360    0.8000   21.1530 C   0  0  0  0  0  0  0  0  0  0  0  0
    8.3510   -1.5420   24.6110 C   0  0  0  0  0  0  0  0  0  0  0  0
   10.2760   -2.3270   23.4020 C   0  0  0  0  0  0  0  0  0  0  0  0
    4.9400    1.7060   18.5060 C   0  0  0  0  0  0  0  0  0  0  0  0
    8.3310   -2.7170   25.3430 C   0  0  0  0  0  0  0  0  0  0  0  0
   10.2570   -3.5000   24.1350 C   0  0  0  0  0  0  0  0  0  0  0  0
   10.2246    2.9150   23.5993 C   0  0  0  0  0  0  0  0  0  0  0  0
   12.2096    2.6918   22.6802 C   0  0  0  0  0  0  0  0  0  0  0  0
    7.6830   -0.5170   18.7600 C   0  0  0  0  0  0  0  0  0  0  0  0
    6.1600    0.3870   20.1140 C   0  0  0  0  0  0  0  0  0  0  0  0
    9.3300   -1.3350   23.6390 C   0  0  0  0  0  0  0  0  0  0  0  0
   11.1377    1.9556   23.1223 C   0  0  0  0  0  0  0  0  0  0  0  0
    5.9810    0.8330   18.8060 C   0  0  0  0  0  0  0  0  0  0  0  0
    9.2850   -3.7090   25.1090 C   0  0  0  0  0  0  0  0  0  0  0  0
    7.2210   -0.4620   20.0350 C   0  0  0  0  0  0  0  0  0  0  0  0
    8.9510    0.1280   21.6880 C   0  0  0  0  0  0  0  0  0  0  0  0
    7.3211   -6.8875   26.5227 C   0  0  0  0  0  0  0  0  0  0  0  0
    7.3523   -5.5278   27.2244 C   0  0  0  0  0  0  0  0  0  0  0  0
    7.9422   -6.8107   25.1261 C   0  0  0  0  0  0  0  0  0  0  0  0
    8.7641   -4.9418   27.2163 C   0  0  0  0  0  0  0  0  0  0  0  0
    9.3411   -6.1879   25.1670 C   0  0  0  0  0  0  0  0  0  0  0  0
   12.7040    5.1473   22.6110 C   0  0  0  0  0  0  0  0  0  0  0  0
   10.9782    0.4528   23.1025 C   0  0  0  0  0  0  0  0  0  0  0  0
    9.4200   -0.0840   22.9530 C   0  0  1  0  0  0  0  0  0  0  0  0
   10.6770    4.1653   23.4725 N   0  0  0  0  0  0  0  0  0  0  0  0
    6.9440    0.2550   18.0100 N   0  0  0  0  0  0  0  0  0  0  0  0
   11.8861    3.9966   22.9107 N   0  0  0  0  0  0  0  0  0  0  0  0
    9.2641   -4.8861   25.8398 N   0  0  0  0  0  0  0  0  0  0  0  0
    8.0810   -0.9750   21.0820 N   0  0  0  0  0  0  0  0  0  0  0  0
    9.1870    1.1500   21.0630 O   0  0  0  0  0  0  0  0  0  0  0  0
    3.6256    2.0106   21.6303 H   0  0  0  0  0  0  0  0  0  0  0  0
    3.2724    2.7868   19.3204 H   0  0  0  0  0  0  0  0  0  0  0  0
    5.4858    0.4664   22.1692 H   0  0  0  0  0  0  0  0  0  0  0  0
    7.5957   -0.7779   24.7973 H   0  0  0  0  0  0  0  0  0  0  0  0
   11.0384   -2.1852   22.6338 H   0  0  0  0  0  0  0  0  0  0  0  0
    4.7836    2.0664   17.4848 H   0  0  0  0  0  0  0  0  0  0  0  0
    7.5634   -2.8637   26.1037 H   0  0  0  0  0  0  0  0  0  0  0  0
   11.0139   -4.2645   23.9419 H   0  0  0  0  0  0  0  0  0  0  0  0
    9.2482    2.7576   24.0354 H   0  0  0  0  0  0  0  0  0  0  0  0
   13.1522    2.4055   22.2336 H   0  0  0  0  0  0  0  0  0  0  0  0
    8.5274   -1.0858   18.3384 H   0  0  0  0  0  0  0  0  0  0  0  0
    7.8644   -7.6283   27.1289 H   0  0  0  0  0  0  0  0  0  0  0  0
    6.2830   -7.2423   26.4478 H   0  0  0  0  0  0  0  0  0  0  0  0
    6.6663   -4.8405   26.7221 H   0  0  0  0  0  0  0  0  0  0  0  0
    7.0062   -5.6400   28.2540 H   0  0  0  0  0  0  0  0  0  0  0  0
    8.0018   -7.8160   24.6962 H   0  0  0  0  0  0  0  0  0  0  0  0
    7.2963   -6.2182   24.4678 H   0  0  0  0  0  0  0  0  0  0  0  0
    8.7322   -3.9404   27.6532 H   0  0  0  0  0  0  0  0  0  0  0  0
    9.4260   -5.5610   27.8283 H   0  0  0  0  0  0  0  0  0  0  0  0
   10.0249   -6.8474   25.7028 H   0  0  0  0  0  0  0  0  0  0  0  0
    9.7015   -6.0700   24.1446 H   0  0  0  0  0  0  0  0  0  0  0  0
   12.4645    5.4764   21.5964 H   0  0  0  0  0  0  0  0  0  0  0  0
   12.4916    5.9426   23.3309 H   0  0  0  0  0  0  0  0  0  0  0  0
   13.7592    4.8699   22.6849 H   0  0  0  0  0  0  0  0  0  0  0  0
   11.5374    0.0399   22.2527 H   0  0  0  0  0  0  0  0  0  0  0  0
   11.4700    0.0494   23.9985 H   0  0  0  0  0  0  0  0  0  0  0  0
    8.9187    0.7273   23.6745 H   0  0  0  0  0  0  0  0  0  0  0  0
    7.0325    0.4238   17.0175 H   0  0  0  0  0  0  0  0  0  0  0  0
    8.1354   -1.7990   21.3694 H   0  0  0  0  0  0  0  0  0  0  0  0
  1  2  1  0  0  0  0
  1  3  2  0  0  0  0
  2  6  2  0  0  0  0
  3 12  1  0  0  0  0
  4  7  2  0  0  0  0
  4 13  1  0  0  0  0
  5  8  1  0  0  0  0
  5 13  2  0  0  0  0
  6 15  1  0  0  0  0
  7 16  1  0  0  0  0
  8 16  2  0  0  0  0
  9 14  1  0  0  0  0
  9 27  2  0  0  0  0
 10 14  2  0  0  0  0
 10 29  1  0  0  0  0
 11 17  2  0  0  0  0
 11 28  1  0  0  0  0
 12 15  2  0  0  0  0
 12 17  1  0  0  0  0
 13 26  1  0  0  0  0
 14 25  1  0  0  0  0
 15 28  1  0  0  0  0
 16 30  1  0  0  0  0
 17 31  1  0  0  0  0
 18 26  1  0  0  0  0
 18 31  1  0  0  0  0
 18 32  2  0  0  0  0
 19 20  1  0  0  0  0
 19 21  1  0  0  0  0
 20 22  1  0  0  0  0
 21 23  1  0  0  0  0
 22 30  1  0  0  0  0
 23 30  1  0  0  0  0
 24 29  1  0  0  0  0
 25 26  1  1  0  0  0
 27 29  1  0  0  0  0
  1 33  1  0  0  0  0
  2 34  1  0  0  0  0
  3 35  1  0  0  0  0
  4 36  1  0  0  0  0
  5 37  1  0  0  0  0
  6 38  1  0  0  0  0
  7 39  1  0  0  0  0
  8 40  1  0  0  0  0
  9 41  1  0  0  0  0
 10 42  1  0  0  0  0
 11 43  1  0  0  0  0
 19 44  1  0  0  0  0
 19 45  1  0  0  0  0
 20 46  1  0  0  0  0
 20 47  1  0  0  0  0
 21 48  1  0  0  0  0
 21 49  1  0  0  0  0
 22 50  1  0  0  0  0
 22 51  1  0  0  0  0
 23 52  1  0  0  0  0
 23 53  1  0  0  0  0
 24 54  1  0  0  0  0
 24 55  1  0  0  0  0
 24 56  1  0  0  0  0
 25 57  1  0  0  0  0
 25 58  1  0  0  0  0
 26 59  1  0  0  0  0
 28 60  1  0  0  0  0
 31 61  1  0  0  0  0
M  END
> <clash_score>
0

> <docking_score>
-9.629758834838867

> <overlap_score>
0.9401388168334961

$$$$
BENZO_291_2
  -OEChem-08232013503D

 61 65  0     1  0  0  0  0  0999 V2000
    4.2970    1.6690   20.8430 C   0  0  0  0  0  0  0  0  0  0  0  0
    4.0980    2.1130   19.5350 C   0  0  0  0  0  0  0  0  0  0  0  0
    5.3360    0.8000   21.1530 C   0  0  0  0  0  0  0  0  0  0  0  0
    8.3510   -1.5420   24.6110 C   0  0  0  0  0  0  0  0  0  0  0  0
   10.2760   -2.3270   23.4020 C   0  0  0  0  0  0  0  0  0  0  0  0
    4.9400    1.7060   18.5060 C   0  0  0  0  0  0  0  0  0  0  0  0
    8.3310   -2.7170   25.3430 C   0  0  0  0  0  0  0  0  0  0  0  0
   10.2570   -3.5000   24.1350 C   0  0  0  0  0  0  0  0  0  0  0  0
   10.7785    2.7977   23.3980 C   0  0  0  0  0  0  0  0  0  0  0  0
    8.8916    3.6777   24.1053 C   0  0  0  0  0  0  0  0  0  0  0  0
    7.6830   -0.5170   18.7600 C   0  0  0  0  0  0  0  0  0  0  0  0
    6.1600    0.3870   20.1140 C   0  0  0  0  0  0  0  0  0  0  0  0
    9.3300   -1.3350   23.6390 C   0  0  0  0  0  0  0  0  0  0  0  0
    9.4829    2.4671   23.8384 C   0  0  0  0  0  0  0  0  0  0  0  0
    5.9810    0.8330   18.8060 C   0  0  0  0  0  0  0  0  0  0  0  0
    9.2850   -3.7090   25.1090 C   0  0  0  0  0  0  0  0  0  0  0  0
    7.2210   -0.4620   20.0350 C   0  0  0  0  0  0  0  0  0  0  0  0
    8.9510    0.1280   21.6880 C   0  0  0  0  0  0  0  0  0  0  0  0
    7.3211   -6.8875   26.5227 C   0  0  0  0  0  0  0  0  0  0  0  0
    7.3523   -5.5278   27.2244 C   0  0  0  0  0  0  0  0  0  0  0  0
    7.9422   -6.8107   25.1261 C   0  0  0  0  0  0  0  0  0  0  0  0
    8.7641   -4.9418   27.2163 C   0  0  0  0  0  0  0  0  0  0  0  0
    9.3411   -6.1879   25.1670 C   0  0  0  0  0  0  0  0  0  0  0  0
    9.6750    6.0523   23.9437 C   0  0  0  0  0  0  0  0  0  0  0  0
    8.8757    1.0906   23.9831 C   0  0  0  0  0  0  0  0  0  0  0  0
    9.4200   -0.0840   22.9530 C   0  0  2  0  0  0  0  0  0  0  0  0
   10.9979    4.1151   23.3843 N   0  0  0  0  0  0  0  0  0  0  0  0
    6.9440    0.2550   18.0100 N   0  0  0  0  0  0  0  0  0  0  0  0
    9.8322    4.6230   23.8194 N   0  0  0  0  0  0  0  0  0  0  0  0
    9.2641   -4.8861   25.8398 N   0  0  0  0  0  0  0  0  0  0  0  0
    8.0810   -0.9750   21.0820 N   0  0  0  0  0  0  0  0  0  0  0  0
    9.1870    1.1500   21.0630 O   0  0  0  0  0  0  0  0  0  0  0  0
    3.6256    2.0106   21.6303 H   0  0  0  0  0  0  0  0  0  0  0  0
    3.2724    2.7868   19.3204 H   0  0  0  0  0  0  0  0  0  0  0  0
    5.4858    0.4664   22.1692 H   0  0  0  0  0  0  0  0  0  0  0  0
    7.5957   -0.7779   24.7973 H   0  0  0  0  0  0  0  0  0  0  0  0
   11.0384   -2.1852   22.6338 H   0  0  0  0  0  0  0  0  0  0  0  0
    4.7836    2.0664   17.4848 H   0  0  0  0  0  0  0  0  0  0  0  0
    7.5634   -2.8637   26.1037 H   0  0  0  0  0  0  0  0  0  0  0  0
   11.0139   -4.2645   23.9419 H   0  0  0  0  0  0  0  0  0  0  0  0
   11.5733    2.1354   23.0851 H   0  0  0  0  0  0  0  0  0  0  0  0
    7.9057    3.9405   24.4642 H   0  0  0  0  0  0  0  0  0  0  0  0
    8.5274   -1.0858   18.3384 H   0  0  0  0  0  0  0  0  0  0  0  0
    7.8644   -7.6283   27.1289 H   0  0  0  0  0  0  0  0  0  0  0  0
    6.2830   -7.2423   26.4478 H   0  0  0  0  0  0  0  0  0  0  0  0
    6.6663   -4.8405   26.7221 H   0  0  0  0  0  0  0  0  0  0  0  0
    7.0062   -5.6400   28.2540 H   0  0  0  0  0  0  0  0  0  0  0  0
    8.0018   -7.8160   24.6962 H   0  0  0  0  0  0  0  0  0  0  0  0
    7.2963   -6.2182   24.4678 H   0  0  0  0  0  0  0  0  0  0  0  0
    8.7322   -3.9404   27.6532 H   0  0  0  0  0  0  0  0  0  0  0  0
    9.4260   -5.5610   27.8283 H   0  0  0  0  0  0  0  0  0  0  0  0
   10.0249   -6.8474   25.7028 H   0  0  0  0  0  0  0  0  0  0  0  0
    9.7015   -6.0700   24.1446 H   0  0  0  0  0  0  0  0  0  0  0  0
    9.9836    6.3391   24.9525 H   0  0  0  0  0  0  0  0  0  0  0  0
   10.2970    6.5534   23.1967 H   0  0  0  0  0  0  0  0  0  0  0  0
    8.6277    6.3169   23.7734 H   0  0  0  0  0  0  0  0  0  0  0  0
    8.9639    0.7632   25.0273 H   0  0  0  0  0  0  0  0  0  0  0  0
    7.7964    1.1765   23.7949 H   0  0  0  0  0  0  0  0  0  0  0  0
   10.5749    0.2253   22.9765 H   0  0  0  0  0  0  0  0  0  0  0  0
    7.0325    0.4238   17.0175 H   0  0  0  0  0  0  0  0  0  0  0  0
    8.1354   -1.7990   21.3694 H   0  0  0  0  0  0  0  0  0  0  0  0
  1  2  1  0  0  0  0
  1  3  2  0  0  0  0
  2  6  2  0  0  0  0
  3 12  1  0  0  0  0
  4  7  2  0  0  0  0
  4 13  1  0  0  0  0
  5  8  1  0  0  0  0
  5 13  2  0  0  0  0
  6 15  1  0  0  0  0
  7 16  1  0  0  0  0
  8 16  2  0  0  0  0
  9 14  1  0  0  0  0
  9 27  2  0  0  0  0
 10 14  2  0  0  0  0
 10 29  1  0  0  0  0
 11 17  2  0  0  0  0
 11 28  1  0  0  0  0
 12 15  2  0  0  0  0
 12 17  1  0  0  0  0
 13 26  1  0  0  0  0
 14 25  1  0  0  0  0
 15 28  1  0  0  0  0
 16 30  1  0  0  0  0
 17 31  1  0  0  0  0
 18 26  1  0  0  0  0
 18 31  1  0  0  0  0
 18 32  2  0  0  0  0
 19 20  1  0  0  0  0
 19 21  1  0  0  0  0
 20 22  1  0  0  0  0
 21 23  1  0  0  0  0
 22 30  1  0  0  0  0
 23 30  1  0  0  0  0
 24 29  1  0  0  0  0
 25 26  1  6  0  0  0
 27 29  1  0  0  0  0
  1 33  1  0  0  0  0
  2 34  1  0  0  0  0
  3 35  1  0  0  0  0
  4 36  1  0  0  0  0
  5 37  1  0  0  0  0
  6 38  1  0  0  0  0
  7 39  1  0  0  0  0
  8 40  1  0  0  0  0
  9 41  1  0  0  0  0
 10 42  1  0  0  0  0
 11 43  1  0  0  0  0
 19 44  1  0  0  0  0
 19 45  1  0  0  0  0
 20 46  1  0  0  0  0
 20 47  1  0  0  0  0
 21 48  1  0  0  0  0
 21 49  1  0  0  0  0
 22 50  1  0  0  0  0
 22 51  1  0  0  0  0
 23 52  1  0  0  0  0
 23 53  1  0  0  0  0
 24 54  1  0  0  0  0
 24 55  1  0  0  0  0
 24 56  1  0  0  0  0
 25 57  1  0  0  0  0
 25 58  1  0  0  0  0
 26 59  1  0  0  0  0
 28 60  1  0  0  0  0
 31 61  1  0  0  0  0
M  END
> <clash_score>
0

> <docking_score>
-8.424942016601562

> <overlap_score>
0.8668239712715149

$$$$
BENZO_294_1
  -OEChem-08232013503D

 49 52  0     1  0  0  0  0  0999 V2000
    4.2970    1.6690   20.8430 C   0  0  0  0  0  0  0  0  0  0  0  0
    4.0980    2.1130   19.5350 C   0  0  0  0  0  0  0  0  0  0  0  0
   10.2645    4.1315   23.6906 C   0  0  0  0  0  0  0  0  0  0  0  0
    5.3360    0.8000   21.1530 C   0  0  0  0  0  0  0  0  0  0  0  0
   10.1177    2.7447   23.6595 C   0  0  0  0  0  0  0  0  0  0  0  0
    8.3310   -2.7170   25.3430 C   0  0  0  0  0  0  0  0  0  0  0  0
   10.2570   -3.5000   24.1350 C   0  0  0  0  0  0  0  0  0  0  0  0
    8.3510   -1.5420   24.6110 C   0  0  0  0  0  0  0  0  0  0  0  0
   10.2760   -2.3270   23.4020 C   0  0  0  0  0  0  0  0  0  0  0  0
    4.9400    1.7060   18.5060 C   0  0  0  0  0  0  0  0  0  0  0  0
   11.4306    4.7205   23.2018 C   0  0  0  0  0  0  0  0  0  0  0  0
   12.3032    2.5360   22.6510 C   0  0  0  0  0  0  0  0  0  0  0  0
    7.6830   -0.5170   18.7600 C   0  0  0  0  0  0  0  0  0  0  0  0
    6.1600    0.3870   20.1140 C   0  0  0  0  0  0  0  0  0  0  0  0
    9.2850   -3.7090   25.1090 C   0  0  0  0  0  0  0  0  0  0  0  0
    9.3300   -1.3350   23.6390 C   0  0  0  0  0  0  0  0  0  0  0  0
   11.1370    1.9470   23.1397 C   0  0  0  0  0  0  0  0  0  0  0  0
    5.9810    0.8330   18.8060 C   0  0  0  0  0  0  0  0  0  0  0  0
    7.2210   -0.4620   20.0350 C   0  0  0  0  0  0  0  0  0  0  0  0
   12.4500    3.9227   22.6820 C   0  0  0  0  0  0  0  0  0  0  0  0
    8.9510    0.1280   21.6880 C   0  0  0  0  0  0  0  0  0  0  0  0
    9.2618   -4.9724   25.8910 C   0  0  0  0  0  0  0  0  0  0  0  0
   10.9777    0.4443   23.1075 C   0  0  0  0  0  0  0  0  0  0  0  0
    9.4200   -0.0840   22.9530 C   0  0  1  0  0  0  0  0  0  0  0  0
    6.9440    0.2550   18.0100 N   0  0  0  0  0  0  0  0  0  0  0  0
    8.0810   -0.9750   21.0820 N   0  0  0  0  0  0  0  0  0  0  0  0
    9.1870    1.1500   21.0630 O   0  0  0  0  0  0  0  0  0  0  0  0
   13.8890    4.6500   22.0802 Cl  0  0  0  0  0  0  0  0  0  0  0  0
    3.6256    2.0106   21.6303 H   0  0  0  0  0  0  0  0  0  0  0  0
    3.2724    2.7868   19.3204 H   0  0  0  0  0  0  0  0  0  0  0  0
    9.4706    4.7523   24.0955 H   0  0  0  0  0  0  0  0  0  0  0  0
    5.4858    0.4664   22.1692 H   0  0  0  0  0  0  0  0  0  0  0  0
    9.2057    2.2944   24.0426 H   0  0  0  0  0  0  0  0  0  0  0  0
    7.5655   -2.8644   26.1055 H   0  0  0  0  0  0  0  0  0  0  0  0
   11.0125   -4.2662   23.9435 H   0  0  0  0  0  0  0  0  0  0  0  0
    7.5953   -0.7782   24.7971 H   0  0  0  0  0  0  0  0  0  0  0  0
   11.0394   -2.1837   22.6349 H   0  0  0  0  0  0  0  0  0  0  0  0
    4.7836    2.0664   17.4848 H   0  0  0  0  0  0  0  0  0  0  0  0
   11.5314    5.8026   23.2326 H   0  0  0  0  0  0  0  0  0  0  0  0
   13.0949    1.9096   22.2463 H   0  0  0  0  0  0  0  0  0  0  0  0
    8.5274   -1.0858   18.3384 H   0  0  0  0  0  0  0  0  0  0  0  0
    8.6408   -5.7227   25.3864 H   0  0  0  0  0  0  0  0  0  0  0  0
   10.2726   -5.3829   26.0135 H   0  0  0  0  0  0  0  0  0  0  0  0
    8.8606   -4.8102   26.9000 H   0  0  0  0  0  0  0  0  0  0  0  0
   11.5363    0.0386   22.2539 H   0  0  0  0  0  0  0  0  0  0  0  0
   11.4704    0.0336   23.9998 H   0  0  0  0  0  0  0  0  0  0  0  0
    8.9182    0.7194   23.6789 H   0  0  0  0  0  0  0  0  0  0  0  0
    7.0325    0.4238   17.0175 H   0  0  0  0  0  0  0  0  0  0  0  0
    8.1175   -1.8104   21.3538 H   0  0  0  0  0  0  0  0  0  0  0  0
  1  2  1  0  0  0  0
  1  4  2  0  0  0  0
  2 10  2  0  0  0  0
  3  5  2  0  0  0  0
  3 11  1  0  0  0  0
  4 14  1  0  0  0  0
  5 17  1  0  0  0  0
  6  8  2  0  0  0  0
  6 15  1  0  0  0  0
  7  9  1  0  0  0  0
  7 15  2  0  0  0  0
  8 16  1  0  0  0  0
  9 16  2  0  0  0  0
 10 18  1  0  0  0  0
 11 20  2  0  0  0  0
 12 17  2  0  0  0  0
 12 20  1  0  0  0  0
 13 19  2  0  0  0  0
 13 25  1  0  0  0  0
 14 18  2  0  0  0  0
 14 19  1  0  0  0  0
 15 22  1  0  0  0  0
 16 24  1  0  0  0  0
 17 23  1  0  0  0  0
 18 25  1  0  0  0  0
 19 26  1  0  0  0  0
 20 28  1  0  0  0  0
 21 24  1  0  0  0  0
 21 26  1  0  0  0  0
 21 27  2  0  0  0  0
 23 24  1  1  0  0  0
  1 29  1  0  0  0  0
  2 30  1  0  0  0  0
  3 31  1  0  0  0  0
  4 32  1  0  0  0  0
  5 33  1  0  0  0  0
  6 34  1  0  0  0  0
  7 35  1  0  0  0  0
  8 36  1  0  0  0  0
  9 37  1  0  0  0  0
 10 38  1  0  0  0  0
 11 39  1  0  0  0  0
 12 40  1  0  0  0  0
 13 41  1  0  0  0  0
 22 42  1  0  0  0  0
 22 43  1  0  0  0  0
 22 44  1  0  0  0  0
 23 45  1  0  0  0  0
 23 46  1  0  0  0  0
 24 47  1  0  0  0  0
 25 48  1  0  0  0  0
 26 49  1  0  0  0  0
M  END
> <clash_score>
0

> <docking_score>
-11.110100746154785

> <overlap_score>
0.902215838432312

$$$$
BENZO_294_2
  -OEChem-08232013503D

 49 52  0     1  0  0  0  0  0999 V2000
    4.2970    1.6690   20.8430 C   0  0  0  0  0  0  0  0  0  0  0  0
    4.0980    2.1130   19.5350 C   0  0  0  0  0  0  0  0  0  0  0  0
    9.3211    4.8553   24.0536 C   0  0  0  0  0  0  0  0  0  0  0  0
    5.3360    0.8000   21.1530 C   0  0  0  0  0  0  0  0  0  0  0  0
    8.7511    3.5884   24.1784 C   0  0  0  0  0  0  0  0  0  0  0  0
    8.3310   -2.7170   25.3430 C   0  0  0  0  0  0  0  0  0  0  0  0
   10.2570   -3.5000   24.1350 C   0  0  0  0  0  0  0  0  0  0  0  0
    8.3510   -1.5420   24.6110 C   0  0  0  0  0  0  0  0  0  0  0  0
   10.2760   -2.3270   23.4020 C   0  0  0  0  0  0  0  0  0  0  0  0
    4.9400    1.7060   18.5060 C   0  0  0  0  0  0  0  0  0  0  0  0
   10.6349    4.9878   23.6043 C   0  0  0  0  0  0  0  0  0  0  0  0
   10.8089    2.5864   23.4046 C   0  0  0  0  0  0  0  0  0  0  0  0
    7.6830   -0.5170   18.7600 C   0  0  0  0  0  0  0  0  0  0  0  0
    6.1600    0.3870   20.1140 C   0  0  0  0  0  0  0  0  0  0  0  0
    9.2850   -3.7090   25.1090 C   0  0  0  0  0  0  0  0  0  0  0  0
    9.3300   -1.3350   23.6390 C   0  0  0  0  0  0  0  0  0  0  0  0
    9.4950    2.4539   23.8539 C   0  0  0  0  0  0  0  0  0  0  0  0
    5.9810    0.8330   18.8060 C   0  0  0  0  0  0  0  0  0  0  0  0
    7.2210   -0.4620   20.0350 C   0  0  0  0  0  0  0  0  0  0  0  0
   11.3788    3.8534   23.2798 C   0  0  0  0  0  0  0  0  0  0  0  0
    8.9510    0.1280   21.6880 C   0  0  0  0  0  0  0  0  0  0  0  0
    9.2618   -4.9724   25.8910 C   0  0  0  0  0  0  0  0  0  0  0  0
    8.8771    1.0813   23.9905 C   0  0  0  0  0  0  0  0  0  0  0  0
    9.4200   -0.0840   22.9530 C   0  0  2  0  0  0  0  0  0  0  0  0
    6.9440    0.2550   18.0100 N   0  0  0  0  0  0  0  0  0  0  0  0
    8.0810   -0.9750   21.0820 N   0  0  0  0  0  0  0  0  0  0  0  0
    9.1870    1.1500   21.0630 O   0  0  0  0  0  0  0  0  0  0  0  0
   13.0002    4.0175   22.7265 Cl  0  0  0  0  0  0  0  0  0  0  0  0
    3.6256    2.0106   21.6303 H   0  0  0  0  0  0  0  0  0  0  0  0
    3.2724    2.7868   19.3204 H   0  0  0  0  0  0  0  0  0  0  0  0
    8.7415    5.7384   24.3065 H   0  0  0  0  0  0  0  0  0  0  0  0
    5.4858    0.4664   22.1692 H   0  0  0  0  0  0  0  0  0  0  0  0
    7.7267    3.4945   24.5294 H   0  0  0  0  0  0  0  0  0  0  0  0
    7.5655   -2.8644   26.1055 H   0  0  0  0  0  0  0  0  0  0  0  0
   11.0125   -4.2662   23.9435 H   0  0  0  0  0  0  0  0  0  0  0  0
    7.5953   -0.7782   24.7971 H   0  0  0  0  0  0  0  0  0  0  0  0
   11.0394   -2.1837   22.6349 H   0  0  0  0  0  0  0  0  0  0  0  0
    4.7836    2.0664   17.4848 H   0  0  0  0  0  0  0  0  0  0  0  0
   11.0663    5.9816   23.5122 H   0  0  0  0  0  0  0  0  0  0  0  0
   11.3846    1.6989   23.1523 H   0  0  0  0  0  0  0  0  0  0  0  0
    8.5274   -1.0858   18.3384 H   0  0  0  0  0  0  0  0  0  0  0  0
    8.6408   -5.7227   25.3864 H   0  0  0  0  0  0  0  0  0  0  0  0
   10.2726   -5.3829   26.0135 H   0  0  0  0  0  0  0  0  0  0  0  0
    8.8606   -4.8102   26.9000 H   0  0  0  0  0  0  0  0  0  0  0  0
    8.9708    0.7434   25.0308 H   0  0  0  0  0  0  0  0  0  0  0  0
    7.7972    1.1781   23.8117 H   0  0  0  0  0  0  0  0  0  0  0  0
   10.5743    0.2174   22.9808 H   0  0  0  0  0  0  0  0  0  0  0  0
    7.0325    0.4238   17.0175 H   0  0  0  0  0  0  0  0  0  0  0  0
    8.1175   -1.8104   21.3538 H   0  0  0  0  0  0  0  0  0  0  0  0
  1  2  1  0  0  0  0
  1  4  2  0  0  0  0
  2 10  2  0  0  0  0
  3  5  2  0  0  0  0
  3 11  1  0  0  0  0
  4 14  1  0  0  0  0
  5 17  1  0  0  0  0
  6  8  2  0  0  0  0
  6 15  1  0  0  0  0
  7  9  1  0  0  0  0
  7 15  2  0  0  0  0
  8 16  1  0  0  0  0
  9 16  2  0  0  0  0
 10 18  1  0  0  0  0
 11 20  2  0  0  0  0
 12 17  2  0  0  0  0
 12 20  1  0  0  0  0
 13 19  2  0  0  0  0
 13 25  1  0  0  0  0
 14 18  2  0  0  0  0
 14 19  1  0  0  0  0
 15 22  1  0  0  0  0
 16 24  1  0  0  0  0
 17 23  1  0  0  0  0
 18 25  1  0  0  0  0
 19 26  1  0  0  0  0
 20 28  1  0  0  0  0
 21 24  1  0  0  0  0
 21 26  1  0  0  0  0
 21 27  2  0  0  0  0
 23 24  1  6  0  0  0
  1 29  1  0  0  0  0
  2 30  1  0  0  0  0
  3 31  1  0  0  0  0
  4 32  1  0  0  0  0
  5 33  1  0  0  0  0
  6 34  1  0  0  0  0
  7 35  1  0  0  0  0
  8 36  1  0  0  0  0
  9 37  1  0  0  0  0
 10 38  1  0  0  0  0
 11 39  1  0  0  0  0
 12 40  1  0  0  0  0
 13 41  1  0  0  0  0
 22 42  1  0  0  0  0
 22 43  1  0  0  0  0
 22 44  1  0  0  0  0
 23 45  1  0  0  0  0
 23 46  1  0  0  0  0
 24 47  1  0  0  0  0
 25 48  1  0  0  0  0
 26 49  1  0  0  0  0
M  END
> <clash_score>
0

> <docking_score>
-10.102227210998535

> <overlap_score>
0.837533712387085

$$$$
BENZO_295_1
  -OEChem-08232013503D

 49 52  0     1  0  0  0  0  0999 V2000
    4.2970    1.6690   20.8430 C   0  0  0  0  0  0  0  0  0  0  0  0
    4.0980    2.1130   19.5350 C   0  0  0  0  0  0  0  0  0  0  0  0
    5.3360    0.8000   21.1530 C   0  0  0  0  0  0  0  0  0  0  0  0
    8.3310   -2.7170   25.3430 C   0  0  0  0  0  0  0  0  0  0  0  0
   10.2570   -3.5000   24.1350 C   0  0  0  0  0  0  0  0  0  0  0  0
    8.3510   -1.5420   24.6110 C   0  0  0  0  0  0  0  0  0  0  0  0
   10.2760   -2.3270   23.4020 C   0  0  0  0  0  0  0  0  0  0  0  0
    4.9400    1.7060   18.5060 C   0  0  0  0  0  0  0  0  0  0  0  0
   10.2235    2.9023   23.6242 C   0  0  0  0  0  0  0  0  0  0  0  0
   12.2091    2.6870   22.7043 C   0  0  0  0  0  0  0  0  0  0  0  0
    7.6830   -0.5170   18.7600 C   0  0  0  0  0  0  0  0  0  0  0  0
    6.1600    0.3870   20.1140 C   0  0  0  0  0  0  0  0  0  0  0  0
    9.2850   -3.7090   25.1090 C   0  0  0  0  0  0  0  0  0  0  0  0
    9.3300   -1.3350   23.6390 C   0  0  0  0  0  0  0  0  0  0  0  0
   11.1370    1.9470   23.1397 C   0  0  0  0  0  0  0  0  0  0  0  0
    5.9810    0.8330   18.8060 C   0  0  0  0  0  0  0  0  0  0  0  0
    7.2210   -0.4620   20.0350 C   0  0  0  0  0  0  0  0  0  0  0  0
    8.9510    0.1280   21.6880 C   0  0  0  0  0  0  0  0  0  0  0  0
    9.2618   -4.9724   25.8910 C   0  0  0  0  0  0  0  0  0  0  0  0
   12.7031    5.1430   22.6554 C   0  0  0  0  0  0  0  0  0  0  0  0
   10.9777    0.4443   23.1075 C   0  0  0  0  0  0  0  0  0  0  0  0
    9.4200   -0.0840   22.9530 C   0  0  1  0  0  0  0  0  0  0  0  0
   10.6758    4.1536   23.5079 N   0  0  0  0  0  0  0  0  0  0  0  0
    6.9440    0.2550   18.0100 N   0  0  0  0  0  0  0  0  0  0  0  0
   11.8853    3.9898   22.9453 N   0  0  0  0  0  0  0  0  0  0  0  0
    8.0810   -0.9750   21.0820 N   0  0  0  0  0  0  0  0  0  0  0  0
    9.1870    1.1500   21.0630 O   0  0  0  0  0  0  0  0  0  0  0  0
    3.6256    2.0106   21.6303 H   0  0  0  0  0  0  0  0  0  0  0  0
    3.2724    2.7868   19.3204 H   0  0  0  0  0  0  0  0  0  0  0  0
    5.4858    0.4664   22.1692 H   0  0  0  0  0  0  0  0  0  0  0  0
    7.5655   -2.8644   26.1055 H   0  0  0  0  0  0  0  0  0  0  0  0
   11.0125   -4.2662   23.9435 H   0  0  0  0  0  0  0  0  0  0  0  0
    7.5953   -0.7782   24.7971 H   0  0  0  0  0  0  0  0  0  0  0  0
   11.0394   -2.1837   22.6349 H   0  0  0  0  0  0  0  0  0  0  0  0
    4.7836    2.0664   17.4848 H   0  0  0  0  0  0  0  0  0  0  0  0
    9.2470    2.7411   24.0585 H   0  0  0  0  0  0  0  0  0  0  0  0
   13.1519    2.4044   22.2557 H   0  0  0  0  0  0  0  0  0  0  0  0
    8.5274   -1.0858   18.3384 H   0  0  0  0  0  0  0  0  0  0  0  0
    8.6408   -5.7227   25.3864 H   0  0  0  0  0  0  0  0  0  0  0  0
   10.2726   -5.3829   26.0135 H   0  0  0  0  0  0  0  0  0  0  0  0
    8.8606   -4.8102   26.9000 H   0  0  0  0  0  0  0  0  0  0  0  0
   12.4640    5.4803   21.6435 H   0  0  0  0  0  0  0  0  0  0  0  0
   12.4902    5.9323   23.3818 H   0  0  0  0  0  0  0  0  0  0  0  0
   13.7583    4.8651   22.7277 H   0  0  0  0  0  0  0  0  0  0  0  0
   11.5363    0.0386   22.2539 H   0  0  0  0  0  0  0  0  0  0  0  0
   11.4704    0.0336   23.9998 H   0  0  0  0  0  0  0  0  0  0  0  0
    8.9182    0.7194   23.6789 H   0  0  0  0  0  0  0  0  0  0  0  0
    7.0325    0.4238   17.0175 H   0  0  0  0  0  0  0  0  0  0  0  0
    8.1175   -1.8104   21.3538 H   0  0  0  0  0  0  0  0  0  0  0  0
  1  2  1  0  0  0  0
  1  3  2  0  0  0  0
  2  8  2  0  0  0  0
  3 12  1  0  0  0  0
  4  6  2  0  0  0  0
  4 13  1  0  0  0  0
  5  7  1  0  0  0  0
  5 13  2  0  0  0  0
  6 14  1  0  0  0  0
  7 14  2  0  0  0  0
  8 16  1  0  0  0  0
  9 15  1  0  0  0  0
  9 23  2  0  0  0  0
 10 15  2  0  0  0  0
 10 25  1  0  0  0  0
 11 17  2  0  0  0  0
 11 24  1  0  0  0  0
 12 16  2  0  0  0  0
 12 17  1  0  0  0  0
 13 19  1  0  0  0  0
 14 22  1  0  0  0  0
 15 21  1  0  0  0  0
 16 24  1  0  0  0  0
 17 26  1  0  0  0  0
 18 22  1  0  0  0  0
 18 26  1  0  0  0  0
 18 27  2  0  0  0  0
 20 25  1  0  0  0  0
 21 22  1  1  0  0  0
 23 25  1  0  0  0  0
  1 28  1  0  0  0  0
  2 29  1  0  0  0  0
  3 30  1  0  0  0  0
  4 31  1  0  0  0  0
  5 32  1  0  0  0  0
  6 33  1  0  0  0  0
  7 34  1  0  0  0  0
  8 35  1  0  0  0  0
  9 36  1  0  0  0  0
 10 37  1  0  0  0  0
 11 38  1  0  0  0  0
 19 39  1  0  0  0  0
 19 40  1  0  0  0  0
 19 41  1  0  0  0  0
 20 42  1  0  0  0  0
 20 43  1  0  0  0  0
 20 44  1  0  0  0  0
 21 45  1  0  0  0  0
 21 46  1  0  0  0  0
 22 47  1  0  0  0  0
 24 48  1  0  0  0  0
 26 49  1  0  0  0  0
M  END
> <clash_score>
0

> <docking_score>
-10.638790130615234

> <overlap_score>
0.8960138559341431

$$$$
BENZO_295_2
  -OEChem-08232013503D

 49 52  0     1  0  0  0  0  0999 V2000
    4.2970    1.6690   20.8430 C   0  0  0  0  0  0  0  0  0  0  0  0
    4.0980    2.1130   19.5350 C   0  0  0  0  0  0  0  0  0  0  0  0
    5.3360    0.8000   21.1530 C   0  0  0  0  0  0  0  0  0  0  0  0
    8.3310   -2.7170   25.3430 C   0  0  0  0  0  0  0  0  0  0  0  0
   10.2570   -3.5000   24.1350 C   0  0  0  0  0  0  0  0  0  0  0  0
    8.3510   -1.5420   24.6110 C   0  0  0  0  0  0  0  0  0  0  0  0
   10.2760   -2.3270   23.4020 C   0  0  0  0  0  0  0  0  0  0  0  0
    4.9400    1.7060   18.5060 C   0  0  0  0  0  0  0  0  0  0  0  0
   10.7939    2.7770   23.4177 C   0  0  0  0  0  0  0  0  0  0  0  0
    8.9123    3.6676   24.1257 C   0  0  0  0  0  0  0  0  0  0  0  0
    7.6830   -0.5170   18.7600 C   0  0  0  0  0  0  0  0  0  0  0  0
    6.1600    0.3870   20.1140 C   0  0  0  0  0  0  0  0  0  0  0  0
    9.2850   -3.7090   25.1090 C   0  0  0  0  0  0  0  0  0  0  0  0
    9.3300   -1.3350   23.6390 C   0  0  0  0  0  0  0  0  0  0  0  0
    9.4950    2.4539   23.8539 C   0  0  0  0  0  0  0  0  0  0  0  0
    5.9810    0.8330   18.8060 C   0  0  0  0  0  0  0  0  0  0  0  0
    7.2210   -0.4620   20.0350 C   0  0  0  0  0  0  0  0  0  0  0  0
    8.9510    0.1280   21.6880 C   0  0  0  0  0  0  0  0  0  0  0  0
    9.2618   -4.9724   25.8910 C   0  0  0  0  0  0  0  0  0  0  0  0
    9.7138    6.0371   23.9775 C   0  0  0  0  0  0  0  0  0  0  0  0
    8.8771    1.0813   23.9905 C   0  0  0  0  0  0  0  0  0  0  0  0
    9.4200   -0.0840   22.9530 C   0  0  2  0  0  0  0  0  0  0  0  0
   11.0232    4.0928   23.4110 N   0  0  0  0  0  0  0  0  0  0  0  0
    6.9440    0.2550   18.0100 N   0  0  0  0  0  0  0  0  0  0  0  0
    9.8605    4.6073   23.8463 N   0  0  0  0  0  0  0  0  0  0  0  0
    8.0810   -0.9750   21.0820 N   0  0  0  0  0  0  0  0  0  0  0  0
    9.1870    1.1500   21.0630 O   0  0  0  0  0  0  0  0  0  0  0  0
    3.6256    2.0106   21.6303 H   0  0  0  0  0  0  0  0  0  0  0  0
    3.2724    2.7868   19.3204 H   0  0  0  0  0  0  0  0  0  0  0  0
    5.4858    0.4664   22.1692 H   0  0  0  0  0  0  0  0  0  0  0  0
    7.5655   -2.8644   26.1055 H   0  0  0  0  0  0  0  0  0  0  0  0
   11.0125   -4.2662   23.9435 H   0  0  0  0  0  0  0  0  0  0  0  0
    7.5953   -0.7782   24.7971 H   0  0  0  0  0  0  0  0  0  0  0  0
   11.0394   -2.1837   22.6349 H   0  0  0  0  0  0  0  0  0  0  0  0
    4.7836    2.0664   17.4848 H   0  0  0  0  0  0  0  0  0  0  0  0
   11.5843    2.1103   23.1031 H   0  0  0  0  0  0  0  0  0  0  0  0
    7.9277    3.9360   24.4839 H   0  0  0  0  0  0  0  0  0  0  0  0
    8.5274   -1.0858   18.3384 H   0  0  0  0  0  0  0  0  0  0  0  0
    8.6408   -5.7227   25.3864 H   0  0  0  0  0  0  0  0  0  0  0  0
   10.2726   -5.3829   26.0135 H   0  0  0  0  0  0  0  0  0  0  0  0
    8.8606   -4.8102   26.9000 H   0  0  0  0  0  0  0  0  0  0  0  0
   10.0225    6.3165   24.9883 H   0  0  0  0  0  0  0  0  0  0  0  0
   10.3410    6.5371   23.2342 H   0  0  0  0  0  0  0  0  0  0  0  0
    8.6688    6.3103   23.8064 H   0  0  0  0  0  0  0  0  0  0  0  0
    8.9708    0.7434   25.0308 H   0  0  0  0  0  0  0  0  0  0  0  0
    7.7972    1.1781   23.8117 H   0  0  0  0  0  0  0  0  0  0  0  0
   10.5743    0.2174   22.9808 H   0  0  0  0  0  0  0  0  0  0  0  0
    7.0325    0.4238   17.0175 H   0  0  0  0  0  0  0  0  0  0  0  0
    8.1175   -1.8104   21.3538 H   0  0  0  0  0  0  0  0  0  0  0  0
  1  2  1  0  0  0  0
  1  3  2  0  0  0  0
  2  8  2  0  0  0  0
  3 12  1  0  0  0  0
  4  6  2  0  0  0  0
  4 13  1  0  0  0  0
  5  7  1  0  0  0  0
  5 13  2  0  0  0  0
  6 14  1  0  0  0  0
  7 14  2  0  0  0  0
  8 16  1  0  0  0  0
  9 15  1  0  0  0  0
  9 23  2  0  0  0  0
 10 15  2  0  0  0  0
 10 25  1  0  0  0  0
 11 17  2  0  0  0  0
 11 24  1  0  0  0  0
 12 16  2  0  0  0  0
 12 17  1  0  0  0  0
 13 19  1  0  0  0  0
 14 22  1  0  0  0  0
 15 21  1  0  0  0  0
 16 24  1  0  0  0  0
 17 26  1  0  0  0  0
 18 22  1  0  0  0  0
 18 26  1  0  0  0  0
 18 27  2  0  0  0  0
 20 25  1  0  0  0  0
 21 22  1  6  0  0  0
 23 25  1  0  0  0  0
  1 28  1  0  0  0  0
  2 29  1  0  0  0  0
  3 30  1  0  0  0  0
  4 31  1  0  0  0  0
  5 32  1  0  0  0  0
  6 33  1  0  0  0  0
  7 34  1  0  0  0  0
  8 35  1  0  0  0  0
  9 36  1  0  0  0  0
 10 37  1  0  0  0  0
 11 38  1  0  0  0  0
 19 39  1  0  0  0  0
 19 40  1  0  0  0  0
 19 41  1  0  0  0  0
 20 42  1  0  0  0  0
 20 43  1  0  0  0  0
 20 44  1  0  0  0  0
 21 45  1  0  0  0  0
 21 46  1  0  0  0  0
 22 47  1  0  0  0  0
 24 48  1  0  0  0  0
 26 49  1  0  0  0  0
M  END
> <clash_score>
0

> <docking_score>
-9.443095207214355

> <overlap_score>
0.822451651096344

$$$$
BENZO_297_1
  -OEChem-08232013503D

 50 53  0     1  0  0  0  0  0999 V2000
   11.4296    4.7207   23.1993 C   0  0  0  0  0  0  0  0  0  0  0  0
    4.2970    1.6690   20.8430 C   0  0  0  0  0  0  0  0  0  0  0  0
   12.4494    3.9228   22.6806 C   0  0  0  0  0  0  0  0  0  0  0  0
   10.2636    4.1317   23.6883 C   0  0  0  0  0  0  0  0  0  0  0  0
    4.0980    2.1130   19.5350 C   0  0  0  0  0  0  0  0  0  0  0  0
    5.3360    0.8000   21.1530 C   0  0  0  0  0  0  0  0  0  0  0  0
   12.3031    2.5360   22.6508 C   0  0  0  0  0  0  0  0  0  0  0  0
   10.1173    2.7449   23.6585 C   0  0  0  0  0  0  0  0  0  0  0  0
    8.3510   -1.5420   24.6110 C   0  0  0  0  0  0  0  0  0  0  0  0
   10.2760   -2.3270   23.4020 C   0  0  0  0  0  0  0  0  0  0  0  0
    4.9400    1.7060   18.5060 C   0  0  0  0  0  0  0  0  0  0  0  0
    8.3310   -2.7170   25.3430 C   0  0  0  0  0  0  0  0  0  0  0  0
   10.2570   -3.5000   24.1350 C   0  0  0  0  0  0  0  0  0  0  0  0
    7.6830   -0.5170   18.7600 C   0  0  0  0  0  0  0  0  0  0  0  0
    6.1600    0.3870   20.1140 C   0  0  0  0  0  0  0  0  0  0  0  0
   11.1370    1.9470   23.1397 C   0  0  0  0  0  0  0  0  0  0  0  0
    9.3300   -1.3350   23.6390 C   0  0  0  0  0  0  0  0  0  0  0  0
    5.9810    0.8330   18.8060 C   0  0  0  0  0  0  0  0  0  0  0  0
    7.2210   -0.4620   20.0350 C   0  0  0  0  0  0  0  0  0  0  0  0
    9.2850   -3.7090   25.1090 C   0  0  0  0  0  0  0  0  0  0  0  0
    8.9510    0.1280   21.6880 C   0  0  0  0  0  0  0  0  0  0  0  0
    8.2358   -4.9962   26.8042 C   0  0  0  0  0  0  0  0  0  0  0  0
   10.9777    0.4443   23.1075 C   0  0  0  0  0  0  0  0  0  0  0  0
    9.4200   -0.0840   22.9530 C   0  0  1  0  0  0  0  0  0  0  0  0
    6.9440    0.2550   18.0100 N   0  0  0  0  0  0  0  0  0  0  0  0
    8.0810   -0.9750   21.0820 N   0  0  0  0  0  0  0  0  0  0  0  0
    9.1870    1.1500   21.0630 O   0  0  0  0  0  0  0  0  0  0  0  0
    9.2637   -4.8607   25.8240 O   0  0  0  0  0  0  0  0  0  0  0  0
   11.5443    5.8005   23.2237 H   0  0  0  0  0  0  0  0  0  0  0  0
    3.6256    2.0106   21.6303 H   0  0  0  0  0  0  0  0  0  0  0  0
   13.3579    4.3812   22.3008 H   0  0  0  0  0  0  0  0  0  0  0  0
    9.4699    4.7525   24.0932 H   0  0  0  0  0  0  0  0  0  0  0  0
    3.2724    2.7868   19.3204 H   0  0  0  0  0  0  0  0  0  0  0  0
    5.4858    0.4664   22.1692 H   0  0  0  0  0  0  0  0  0  0  0  0
   13.1028    1.9222   22.2446 H   0  0  0  0  0  0  0  0  0  0  0  0
    9.2052    2.2948   24.0415 H   0  0  0  0  0  0  0  0  0  0  0  0
    7.5962   -0.7776   24.7981 H   0  0  0  0  0  0  0  0  0  0  0  0
   11.0395   -2.1843   22.6346 H   0  0  0  0  0  0  0  0  0  0  0  0
    4.7836    2.0664   17.4848 H   0  0  0  0  0  0  0  0  0  0  0  0
    7.5664   -2.8672   26.1058 H   0  0  0  0  0  0  0  0  0  0  0  0
   11.0120   -4.2666   23.9463 H   0  0  0  0  0  0  0  0  0  0  0  0
    8.5274   -1.0858   18.3384 H   0  0  0  0  0  0  0  0  0  0  0  0
    8.3326   -5.9634   27.3035 H   0  0  0  0  0  0  0  0  0  0  0  0
    7.2583   -4.9194   26.3215 H   0  0  0  0  0  0  0  0  0  0  0  0
    8.3398   -4.1963   27.5412 H   0  0  0  0  0  0  0  0  0  0  0  0
   11.5363    0.0386   22.2539 H   0  0  0  0  0  0  0  0  0  0  0  0
   11.4704    0.0336   23.9998 H   0  0  0  0  0  0  0  0  0  0  0  0
    8.9182    0.7194   23.6789 H   0  0  0  0  0  0  0  0  0  0  0  0
    7.0325    0.4238   17.0175 H   0  0  0  0  0  0  0  0  0  0  0  0
    8.1175   -1.8104   21.3538 H   0  0  0  0  0  0  0  0  0  0  0  0
  1  3  1  0  0  0  0
  1  4  2  0  0  0  0
  2  5  1  0  0  0  0
  2  6  2  0  0  0  0
  3  7  2  0  0  0  0
  4  8  1  0  0  0  0
  5 11  2  0  0  0  0
  6 15  1  0  0  0  0
  7 16  1  0  0  0  0
  8 16  2  0  0  0  0
  9 12  2  0  0  0  0
  9 17  1  0  0  0  0
 10 13  1  0  0  0  0
 10 17  2  0  0  0  0
 11 18  1  0  0  0  0
 12 20  1  0  0  0  0
 13 20  2  0  0  0  0
 14 19  2  0  0  0  0
 14 25  1  0  0  0  0
 15 18  2  0  0  0  0
 15 19  1  0  0  0  0
 16 23  1  0  0  0  0
 17 24  1  0  0  0  0
 18 25  1  0  0  0  0
 19 26  1  0  0  0  0
 20 28  1  0  0  0  0
 21 24  1  0  0  0  0
 21 26  1  0  0  0  0
 21 27  2  0  0  0  0
 22 28  1  0  0  0  0
 23 24  1  1  0  0  0
  1 29  1  0  0  0  0
  2 30  1  0  0  0  0
  3 31  1  0  0  0  0
  4 32  1  0  0  0  0
  5 33  1  0  0  0  0
  6 34  1  0  0  0  0
  7 35  1  0  0  0  0
  8 36  1  0  0  0  0
  9 37  1  0  0  0  0
 10 38  1  0  0  0  0
 11 39  1  0  0  0  0
 12 40  1  0  0  0  0
 13 41  1  0  0  0  0
 14 42  1  0  0  0  0
 22 43  1  0  0  0  0
 22 44  1  0  0  0  0
 22 45  1  0  0  0  0
 23 46  1  0  0  0  0
 23 47  1  0  0  0  0
 24 48  1  0  0  0  0
 25 49  1  0  0  0  0
 26 50  1  0  0  0  0
M  END
> <clash_score>
0

> <docking_score>
-10.39060115814209

> <overlap_score>
0.9255407452583313

$$$$
BENZO_297_2
  -OEChem-08232013503D

 50 53  0     1  0  0  0  0  0999 V2000
   10.6367    4.9868   23.6018 C   0  0  0  0  0  0  0  0  0  0  0  0
    4.2970    1.6690   20.8430 C   0  0  0  0  0  0  0  0  0  0  0  0
    9.3228    4.8557   24.0511 C   0  0  0  0  0  0  0  0  0  0  0  0
   11.3798    3.8515   23.2784 C   0  0  0  0  0  0  0  0  0  0  0  0
    4.0980    2.1130   19.5350 C   0  0  0  0  0  0  0  0  0  0  0  0
    5.3360    0.8000   21.1530 C   0  0  0  0  0  0  0  0  0  0  0  0
    8.7519    3.5893   24.1772 C   0  0  0  0  0  0  0  0  0  0  0  0
   10.8090    2.5851   23.4045 C   0  0  0  0  0  0  0  0  0  0  0  0
    8.3510   -1.5420   24.6110 C   0  0  0  0  0  0  0  0  0  0  0  0
   10.2760   -2.3270   23.4020 C   0  0  0  0  0  0  0  0  0  0  0  0
    4.9400    1.7060   18.5060 C   0  0  0  0  0  0  0  0  0  0  0  0
    8.3310   -2.7170   25.3430 C   0  0  0  0  0  0  0  0  0  0  0  0
   10.2570   -3.5000   24.1350 C   0  0  0  0  0  0  0  0  0  0  0  0
    7.6830   -0.5170   18.7600 C   0  0  0  0  0  0  0  0  0  0  0  0
    6.1600    0.3870   20.1140 C   0  0  0  0  0  0  0  0  0  0  0  0
    9.4950    2.4539   23.8539 C   0  0  0  0  0  0  0  0  0  0  0  0
    9.3300   -1.3350   23.6390 C   0  0  0  0  0  0  0  0  0  0  0  0
    5.9810    0.8330   18.8060 C   0  0  0  0  0  0  0  0  0  0  0  0
    7.2210   -0.4620   20.0350 C   0  0  0  0  0  0  0  0  0  0  0  0
    9.2850   -3.7090   25.1090 C   0  0  0  0  0  0  0  0  0  0  0  0
    8.9510    0.1280   21.6880 C   0  0  0  0  0  0  0  0  0  0  0  0
    8.2358   -4.9962   26.8042 C   0  0  0  0  0  0  0  0  0  0  0  0
    8.8771    1.0813   23.9905 C   0  0  0  0  0  0  0  0  0  0  0  0
    9.4200   -0.0840   22.9530 C   0  0  2  0  0  0  0  0  0  0  0  0
    6.9440    0.2550   18.0100 N   0  0  0  0  0  0  0  0  0  0  0  0
    8.0810   -0.9750   21.0820 N   0  0  0  0  0  0  0  0  0  0  0  0
    9.1870    1.1500   21.0630 O   0  0  0  0  0  0  0  0  0  0  0  0
    9.2637   -4.8607   25.8240 O   0  0  0  0  0  0  0  0  0  0  0  0
   11.0806    5.9731   23.5024 H   0  0  0  0  0  0  0  0  0  0  0  0
    3.6256    2.0106   21.6303 H   0  0  0  0  0  0  0  0  0  0  0  0
    8.7437    5.7397   24.3019 H   0  0  0  0  0  0  0  0  0  0  0  0
   12.4025    3.9533   22.9274 H   0  0  0  0  0  0  0  0  0  0  0  0
    3.2724    2.7868   19.3204 H   0  0  0  0  0  0  0  0  0  0  0  0
    5.4858    0.4664   22.1692 H   0  0  0  0  0  0  0  0  0  0  0  0
    7.7275    3.4967   24.5283 H   0  0  0  0  0  0  0  0  0  0  0  0
   11.3955    1.7061   23.1503 H   0  0  0  0  0  0  0  0  0  0  0  0
    7.5962   -0.7776   24.7981 H   0  0  0  0  0  0  0  0  0  0  0  0
   11.0395   -2.1843   22.6346 H   0  0  0  0  0  0  0  0  0  0  0  0
    4.7836    2.0664   17.4848 H   0  0  0  0  0  0  0  0  0  0  0  0
    7.5664   -2.8672   26.1058 H   0  0  0  0  0  0  0  0  0  0  0  0
   11.0120   -4.2666   23.9463 H   0  0  0  0  0  0  0  0  0  0  0  0
    8.5274   -1.0858   18.3384 H   0  0  0  0  0  0  0  0  0  0  0  0
    8.3326   -5.9634   27.3035 H   0  0  0  0  0  0  0  0  0  0  0  0
    7.2583   -4.9194   26.3215 H   0  0  0  0  0  0  0  0  0  0  0  0
    8.3398   -4.1963   27.5412 H   0  0  0  0  0  0  0  0  0  0  0  0
    8.9708    0.7434   25.0308 H   0  0  0  0  0  0  0  0  0  0  0  0
    7.7972    1.1781   23.8117 H   0  0  0  0  0  0  0  0  0  0  0  0
   10.5743    0.2174   22.9808 H   0  0  0  0  0  0  0  0  0  0  0  0
    7.0325    0.4238   17.0175 H   0  0  0  0  0  0  0  0  0  0  0  0
    8.1175   -1.8104   21.3538 H   0  0  0  0  0  0  0  0  0  0  0  0
  1  3  1  0  0  0  0
  1  4  2  0  0  0  0
  2  5  1  0  0  0  0
  2  6  2  0  0  0  0
  3  7  2  0  0  0  0
  4  8  1  0  0  0  0
  5 11  2  0  0  0  0
  6 15  1  0  0  0  0
  7 16  1  0  0  0  0
  8 16  2  0  0  0  0
  9 12  2  0  0  0  0
  9 17  1  0  0  0  0
 10 13  1  0  0  0  0
 10 17  2  0  0  0  0
 11 18  1  0  0  0  0
 12 20  1  0  0  0  0
 13 20  2  0  0  0  0
 14 19  2  0  0  0  0
 14 25  1  0  0  0  0
 15 18  2  0  0  0  0
 15 19  1  0  0  0  0
 16 23  1  0  0  0  0
 17 24  1  0  0  0  0
 18 25  1  0  0  0  0
 19 26  1  0  0  0  0
 20 28  1  0  0  0  0
 21 24  1  0  0  0  0
 21 26  1  0  0  0  0
 21 27  2  0  0  0  0
 22 28  1  0  0  0  0
 23 24  1  6  0  0  0
  1 29  1  0  0  0  0
  2 30  1  0  0  0  0
  3 31  1  0  0  0  0
  4 32  1  0  0  0  0
  5 33  1  0  0  0  0
  6 34  1  0  0  0  0
  7 35  1  0  0  0  0
  8 36  1  0  0  0  0
  9 37  1  0  0  0  0
 10 38  1  0  0  0  0
 11 39  1  0  0  0  0
 12 40  1  0  0  0  0
 13 41  1  0  0  0  0
 14 42  1  0  0  0  0
 22 43  1  0  0  0  0
 22 44  1  0  0  0  0
 22 45  1  0  0  0  0
 23 46  1  0  0  0  0
 23 47  1  0  0  0  0
 24 48  1  0  0  0  0
 25 49  1  0  0  0  0
 26 50  1  0  0  0  0
M  END
> <clash_score>
0

> <docking_score>
-9.275967597961426

> <overlap_score>
0.8538740873336792

$$$$
BENZO_296_1
  -OEChem-08232013503D

 47 50  0     1  0  0  0  0  0999 V2000
    4.2970    1.6690   20.8430 C   0  0  0  0  0  0  0  0  0  0  0  0
    4.0980    2.1130   19.5350 C   0  0  0  0  0  0  0  0  0  0  0  0
    5.3360    0.8000   21.1530 C   0  0  0  0  0  0  0  0  0  0  0  0
    8.3510   -1.5420   24.6110 C   0  0  0  0  0  0  0  0  0  0  0  0
   10.2760   -2.3270   23.4020 C   0  0  0  0  0  0  0  0  0  0  0  0
    4.9400    1.7060   18.5060 C   0  0  0  0  0  0  0  0  0  0  0  0
    8.3310   -2.7170   25.3430 C   0  0  0  0  0  0  0  0  0  0  0  0
   10.2570   -3.5000   24.1350 C   0  0  0  0  0  0  0  0  0  0  0  0
   11.9019    2.6854   22.1912 C   0  0  0  0  0  0  0  0  0  0  0  0
    7.6830   -0.5170   18.7600 C   0  0  0  0  0  0  0  0  0  0  0  0
   11.8820    4.0381   22.4508 C   0  0  0  0  0  0  0  0  0  0  0  0
   10.5617    2.7635   24.0885 C   0  0  0  0  0  0  0  0  0  0  0  0
    6.1600    0.3870   20.1140 C   0  0  0  0  0  0  0  0  0  0  0  0
    9.3300   -1.3350   23.6390 C   0  0  0  0  0  0  0  0  0  0  0  0
   11.1370    1.9470   23.1397 C   0  0  0  0  0  0  0  0  0  0  0  0
    5.9810    0.8330   18.8060 C   0  0  0  0  0  0  0  0  0  0  0  0
    7.2210   -0.4620   20.0350 C   0  0  0  0  0  0  0  0  0  0  0  0
    9.2850   -3.7090   25.1090 C   0  0  0  0  0  0  0  0  0  0  0  0
    8.9510    0.1280   21.6880 C   0  0  0  0  0  0  0  0  0  0  0  0
    8.2358   -4.9962   26.8042 C   0  0  0  0  0  0  0  0  0  0  0  0
   10.9777    0.4443   23.1075 C   0  0  0  0  0  0  0  0  0  0  0  0
    9.4200   -0.0840   22.9530 C   0  0  1  0  0  0  0  0  0  0  0  0
    6.9440    0.2550   18.0100 N   0  0  0  0  0  0  0  0  0  0  0  0
    8.0810   -0.9750   21.0820 N   0  0  0  0  0  0  0  0  0  0  0  0
    9.1870    1.1500   21.0630 O   0  0  0  0  0  0  0  0  0  0  0  0
    9.2637   -4.8607   25.8240 O   0  0  0  0  0  0  0  0  0  0  0  0
   10.9440    4.4131   23.8335 S   0  0  0  0  0  0  0  0  0  0  0  0
    3.6256    2.0106   21.6303 H   0  0  0  0  0  0  0  0  0  0  0  0
    3.2724    2.7868   19.3204 H   0  0  0  0  0  0  0  0  0  0  0  0
    5.4858    0.4664   22.1692 H   0  0  0  0  0  0  0  0  0  0  0  0
    7.5962   -0.7776   24.7981 H   0  0  0  0  0  0  0  0  0  0  0  0
   11.0395   -2.1843   22.6346 H   0  0  0  0  0  0  0  0  0  0  0  0
    4.7836    2.0664   17.4848 H   0  0  0  0  0  0  0  0  0  0  0  0
    7.5664   -2.8672   26.1058 H   0  0  0  0  0  0  0  0  0  0  0  0
   11.0120   -4.2666   23.9463 H   0  0  0  0  0  0  0  0  0  0  0  0
   12.4414    2.2505   21.3593 H   0  0  0  0  0  0  0  0  0  0  0  0
    8.5274   -1.0858   18.3384 H   0  0  0  0  0  0  0  0  0  0  0  0
   12.3738    4.8240   21.8953 H   0  0  0  0  0  0  0  0  0  0  0  0
    9.9357    2.4743   24.9213 H   0  0  0  0  0  0  0  0  0  0  0  0
    8.3326   -5.9634   27.3035 H   0  0  0  0  0  0  0  0  0  0  0  0
    7.2583   -4.9194   26.3215 H   0  0  0  0  0  0  0  0  0  0  0  0
    8.3398   -4.1963   27.5412 H   0  0  0  0  0  0  0  0  0  0  0  0
   11.5363    0.0386   22.2539 H   0  0  0  0  0  0  0  0  0  0  0  0
   11.4704    0.0336   23.9998 H   0  0  0  0  0  0  0  0  0  0  0  0
    8.9182    0.7194   23.6789 H   0  0  0  0  0  0  0  0  0  0  0  0
    7.0325    0.4238   17.0175 H   0  0  0  0  0  0  0  0  0  0  0  0
    8.1175   -1.8104   21.3538 H   0  0  0  0  0  0  0  0  0  0  0  0
  1  2  1  0  0  0  0
  1  3  2  0  0  0  0
  2  6  2  0  0  0  0
  3 13  1  0  0  0  0
  4  7  2  0  0  0  0
  4 14  1  0  0  0  0
  5  8  1  0  0  0  0
  5 14  2  0  0  0  0
  6 16  1  0  0  0  0
  7 18  1  0  0  0  0
  8 18  2  0  0  0  0
  9 11  2  0  0  0  0
  9 15  1  0  0  0  0
 10 17  2  0  0  0  0
 10 23  1  0  0  0  0
 11 27  1  0  0  0  0
 12 15  2  0  0  0  0
 12 27  1  0  0  0  0
 13 16  2  0  0  0  0
 13 17  1  0  0  0  0
 14 22  1  0  0  0  0
 15 21  1  0  0  0  0
 16 23  1  0  0  0  0
 17 24  1  0  0  0  0
 18 26  1  0  0  0  0
 19 22  1  0  0  0  0
 19 24  1  0  0  0  0
 19 25  2  0  0  0  0
 20 26  1  0  0  0  0
 21 22  1  1  0  0  0
  1 28  1  0  0  0  0
  2 29  1  0  0  0  0
  3 30  1  0  0  0  0
  4 31  1  0  0  0  0
  5 32  1  0  0  0  0
  6 33  1  0  0  0  0
  7 34  1  0  0  0  0
  8 35  1  0  0  0  0
  9 36  1  0  0  0  0
 10 37  1  0  0  0  0
 11 38  1  0  0  0  0
 12 39  1  0  0  0  0
 20 40  1  0  0  0  0
 20 41  1  0  0  0  0
 20 42  1  0  0  0  0
 21 43  1  0  0  0  0
 21 44  1  0  0  0  0
 22 45  1  0  0  0  0
 23 46  1  0  0  0  0
 24 47  1  0  0  0  0
M  END
> <clash_score>
0

> <docking_score>
-8.931780815124512

> <overlap_score>
0.9145774245262146

$$$$
BENZO_296_2
  -OEChem-08232013503D

 47 50  0     1  0  0  0  0  0999 V2000
    4.2970    1.6690   20.8430 C   0  0  0  0  0  0  0  0  0  0  0  0
    4.0980    2.1130   19.5350 C   0  0  0  0  0  0  0  0  0  0  0  0
    5.3360    0.8000   21.1530 C   0  0  0  0  0  0  0  0  0  0  0  0
    8.3510   -1.5420   24.6110 C   0  0  0  0  0  0  0  0  0  0  0  0
   10.2760   -2.3270   23.4020 C   0  0  0  0  0  0  0  0  0  0  0  0
    4.9400    1.7060   18.5060 C   0  0  0  0  0  0  0  0  0  0  0  0
    8.3310   -2.7170   25.3430 C   0  0  0  0  0  0  0  0  0  0  0  0
   10.2570   -3.5000   24.1350 C   0  0  0  0  0  0  0  0  0  0  0  0
   10.8633    2.6804   23.5273 C   0  0  0  0  0  0  0  0  0  0  0  0
    7.6830   -0.5170   18.7600 C   0  0  0  0  0  0  0  0  0  0  0  0
   11.1655    4.0230   23.4669 C   0  0  0  0  0  0  0  0  0  0  0  0
    8.8035    3.6322   24.0309 C   0  0  0  0  0  0  0  0  0  0  0  0
    6.1600    0.3870   20.1140 C   0  0  0  0  0  0  0  0  0  0  0  0
    9.3300   -1.3350   23.6390 C   0  0  0  0  0  0  0  0  0  0  0  0
    9.4950    2.4539   23.8539 C   0  0  0  0  0  0  0  0  0  0  0  0
    5.9810    0.8330   18.8060 C   0  0  0  0  0  0  0  0  0  0  0  0
    7.2210   -0.4620   20.0350 C   0  0  0  0  0  0  0  0  0  0  0  0
    9.2850   -3.7090   25.1090 C   0  0  0  0  0  0  0  0  0  0  0  0
    8.9510    0.1280   21.6880 C   0  0  0  0  0  0  0  0  0  0  0  0
    8.2358   -4.9962   26.8042 C   0  0  0  0  0  0  0  0  0  0  0  0
    8.8771    1.0813   23.9905 C   0  0  0  0  0  0  0  0  0  0  0  0
    9.4200   -0.0840   22.9530 C   0  0  2  0  0  0  0  0  0  0  0  0
    6.9440    0.2550   18.0100 N   0  0  0  0  0  0  0  0  0  0  0  0
    8.0810   -0.9750   21.0820 N   0  0  0  0  0  0  0  0  0  0  0  0
    9.1870    1.1500   21.0630 O   0  0  0  0  0  0  0  0  0  0  0  0
    9.2637   -4.8607   25.8240 O   0  0  0  0  0  0  0  0  0  0  0  0
    9.8028    5.0040   23.8033 S   0  0  0  0  0  0  0  0  0  0  0  0
    3.6256    2.0106   21.6303 H   0  0  0  0  0  0  0  0  0  0  0  0
    3.2724    2.7868   19.3204 H   0  0  0  0  0  0  0  0  0  0  0  0
    5.4858    0.4664   22.1692 H   0  0  0  0  0  0  0  0  0  0  0  0
    7.5962   -0.7776   24.7981 H   0  0  0  0  0  0  0  0  0  0  0  0
   11.0395   -2.1843   22.6346 H   0  0  0  0  0  0  0  0  0  0  0  0
    4.7836    2.0664   17.4848 H   0  0  0  0  0  0  0  0  0  0  0  0
    7.5664   -2.8672   26.1058 H   0  0  0  0  0  0  0  0  0  0  0  0
   11.0120   -4.2666   23.9463 H   0  0  0  0  0  0  0  0  0  0  0  0
   11.5925    1.9010   23.3455 H   0  0  0  0  0  0  0  0  0  0  0  0
    8.5274   -1.0858   18.3384 H   0  0  0  0  0  0  0  0  0  0  0  0
   12.1213    4.4748   23.2422 H   0  0  0  0  0  0  0  0  0  0  0  0
    7.7599    3.7576   24.2842 H   0  0  0  0  0  0  0  0  0  0  0  0
    8.3326   -5.9634   27.3035 H   0  0  0  0  0  0  0  0  0  0  0  0
    7.2583   -4.9194   26.3215 H   0  0  0  0  0  0  0  0  0  0  0  0
    8.3398   -4.1963   27.5412 H   0  0  0  0  0  0  0  0  0  0  0  0
    8.9708    0.7434   25.0308 H   0  0  0  0  0  0  0  0  0  0  0  0
    7.7972    1.1781   23.8117 H   0  0  0  0  0  0  0  0  0  0  0  0
   10.5743    0.2174   22.9808 H   0  0  0  0  0  0  0  0  0  0  0  0
    7.0325    0.4238   17.0175 H   0  0  0  0  0  0  0  0  0  0  0  0
    8.1175   -1.8104   21.3538 H   0  0  0  0  0  0  0  0  0  0  0  0
  1  2  1  0  0  0  0
  1  3  2  0  0  0  0
  2  6  2  0  0  0  0
  3 13  1  0  0  0  0
  4  7  2  0  0  0  0
  4 14  1  0  0  0  0
  5  8  1  0  0  0  0
  5 14  2  0  0  0  0
  6 16  1  0  0  0  0
  7 18  1  0  0  0  0
  8 18  2  0  0  0  0
  9 11  2  0  0  0  0
  9 15  1  0  0  0  0
 10 17  2  0  0  0  0
 10 23  1  0  0  0  0
 11 27  1  0  0  0  0
 12 15  2  0  0  0  0
 12 27  1  0  0  0  0
 13 16  2  0  0  0  0
 13 17  1  0  0  0  0
 14 22  1  0  0  0  0
 15 21  1  0  0  0  0
 16 23  1  0  0  0  0
 17 24  1  0  0  0  0
 18 26  1  0  0  0  0
 19 22  1  0  0  0  0
 19 24  1  0  0  0  0
 19 25  2  0  0  0  0
 20 26  1  0  0  0  0
 21 22  1  6  0  0  0
  1 28  1  0  0  0  0
  2 29  1  0  0  0  0
  3 30  1  0  0  0  0
  4 31  1  0  0  0  0
  5 32  1  0  0  0  0
  6 33  1  0  0  0  0
  7 34  1  0  0  0  0
  8 35  1  0  0  0  0
  9 36  1  0  0  0  0
 10 37  1  0  0  0  0
 11 38  1  0  0  0  0
 12 39  1  0  0  0  0
 20 40  1  0  0  0  0
 20 41  1  0  0  0  0
 20 42  1  0  0  0  0
 21 43  1  0  0  0  0
 21 44  1  0  0  0  0
 22 45  1  0  0  0  0
 23 46  1  0  0  0  0
 24 47  1  0  0  0  0
M  END
> <clash_score>
0

> <docking_score>
-8.99932861328125

> <overlap_score>
0.8510885834693909

$$$$
BENZO_298_1
  -OEChem-08232013503D

 50 53  0     1  0  0  0  0  0999 V2000
    4.2970    1.6690   20.8430 C   0  0  0  0  0  0  0  0  0  0  0  0
    4.0980    2.1130   19.5350 C   0  0  0  0  0  0  0  0  0  0  0  0
   10.2645    4.1315   23.6906 C   0  0  0  0  0  0  0  0  0  0  0  0
    5.3360    0.8000   21.1530 C   0  0  0  0  0  0  0  0  0  0  0  0
   10.1177    2.7447   23.6595 C   0  0  0  0  0  0  0  0  0  0  0  0
    8.3510   -1.5420   24.6110 C   0  0  0  0  0  0  0  0  0  0  0  0
   10.2760   -2.3270   23.4020 C   0  0  0  0  0  0  0  0  0  0  0  0
    4.9400    1.7060   18.5060 C   0  0  0  0  0  0  0  0  0  0  0  0
    8.3310   -2.7170   25.3430 C   0  0  0  0  0  0  0  0  0  0  0  0
   10.2570   -3.5000   24.1350 C   0  0  0  0  0  0  0  0  0  0  0  0
   11.4306    4.7205   23.2018 C   0  0  0  0  0  0  0  0  0  0  0  0
   12.3032    2.5360   22.6510 C   0  0  0  0  0  0  0  0  0  0  0  0
    7.6830   -0.5170   18.7600 C   0  0  0  0  0  0  0  0  0  0  0  0
    6.1600    0.3870   20.1140 C   0  0  0  0  0  0  0  0  0  0  0  0
    9.3300   -1.3350   23.6390 C   0  0  0  0  0  0  0  0  0  0  0  0
   11.1370    1.9470   23.1397 C   0  0  0  0  0  0  0  0  0  0  0  0
    5.9810    0.8330   18.8060 C   0  0  0  0  0  0  0  0  0  0  0  0
    7.2210   -0.4620   20.0350 C   0  0  0  0  0  0  0  0  0  0  0  0
    9.2850   -3.7090   25.1090 C   0  0  0  0  0  0  0  0  0  0  0  0
   12.4500    3.9227   22.6820 C   0  0  0  0  0  0  0  0  0  0  0  0
    8.9510    0.1280   21.6880 C   0  0  0  0  0  0  0  0  0  0  0  0
    8.2358   -4.9962   26.8042 C   0  0  0  0  0  0  0  0  0  0  0  0
   10.9777    0.4443   23.1075 C   0  0  0  0  0  0  0  0  0  0  0  0
    9.4200   -0.0840   22.9530 C   0  0  1  0  0  0  0  0  0  0  0  0
    6.9440    0.2550   18.0100 N   0  0  0  0  0  0  0  0  0  0  0  0
    8.0810   -0.9750   21.0820 N   0  0  0  0  0  0  0  0  0  0  0  0
    9.1870    1.1500   21.0630 O   0  0  0  0  0  0  0  0  0  0  0  0
    9.2637   -4.8607   25.8240 O   0  0  0  0  0  0  0  0  0  0  0  0
   13.8890    4.6500   22.0802 Cl  0  0  0  0  0  0  0  0  0  0  0  0
    3.6256    2.0106   21.6303 H   0  0  0  0  0  0  0  0  0  0  0  0
    3.2724    2.7868   19.3204 H   0  0  0  0  0  0  0  0  0  0  0  0
    9.4706    4.7523   24.0955 H   0  0  0  0  0  0  0  0  0  0  0  0
    5.4858    0.4664   22.1692 H   0  0  0  0  0  0  0  0  0  0  0  0
    9.2057    2.2944   24.0426 H   0  0  0  0  0  0  0  0  0  0  0  0
    7.5962   -0.7776   24.7981 H   0  0  0  0  0  0  0  0  0  0  0  0
   11.0395   -2.1843   22.6346 H   0  0  0  0  0  0  0  0  0  0  0  0
    4.7836    2.0664   17.4848 H   0  0  0  0  0  0  0  0  0  0  0  0
    7.5664   -2.8672   26.1058 H   0  0  0  0  0  0  0  0  0  0  0  0
   11.0120   -4.2666   23.9463 H   0  0  0  0  0  0  0  0  0  0  0  0
   11.5314    5.8026   23.2326 H   0  0  0  0  0  0  0  0  0  0  0  0
   13.0949    1.9096   22.2463 H   0  0  0  0  0  0  0  0  0  0  0  0
    8.5274   -1.0858   18.3384 H   0  0  0  0  0  0  0  0  0  0  0  0
    8.3326   -5.9634   27.3035 H   0  0  0  0  0  0  0  0  0  0  0  0
    7.2583   -4.9194   26.3215 H   0  0  0  0  0  0  0  0  0  0  0  0
    8.3398   -4.1963   27.5412 H   0  0  0  0  0  0  0  0  0  0  0  0
   11.5363    0.0386   22.2539 H   0  0  0  0  0  0  0  0  0  0  0  0
   11.4704    0.0336   23.9998 H   0  0  0  0  0  0  0  0  0  0  0  0
    8.9182    0.7194   23.6789 H   0  0  0  0  0  0  0  0  0  0  0  0
    7.0325    0.4238   17.0175 H   0  0  0  0  0  0  0  0  0  0  0  0
    8.1175   -1.8104   21.3538 H   0  0  0  0  0  0  0  0  0  0  0  0
  1  2  1  0  0  0  0
  1  4  2  0  0  0  0
  2  8  2  0  0  0  0
  3  5  2  0  0  0  0
  3 11  1  0  0  0  0
  4 14  1  0  0  0  0
  5 16  1  0  0  0  0
  6  9  2  0  0  0  0
  6 15  1  0  0  0  0
  7 10  1  0  0  0  0
  7 15  2  0  0  0  0
  8 17  1  0  0  0  0
  9 19  1  0  0  0  0
 10 19  2  0  0  0  0
 11 20  2  0  0  0  0
 12 16  2  0  0  0  0
 12 20  1  0  0  0  0
 13 18  2  0  0  0  0
 13 25  1  0  0  0  0
 14 17  2  0  0  0  0
 14 18  1  0  0  0  0
 15 24  1  0  0  0  0
 16 23  1  0  0  0  0
 17 25  1  0  0  0  0
 18 26  1  0  0  0  0
 19 28  1  0  0  0  0
 20 29  1  0  0  0  0
 21 24  1  0  0  0  0
 21 26  1  0  0  0  0
 21 27  2  0  0  0  0
 22 28  1  0  0  0  0
 23 24  1  1  0  0  0
  1 30  1  0  0  0  0
  2 31  1  0  0  0  0
  3 32  1  0  0  0  0
  4 33  1  0  0  0  0
  5 34  1  0  0  0  0
  6 35  1  0  0  0  0
  7 36  1  0  0  0  0
  8 37  1  0  0  0  0
  9 38  1  0  0  0  0
 10 39  1  0  0  0  0
 11 40  1  0  0  0  0
 12 41  1  0  0  0  0
 13 42  1  0  0  0  0
 22 43  1  0  0  0  0
 22 44  1  0  0  0  0
 22 45  1  0  0  0  0
 23 46  1  0  0  0  0
 23 47  1  0  0  0  0
 24 48  1  0  0  0  0
 25 49  1  0  0  0  0
 26 50  1  0  0  0  0
M  END
> <clash_score>
0

> <docking_score>
-10.818387031555176

> <overlap_score>
0.9261942505836487

$$$$
BENZO_298_2
  -OEChem-08232013503D

 50 53  0     1  0  0  0  0  0999 V2000
    4.2970    1.6690   20.8430 C   0  0  0  0  0  0  0  0  0  0  0  0
    4.0980    2.1130   19.5350 C   0  0  0  0  0  0  0  0  0  0  0  0
    9.3211    4.8553   24.0536 C   0  0  0  0  0  0  0  0  0  0  0  0
    5.3360    0.8000   21.1530 C   0  0  0  0  0  0  0  0  0  0  0  0
    8.7511    3.5884   24.1784 C   0  0  0  0  0  0  0  0  0  0  0  0
    8.3510   -1.5420   24.6110 C   0  0  0  0  0  0  0  0  0  0  0  0
   10.2760   -2.3270   23.4020 C   0  0  0  0  0  0  0  0  0  0  0  0
    4.9400    1.7060   18.5060 C   0  0  0  0  0  0  0  0  0  0  0  0
    8.3310   -2.7170   25.3430 C   0  0  0  0  0  0  0  0  0  0  0  0
   10.2570   -3.5000   24.1350 C   0  0  0  0  0  0  0  0  0  0  0  0
   10.6349    4.9878   23.6043 C   0  0  0  0  0  0  0  0  0  0  0  0
   10.8089    2.5864   23.4046 C   0  0  0  0  0  0  0  0  0  0  0  0
    7.6830   -0.5170   18.7600 C   0  0  0  0  0  0  0  0  0  0  0  0
    6.1600    0.3870   20.1140 C   0  0  0  0  0  0  0  0  0  0  0  0
    9.3300   -1.3350   23.6390 C   0  0  0  0  0  0  0  0  0  0  0  0
    9.4950    2.4539   23.8539 C   0  0  0  0  0  0  0  0  0  0  0  0
    5.9810    0.8330   18.8060 C   0  0  0  0  0  0  0  0  0  0  0  0
    7.2210   -0.4620   20.0350 C   0  0  0  0  0  0  0  0  0  0  0  0
    9.2850   -3.7090   25.1090 C   0  0  0  0  0  0  0  0  0  0  0  0
   11.3788    3.8534   23.2798 C   0  0  0  0  0  0  0  0  0  0  0  0
    8.9510    0.1280   21.6880 C   0  0  0  0  0  0  0  0  0  0  0  0
    8.2358   -4.9962   26.8042 C   0  0  0  0  0  0  0  0  0  0  0  0
    8.8771    1.0813   23.9905 C   0  0  0  0  0  0  0  0  0  0  0  0
    9.4200   -0.0840   22.9530 C   0  0  2  0  0  0  0  0  0  0  0  0
    6.9440    0.2550   18.0100 N   0  0  0  0  0  0  0  0  0  0  0  0
    8.0810   -0.9750   21.0820 N   0  0  0  0  0  0  0  0  0  0  0  0
    9.1870    1.1500   21.0630 O   0  0  0  0  0  0  0  0  0  0  0  0
    9.2637   -4.8607   25.8240 O   0  0  0  0  0  0  0  0  0  0  0  0
   13.0002    4.0175   22.7265 Cl  0  0  0  0  0  0  0  0  0  0  0  0
    3.6256    2.0106   21.6303 H   0  0  0  0  0  0  0  0  0  0  0  0
    3.2724    2.7868   19.3204 H   0  0  0  0  0  0  0  0  0  0  0  0
    8.7415    5.7384   24.3065 H   0  0  0  0  0  0  0  0  0  0  0  0
    5.4858    0.4664   22.1692 H   0  0  0  0  0  0  0  0  0  0  0  0
    7.7267    3.4945   24.5294 H   0  0  0  0  0  0  0  0  0  0  0  0
    7.5962   -0.7776   24.7981 H   0  0  0  0  0  0  0  0  0  0  0  0
   11.0395   -2.1843   22.6346 H   0  0  0  0  0  0  0  0  0  0  0  0
    4.7836    2.0664   17.4848 H   0  0  0  0  0  0  0  0  0  0  0  0
    7.5664   -2.8672   26.1058 H   0  0  0  0  0  0  0  0  0  0  0  0
   11.0120   -4.2666   23.9463 H   0  0  0  0  0  0  0  0  0  0  0  0
   11.0663    5.9816   23.5122 H   0  0  0  0  0  0  0  0  0  0  0  0
   11.3846    1.6989   23.1523 H   0  0  0  0  0  0  0  0  0  0  0  0
    8.5274   -1.0858   18.3384 H   0  0  0  0  0  0  0  0  0  0  0  0
    8.3326   -5.9634   27.3035 H   0  0  0  0  0  0  0  0  0  0  0  0
    7.2583   -4.9194   26.3215 H   0  0  0  0  0  0  0  0  0  0  0  0
    8.3398   -4.1963   27.5412 H   0  0  0  0  0  0  0  0  0  0  0  0
    8.9708    0.7434   25.0308 H   0  0  0  0  0  0  0  0  0  0  0  0
    7.7972    1.1781   23.8117 H   0  0  0  0  0  0  0  0  0  0  0  0
   10.5743    0.2174   22.9808 H   0  0  0  0  0  0  0  0  0  0  0  0
    7.0325    0.4238   17.0175 H   0  0  0  0  0  0  0  0  0  0  0  0
    8.1175   -1.8104   21.3538 H   0  0  0  0  0  0  0  0  0  0  0  0
  1  2  1  0  0  0  0
  1  4  2  0  0  0  0
  2  8  2  0  0  0  0
  3  5  2  0  0  0  0
  3 11  1  0  0  0  0
  4 14  1  0  0  0  0
  5 16  1  0  0  0  0
  6  9  2  0  0  0  0
  6 15  1  0  0  0  0
  7 10  1  0  0  0  0
  7 15  2  0  0  0  0
  8 17  1  0  0  0  0
  9 19  1  0  0  0  0
 10 19  2  0  0  0  0
 11 20  2  0  0  0  0
 12 16  2  0  0  0  0
 12 20  1  0  0  0  0
 13 18  2  0  0  0  0
 13 25  1  0  0  0  0
 14 17  2  0  0  0  0
 14 18  1  0  0  0  0
 15 24  1  0  0  0  0
 16 23  1  0  0  0  0
 17 25  1  0  0  0  0
 18 26  1  0  0  0  0
 19 28  1  0  0  0  0
 20 29  1  0  0  0  0
 21 24  1  0  0  0  0
 21 26  1  0  0  0  0
 21 27  2  0  0  0  0
 22 28  1  0  0  0  0
 23 24  1  6  0  0  0
  1 30  1  0  0  0  0
  2 31  1  0  0  0  0
  3 32  1  0  0  0  0
  4 33  1  0  0  0  0
  5 34  1  0  0  0  0
  6 35  1  0  0  0  0
  7 36  1  0  0  0  0
  8 37  1  0  0  0  0
  9 38  1  0  0  0  0
 10 39  1  0  0  0  0
 11 40  1  0  0  0  0
 12 41  1  0  0  0  0
 13 42  1  0  0  0  0
 22 43  1  0  0  0  0
 22 44  1  0  0  0  0
 22 45  1  0  0  0  0
 23 46  1  0  0  0  0
 23 47  1  0  0  0  0
 24 48  1  0  0  0  0
 25 49  1  0  0  0  0
 26 50  1  0  0  0  0
M  END
> <clash_score>
0

> <docking_score>
-9.810514450073242

> <overlap_score>
0.8616358637809753

$$$$
BENZO_299_1
  -OEChem-08232013503D

 50 53  0     1  0  0  0  0  0999 V2000
    4.2970    1.6690   20.8430 C   0  0  0  0  0  0  0  0  0  0  0  0
    4.0980    2.1130   19.5350 C   0  0  0  0  0  0  0  0  0  0  0  0
    5.3360    0.8000   21.1530 C   0  0  0  0  0  0  0  0  0  0  0  0
    8.3510   -1.5420   24.6110 C   0  0  0  0  0  0  0  0  0  0  0  0
   10.2760   -2.3270   23.4020 C   0  0  0  0  0  0  0  0  0  0  0  0
    4.9400    1.7060   18.5060 C   0  0  0  0  0  0  0  0  0  0  0  0
    8.3310   -2.7170   25.3430 C   0  0  0  0  0  0  0  0  0  0  0  0
   10.2570   -3.5000   24.1350 C   0  0  0  0  0  0  0  0  0  0  0  0
   10.2235    2.9023   23.6242 C   0  0  0  0  0  0  0  0  0  0  0  0
   12.2091    2.6870   22.7043 C   0  0  0  0  0  0  0  0  0  0  0  0
    7.6830   -0.5170   18.7600 C   0  0  0  0  0  0  0  0  0  0  0  0
    6.1600    0.3870   20.1140 C   0  0  0  0  0  0  0  0  0  0  0  0
    9.3300   -1.3350   23.6390 C   0  0  0  0  0  0  0  0  0  0  0  0
   11.1370    1.9470   23.1397 C   0  0  0  0  0  0  0  0  0  0  0  0
    5.9810    0.8330   18.8060 C   0  0  0  0  0  0  0  0  0  0  0  0
    7.2210   -0.4620   20.0350 C   0  0  0  0  0  0  0  0  0  0  0  0
    9.2850   -3.7090   25.1090 C   0  0  0  0  0  0  0  0  0  0  0  0
    8.9510    0.1280   21.6880 C   0  0  0  0  0  0  0  0  0  0  0  0
   12.7031    5.1430   22.6554 C   0  0  0  0  0  0  0  0  0  0  0  0
    8.2358   -4.9962   26.8042 C   0  0  0  0  0  0  0  0  0  0  0  0
   10.9777    0.4443   23.1075 C   0  0  0  0  0  0  0  0  0  0  0  0
    9.4200   -0.0840   22.9530 C   0  0  1  0  0  0  0  0  0  0  0  0
   10.6758    4.1536   23.5079 N   0  0  0  0  0  0  0  0  0  0  0  0
    6.9440    0.2550   18.0100 N   0  0  0  0  0  0  0  0  0  0  0  0
   11.8853    3.9898   22.9453 N   0  0  0  0  0  0  0  0  0  0  0  0
    8.0810   -0.9750   21.0820 N   0  0  0  0  0  0  0  0  0  0  0  0
    9.1870    1.1500   21.0630 O   0  0  0  0  0  0  0  0  0  0  0  0
    9.2637   -4.8607   25.8240 O   0  0  0  0  0  0  0  0  0  0  0  0
    3.6256    2.0106   21.6303 H   0  0  0  0  0  0  0  0  0  0  0  0
    3.2724    2.7868   19.3204 H   0  0  0  0  0  0  0  0  0  0  0  0
    5.4858    0.4664   22.1692 H   0  0  0  0  0  0  0  0  0  0  0  0
    7.5962   -0.7776   24.7981 H   0  0  0  0  0  0  0  0  0  0  0  0
   11.0395   -2.1843   22.6346 H   0  0  0  0  0  0  0  0  0  0  0  0
    4.7836    2.0664   17.4848 H   0  0  0  0  0  0  0  0  0  0  0  0
    7.5664   -2.8672   26.1058 H   0  0  0  0  0  0  0  0  0  0  0  0
   11.0120   -4.2666   23.9463 H   0  0  0  0  0  0  0  0  0  0  0  0
    9.2470    2.7411   24.0585 H   0  0  0  0  0  0  0  0  0  0  0  0
   13.1519    2.4044   22.2557 H   0  0  0  0  0  0  0  0  0  0  0  0
    8.5274   -1.0858   18.3384 H   0  0  0  0  0  0  0  0  0  0  0  0
   12.4640    5.4803   21.6435 H   0  0  0  0  0  0  0  0  0  0  0  0
   12.4902    5.9323   23.3818 H   0  0  0  0  0  0  0  0  0  0  0  0
   13.7583    4.8651   22.7277 H   0  0  0  0  0  0  0  0  0  0  0  0
    8.3326   -5.9634   27.3035 H   0  0  0  0  0  0  0  0  0  0  0  0
    7.2583   -4.9194   26.3215 H   0  0  0  0  0  0  0  0  0  0  0  0
    8.3398   -4.1963   27.5412 H   0  0  0  0  0  0  0  0  0  0  0  0
   11.5363    0.0386   22.2539 H   0  0  0  0  0  0  0  0  0  0  0  0
   11.4704    0.0336   23.9998 H   0  0  0  0  0  0  0  0  0  0  0  0
    8.9182    0.7194   23.6789 H   0  0  0  0  0  0  0  0  0  0  0  0
    7.0325    0.4238   17.0175 H   0  0  0  0  0  0  0  0  0  0  0  0
    8.1175   -1.8104   21.3538 H   0  0  0  0  0  0  0  0  0  0  0  0
  1  2  1  0  0  0  0
  1  3  2  0  0  0  0
  2  6  2  0  0  0  0
  3 12  1  0  0  0  0
  4  7  2  0  0  0  0
  4 13  1  0  0  0  0
  5  8  1  0  0  0  0
  5 13  2  0  0  0  0
  6 15  1  0  0  0  0
  7 17  1  0  0  0  0
  8 17  2  0  0  0  0
  9 14  1  0  0  0  0
  9 23  2  0  0  0  0
 10 14  2  0  0  0  0
 10 25  1  0  0  0  0
 11 16  2  0  0  0  0
 11 24  1  0  0  0  0
 12 15  2  0  0  0  0
 12 16  1  0  0  0  0
 13 22  1  0  0  0  0
 14 21  1  0  0  0  0
 15 24  1  0  0  0  0
 16 26  1  0  0  0  0
 17 28  1  0  0  0  0
 18 22  1  0  0  0  0
 18 26  1  0  0  0  0
 18 27  2  0  0  0  0
 19 25  1  0  0  0  0
 20 28  1  0  0  0  0
 21 22  1  1  0  0  0
 23 25  1  0  0  0  0
  1 29  1  0  0  0  0
  2 30  1  0  0  0  0
  3 31  1  0  0  0  0
  4 32  1  0  0  0  0
  5 33  1  0  0  0  0
  6 34  1  0  0  0  0
  7 35  1  0  0  0  0
  8 36  1  0  0  0  0
  9 37  1  0  0  0  0
 10 38  1  0  0  0  0
 11 39  1  0  0  0  0
 19 40  1  0  0  0  0
 19 41  1  0  0  0  0
 19 42  1  0  0  0  0
 20 43  1  0  0  0  0
 20 44  1  0  0  0  0
 20 45  1  0  0  0  0
 21 46  1  0  0  0  0
 21 47  1  0  0  0  0
 22 48  1  0  0  0  0
 24 49  1  0  0  0  0
 26 50  1  0  0  0  0
M  END
> <clash_score>
0

> <docking_score>
-10.347078323364258

> <overlap_score>
0.9200305342674255

$$$$
BENZO_299_2
  -OEChem-08232013503D

 50 53  0     1  0  0  0  0  0999 V2000
    4.2970    1.6690   20.8430 C   0  0  0  0  0  0  0  0  0  0  0  0
    4.0980    2.1130   19.5350 C   0  0  0  0  0  0  0  0  0  0  0  0
    5.3360    0.8000   21.1530 C   0  0  0  0  0  0  0  0  0  0  0  0
    8.3510   -1.5420   24.6110 C   0  0  0  0  0  0  0  0  0  0  0  0
   10.2760   -2.3270   23.4020 C   0  0  0  0  0  0  0  0  0  0  0  0
    4.9400    1.7060   18.5060 C   0  0  0  0  0  0  0  0  0  0  0  0
    8.3310   -2.7170   25.3430 C   0  0  0  0  0  0  0  0  0  0  0  0
   10.2570   -3.5000   24.1350 C   0  0  0  0  0  0  0  0  0  0  0  0
   10.7939    2.7770   23.4177 C   0  0  0  0  0  0  0  0  0  0  0  0
    8.9123    3.6676   24.1257 C   0  0  0  0  0  0  0  0  0  0  0  0
    7.6830   -0.5170   18.7600 C   0  0  0  0  0  0  0  0  0  0  0  0
    6.1600    0.3870   20.1140 C   0  0  0  0  0  0  0  0  0  0  0  0
    9.3300   -1.3350   23.6390 C   0  0  0  0  0  0  0  0  0  0  0  0
    9.4950    2.4539   23.8539 C   0  0  0  0  0  0  0  0  0  0  0  0
    5.9810    0.8330   18.8060 C   0  0  0  0  0  0  0  0  0  0  0  0
    7.2210   -0.4620   20.0350 C   0  0  0  0  0  0  0  0  0  0  0  0
    9.2850   -3.7090   25.1090 C   0  0  0  0  0  0  0  0  0  0  0  0
    8.9510    0.1280   21.6880 C   0  0  0  0  0  0  0  0  0  0  0  0
    9.7138    6.0371   23.9775 C   0  0  0  0  0  0  0  0  0  0  0  0
    8.2358   -4.9962   26.8042 C   0  0  0  0  0  0  0  0  0  0  0  0
    8.8771    1.0813   23.9905 C   0  0  0  0  0  0  0  0  0  0  0  0
    9.4200   -0.0840   22.9530 C   0  0  2  0  0  0  0  0  0  0  0  0
   11.0232    4.0928   23.4110 N   0  0  0  0  0  0  0  0  0  0  0  0
    6.9440    0.2550   18.0100 N   0  0  0  0  0  0  0  0  0  0  0  0
    9.8605    4.6073   23.8463 N   0  0  0  0  0  0  0  0  0  0  0  0
    8.0810   -0.9750   21.0820 N   0  0  0  0  0  0  0  0  0  0  0  0
    9.1870    1.1500   21.0630 O   0  0  0  0  0  0  0  0  0  0  0  0
    9.2637   -4.8607   25.8240 O   0  0  0  0  0  0  0  0  0  0  0  0
    3.6256    2.0106   21.6303 H   0  0  0  0  0  0  0  0  0  0  0  0
    3.2724    2.7868   19.3204 H   0  0  0  0  0  0  0  0  0  0  0  0
    5.4858    0.4664   22.1692 H   0  0  0  0  0  0  0  0  0  0  0  0
    7.5962   -0.7776   24.7981 H   0  0  0  0  0  0  0  0  0  0  0  0
   11.0395   -2.1843   22.6346 H   0  0  0  0  0  0  0  0  0  0  0  0
    4.7836    2.0664   17.4848 H   0  0  0  0  0  0  0  0  0  0  0  0
    7.5664   -2.8672   26.1058 H   0  0  0  0  0  0  0  0  0  0  0  0
   11.0120   -4.2666   23.9463 H   0  0  0  0  0  0  0  0  0  0  0  0
   11.5843    2.1103   23.1031 H   0  0  0  0  0  0  0  0  0  0  0  0
    7.9277    3.9360   24.4839 H   0  0  0  0  0  0  0  0  0  0  0  0
    8.5274   -1.0858   18.3384 H   0  0  0  0  0  0  0  0  0  0  0  0
   10.0225    6.3165   24.9883 H   0  0  0  0  0  0  0  0  0  0  0  0
   10.3410    6.5371   23.2342 H   0  0  0  0  0  0  0  0  0  0  0  0
    8.6688    6.3103   23.8064 H   0  0  0  0  0  0  0  0  0  0  0  0
    8.3326   -5.9634   27.3035 H   0  0  0  0  0  0  0  0  0  0  0  0
    7.2583   -4.9194   26.3215 H   0  0  0  0  0  0  0  0  0  0  0  0
    8.3398   -4.1963   27.5412 H   0  0  0  0  0  0  0  0  0  0  0  0
    8.9708    0.7434   25.0308 H   0  0  0  0  0  0  0  0  0  0  0  0
    7.7972    1.1781   23.8117 H   0  0  0  0  0  0  0  0  0  0  0  0
   10.5743    0.2174   22.9808 H   0  0  0  0  0  0  0  0  0  0  0  0
    7.0325    0.4238   17.0175 H   0  0  0  0  0  0  0  0  0  0  0  0
    8.1175   -1.8104   21.3538 H   0  0  0  0  0  0  0  0  0  0  0  0
  1  2  1  0  0  0  0
  1  3  2  0  0  0  0
  2  6  2  0  0  0  0
  3 12  1  0  0  0  0
  4  7  2  0  0  0  0
  4 13  1  0  0  0  0
  5  8  1  0  0  0  0
  5 13  2  0  0  0  0
  6 15  1  0  0  0  0
  7 17  1  0  0  0  0
  8 17  2  0  0  0  0
  9 14  1  0  0  0  0
  9 23  2  0  0  0  0
 10 14  2  0  0  0  0
 10 25  1  0  0  0  0
 11 16  2  0  0  0  0
 11 24  1  0  0  0  0
 12 15  2  0  0  0  0
 12 16  1  0  0  0  0
 13 22  1  0  0  0  0
 14 21  1  0  0  0  0
 15 24  1  0  0  0  0
 16 26  1  0  0  0  0
 17 28  1  0  0  0  0
 18 22  1  0  0  0  0
 18 26  1  0  0  0  0
 18 27  2  0  0  0  0
 19 25  1  0  0  0  0
 20 28  1  0  0  0  0
 21 22  1  6  0  0  0
 23 25  1  0  0  0  0
  1 29  1  0  0  0  0
  2 30  1  0  0  0  0
  3 31  1  0  0  0  0
  4 32  1  0  0  0  0
  5 33  1  0  0  0  0
  6 34  1  0  0  0  0
  7 35  1  0  0  0  0
  8 36  1  0  0  0  0
  9 37  1  0  0  0  0
 10 38  1  0  0  0  0
 11 39  1  0  0  0  0
 19 40  1  0  0  0  0
 19 41  1  0  0  0  0
 19 42  1  0  0  0  0
 20 43  1  0  0  0  0
 20 44  1  0  0  0  0
 20 45  1  0  0  0  0
 21 46  1  0  0  0  0
 21 47  1  0  0  0  0
 22 48  1  0  0  0  0
 24 49  1  0  0  0  0
 26 50  1  0  0  0  0
M  END
> <clash_score>
0

> <docking_score>
-9.151384353637695

> <overlap_score>
0.8466094136238098

$$$$
BENZO_301_2
  -OEChem-08232013503D

 60 64  0     1  0  0  0  0  0999 V2000
   11.4307    4.7297   23.1590 C   0  0  0  0  0  0  0  0  0  0  0  0
    4.2970    1.6690   20.8430 C   0  0  0  0  0  0  0  0  0  0  0  0
   12.4501    3.9274   22.6463 C   0  0  0  0  0  0  0  0  0  0  0  0
   10.2648    4.1449   23.6534 C   0  0  0  0  0  0  0  0  0  0  0  0
    4.0980    2.1130   19.5350 C   0  0  0  0  0  0  0  0  0  0  0  0
    5.3360    0.8000   21.1530 C   0  0  0  0  0  0  0  0  0  0  0  0
   12.3036    2.5404   22.6280 C   0  0  0  0  0  0  0  0  0  0  0  0
   10.1183    2.7579   23.6350 C   0  0  0  0  0  0  0  0  0  0  0  0
    8.3510   -1.5420   24.6110 C   0  0  0  0  0  0  0  0  0  0  0  0
   10.2760   -2.3270   23.4020 C   0  0  0  0  0  0  0  0  0  0  0  0
    4.9400    1.7060   18.5060 C   0  0  0  0  0  0  0  0  0  0  0  0
    8.3310   -2.7170   25.3430 C   0  0  0  0  0  0  0  0  0  0  0  0
   10.2570   -3.5000   24.1350 C   0  0  0  0  0  0  0  0  0  0  0  0
    7.6830   -0.5170   18.7600 C   0  0  0  0  0  0  0  0  0  0  0  0
    6.1600    0.3870   20.1140 C   0  0  0  0  0  0  0  0  0  0  0  0
   11.1377    1.9556   23.1223 C   0  0  0  0  0  0  0  0  0  0  0  0
    9.3300   -1.3350   23.6390 C   0  0  0  0  0  0  0  0  0  0  0  0
    5.9810    0.8330   18.8060 C   0  0  0  0  0  0  0  0  0  0  0  0
    9.2850   -3.7090   25.1090 C   0  0  0  0  0  0  0  0  0  0  0  0
    7.2210   -0.4620   20.0350 C   0  0  0  0  0  0  0  0  0  0  0  0
    8.0643   -5.4721   26.3672 C   0  0  0  0  0  0  0  0  0  0  0  0
    8.9510    0.1280   21.6880 C   0  0  0  0  0  0  0  0  0  0  0  0
    8.2649   -6.7591   27.1477 C   0  0  0  0  0  0  0  0  0  0  0  0
    9.4073   -6.6157   28.1377 C   0  0  0  0  0  0  0  0  0  0  0  0
   10.6967   -6.1489   27.4694 C   0  0  0  0  0  0  0  0  0  0  0  0
   10.4950   -5.7059   26.0212 C   0  0  0  0  0  0  0  0  0  0  0  0
   10.9782    0.4527   23.1025 C   0  0  0  0  0  0  0  0  0  0  0  0
    9.4200   -0.0840   22.9530 C   0  0  2  0  0  0  0  0  0  0  0  0
    6.9440    0.2550   18.0100 N   0  0  0  0  0  0  0  0  0  0  0  0
    9.2624   -4.9267   25.8634 N   0  0  0  0  0  0  0  0  0  0  0  0
    8.0810   -0.9750   21.0820 N   0  0  0  0  0  0  0  0  0  0  0  0
    6.9247   -5.0497   26.1749 O   0  0  0  0  0  0  0  0  0  0  0  0
    9.1870    1.1500   21.0630 O   0  0  0  0  0  0  0  0  0  0  0  0
   11.5455    5.8096   23.1744 H   0  0  0  0  0  0  0  0  0  0  0  0
    3.6256    2.0106   21.6303 H   0  0  0  0  0  0  0  0  0  0  0  0
   13.3585    4.3825   22.2623 H   0  0  0  0  0  0  0  0  0  0  0  0
    9.4714    4.7691   24.0536 H   0  0  0  0  0  0  0  0  0  0  0  0
    3.2724    2.7868   19.3204 H   0  0  0  0  0  0  0  0  0  0  0  0
    5.4858    0.4664   22.1692 H   0  0  0  0  0  0  0  0  0  0  0  0
   13.1030    1.9232   22.2264 H   0  0  0  0  0  0  0  0  0  0  0  0
    9.2064    2.3111   24.0222 H   0  0  0  0  0  0  0  0  0  0  0  0
    7.5948   -0.7783   24.7966 H   0  0  0  0  0  0  0  0  0  0  0  0
   11.0389   -2.1844   22.6342 H   0  0  0  0  0  0  0  0  0  0  0  0
    4.7836    2.0664   17.4848 H   0  0  0  0  0  0  0  0  0  0  0  0
    7.5642   -2.8624   26.1050 H   0  0  0  0  0  0  0  0  0  0  0  0
   11.0137   -4.2649   23.9418 H   0  0  0  0  0  0  0  0  0  0  0  0
    8.5274   -1.0858   18.3384 H   0  0  0  0  0  0  0  0  0  0  0  0
    7.3543   -6.9829   27.6818 H   0  0  0  0  0  0  0  0  0  0  0  0
    8.4783   -7.5436   26.4372 H   0  0  0  0  0  0  0  0  0  0  0  0
    9.1257   -5.9021   28.9399 H   0  0  0  0  0  0  0  0  0  0  0  0
    9.5814   -7.5840   28.6486 H   0  0  0  0  0  0  0  0  0  0  0  0
   11.1319   -5.3094   28.0513 H   0  0  0  0  0  0  0  0  0  0  0  0
   11.4591   -6.9570   27.5118 H   0  0  0  0  0  0  0  0  0  0  0  0
   11.3214   -5.0711   25.7158 H   0  0  0  0  0  0  0  0  0  0  0  0
   10.4496   -6.5786   25.3788 H   0  0  0  0  0  0  0  0  0  0  0  0
   11.5374    0.0399   22.2527 H   0  0  0  0  0  0  0  0  0  0  0  0
   11.4700    0.0494   23.9985 H   0  0  0  0  0  0  0  0  0  0  0  0
    8.9187    0.7273   23.6745 H   0  0  0  0  0  0  0  0  0  0  0  0
    7.0325    0.4238   17.0175 H   0  0  0  0  0  0  0  0  0  0  0  0
    8.1354   -1.7990   21.3694 H   0  0  0  0  0  0  0  0  0  0  0  0
  1  3  1  0  0  0  0
  1  4  2  0  0  0  0
  2  5  1  0  0  0  0
  2  6  2  0  0  0  0
  3  7  2  0  0  0  0
  4  8  1  0  0  0  0
  5 11  2  0  0  0  0
  6 15  1  0  0  0  0
  7 16  1  0  0  0  0
  8 16  2  0  0  0  0
  9 12  2  0  0  0  0
  9 17  1  0  0  0  0
 10 13  1  0  0  0  0
 10 17  2  0  0  0  0
 11 18  1  0  0  0  0
 12 19  1  0  0  0  0
 13 19  2  0  0  0  0
 14 20  2  0  0  0  0
 14 29  1  0  0  0  0
 15 18  2  0  0  0  0
 15 20  1  0  0  0  0
 16 27  1  0  0  0  0
 17 28  1  0  0  0  0
 18 29  1  0  0  0  0
 19 30  1  0  0  0  0
 20 31  1  0  0  0  0
 21 23  1  0  0  0  0
 21 30  1  0  0  0  0
 21 32  2  0  0  0  0
 22 28  1  6  0  0  0
 22 31  1  0  0  0  0
 22 33  2  0  0  0  0
 23 24  1  0  0  0  0
 24 25  1  0  0  0  0
 25 26  1  0  0  0  0
 26 30  1  0  0  0  0
 27 28  1  0  0  0  0
  1 34  1  0  0  0  0
  2 35  1  0  0  0  0
  3 36  1  0  0  0  0
  4 37  1  0  0  0  0
  5 38  1  0  0  0  0
  6 39  1  0  0  0  0
  7 40  1  0  0  0  0
  8 41  1  0  0  0  0
  9 42  1  0  0  0  0
 10 43  1  0  0  0  0
 11 44  1  0  0  0  0
 12 45  1  0  0  0  0
 13 46  1  0  0  0  0
 14 47  1  0  0  0  0
 23 48  1  0  0  0  0
 23 49  1  0  0  0  0
 24 50  1  0  0  0  0
 24 51  1  0  0  0  0
 25 52  1  0  0  0  0
 25 53  1  0  0  0  0
 26 54  1  0  0  0  0
 26 55  1  0  0  0  0
 27 56  1  0  0  0  0
 27 57  1  0  0  0  0
 28 58  1  0  0  0  0
 29 59  1  0  0  0  0
 31 60  1  0  0  0  0
M  END
> <clash_score>
1.2728248649063287

> <docking_score>
-8.83950424194336

> <overlap_score>
0.9460457563400269

$$$$
BENZO_301_1
  -OEChem-08232013503D

 60 64  0     1  0  0  0  0  0999 V2000
   10.6052    5.0071   23.5715 C   0  0  0  0  0  0  0  0  0  0  0  0
    4.2970    1.6690   20.8430 C   0  0  0  0  0  0  0  0  0  0  0  0
    9.2931    4.8684   24.0241 C   0  0  0  0  0  0  0  0  0  0  0  0
   11.3561    3.8758   23.2522 C   0  0  0  0  0  0  0  0  0  0  0  0
    4.0980    2.1130   19.5350 C   0  0  0  0  0  0  0  0  0  0  0  0
    5.3360    0.8000   21.1530 C   0  0  0  0  0  0  0  0  0  0  0  0
    8.7320    3.5984   24.1577 C   0  0  0  0  0  0  0  0  0  0  0  0
   10.7950    2.6058   23.3858 C   0  0  0  0  0  0  0  0  0  0  0  0
    8.3510   -1.5420   24.6110 C   0  0  0  0  0  0  0  0  0  0  0  0
   10.2760   -2.3270   23.4020 C   0  0  0  0  0  0  0  0  0  0  0  0
    4.9400    1.7060   18.5060 C   0  0  0  0  0  0  0  0  0  0  0  0
    8.3310   -2.7170   25.3430 C   0  0  0  0  0  0  0  0  0  0  0  0
   10.2570   -3.5000   24.1350 C   0  0  0  0  0  0  0  0  0  0  0  0
    7.6830   -0.5170   18.7600 C   0  0  0  0  0  0  0  0  0  0  0  0
    6.1600    0.3870   20.1140 C   0  0  0  0  0  0  0  0  0  0  0  0
    9.4830    2.4670   23.8385 C   0  0  0  0  0  0  0  0  0  0  0  0
    9.3300   -1.3350   23.6390 C   0  0  0  0  0  0  0  0  0  0  0  0
    5.9810    0.8330   18.8060 C   0  0  0  0  0  0  0  0  0  0  0  0
    9.2850   -3.7090   25.1090 C   0  0  0  0  0  0  0  0  0  0  0  0
    7.2210   -0.4620   20.0350 C   0  0  0  0  0  0  0  0  0  0  0  0
    8.0643   -5.4721   26.3672 C   0  0  0  0  0  0  0  0  0  0  0  0
    8.9510    0.1280   21.6880 C   0  0  0  0  0  0  0  0  0  0  0  0
    8.2649   -6.7591   27.1477 C   0  0  0  0  0  0  0  0  0  0  0  0
    9.4073   -6.6157   28.1377 C   0  0  0  0  0  0  0  0  0  0  0  0
   10.6967   -6.1489   27.4694 C   0  0  0  0  0  0  0  0  0  0  0  0
   10.4950   -5.7059   26.0212 C   0  0  0  0  0  0  0  0  0  0  0  0
    8.8757    1.0906   23.9832 C   0  0  0  0  0  0  0  0  0  0  0  0
    9.4200   -0.0840   22.9530 C   0  0  1  0  0  0  0  0  0  0  0  0
    6.9440    0.2550   18.0100 N   0  0  0  0  0  0  0  0  0  0  0  0
    9.2624   -4.9267   25.8634 N   0  0  0  0  0  0  0  0  0  0  0  0
    8.0810   -0.9750   21.0820 N   0  0  0  0  0  0  0  0  0  0  0  0
    6.9247   -5.0497   26.1749 O   0  0  0  0  0  0  0  0  0  0  0  0
    9.1870    1.1500   21.0630 O   0  0  0  0  0  0  0  0  0  0  0  0
   11.0415    5.9962   23.4663 H   0  0  0  0  0  0  0  0  0  0  0  0
    3.6256    2.0106   21.6303 H   0  0  0  0  0  0  0  0  0  0  0  0
    8.7079    5.7493   24.2717 H   0  0  0  0  0  0  0  0  0  0  0  0
   12.3773    3.9835   22.8987 H   0  0  0  0  0  0  0  0  0  0  0  0
    3.2724    2.7868   19.3204 H   0  0  0  0  0  0  0  0  0  0  0  0
    5.4858    0.4664   22.1692 H   0  0  0  0  0  0  0  0  0  0  0  0
    7.7090    3.4999   24.5113 H   0  0  0  0  0  0  0  0  0  0  0  0
   11.3876    1.7300   23.1348 H   0  0  0  0  0  0  0  0  0  0  0  0
    7.5948   -0.7783   24.7966 H   0  0  0  0  0  0  0  0  0  0  0  0
   11.0389   -2.1844   22.6342 H   0  0  0  0  0  0  0  0  0  0  0  0
    4.7836    2.0664   17.4848 H   0  0  0  0  0  0  0  0  0  0  0  0
    7.5642   -2.8624   26.1050 H   0  0  0  0  0  0  0  0  0  0  0  0
   11.0137   -4.2649   23.9418 H   0  0  0  0  0  0  0  0  0  0  0  0
    8.5274   -1.0858   18.3384 H   0  0  0  0  0  0  0  0  0  0  0  0
    7.3543   -6.9829   27.6818 H   0  0  0  0  0  0  0  0  0  0  0  0
    8.4783   -7.5436   26.4372 H   0  0  0  0  0  0  0  0  0  0  0  0
    9.1257   -5.9021   28.9399 H   0  0  0  0  0  0  0  0  0  0  0  0
    9.5814   -7.5840   28.6486 H   0  0  0  0  0  0  0  0  0  0  0  0
   11.1319   -5.3094   28.0513 H   0  0  0  0  0  0  0  0  0  0  0  0
   11.4591   -6.9570   27.5118 H   0  0  0  0  0  0  0  0  0  0  0  0
   11.3214   -5.0711   25.7158 H   0  0  0  0  0  0  0  0  0  0  0  0
   10.4496   -6.5786   25.3788 H   0  0  0  0  0  0  0  0  0  0  0  0
    8.9639    0.7632   25.0273 H   0  0  0  0  0  0  0  0  0  0  0  0
    7.7964    1.1765   23.7950 H   0  0  0  0  0  0  0  0  0  0  0  0
   10.5749    0.2253   22.9765 H   0  0  0  0  0  0  0  0  0  0  0  0
    7.0325    0.4238   17.0175 H   0  0  0  0  0  0  0  0  0  0  0  0
    8.1354   -1.7990   21.3694 H   0  0  0  0  0  0  0  0  0  0  0  0
  1  3  1  0  0  0  0
  1  4  2  0  0  0  0
  2  5  1  0  0  0  0
  2  6  2  0  0  0  0
  3  7  2  0  0  0  0
  4  8  1  0  0  0  0
  5 11  2  0  0  0  0
  6 15  1  0  0  0  0
  7 16  1  0  0  0  0
  8 16  2  0  0  0  0
  9 12  2  0  0  0  0
  9 17  1  0  0  0  0
 10 13  1  0  0  0  0
 10 17  2  0  0  0  0
 11 18  1  0  0  0  0
 12 19  1  0  0  0  0
 13 19  2  0  0  0  0
 14 20  2  0  0  0  0
 14 29  1  0  0  0  0
 15 18  2  0  0  0  0
 15 20  1  0  0  0  0
 16 27  1  0  0  0  0
 17 28  1  0  0  0  0
 18 29  1  0  0  0  0
 19 30  1  0  0  0  0
 20 31  1  0  0  0  0
 21 23  1  0  0  0  0
 21 30  1  0  0  0  0
 21 32  2  0  0  0  0
 22 28  1  1  0  0  0
 22 31  1  0  0  0  0
 22 33  2  0  0  0  0
 23 24  1  0  0  0  0
 24 25  1  0  0  0  0
 25 26  1  0  0  0  0
 26 30  1  0  0  0  0
 27 28  1  0  0  0  0
  1 34  1  0  0  0  0
  2 35  1  0  0  0  0
  3 36  1  0  0  0  0
  4 37  1  0  0  0  0
  5 38  1  0  0  0  0
  6 39  1  0  0  0  0
  7 40  1  0  0  0  0
  8 41  1  0  0  0  0
  9 42  1  0  0  0  0
 10 43  1  0  0  0  0
 11 44  1  0  0  0  0
 12 45  1  0  0  0  0
 13 46  1  0  0  0  0
 14 47  1  0  0  0  0
 23 48  1  0  0  0  0
 23 49  1  0  0  0  0
 24 50  1  0  0  0  0
 24 51  1  0  0  0  0
 25 52  1  0  0  0  0
 25 53  1  0  0  0  0
 26 54  1  0  0  0  0
 26 55  1  0  0  0  0
 27 56  1  0  0  0  0
 27 57  1  0  0  0  0
 28 58  1  0  0  0  0
 29 59  1  0  0  0  0
 31 60  1  0  0  0  0
M  END
> <clash_score>
1.2728248649063287

> <docking_score>
-7.7335286140441895

> <overlap_score>
0.8745534420013428

$$$$
BENZO_300_1
  -OEChem-08232013503D

 57 61  0     1  0  0  0  0  0999 V2000
    4.2970    1.6690   20.8430 C   0  0  0  0  0  0  0  0  0  0  0  0
    4.0980    2.1130   19.5350 C   0  0  0  0  0  0  0  0  0  0  0  0
    5.3360    0.8000   21.1530 C   0  0  0  0  0  0  0  0  0  0  0  0
    8.3510   -1.5420   24.6110 C   0  0  0  0  0  0  0  0  0  0  0  0
   10.2760   -2.3270   23.4020 C   0  0  0  0  0  0  0  0  0  0  0  0
    4.9400    1.7060   18.5060 C   0  0  0  0  0  0  0  0  0  0  0  0
    8.3310   -2.7170   25.3430 C   0  0  0  0  0  0  0  0  0  0  0  0
   10.2570   -3.5000   24.1350 C   0  0  0  0  0  0  0  0  0  0  0  0
   10.8518    2.7022   23.5205 C   0  0  0  0  0  0  0  0  0  0  0  0
    7.6830   -0.5170   18.7600 C   0  0  0  0  0  0  0  0  0  0  0  0
   11.1431    4.0467   23.4499 C   0  0  0  0  0  0  0  0  0  0  0  0
    8.7801    3.6410   23.9990 C   0  0  0  0  0  0  0  0  0  0  0  0
    6.1600    0.3870   20.1140 C   0  0  0  0  0  0  0  0  0  0  0  0
    9.3300   -1.3350   23.6390 C   0  0  0  0  0  0  0  0  0  0  0  0
    9.4830    2.4670   23.8385 C   0  0  0  0  0  0  0  0  0  0  0  0
    5.9810    0.8330   18.8060 C   0  0  0  0  0  0  0  0  0  0  0  0
    9.2850   -3.7090   25.1090 C   0  0  0  0  0  0  0  0  0  0  0  0
    7.2210   -0.4620   20.0350 C   0  0  0  0  0  0  0  0  0  0  0  0
    8.0643   -5.4721   26.3672 C   0  0  0  0  0  0  0  0  0  0  0  0
    8.9510    0.1280   21.6880 C   0  0  0  0  0  0  0  0  0  0  0  0
    8.2649   -6.7591   27.1477 C   0  0  0  0  0  0  0  0  0  0  0  0
    9.4073   -6.6157   28.1377 C   0  0  0  0  0  0  0  0  0  0  0  0
   10.6967   -6.1489   27.4694 C   0  0  0  0  0  0  0  0  0  0  0  0
   10.4950   -5.7059   26.0212 C   0  0  0  0  0  0  0  0  0  0  0  0
    8.8757    1.0906   23.9832 C   0  0  0  0  0  0  0  0  0  0  0  0
    9.4200   -0.0840   22.9530 C   0  0  1  0  0  0  0  0  0  0  0  0
    6.9440    0.2550   18.0100 N   0  0  0  0  0  0  0  0  0  0  0  0
    9.2624   -4.9267   25.8634 N   0  0  0  0  0  0  0  0  0  0  0  0
    8.0810   -0.9750   21.0820 N   0  0  0  0  0  0  0  0  0  0  0  0
    6.9247   -5.0497   26.1749 O   0  0  0  0  0  0  0  0  0  0  0  0
    9.1870    1.1500   21.0630 O   0  0  0  0  0  0  0  0  0  0  0  0
    9.7696    5.0191   23.7663 S   0  0  0  0  0  0  0  0  0  0  0  0
    3.6256    2.0106   21.6303 H   0  0  0  0  0  0  0  0  0  0  0  0
    3.2724    2.7868   19.3204 H   0  0  0  0  0  0  0  0  0  0  0  0
    5.4858    0.4664   22.1692 H   0  0  0  0  0  0  0  0  0  0  0  0
    7.5948   -0.7783   24.7966 H   0  0  0  0  0  0  0  0  0  0  0  0
   11.0389   -2.1844   22.6342 H   0  0  0  0  0  0  0  0  0  0  0  0
    4.7836    2.0664   17.4848 H   0  0  0  0  0  0  0  0  0  0  0  0
    7.5642   -2.8624   26.1050 H   0  0  0  0  0  0  0  0  0  0  0  0
   11.0137   -4.2649   23.9418 H   0  0  0  0  0  0  0  0  0  0  0  0
   11.5890    1.9273   23.3518 H   0  0  0  0  0  0  0  0  0  0  0  0
    8.5274   -1.0858   18.3384 H   0  0  0  0  0  0  0  0  0  0  0  0
   12.0968    4.5045   23.2284 H   0  0  0  0  0  0  0  0  0  0  0  0
    7.7335    3.7598   24.2428 H   0  0  0  0  0  0  0  0  0  0  0  0
    7.3543   -6.9829   27.6818 H   0  0  0  0  0  0  0  0  0  0  0  0
    8.4783   -7.5436   26.4372 H   0  0  0  0  0  0  0  0  0  0  0  0
    9.1257   -5.9021   28.9399 H   0  0  0  0  0  0  0  0  0  0  0  0
    9.5814   -7.5840   28.6486 H   0  0  0  0  0  0  0  0  0  0  0  0
   11.1319   -5.3094   28.0513 H   0  0  0  0  0  0  0  0  0  0  0  0
   11.4591   -6.9570   27.5118 H   0  0  0  0  0  0  0  0  0  0  0  0
   11.3214   -5.0711   25.7158 H   0  0  0  0  0  0  0  0  0  0  0  0
   10.4496   -6.5786   25.3788 H   0  0  0  0  0  0  0  0  0  0  0  0
    8.9639    0.7632   25.0273 H   0  0  0  0  0  0  0  0  0  0  0  0
    7.7964    1.1765   23.7950 H   0  0  0  0  0  0  0  0  0  0  0  0
   10.5749    0.2253   22.9765 H   0  0  0  0  0  0  0  0  0  0  0  0
    7.0325    0.4238   17.0175 H   0  0  0  0  0  0  0  0  0  0  0  0
    8.1354   -1.7990   21.3694 H   0  0  0  0  0  0  0  0  0  0  0  0
  1  2  1  0  0  0  0
  1  3  2  0  0  0  0
  2  6  2  0  0  0  0
  3 13  1  0  0  0  0
  4  7  2  0  0  0  0
  4 14  1  0  0  0  0
  5  8  1  0  0  0  0
  5 14  2  0  0  0  0
  6 16  1  0  0  0  0
  7 17  1  0  0  0  0
  8 17  2  0  0  0  0
  9 11  2  0  0  0  0
  9 15  1  0  0  0  0
 10 18  2  0  0  0  0
 10 27  1  0  0  0  0
 11 32  1  0  0  0  0
 12 15  2  0  0  0  0
 12 32  1  0  0  0  0
 13 16  2  0  0  0  0
 13 18  1  0  0  0  0
 14 26  1  0  0  0  0
 15 25  1  0  0  0  0
 16 27  1  0  0  0  0
 17 28  1  0  0  0  0
 18 29  1  0  0  0  0
 19 21  1  0  0  0  0
 19 28  1  0  0  0  0
 19 30  2  0  0  0  0
 20 26  1  1  0  0  0
 20 29  1  0  0  0  0
 20 31  2  0  0  0  0
 21 22  1  0  0  0  0
 22 23  1  0  0  0  0
 23 24  1  0  0  0  0
 24 28  1  0  0  0  0
 25 26  1  0  0  0  0
  1 33  1  0  0  0  0
  2 34  1  0  0  0  0
  3 35  1  0  0  0  0
  4 36  1  0  0  0  0
  5 37  1  0  0  0  0
  6 38  1  0  0  0  0
  7 39  1  0  0  0  0
  8 40  1  0  0  0  0
  9 41  1  0  0  0  0
 10 42  1  0  0  0  0
 11 43  1  0  0  0  0
 12 44  1  0  0  0  0
 21 45  1  0  0  0  0
 21 46  1  0  0  0  0
 22 47  1  0  0  0  0
 22 48  1  0  0  0  0
 23 49  1  0  0  0  0
 23 50  1  0  0  0  0
 24 51  1  0  0  0  0
 24 52  1  0  0  0  0
 25 53  1  0  0  0  0
 25 54  1  0  0  0  0
 26 55  1  0  0  0  0
 27 56  1  0  0  0  0
 29 57  1  0  0  0  0
M  END
> <clash_score>
1.2728248649063287

> <docking_score>
-7.452991962432861

> <overlap_score>
0.8719334602355957

$$$$
BENZO_300_2
  -OEChem-08232013503D

 57 61  0     1  0  0  0  0  0999 V2000
    4.2970    1.6690   20.8430 C   0  0  0  0  0  0  0  0  0  0  0  0
    4.0980    2.1130   19.5350 C   0  0  0  0  0  0  0  0  0  0  0  0
    5.3360    0.8000   21.1530 C   0  0  0  0  0  0  0  0  0  0  0  0
    8.3510   -1.5420   24.6110 C   0  0  0  0  0  0  0  0  0  0  0  0
   10.2760   -2.3270   23.4020 C   0  0  0  0  0  0  0  0  0  0  0  0
    4.9400    1.7060   18.5060 C   0  0  0  0  0  0  0  0  0  0  0  0
    8.3310   -2.7170   25.3430 C   0  0  0  0  0  0  0  0  0  0  0  0
   10.2570   -3.5000   24.1350 C   0  0  0  0  0  0  0  0  0  0  0  0
   11.9035    2.6860   22.1682 C   0  0  0  0  0  0  0  0  0  0  0  0
    7.6830   -0.5170   18.7600 C   0  0  0  0  0  0  0  0  0  0  0  0
   11.8836    4.0408   22.4166 C   0  0  0  0  0  0  0  0  0  0  0  0
   10.5617    2.7801   24.0638 C   0  0  0  0  0  0  0  0  0  0  0  0
    6.1600    0.3870   20.1140 C   0  0  0  0  0  0  0  0  0  0  0  0
    9.3300   -1.3350   23.6390 C   0  0  0  0  0  0  0  0  0  0  0  0
   11.1377    1.9556   23.1223 C   0  0  0  0  0  0  0  0  0  0  0  0
    5.9810    0.8330   18.8060 C   0  0  0  0  0  0  0  0  0  0  0  0
    9.2850   -3.7090   25.1090 C   0  0  0  0  0  0  0  0  0  0  0  0
    7.2210   -0.4620   20.0350 C   0  0  0  0  0  0  0  0  0  0  0  0
    8.0643   -5.4721   26.3672 C   0  0  0  0  0  0  0  0  0  0  0  0
    8.9510    0.1280   21.6880 C   0  0  0  0  0  0  0  0  0  0  0  0
    8.2649   -6.7591   27.1477 C   0  0  0  0  0  0  0  0  0  0  0  0
    9.4073   -6.6157   28.1377 C   0  0  0  0  0  0  0  0  0  0  0  0
   10.6967   -6.1489   27.4694 C   0  0  0  0  0  0  0  0  0  0  0  0
   10.4950   -5.7059   26.0212 C   0  0  0  0  0  0  0  0  0  0  0  0
   10.9782    0.4527   23.1025 C   0  0  0  0  0  0  0  0  0  0  0  0
    9.4200   -0.0840   22.9530 C   0  0  2  0  0  0  0  0  0  0  0  0
    6.9440    0.2550   18.0100 N   0  0  0  0  0  0  0  0  0  0  0  0
    9.2624   -4.9267   25.8634 N   0  0  0  0  0  0  0  0  0  0  0  0
    8.0810   -0.9750   21.0820 N   0  0  0  0  0  0  0  0  0  0  0  0
    6.9247   -5.0497   26.1749 O   0  0  0  0  0  0  0  0  0  0  0  0
    9.1870    1.1500   21.0630 O   0  0  0  0  0  0  0  0  0  0  0  0
   10.9445    4.4274   23.7954 S   0  0  0  0  0  0  0  0  0  0  0  0
    3.6256    2.0106   21.6303 H   0  0  0  0  0  0  0  0  0  0  0  0
    3.2724    2.7868   19.3204 H   0  0  0  0  0  0  0  0  0  0  0  0
    5.4858    0.4664   22.1692 H   0  0  0  0  0  0  0  0  0  0  0  0
    7.5948   -0.7783   24.7966 H   0  0  0  0  0  0  0  0  0  0  0  0
   11.0389   -2.1844   22.6342 H   0  0  0  0  0  0  0  0  0  0  0  0
    4.7836    2.0664   17.4848 H   0  0  0  0  0  0  0  0  0  0  0  0
    7.5642   -2.8624   26.1050 H   0  0  0  0  0  0  0  0  0  0  0  0
   11.0137   -4.2649   23.9418 H   0  0  0  0  0  0  0  0  0  0  0  0
   12.4436    2.2440   21.3404 H   0  0  0  0  0  0  0  0  0  0  0  0
    8.5274   -1.0858   18.3384 H   0  0  0  0  0  0  0  0  0  0  0  0
   12.3760    4.8219   21.8549 H   0  0  0  0  0  0  0  0  0  0  0  0
    9.9349    2.4980   24.8984 H   0  0  0  0  0  0  0  0  0  0  0  0
    7.3543   -6.9829   27.6818 H   0  0  0  0  0  0  0  0  0  0  0  0
    8.4783   -7.5436   26.4372 H   0  0  0  0  0  0  0  0  0  0  0  0
    9.1257   -5.9021   28.9399 H   0  0  0  0  0  0  0  0  0  0  0  0
    9.5814   -7.5840   28.6486 H   0  0  0  0  0  0  0  0  0  0  0  0
   11.1319   -5.3094   28.0513 H   0  0  0  0  0  0  0  0  0  0  0  0
   11.4591   -6.9570   27.5118 H   0  0  0  0  0  0  0  0  0  0  0  0
   11.3214   -5.0711   25.7158 H   0  0  0  0  0  0  0  0  0  0  0  0
   10.4496   -6.5786   25.3788 H   0  0  0  0  0  0  0  0  0  0  0  0
   11.5374    0.0399   22.2527 H   0  0  0  0  0  0  0  0  0  0  0  0
   11.4700    0.0494   23.9985 H   0  0  0  0  0  0  0  0  0  0  0  0
    8.9187    0.7273   23.6745 H   0  0  0  0  0  0  0  0  0  0  0  0
    7.0325    0.4238   17.0175 H   0  0  0  0  0  0  0  0  0  0  0  0
    8.1354   -1.7990   21.3694 H   0  0  0  0  0  0  0  0  0  0  0  0
  1  2  1  0  0  0  0
  1  3  2  0  0  0  0
  2  6  2  0  0  0  0
  3 13  1  0  0  0  0
  4  7  2  0  0  0  0
  4 14  1  0  0  0  0
  5  8  1  0  0  0  0
  5 14  2  0  0  0  0
  6 16  1  0  0  0  0
  7 17  1  0  0  0  0
  8 17  2  0  0  0  0
  9 11  2  0  0  0  0
  9 15  1  0  0  0  0
 10 18  2  0  0  0  0
 10 27  1  0  0  0  0
 11 32  1  0  0  0  0
 12 15  2  0  0  0  0
 12 32  1  0  0  0  0
 13 16  2  0  0  0  0
 13 18  1  0  0  0  0
 14 26  1  0  0  0  0
 15 25  1  0  0  0  0
 16 27  1  0  0  0  0
 17 28  1  0  0  0  0
 18 29  1  0  0  0  0
 19 21  1  0  0  0  0
 19 28  1  0  0  0  0
 19 30  2  0  0  0  0
 20 26  1  6  0  0  0
 20 29  1  0  0  0  0
 20 31  2  0  0  0  0
 21 22  1  0  0  0  0
 22 23  1  0  0  0  0
 23 24  1  0  0  0  0
 24 28  1  0  0  0  0
 25 26  1  0  0  0  0
  1 33  1  0  0  0  0
  2 34  1  0  0  0  0
  3 35  1  0  0  0  0
  4 36  1  0  0  0  0
  5 37  1  0  0  0  0
  6 38  1  0  0  0  0
  7 39  1  0  0  0  0
  8 40  1  0  0  0  0
  9 41  1  0  0  0  0
 10 42  1  0  0  0  0
 11 43  1  0  0  0  0
 12 44  1  0  0  0  0
 21 45  1  0  0  0  0
 21 46  1  0  0  0  0
 22 47  1  0  0  0  0
 22 48  1  0  0  0  0
 23 49  1  0  0  0  0
 23 50  1  0  0  0  0
 24 51  1  0  0  0  0
 24 52  1  0  0  0  0
 25 53  1  0  0  0  0
 25 54  1  0  0  0  0
 26 55  1  0  0  0  0
 27 56  1  0  0  0  0
 29 57  1  0  0  0  0
M  END
> <clash_score>
1.2728248649063287

> <docking_score>
-7.402169704437256

> <overlap_score>
0.9351983666419983

$$$$
BENZO_302_1
  -OEChem-08232013503D

 60 64  0     1  0  0  0  0  0999 V2000
    4.2970    1.6690   20.8430 C   0  0  0  0  0  0  0  0  0  0  0  0
    4.0980    2.1130   19.5350 C   0  0  0  0  0  0  0  0  0  0  0  0
    9.2914    4.8680   24.0266 C   0  0  0  0  0  0  0  0  0  0  0  0
    5.3360    0.8000   21.1530 C   0  0  0  0  0  0  0  0  0  0  0  0
    8.7312    3.5975   24.1588 C   0  0  0  0  0  0  0  0  0  0  0  0
    8.3510   -1.5420   24.6110 C   0  0  0  0  0  0  0  0  0  0  0  0
   10.2760   -2.3270   23.4020 C   0  0  0  0  0  0  0  0  0  0  0  0
    4.9400    1.7060   18.5060 C   0  0  0  0  0  0  0  0  0  0  0  0
    8.3310   -2.7170   25.3430 C   0  0  0  0  0  0  0  0  0  0  0  0
   10.2570   -3.5000   24.1350 C   0  0  0  0  0  0  0  0  0  0  0  0
   10.6034    5.0082   23.5739 C   0  0  0  0  0  0  0  0  0  0  0  0
   10.7949    2.6071   23.3859 C   0  0  0  0  0  0  0  0  0  0  0  0
    7.6830   -0.5170   18.7600 C   0  0  0  0  0  0  0  0  0  0  0  0
    6.1600    0.3870   20.1140 C   0  0  0  0  0  0  0  0  0  0  0  0
    9.3300   -1.3350   23.6390 C   0  0  0  0  0  0  0  0  0  0  0  0
    9.4830    2.4670   23.8385 C   0  0  0  0  0  0  0  0  0  0  0  0
    5.9810    0.8330   18.8060 C   0  0  0  0  0  0  0  0  0  0  0  0
    9.2850   -3.7090   25.1090 C   0  0  0  0  0  0  0  0  0  0  0  0
    7.2210   -0.4620   20.0350 C   0  0  0  0  0  0  0  0  0  0  0  0
   11.3551    3.8777   23.2536 C   0  0  0  0  0  0  0  0  0  0  0  0
    8.0643   -5.4721   26.3672 C   0  0  0  0  0  0  0  0  0  0  0  0
    8.9510    0.1280   21.6880 C   0  0  0  0  0  0  0  0  0  0  0  0
    8.2649   -6.7591   27.1477 C   0  0  0  0  0  0  0  0  0  0  0  0
    9.4073   -6.6157   28.1377 C   0  0  0  0  0  0  0  0  0  0  0  0
   10.6967   -6.1489   27.4694 C   0  0  0  0  0  0  0  0  0  0  0  0
   10.4950   -5.7059   26.0212 C   0  0  0  0  0  0  0  0  0  0  0  0
    8.8757    1.0906   23.9832 C   0  0  0  0  0  0  0  0  0  0  0  0
    9.4200   -0.0840   22.9530 C   0  0  1  0  0  0  0  0  0  0  0  0
    6.9440    0.2550   18.0100 N   0  0  0  0  0  0  0  0  0  0  0  0
    9.2624   -4.9267   25.8634 N   0  0  0  0  0  0  0  0  0  0  0  0
    8.0810   -0.9750   21.0820 N   0  0  0  0  0  0  0  0  0  0  0  0
    6.9247   -5.0497   26.1749 O   0  0  0  0  0  0  0  0  0  0  0  0
    9.1870    1.1500   21.0630 O   0  0  0  0  0  0  0  0  0  0  0  0
   12.9741    4.0512   22.6963 Cl  0  0  0  0  0  0  0  0  0  0  0  0
    3.6256    2.0106   21.6303 H   0  0  0  0  0  0  0  0  0  0  0  0
    3.2724    2.7868   19.3204 H   0  0  0  0  0  0  0  0  0  0  0  0
    8.7057    5.7480   24.2763 H   0  0  0  0  0  0  0  0  0  0  0  0
    5.4858    0.4664   22.1692 H   0  0  0  0  0  0  0  0  0  0  0  0
    7.7083    3.4977   24.5123 H   0  0  0  0  0  0  0  0  0  0  0  0
    7.5948   -0.7783   24.7966 H   0  0  0  0  0  0  0  0  0  0  0  0
   11.0389   -2.1844   22.6342 H   0  0  0  0  0  0  0  0  0  0  0  0
    4.7836    2.0664   17.4848 H   0  0  0  0  0  0  0  0  0  0  0  0
    7.5642   -2.8624   26.1050 H   0  0  0  0  0  0  0  0  0  0  0  0
   11.0137   -4.2649   23.9418 H   0  0  0  0  0  0  0  0  0  0  0  0
   11.0271    6.0046   23.4760 H   0  0  0  0  0  0  0  0  0  0  0  0
   11.3767    1.7227   23.1369 H   0  0  0  0  0  0  0  0  0  0  0  0
    8.5274   -1.0858   18.3384 H   0  0  0  0  0  0  0  0  0  0  0  0
    7.3543   -6.9829   27.6818 H   0  0  0  0  0  0  0  0  0  0  0  0
    8.4783   -7.5436   26.4372 H   0  0  0  0  0  0  0  0  0  0  0  0
    9.1257   -5.9021   28.9399 H   0  0  0  0  0  0  0  0  0  0  0  0
    9.5814   -7.5840   28.6486 H   0  0  0  0  0  0  0  0  0  0  0  0
   11.1319   -5.3094   28.0513 H   0  0  0  0  0  0  0  0  0  0  0  0
   11.4591   -6.9570   27.5118 H   0  0  0  0  0  0  0  0  0  0  0  0
   11.3214   -5.0711   25.7158 H   0  0  0  0  0  0  0  0  0  0  0  0
   10.4496   -6.5786   25.3788 H   0  0  0  0  0  0  0  0  0  0  0  0
    8.9639    0.7632   25.0273 H   0  0  0  0  0  0  0  0  0  0  0  0
    7.7964    1.1765   23.7950 H   0  0  0  0  0  0  0  0  0  0  0  0
   10.5749    0.2253   22.9765 H   0  0  0  0  0  0  0  0  0  0  0  0
    7.0325    0.4238   17.0175 H   0  0  0  0  0  0  0  0  0  0  0  0
    8.1354   -1.7990   21.3694 H   0  0  0  0  0  0  0  0  0  0  0  0
  1  2  1  0  0  0  0
  1  4  2  0  0  0  0
  2  8  2  0  0  0  0
  3  5  2  0  0  0  0
  3 11  1  0  0  0  0
  4 14  1  0  0  0  0
  5 16  1  0  0  0  0
  6  9  2  0  0  0  0
  6 15  1  0  0  0  0
  7 10  1  0  0  0  0
  7 15  2  0  0  0  0
  8 17  1  0  0  0  0
  9 18  1  0  0  0  0
 10 18  2  0  0  0  0
 11 20  2  0  0  0  0
 12 16  2  0  0  0  0
 12 20  1  0  0  0  0
 13 19  2  0  0  0  0
 13 29  1  0  0  0  0
 14 17  2  0  0  0  0
 14 19  1  0  0  0  0
 15 28  1  0  0  0  0
 16 27  1  0  0  0  0
 17 29  1  0  0  0  0
 18 30  1  0  0  0  0
 19 31  1  0  0  0  0
 20 34  1  0  0  0  0
 21 23  1  0  0  0  0
 21 30  1  0  0  0  0
 21 32  2  0  0  0  0
 22 28  1  1  0  0  0
 22 31  1  0  0  0  0
 22 33  2  0  0  0  0
 23 24  1  0  0  0  0
 24 25  1  0  0  0  0
 25 26  1  0  0  0  0
 26 30  1  0  0  0  0
 27 28  1  0  0  0  0
  1 35  1  0  0  0  0
  2 36  1  0  0  0  0
  3 37  1  0  0  0  0
  4 38  1  0  0  0  0
  5 39  1  0  0  0  0
  6 40  1  0  0  0  0
  7 41  1  0  0  0  0
  8 42  1  0  0  0  0
  9 43  1  0  0  0  0
 10 44  1  0  0  0  0
 11 45  1  0  0  0  0
 12 46  1  0  0  0  0
 13 47  1  0  0  0  0
 23 48  1  0  0  0  0
 23 49  1  0  0  0  0
 24 50  1  0  0  0  0
 24 51  1  0  0  0  0
 25 52  1  0  0  0  0
 25 53  1  0  0  0  0
 26 54  1  0  0  0  0
 26 55  1  0  0  0  0
 27 56  1  0  0  0  0
 27 57  1  0  0  0  0
 28 58  1  0  0  0  0
 29 59  1  0  0  0  0
 31 60  1  0  0  0  0
M  END
> <clash_score>
1.2728248649063287

> <docking_score>
-8.28056812286377

> <overlap_score>
0.8818500638008118

$$$$
BENZO_302_2
  -OEChem-08232013503D

 60 64  0     1  0  0  0  0  0999 V2000
    4.2970    1.6690   20.8430 C   0  0  0  0  0  0  0  0  0  0  0  0
    4.0980    2.1130   19.5350 C   0  0  0  0  0  0  0  0  0  0  0  0
   10.2658    4.1447   23.6556 C   0  0  0  0  0  0  0  0  0  0  0  0
    5.3360    0.8000   21.1530 C   0  0  0  0  0  0  0  0  0  0  0  0
   10.1187    2.7577   23.6360 C   0  0  0  0  0  0  0  0  0  0  0  0
    8.3510   -1.5420   24.6110 C   0  0  0  0  0  0  0  0  0  0  0  0
   10.2760   -2.3270   23.4020 C   0  0  0  0  0  0  0  0  0  0  0  0
    4.9400    1.7060   18.5060 C   0  0  0  0  0  0  0  0  0  0  0  0
    8.3310   -2.7170   25.3430 C   0  0  0  0  0  0  0  0  0  0  0  0
   10.2570   -3.5000   24.1350 C   0  0  0  0  0  0  0  0  0  0  0  0
   11.4318    4.7295   23.1615 C   0  0  0  0  0  0  0  0  0  0  0  0
   12.3037    2.5404   22.6282 C   0  0  0  0  0  0  0  0  0  0  0  0
    7.6830   -0.5170   18.7600 C   0  0  0  0  0  0  0  0  0  0  0  0
    6.1600    0.3870   20.1140 C   0  0  0  0  0  0  0  0  0  0  0  0
    9.3300   -1.3350   23.6390 C   0  0  0  0  0  0  0  0  0  0  0  0
   11.1377    1.9556   23.1223 C   0  0  0  0  0  0  0  0  0  0  0  0
    5.9810    0.8330   18.8060 C   0  0  0  0  0  0  0  0  0  0  0  0
    9.2850   -3.7090   25.1090 C   0  0  0  0  0  0  0  0  0  0  0  0
    7.2210   -0.4620   20.0350 C   0  0  0  0  0  0  0  0  0  0  0  0
   12.4507    3.9273   22.6478 C   0  0  0  0  0  0  0  0  0  0  0  0
    8.0643   -5.4721   26.3672 C   0  0  0  0  0  0  0  0  0  0  0  0
    8.9510    0.1280   21.6880 C   0  0  0  0  0  0  0  0  0  0  0  0
    8.2649   -6.7591   27.1477 C   0  0  0  0  0  0  0  0  0  0  0  0
    9.4073   -6.6157   28.1377 C   0  0  0  0  0  0  0  0  0  0  0  0
   10.6967   -6.1489   27.4694 C   0  0  0  0  0  0  0  0  0  0  0  0
   10.4950   -5.7059   26.0212 C   0  0  0  0  0  0  0  0  0  0  0  0
   10.9782    0.4527   23.1025 C   0  0  0  0  0  0  0  0  0  0  0  0
    9.4200   -0.0840   22.9530 C   0  0  2  0  0  0  0  0  0  0  0  0
    6.9440    0.2550   18.0100 N   0  0  0  0  0  0  0  0  0  0  0  0
    9.2624   -4.9267   25.8634 N   0  0  0  0  0  0  0  0  0  0  0  0
    8.0810   -0.9750   21.0820 N   0  0  0  0  0  0  0  0  0  0  0  0
    6.9247   -5.0497   26.1749 O   0  0  0  0  0  0  0  0  0  0  0  0
    9.1870    1.1500   21.0630 O   0  0  0  0  0  0  0  0  0  0  0  0
   13.8895    4.6494   22.0393 Cl  0  0  0  0  0  0  0  0  0  0  0  0
    3.6256    2.0106   21.6303 H   0  0  0  0  0  0  0  0  0  0  0  0
    3.2724    2.7868   19.3204 H   0  0  0  0  0  0  0  0  0  0  0  0
    9.4721    4.7689   24.0559 H   0  0  0  0  0  0  0  0  0  0  0  0
    5.4858    0.4664   22.1692 H   0  0  0  0  0  0  0  0  0  0  0  0
    9.2068    2.3107   24.0232 H   0  0  0  0  0  0  0  0  0  0  0  0
    7.5948   -0.7783   24.7966 H   0  0  0  0  0  0  0  0  0  0  0  0
   11.0389   -2.1844   22.6342 H   0  0  0  0  0  0  0  0  0  0  0  0
    4.7836    2.0664   17.4848 H   0  0  0  0  0  0  0  0  0  0  0  0
    7.5642   -2.8624   26.1050 H   0  0  0  0  0  0  0  0  0  0  0  0
   11.0137   -4.2649   23.9418 H   0  0  0  0  0  0  0  0  0  0  0  0
   11.5327    5.8118   23.1834 H   0  0  0  0  0  0  0  0  0  0  0  0
   13.0951    1.9106   22.2282 H   0  0  0  0  0  0  0  0  0  0  0  0
    8.5274   -1.0858   18.3384 H   0  0  0  0  0  0  0  0  0  0  0  0
    7.3543   -6.9829   27.6818 H   0  0  0  0  0  0  0  0  0  0  0  0
    8.4783   -7.5436   26.4372 H   0  0  0  0  0  0  0  0  0  0  0  0
    9.1257   -5.9021   28.9399 H   0  0  0  0  0  0  0  0  0  0  0  0
    9.5814   -7.5840   28.6486 H   0  0  0  0  0  0  0  0  0  0  0  0
   11.1319   -5.3094   28.0513 H   0  0  0  0  0  0  0  0  0  0  0  0
   11.4591   -6.9570   27.5118 H   0  0  0  0  0  0  0  0  0  0  0  0
   11.3214   -5.0711   25.7158 H   0  0  0  0  0  0  0  0  0  0  0  0
   10.4496   -6.5786   25.3788 H   0  0  0  0  0  0  0  0  0  0  0  0
   11.5374    0.0399   22.2527 H   0  0  0  0  0  0  0  0  0  0  0  0
   11.4700    0.0494   23.9985 H   0  0  0  0  0  0  0  0  0  0  0  0
    8.9187    0.7273   23.6745 H   0  0  0  0  0  0  0  0  0  0  0  0
    7.0325    0.4238   17.0175 H   0  0  0  0  0  0  0  0  0  0  0  0
    8.1354   -1.7990   21.3694 H   0  0  0  0  0  0  0  0  0  0  0  0
  1  2  1  0  0  0  0
  1  4  2  0  0  0  0
  2  8  2  0  0  0  0
  3  5  2  0  0  0  0
  3 11  1  0  0  0  0
  4 14  1  0  0  0  0
  5 16  1  0  0  0  0
  6  9  2  0  0  0  0
  6 15  1  0  0  0  0
  7 10  1  0  0  0  0
  7 15  2  0  0  0  0
  8 17  1  0  0  0  0
  9 18  1  0  0  0  0
 10 18  2  0  0  0  0
 11 20  2  0  0  0  0
 12 16  2  0  0  0  0
 12 20  1  0  0  0  0
 13 19  2  0  0  0  0
 13 29  1  0  0  0  0
 14 17  2  0  0  0  0
 14 19  1  0  0  0  0
 15 28  1  0  0  0  0
 16 27  1  0  0  0  0
 17 29  1  0  0  0  0
 18 30  1  0  0  0  0
 19 31  1  0  0  0  0
 20 34  1  0  0  0  0
 21 23  1  0  0  0  0
 21 30  1  0  0  0  0
 21 32  2  0  0  0  0
 22 28  1  6  0  0  0
 22 31  1  0  0  0  0
 22 33  2  0  0  0  0
 23 24  1  0  0  0  0
 24 25  1  0  0  0  0
 25 26  1  0  0  0  0
 26 30  1  0  0  0  0
 27 28  1  0  0  0  0
  1 35  1  0  0  0  0
  2 36  1  0  0  0  0
  3 37  1  0  0  0  0
  4 38  1  0  0  0  0
  5 39  1  0  0  0  0
  6 40  1  0  0  0  0
  7 41  1  0  0  0  0
  8 42  1  0  0  0  0
  9 43  1  0  0  0  0
 10 44  1  0  0  0  0
 11 45  1  0  0  0  0
 12 46  1  0  0  0  0
 13 47  1  0  0  0  0
 23 48  1  0  0  0  0
 23 49  1  0  0  0  0
 24 50  1  0  0  0  0
 24 51  1  0  0  0  0
 25 52  1  0  0  0  0
 25 53  1  0  0  0  0
 26 54  1  0  0  0  0
 26 55  1  0  0  0  0
 27 56  1  0  0  0  0
 27 57  1  0  0  0  0
 28 58  1  0  0  0  0
 29 59  1  0  0  0  0
 31 60  1  0  0  0  0
M  END
> <clash_score>
1.2728248649063287

> <docking_score>
-9.26213264465332

> <overlap_score>
0.946629524230957

$$$$
BENZO_303_1
  -OEChem-08232013503D

 60 64  0     1  0  0  0  0  0999 V2000
    4.2970    1.6690   20.8430 C   0  0  0  0  0  0  0  0  0  0  0  0
    4.0980    2.1130   19.5350 C   0  0  0  0  0  0  0  0  0  0  0  0
    5.3360    0.8000   21.1530 C   0  0  0  0  0  0  0  0  0  0  0  0
    8.3510   -1.5420   24.6110 C   0  0  0  0  0  0  0  0  0  0  0  0
   10.2760   -2.3270   23.4020 C   0  0  0  0  0  0  0  0  0  0  0  0
    4.9400    1.7060   18.5060 C   0  0  0  0  0  0  0  0  0  0  0  0
    8.3310   -2.7170   25.3430 C   0  0  0  0  0  0  0  0  0  0  0  0
   10.2570   -3.5000   24.1350 C   0  0  0  0  0  0  0  0  0  0  0  0
   10.2246    2.9150   23.5994 C   0  0  0  0  0  0  0  0  0  0  0  0
   12.2096    2.6918   22.6803 C   0  0  0  0  0  0  0  0  0  0  0  0
    7.6830   -0.5170   18.7600 C   0  0  0  0  0  0  0  0  0  0  0  0
    6.1600    0.3870   20.1140 C   0  0  0  0  0  0  0  0  0  0  0  0
    9.3300   -1.3350   23.6390 C   0  0  0  0  0  0  0  0  0  0  0  0
   11.1377    1.9556   23.1223 C   0  0  0  0  0  0  0  0  0  0  0  0
    5.9810    0.8330   18.8060 C   0  0  0  0  0  0  0  0  0  0  0  0
    9.2850   -3.7090   25.1090 C   0  0  0  0  0  0  0  0  0  0  0  0
    7.2210   -0.4620   20.0350 C   0  0  0  0  0  0  0  0  0  0  0  0
    8.0643   -5.4721   26.3672 C   0  0  0  0  0  0  0  0  0  0  0  0
    8.9510    0.1280   21.6880 C   0  0  0  0  0  0  0  0  0  0  0  0
    8.2649   -6.7591   27.1477 C   0  0  0  0  0  0  0  0  0  0  0  0
    9.4073   -6.6157   28.1377 C   0  0  0  0  0  0  0  0  0  0  0  0
   10.6967   -6.1489   27.4694 C   0  0  0  0  0  0  0  0  0  0  0  0
   10.4950   -5.7059   26.0212 C   0  0  0  0  0  0  0  0  0  0  0  0
   12.7040    5.1473   22.6111 C   0  0  0  0  0  0  0  0  0  0  0  0
   10.9782    0.4527   23.1025 C   0  0  0  0  0  0  0  0  0  0  0  0
    9.4200   -0.0840   22.9530 C   0  0  1  0  0  0  0  0  0  0  0  0
   10.6770    4.1653   23.4725 N   0  0  0  0  0  0  0  0  0  0  0  0
    6.9440    0.2550   18.0100 N   0  0  0  0  0  0  0  0  0  0  0  0
   11.8861    3.9966   22.9108 N   0  0  0  0  0  0  0  0  0  0  0  0
    9.2624   -4.9267   25.8634 N   0  0  0  0  0  0  0  0  0  0  0  0
    8.0810   -0.9750   21.0820 N   0  0  0  0  0  0  0  0  0  0  0  0
    6.9247   -5.0497   26.1749 O   0  0  0  0  0  0  0  0  0  0  0  0
    9.1870    1.1500   21.0630 O   0  0  0  0  0  0  0  0  0  0  0  0
    3.6256    2.0106   21.6303 H   0  0  0  0  0  0  0  0  0  0  0  0
    3.2724    2.7868   19.3204 H   0  0  0  0  0  0  0  0  0  0  0  0
    5.4858    0.4664   22.1692 H   0  0  0  0  0  0  0  0  0  0  0  0
    7.5948   -0.7783   24.7966 H   0  0  0  0  0  0  0  0  0  0  0  0
   11.0389   -2.1844   22.6342 H   0  0  0  0  0  0  0  0  0  0  0  0
    4.7836    2.0664   17.4848 H   0  0  0  0  0  0  0  0  0  0  0  0
    7.5642   -2.8624   26.1050 H   0  0  0  0  0  0  0  0  0  0  0  0
   11.0137   -4.2649   23.9418 H   0  0  0  0  0  0  0  0  0  0  0  0
    9.2482    2.7575   24.0354 H   0  0  0  0  0  0  0  0  0  0  0  0
   13.1522    2.4055   22.2336 H   0  0  0  0  0  0  0  0  0  0  0  0
    8.5274   -1.0858   18.3384 H   0  0  0  0  0  0  0  0  0  0  0  0
    7.3543   -6.9829   27.6818 H   0  0  0  0  0  0  0  0  0  0  0  0
    8.4783   -7.5436   26.4372 H   0  0  0  0  0  0  0  0  0  0  0  0
    9.1257   -5.9021   28.9399 H   0  0  0  0  0  0  0  0  0  0  0  0
    9.5814   -7.5840   28.6486 H   0  0  0  0  0  0  0  0  0  0  0  0
   11.1319   -5.3094   28.0513 H   0  0  0  0  0  0  0  0  0  0  0  0
   11.4591   -6.9570   27.5118 H   0  0  0  0  0  0  0  0  0  0  0  0
   11.3214   -5.0711   25.7158 H   0  0  0  0  0  0  0  0  0  0  0  0
   10.4496   -6.5786   25.3788 H   0  0  0  0  0  0  0  0  0  0  0  0
   12.4645    5.4764   21.5965 H   0  0  0  0  0  0  0  0  0  0  0  0
   12.4916    5.9425   23.3310 H   0  0  0  0  0  0  0  0  0  0  0  0
   13.7592    4.8698   22.6850 H   0  0  0  0  0  0  0  0  0  0  0  0
   11.5374    0.0399   22.2527 H   0  0  0  0  0  0  0  0  0  0  0  0
   11.4700    0.0494   23.9985 H   0  0  0  0  0  0  0  0  0  0  0  0
    8.9187    0.7273   23.6745 H   0  0  0  0  0  0  0  0  0  0  0  0
    7.0325    0.4238   17.0175 H   0  0  0  0  0  0  0  0  0  0  0  0
    8.1354   -1.7990   21.3694 H   0  0  0  0  0  0  0  0  0  0  0  0
  1  2  1  0  0  0  0
  1  3  2  0  0  0  0
  2  6  2  0  0  0  0
  3 12  1  0  0  0  0
  4  7  2  0  0  0  0
  4 13  1  0  0  0  0
  5  8  1  0  0  0  0
  5 13  2  0  0  0  0
  6 15  1  0  0  0  0
  7 16  1  0  0  0  0
  8 16  2  0  0  0  0
  9 14  1  0  0  0  0
  9 27  2  0  0  0  0
 10 14  2  0  0  0  0
 10 29  1  0  0  0  0
 11 17  2  0  0  0  0
 11 28  1  0  0  0  0
 12 15  2  0  0  0  0
 12 17  1  0  0  0  0
 13 26  1  0  0  0  0
 14 25  1  0  0  0  0
 15 28  1  0  0  0  0
 16 30  1  0  0  0  0
 17 31  1  0  0  0  0
 18 20  1  0  0  0  0
 18 30  1  0  0  0  0
 18 32  2  0  0  0  0
 19 26  1  0  0  0  0
 19 31  1  0  0  0  0
 19 33  2  0  0  0  0
 20 21  1  0  0  0  0
 21 22  1  0  0  0  0
 22 23  1  0  0  0  0
 23 30  1  0  0  0  0
 24 29  1  0  0  0  0
 25 26  1  1  0  0  0
 27 29  1  0  0  0  0
  1 34  1  0  0  0  0
  2 35  1  0  0  0  0
  3 36  1  0  0  0  0
  4 37  1  0  0  0  0
  5 38  1  0  0  0  0
  6 39  1  0  0  0  0
  7 40  1  0  0  0  0
  8 41  1  0  0  0  0
  9 42  1  0  0  0  0
 10 43  1  0  0  0  0
 11 44  1  0  0  0  0
 20 45  1  0  0  0  0
 20 46  1  0  0  0  0
 21 47  1  0  0  0  0
 21 48  1  0  0  0  0
 22 49  1  0  0  0  0
 22 50  1  0  0  0  0
 23 51  1  0  0  0  0
 23 52  1  0  0  0  0
 24 53  1  0  0  0  0
 24 54  1  0  0  0  0
 24 55  1  0  0  0  0
 25 56  1  0  0  0  0
 25 57  1  0  0  0  0
 26 58  1  0  0  0  0
 28 59  1  0  0  0  0
 31 60  1  0  0  0  0
M  END
> <clash_score>
1.2728248649063287

> <docking_score>
-8.788995742797852

> <overlap_score>
0.9406476020812988

$$$$
BENZO_305_1
  -OEChem-08232013503D

 59 63  0     1  0  0  0  0  0999 V2000
   10.6367    4.9868   23.6018 C   0  0  0  0  0  0  0  0  0  0  0  0
    4.2970    1.6690   20.8430 C   0  0  0  0  0  0  0  0  0  0  0  0
    9.3228    4.8557   24.0511 C   0  0  0  0  0  0  0  0  0  0  0  0
   11.3798    3.8515   23.2784 C   0  0  0  0  0  0  0  0  0  0  0  0
    4.0980    2.1130   19.5350 C   0  0  0  0  0  0  0  0  0  0  0  0
    5.3360    0.8000   21.1530 C   0  0  0  0  0  0  0  0  0  0  0  0
    8.7519    3.5893   24.1772 C   0  0  0  0  0  0  0  0  0  0  0  0
   10.8090    2.5851   23.4045 C   0  0  0  0  0  0  0  0  0  0  0  0
    8.3510   -1.5420   24.6110 C   0  0  0  0  0  0  0  0  0  0  0  0
   10.2760   -2.3270   23.4020 C   0  0  0  0  0  0  0  0  0  0  0  0
    4.9400    1.7060   18.5060 C   0  0  0  0  0  0  0  0  0  0  0  0
    8.3310   -2.7170   25.3430 C   0  0  0  0  0  0  0  0  0  0  0  0
   10.2570   -3.5000   24.1350 C   0  0  0  0  0  0  0  0  0  0  0  0
    7.6830   -0.5170   18.7600 C   0  0  0  0  0  0  0  0  0  0  0  0
    6.1600    0.3870   20.1140 C   0  0  0  0  0  0  0  0  0  0  0  0
    9.4950    2.4539   23.8539 C   0  0  0  0  0  0  0  0  0  0  0  0
    9.3300   -1.3350   23.6390 C   0  0  0  0  0  0  0  0  0  0  0  0
    5.9810    0.8330   18.8060 C   0  0  0  0  0  0  0  0  0  0  0  0
    9.2850   -3.7090   25.1090 C   0  0  0  0  0  0  0  0  0  0  0  0
    7.2210   -0.4620   20.0350 C   0  0  0  0  0  0  0  0  0  0  0  0
    8.9510    0.1280   21.6880 C   0  0  0  0  0  0  0  0  0  0  0  0
    8.7672   -4.9539   27.2147 C   0  0  0  0  0  0  0  0  0  0  0  0
    9.3060   -6.1863   25.1644 C   0  0  0  0  0  0  0  0  0  0  0  0
    7.3845   -5.5968   27.1999 C   0  0  0  0  0  0  0  0  0  0  0  0
    7.9062   -6.7991   25.2257 C   0  0  0  0  0  0  0  0  0  0  0  0
    8.8771    1.0813   23.9905 C   0  0  0  0  0  0  0  0  0  0  0  0
    9.4200   -0.0840   22.9530 C   0  0  1  0  0  0  0  0  0  0  0  0
    6.9440    0.2550   18.0100 N   0  0  0  0  0  0  0  0  0  0  0  0
    9.2641   -4.8845   25.8388 N   0  0  0  0  0  0  0  0  0  0  0  0
    8.0810   -0.9750   21.0820 N   0  0  0  0  0  0  0  0  0  0  0  0
    9.1870    1.1500   21.0630 O   0  0  0  0  0  0  0  0  0  0  0  0
    7.4526   -6.8873   26.5811 O   0  0  0  0  0  0  0  0  0  0  0  0
   11.0806    5.9731   23.5024 H   0  0  0  0  0  0  0  0  0  0  0  0
    3.6256    2.0106   21.6303 H   0  0  0  0  0  0  0  0  0  0  0  0
    8.7437    5.7397   24.3019 H   0  0  0  0  0  0  0  0  0  0  0  0
   12.4025    3.9533   22.9274 H   0  0  0  0  0  0  0  0  0  0  0  0
    3.2724    2.7868   19.3204 H   0  0  0  0  0  0  0  0  0  0  0  0
    5.4858    0.4664   22.1692 H   0  0  0  0  0  0  0  0  0  0  0  0
    7.7275    3.4967   24.5283 H   0  0  0  0  0  0  0  0  0  0  0  0
   11.3955    1.7061   23.1503 H   0  0  0  0  0  0  0  0  0  0  0  0
    7.5957   -0.7779   24.7973 H   0  0  0  0  0  0  0  0  0  0  0  0
   11.0384   -2.1852   22.6338 H   0  0  0  0  0  0  0  0  0  0  0  0
    4.7836    2.0664   17.4848 H   0  0  0  0  0  0  0  0  0  0  0  0
    7.5634   -2.8637   26.1037 H   0  0  0  0  0  0  0  0  0  0  0  0
   11.0139   -4.2645   23.9419 H   0  0  0  0  0  0  0  0  0  0  0  0
    8.5274   -1.0858   18.3384 H   0  0  0  0  0  0  0  0  0  0  0  0
    8.7043   -3.9576   27.6640 H   0  0  0  0  0  0  0  0  0  0  0  0
    9.4508   -5.5642   27.8158 H   0  0  0  0  0  0  0  0  0  0  0  0
   10.0157   -6.8385   25.6807 H   0  0  0  0  0  0  0  0  0  0  0  0
    9.6157   -6.0831   24.1225 H   0  0  0  0  0  0  0  0  0  0  0  0
    7.0304   -5.7389   28.2230 H   0  0  0  0  0  0  0  0  0  0  0  0
    6.6546   -4.9733   26.6758 H   0  0  0  0  0  0  0  0  0  0  0  0
    7.1886   -6.2213   24.6315 H   0  0  0  0  0  0  0  0  0  0  0  0
    7.9303   -7.8141   24.8176 H   0  0  0  0  0  0  0  0  0  0  0  0
    8.9708    0.7434   25.0308 H   0  0  0  0  0  0  0  0  0  0  0  0
    7.7972    1.1781   23.8117 H   0  0  0  0  0  0  0  0  0  0  0  0
   10.5743    0.2174   22.9808 H   0  0  0  0  0  0  0  0  0  0  0  0
    7.0325    0.4238   17.0175 H   0  0  0  0  0  0  0  0  0  0  0  0
    8.1175   -1.8104   21.3538 H   0  0  0  0  0  0  0  0  0  0  0  0
  1  3  1  0  0  0  0
  1  4  2  0  0  0  0
  2  5  1  0  0  0  0
  2  6  2  0  0  0  0
  3  7  2  0  0  0  0
  4  8  1  0  0  0  0
  5 11  2  0  0  0  0
  6 15  1  0  0  0  0
  7 16  1  0  0  0  0
  8 16  2  0  0  0  0
  9 12  2  0  0  0  0
  9 17  1  0  0  0  0
 10 13  1  0  0  0  0
 10 17  2  0  0  0  0
 11 18  1  0  0  0  0
 12 19  1  0  0  0  0
 13 19  2  0  0  0  0
 14 20  2  0  0  0  0
 14 28  1  0  0  0  0
 15 18  2  0  0  0  0
 15 20  1  0  0  0  0
 16 26  1  0  0  0  0
 17 27  1  0  0  0  0
 18 28  1  0  0  0  0
 19 29  1  0  0  0  0
 20 30  1  0  0  0  0
 21 27  1  1  0  0  0
 21 30  1  0  0  0  0
 21 31  2  0  0  0  0
 22 24  1  0  0  0  0
 22 29  1  0  0  0  0
 23 25  1  0  0  0  0
 23 29  1  0  0  0  0
 24 32  1  0  0  0  0
 25 32  1  0  0  0  0
 26 27  1  0  0  0  0
  1 33  1  0  0  0  0
  2 34  1  0  0  0  0
  3 35  1  0  0  0  0
  4 36  1  0  0  0  0
  5 37  1  0  0  0  0
  6 38  1  0  0  0  0
  7 39  1  0  0  0  0
  8 40  1  0  0  0  0
  9 41  1  0  0  0  0
 10 42  1  0  0  0  0
 11 43  1  0  0  0  0
 12 44  1  0  0  0  0
 13 45  1  0  0  0  0
 14 46  1  0  0  0  0
 22 47  1  0  0  0  0
 22 48  1  0  0  0  0
 23 49  1  0  0  0  0
 23 50  1  0  0  0  0
 24 51  1  0  0  0  0
 24 52  1  0  0  0  0
 25 53  1  0  0  0  0
 25 54  1  0  0  0  0
 26 55  1  0  0  0  0
 26 56  1  0  0  0  0
 27 57  1  0  0  0  0
 28 58  1  0  0  0  0
 30 59  1  0  0  0  0
M  END
> <clash_score>
0

> <docking_score>
-9.00078010559082

> <overlap_score>
0.8757935166358948

$$$$
BENZO_303_2
  -OEChem-08232013503D

 60 64  0     1  0  0  0  0  0999 V2000
    4.2970    1.6690   20.8430 C   0  0  0  0  0  0  0  0  0  0  0  0
    4.0980    2.1130   19.5350 C   0  0  0  0  0  0  0  0  0  0  0  0
    5.3360    0.8000   21.1530 C   0  0  0  0  0  0  0  0  0  0  0  0
    8.3510   -1.5420   24.6110 C   0  0  0  0  0  0  0  0  0  0  0  0
   10.2760   -2.3270   23.4020 C   0  0  0  0  0  0  0  0  0  0  0  0
    4.9400    1.7060   18.5060 C   0  0  0  0  0  0  0  0  0  0  0  0
    8.3310   -2.7170   25.3430 C   0  0  0  0  0  0  0  0  0  0  0  0
   10.2570   -3.5000   24.1350 C   0  0  0  0  0  0  0  0  0  0  0  0
   10.7785    2.7976   23.3981 C   0  0  0  0  0  0  0  0  0  0  0  0
    8.8917    3.6777   24.1054 C   0  0  0  0  0  0  0  0  0  0  0  0
    7.6830   -0.5170   18.7600 C   0  0  0  0  0  0  0  0  0  0  0  0
    6.1600    0.3870   20.1140 C   0  0  0  0  0  0  0  0  0  0  0  0
    9.3300   -1.3350   23.6390 C   0  0  0  0  0  0  0  0  0  0  0  0
    9.4830    2.4670   23.8385 C   0  0  0  0  0  0  0  0  0  0  0  0
    5.9810    0.8330   18.8060 C   0  0  0  0  0  0  0  0  0  0  0  0
    9.2850   -3.7090   25.1090 C   0  0  0  0  0  0  0  0  0  0  0  0
    7.2210   -0.4620   20.0350 C   0  0  0  0  0  0  0  0  0  0  0  0
    8.0643   -5.4721   26.3672 C   0  0  0  0  0  0  0  0  0  0  0  0
    8.9510    0.1280   21.6880 C   0  0  0  0  0  0  0  0  0  0  0  0
    8.2649   -6.7591   27.1477 C   0  0  0  0  0  0  0  0  0  0  0  0
    9.4073   -6.6157   28.1377 C   0  0  0  0  0  0  0  0  0  0  0  0
   10.6967   -6.1489   27.4694 C   0  0  0  0  0  0  0  0  0  0  0  0
   10.4950   -5.7059   26.0212 C   0  0  0  0  0  0  0  0  0  0  0  0
    9.6751    6.0523   23.9438 C   0  0  0  0  0  0  0  0  0  0  0  0
    8.8757    1.0906   23.9832 C   0  0  0  0  0  0  0  0  0  0  0  0
    9.4200   -0.0840   22.9530 C   0  0  2  0  0  0  0  0  0  0  0  0
   10.9980    4.1151   23.3844 N   0  0  0  0  0  0  0  0  0  0  0  0
    6.9440    0.2550   18.0100 N   0  0  0  0  0  0  0  0  0  0  0  0
    9.8323    4.6230   23.8195 N   0  0  0  0  0  0  0  0  0  0  0  0
    9.2624   -4.9267   25.8634 N   0  0  0  0  0  0  0  0  0  0  0  0
    8.0810   -0.9750   21.0820 N   0  0  0  0  0  0  0  0  0  0  0  0
    6.9247   -5.0497   26.1749 O   0  0  0  0  0  0  0  0  0  0  0  0
    9.1870    1.1500   21.0630 O   0  0  0  0  0  0  0  0  0  0  0  0
    3.6256    2.0106   21.6303 H   0  0  0  0  0  0  0  0  0  0  0  0
    3.2724    2.7868   19.3204 H   0  0  0  0  0  0  0  0  0  0  0  0
    5.4858    0.4664   22.1692 H   0  0  0  0  0  0  0  0  0  0  0  0
    7.5948   -0.7783   24.7966 H   0  0  0  0  0  0  0  0  0  0  0  0
   11.0389   -2.1844   22.6342 H   0  0  0  0  0  0  0  0  0  0  0  0
    4.7836    2.0664   17.4848 H   0  0  0  0  0  0  0  0  0  0  0  0
    7.5642   -2.8624   26.1050 H   0  0  0  0  0  0  0  0  0  0  0  0
   11.0137   -4.2649   23.9418 H   0  0  0  0  0  0  0  0  0  0  0  0
   11.5733    2.1353   23.0852 H   0  0  0  0  0  0  0  0  0  0  0  0
    7.9058    3.9405   24.4643 H   0  0  0  0  0  0  0  0  0  0  0  0
    8.5274   -1.0858   18.3384 H   0  0  0  0  0  0  0  0  0  0  0  0
    7.3543   -6.9829   27.6818 H   0  0  0  0  0  0  0  0  0  0  0  0
    8.4783   -7.5436   26.4372 H   0  0  0  0  0  0  0  0  0  0  0  0
    9.1257   -5.9021   28.9399 H   0  0  0  0  0  0  0  0  0  0  0  0
    9.5814   -7.5840   28.6486 H   0  0  0  0  0  0  0  0  0  0  0  0
   11.1319   -5.3094   28.0513 H   0  0  0  0  0  0  0  0  0  0  0  0
   11.4591   -6.9570   27.5118 H   0  0  0  0  0  0  0  0  0  0  0  0
   11.3214   -5.0711   25.7158 H   0  0  0  0  0  0  0  0  0  0  0  0
   10.4496   -6.5786   25.3788 H   0  0  0  0  0  0  0  0  0  0  0  0
    9.9837    6.3390   24.9526 H   0  0  0  0  0  0  0  0  0  0  0  0
   10.2971    6.5534   23.1968 H   0  0  0  0  0  0  0  0  0  0  0  0
    8.6278    6.3169   23.7735 H   0  0  0  0  0  0  0  0  0  0  0  0
    8.9639    0.7632   25.0273 H   0  0  0  0  0  0  0  0  0  0  0  0
    7.7964    1.1765   23.7950 H   0  0  0  0  0  0  0  0  0  0  0  0
   10.5749    0.2253   22.9765 H   0  0  0  0  0  0  0  0  0  0  0  0
    7.0325    0.4238   17.0175 H   0  0  0  0  0  0  0  0  0  0  0  0
    8.1354   -1.7990   21.3694 H   0  0  0  0  0  0  0  0  0  0  0  0
  1  2  1  0  0  0  0
  1  3  2  0  0  0  0
  2  6  2  0  0  0  0
  3 12  1  0  0  0  0
  4  7  2  0  0  0  0
  4 13  1  0  0  0  0
  5  8  1  0  0  0  0
  5 13  2  0  0  0  0
  6 15  1  0  0  0  0
  7 16  1  0  0  0  0
  8 16  2  0  0  0  0
  9 14  1  0  0  0  0
  9 27  2  0  0  0  0
 10 14  2  0  0  0  0
 10 29  1  0  0  0  0
 11 17  2  0  0  0  0
 11 28  1  0  0  0  0
 12 15  2  0  0  0  0
 12 17  1  0  0  0  0
 13 26  1  0  0  0  0
 14 25  1  0  0  0  0
 15 28  1  0  0  0  0
 16 30  1  0  0  0  0
 17 31  1  0  0  0  0
 18 20  1  0  0  0  0
 18 30  1  0  0  0  0
 18 32  2  0  0  0  0
 19 26  1  0  0  0  0
 19 31  1  0  0  0  0
 19 33  2  0  0  0  0
 20 21  1  0  0  0  0
 21 22  1  0  0  0  0
 22 23  1  0  0  0  0
 23 30  1  0  0  0  0
 24 29  1  0  0  0  0
 25 26  1  6  0  0  0
 27 29  1  0  0  0  0
  1 34  1  0  0  0  0
  2 35  1  0  0  0  0
  3 36  1  0  0  0  0
  4 37  1  0  0  0  0
  5 38  1  0  0  0  0
  6 39  1  0  0  0  0
  7 40  1  0  0  0  0
  8 41  1  0  0  0  0
  9 42  1  0  0  0  0
 10 43  1  0  0  0  0
 11 44  1  0  0  0  0
 20 45  1  0  0  0  0
 20 46  1  0  0  0  0
 21 47  1  0  0  0  0
 21 48  1  0  0  0  0
 22 49  1  0  0  0  0
 22 50  1  0  0  0  0
 23 51  1  0  0  0  0
 23 52  1  0  0  0  0
 24 53  1  0  0  0  0
 24 54  1  0  0  0  0
 24 55  1  0  0  0  0
 25 56  1  0  0  0  0
 25 57  1  0  0  0  0
 26 58  1  0  0  0  0
 28 59  1  0  0  0  0
 31 60  1  0  0  0  0
M  END
> <clash_score>
1.2728248649063287

> <docking_score>
-7.584209442138672

> <overlap_score>
0.8674866557121277

$$$$
BENZO_305_2
  -OEChem-08232013503D

 59 63  0     1  0  0  0  0  0999 V2000
   11.4296    4.7207   23.1993 C   0  0  0  0  0  0  0  0  0  0  0  0
    4.2970    1.6690   20.8430 C   0  0  0  0  0  0  0  0  0  0  0  0
   12.4494    3.9228   22.6806 C   0  0  0  0  0  0  0  0  0  0  0  0
   10.2636    4.1317   23.6883 C   0  0  0  0  0  0  0  0  0  0  0  0
    4.0980    2.1130   19.5350 C   0  0  0  0  0  0  0  0  0  0  0  0
    5.3360    0.8000   21.1530 C   0  0  0  0  0  0  0  0  0  0  0  0
   12.3031    2.5360   22.6508 C   0  0  0  0  0  0  0  0  0  0  0  0
   10.1173    2.7449   23.6585 C   0  0  0  0  0  0  0  0  0  0  0  0
    8.3510   -1.5420   24.6110 C   0  0  0  0  0  0  0  0  0  0  0  0
   10.2760   -2.3270   23.4020 C   0  0  0  0  0  0  0  0  0  0  0  0
    4.9400    1.7060   18.5060 C   0  0  0  0  0  0  0  0  0  0  0  0
    8.3310   -2.7170   25.3430 C   0  0  0  0  0  0  0  0  0  0  0  0
   10.2570   -3.5000   24.1350 C   0  0  0  0  0  0  0  0  0  0  0  0
    7.6830   -0.5170   18.7600 C   0  0  0  0  0  0  0  0  0  0  0  0
    6.1600    0.3870   20.1140 C   0  0  0  0  0  0  0  0  0  0  0  0
   11.1370    1.9470   23.1397 C   0  0  0  0  0  0  0  0  0  0  0  0
    9.3300   -1.3350   23.6390 C   0  0  0  0  0  0  0  0  0  0  0  0
    5.9810    0.8330   18.8060 C   0  0  0  0  0  0  0  0  0  0  0  0
    9.2850   -3.7090   25.1090 C   0  0  0  0  0  0  0  0  0  0  0  0
    7.2210   -0.4620   20.0350 C   0  0  0  0  0  0  0  0  0  0  0  0
    8.9510    0.1280   21.6880 C   0  0  0  0  0  0  0  0  0  0  0  0
    8.7672   -4.9539   27.2147 C   0  0  0  0  0  0  0  0  0  0  0  0
    9.3060   -6.1863   25.1644 C   0  0  0  0  0  0  0  0  0  0  0  0
    7.3845   -5.5968   27.1999 C   0  0  0  0  0  0  0  0  0  0  0  0
    7.9062   -6.7991   25.2257 C   0  0  0  0  0  0  0  0  0  0  0  0
   10.9777    0.4443   23.1075 C   0  0  0  0  0  0  0  0  0  0  0  0
    9.4200   -0.0840   22.9530 C   0  0  2  0  0  0  0  0  0  0  0  0
    6.9440    0.2550   18.0100 N   0  0  0  0  0  0  0  0  0  0  0  0
    9.2641   -4.8845   25.8388 N   0  0  0  0  0  0  0  0  0  0  0  0
    8.0810   -0.9750   21.0820 N   0  0  0  0  0  0  0  0  0  0  0  0
    9.1870    1.1500   21.0630 O   0  0  0  0  0  0  0  0  0  0  0  0
    7.4526   -6.8873   26.5811 O   0  0  0  0  0  0  0  0  0  0  0  0
   11.5443    5.8005   23.2237 H   0  0  0  0  0  0  0  0  0  0  0  0
    3.6256    2.0106   21.6303 H   0  0  0  0  0  0  0  0  0  0  0  0
   13.3579    4.3812   22.3008 H   0  0  0  0  0  0  0  0  0  0  0  0
    9.4699    4.7525   24.0932 H   0  0  0  0  0  0  0  0  0  0  0  0
    3.2724    2.7868   19.3204 H   0  0  0  0  0  0  0  0  0  0  0  0
    5.4858    0.4664   22.1692 H   0  0  0  0  0  0  0  0  0  0  0  0
   13.1028    1.9222   22.2446 H   0  0  0  0  0  0  0  0  0  0  0  0
    9.2052    2.2948   24.0416 H   0  0  0  0  0  0  0  0  0  0  0  0
    7.5957   -0.7779   24.7973 H   0  0  0  0  0  0  0  0  0  0  0  0
   11.0384   -2.1852   22.6338 H   0  0  0  0  0  0  0  0  0  0  0  0
    4.7836    2.0664   17.4848 H   0  0  0  0  0  0  0  0  0  0  0  0
    7.5634   -2.8637   26.1037 H   0  0  0  0  0  0  0  0  0  0  0  0
   11.0139   -4.2645   23.9419 H   0  0  0  0  0  0  0  0  0  0  0  0
    8.5274   -1.0858   18.3384 H   0  0  0  0  0  0  0  0  0  0  0  0
    8.7043   -3.9576   27.6640 H   0  0  0  0  0  0  0  0  0  0  0  0
    9.4508   -5.5642   27.8158 H   0  0  0  0  0  0  0  0  0  0  0  0
   10.0157   -6.8385   25.6807 H   0  0  0  0  0  0  0  0  0  0  0  0
    9.6157   -6.0831   24.1225 H   0  0  0  0  0  0  0  0  0  0  0  0
    7.0304   -5.7389   28.2230 H   0  0  0  0  0  0  0  0  0  0  0  0
    6.6546   -4.9733   26.6758 H   0  0  0  0  0  0  0  0  0  0  0  0
    7.1886   -6.2213   24.6315 H   0  0  0  0  0  0  0  0  0  0  0  0
    7.9303   -7.8141   24.8176 H   0  0  0  0  0  0  0  0  0  0  0  0
   11.5363    0.0387   22.2539 H   0  0  0  0  0  0  0  0  0  0  0  0
   11.4704    0.0336   23.9998 H   0  0  0  0  0  0  0  0  0  0  0  0
    8.9182    0.7194   23.6789 H   0  0  0  0  0  0  0  0  0  0  0  0
    7.0325    0.4238   17.0175 H   0  0  0  0  0  0  0  0  0  0  0  0
    8.1175   -1.8104   21.3538 H   0  0  0  0  0  0  0  0  0  0  0  0
  1  3  1  0  0  0  0
  1  4  2  0  0  0  0
  2  5  1  0  0  0  0
  2  6  2  0  0  0  0
  3  7  2  0  0  0  0
  4  8  1  0  0  0  0
  5 11  2  0  0  0  0
  6 15  1  0  0  0  0
  7 16  1  0  0  0  0
  8 16  2  0  0  0  0
  9 12  2  0  0  0  0
  9 17  1  0  0  0  0
 10 13  1  0  0  0  0
 10 17  2  0  0  0  0
 11 18  1  0  0  0  0
 12 19  1  0  0  0  0
 13 19  2  0  0  0  0
 14 20  2  0  0  0  0
 14 28  1  0  0  0  0
 15 18  2  0  0  0  0
 15 20  1  0  0  0  0
 16 26  1  0  0  0  0
 17 27  1  0  0  0  0
 18 28  1  0  0  0  0
 19 29  1  0  0  0  0
 20 30  1  0  0  0  0
 21 27  1  6  0  0  0
 21 30  1  0  0  0  0
 21 31  2  0  0  0  0
 22 24  1  0  0  0  0
 22 29  1  0  0  0  0
 23 25  1  0  0  0  0
 23 29  1  0  0  0  0
 24 32  1  0  0  0  0
 25 32  1  0  0  0  0
 26 27  1  0  0  0  0
  1 33  1  0  0  0  0
  2 34  1  0  0  0  0
  3 35  1  0  0  0  0
  4 36  1  0  0  0  0
  5 37  1  0  0  0  0
  6 38  1  0  0  0  0
  7 39  1  0  0  0  0
  8 40  1  0  0  0  0
  9 41  1  0  0  0  0
 10 42  1  0  0  0  0
 11 43  1  0  0  0  0
 12 44  1  0  0  0  0
 13 45  1  0  0  0  0
 14 46  1  0  0  0  0
 22 47  1  0  0  0  0
 22 48  1  0  0  0  0
 23 49  1  0  0  0  0
 23 50  1  0  0  0  0
 24 51  1  0  0  0  0
 24 52  1  0  0  0  0
 25 53  1  0  0  0  0
 25 54  1  0  0  0  0
 26 55  1  0  0  0  0
 26 56  1  0  0  0  0
 27 57  1  0  0  0  0
 28 58  1  0  0  0  0
 30 59  1  0  0  0  0
M  END
> <clash_score>
0

> <docking_score>
-10.115415573120117

> <overlap_score>
0.9469205737113953

$$$$
BENZO_304_2
  -OEChem-08232013503D

 56 60  0     1  0  0  0  0  0999 V2000
    4.2970    1.6690   20.8430 C   0  0  0  0  0  0  0  0  0  0  0  0
    4.0980    2.1130   19.5350 C   0  0  0  0  0  0  0  0  0  0  0  0
    5.3360    0.8000   21.1530 C   0  0  0  0  0  0  0  0  0  0  0  0
    8.3510   -1.5420   24.6110 C   0  0  0  0  0  0  0  0  0  0  0  0
   10.2760   -2.3270   23.4020 C   0  0  0  0  0  0  0  0  0  0  0  0
    4.9400    1.7060   18.5060 C   0  0  0  0  0  0  0  0  0  0  0  0
    8.3310   -2.7170   25.3430 C   0  0  0  0  0  0  0  0  0  0  0  0
   10.2570   -3.5000   24.1350 C   0  0  0  0  0  0  0  0  0  0  0  0
   11.9019    2.6854   22.1912 C   0  0  0  0  0  0  0  0  0  0  0  0
    7.6830   -0.5170   18.7600 C   0  0  0  0  0  0  0  0  0  0  0  0
   11.8820    4.0381   22.4508 C   0  0  0  0  0  0  0  0  0  0  0  0
   10.5617    2.7635   24.0885 C   0  0  0  0  0  0  0  0  0  0  0  0
    6.1600    0.3870   20.1140 C   0  0  0  0  0  0  0  0  0  0  0  0
    9.3300   -1.3350   23.6390 C   0  0  0  0  0  0  0  0  0  0  0  0
   11.1370    1.9470   23.1397 C   0  0  0  0  0  0  0  0  0  0  0  0
    5.9810    0.8330   18.8060 C   0  0  0  0  0  0  0  0  0  0  0  0
    9.2850   -3.7090   25.1090 C   0  0  0  0  0  0  0  0  0  0  0  0
    7.2210   -0.4620   20.0350 C   0  0  0  0  0  0  0  0  0  0  0  0
    8.9510    0.1280   21.6880 C   0  0  0  0  0  0  0  0  0  0  0  0
    8.7672   -4.9539   27.2147 C   0  0  0  0  0  0  0  0  0  0  0  0
    9.3060   -6.1863   25.1644 C   0  0  0  0  0  0  0  0  0  0  0  0
    7.3845   -5.5968   27.1999 C   0  0  0  0  0  0  0  0  0  0  0  0
    7.9062   -6.7991   25.2257 C   0  0  0  0  0  0  0  0  0  0  0  0
   10.9777    0.4443   23.1075 C   0  0  0  0  0  0  0  0  0  0  0  0
    9.4200   -0.0840   22.9530 C   0  0  2  0  0  0  0  0  0  0  0  0
    6.9440    0.2550   18.0100 N   0  0  0  0  0  0  0  0  0  0  0  0
    9.2641   -4.8845   25.8388 N   0  0  0  0  0  0  0  0  0  0  0  0
    8.0810   -0.9750   21.0820 N   0  0  0  0  0  0  0  0  0  0  0  0
    9.1870    1.1500   21.0630 O   0  0  0  0  0  0  0  0  0  0  0  0
    7.4526   -6.8873   26.5811 O   0  0  0  0  0  0  0  0  0  0  0  0
   10.9440    4.4131   23.8335 S   0  0  0  0  0  0  0  0  0  0  0  0
    3.6256    2.0106   21.6303 H   0  0  0  0  0  0  0  0  0  0  0  0
    3.2724    2.7868   19.3204 H   0  0  0  0  0  0  0  0  0  0  0  0
    5.4858    0.4664   22.1692 H   0  0  0  0  0  0  0  0  0  0  0  0
    7.5957   -0.7779   24.7973 H   0  0  0  0  0  0  0  0  0  0  0  0
   11.0384   -2.1852   22.6338 H   0  0  0  0  0  0  0  0  0  0  0  0
    4.7836    2.0664   17.4848 H   0  0  0  0  0  0  0  0  0  0  0  0
    7.5634   -2.8637   26.1037 H   0  0  0  0  0  0  0  0  0  0  0  0
   11.0139   -4.2645   23.9419 H   0  0  0  0  0  0  0  0  0  0  0  0
   12.4414    2.2505   21.3593 H   0  0  0  0  0  0  0  0  0  0  0  0
    8.5274   -1.0858   18.3384 H   0  0  0  0  0  0  0  0  0  0  0  0
   12.3738    4.8240   21.8953 H   0  0  0  0  0  0  0  0  0  0  0  0
    9.9357    2.4743   24.9213 H   0  0  0  0  0  0  0  0  0  0  0  0
    8.7043   -3.9576   27.6640 H   0  0  0  0  0  0  0  0  0  0  0  0
    9.4508   -5.5642   27.8158 H   0  0  0  0  0  0  0  0  0  0  0  0
   10.0157   -6.8385   25.6807 H   0  0  0  0  0  0  0  0  0  0  0  0
    9.6157   -6.0831   24.1225 H   0  0  0  0  0  0  0  0  0  0  0  0
    7.0304   -5.7389   28.2230 H   0  0  0  0  0  0  0  0  0  0  0  0
    6.6546   -4.9733   26.6758 H   0  0  0  0  0  0  0  0  0  0  0  0
    7.1886   -6.2213   24.6315 H   0  0  0  0  0  0  0  0  0  0  0  0
    7.9303   -7.8141   24.8176 H   0  0  0  0  0  0  0  0  0  0  0  0
   11.5363    0.0386   22.2539 H   0  0  0  0  0  0  0  0  0  0  0  0
   11.4704    0.0336   23.9998 H   0  0  0  0  0  0  0  0  0  0  0  0
    8.9182    0.7194   23.6789 H   0  0  0  0  0  0  0  0  0  0  0  0
    7.0325    0.4238   17.0175 H   0  0  0  0  0  0  0  0  0  0  0  0
    8.1175   -1.8104   21.3538 H   0  0  0  0  0  0  0  0  0  0  0  0
  1  2  1  0  0  0  0
  1  3  2  0  0  0  0
  2  6  2  0  0  0  0
  3 13  1  0  0  0  0
  4  7  2  0  0  0  0
  4 14  1  0  0  0  0
  5  8  1  0  0  0  0
  5 14  2  0  0  0  0
  6 16  1  0  0  0  0
  7 17  1  0  0  0  0
  8 17  2  0  0  0  0
  9 11  2  0  0  0  0
  9 15  1  0  0  0  0
 10 18  2  0  0  0  0
 10 26  1  0  0  0  0
 11 31  1  0  0  0  0
 12 15  2  0  0  0  0
 12 31  1  0  0  0  0
 13 16  2  0  0  0  0
 13 18  1  0  0  0  0
 14 25  1  0  0  0  0
 15 24  1  0  0  0  0
 16 26  1  0  0  0  0
 17 27  1  0  0  0  0
 18 28  1  0  0  0  0
 19 25  1  6  0  0  0
 19 28  1  0  0  0  0
 19 29  2  0  0  0  0
 20 22  1  0  0  0  0
 20 27  1  0  0  0  0
 21 23  1  0  0  0  0
 21 27  1  0  0  0  0
 22 30  1  0  0  0  0
 23 30  1  0  0  0  0
 24 25  1  0  0  0  0
  1 32  1  0  0  0  0
  2 33  1  0  0  0  0
  3 34  1  0  0  0  0
  4 35  1  0  0  0  0
  5 36  1  0  0  0  0
  6 37  1  0  0  0  0
  7 38  1  0  0  0  0
  8 39  1  0  0  0  0
  9 40  1  0  0  0  0
 10 41  1  0  0  0  0
 11 42  1  0  0  0  0
 12 43  1  0  0  0  0
 20 44  1  0  0  0  0
 20 45  1  0  0  0  0
 21 46  1  0  0  0  0
 21 47  1  0  0  0  0
 22 48  1  0  0  0  0
 22 49  1  0  0  0  0
 23 50  1  0  0  0  0
 23 51  1  0  0  0  0
 24 52  1  0  0  0  0
 24 53  1  0  0  0  0
 25 54  1  0  0  0  0
 26 55  1  0  0  0  0
 28 56  1  0  0  0  0
M  END
> <clash_score>
0

> <docking_score>
-8.656596183776855

> <overlap_score>
0.9360915422439575

$$$$
BENZO_304_1
  -OEChem-08232013503D

 56 60  0     1  0  0  0  0  0999 V2000
    4.2970    1.6690   20.8430 C   0  0  0  0  0  0  0  0  0  0  0  0
    4.0980    2.1130   19.5350 C   0  0  0  0  0  0  0  0  0  0  0  0
    5.3360    0.8000   21.1530 C   0  0  0  0  0  0  0  0  0  0  0  0
    8.3510   -1.5420   24.6110 C   0  0  0  0  0  0  0  0  0  0  0  0
   10.2760   -2.3270   23.4020 C   0  0  0  0  0  0  0  0  0  0  0  0
    4.9400    1.7060   18.5060 C   0  0  0  0  0  0  0  0  0  0  0  0
    8.3310   -2.7170   25.3430 C   0  0  0  0  0  0  0  0  0  0  0  0
   10.2570   -3.5000   24.1350 C   0  0  0  0  0  0  0  0  0  0  0  0
   10.8633    2.6804   23.5273 C   0  0  0  0  0  0  0  0  0  0  0  0
    7.6830   -0.5170   18.7600 C   0  0  0  0  0  0  0  0  0  0  0  0
   11.1655    4.0230   23.4669 C   0  0  0  0  0  0  0  0  0  0  0  0
    8.8035    3.6322   24.0309 C   0  0  0  0  0  0  0  0  0  0  0  0
    6.1600    0.3870   20.1140 C   0  0  0  0  0  0  0  0  0  0  0  0
    9.3300   -1.3350   23.6390 C   0  0  0  0  0  0  0  0  0  0  0  0
    9.4950    2.4539   23.8539 C   0  0  0  0  0  0  0  0  0  0  0  0
    5.9810    0.8330   18.8060 C   0  0  0  0  0  0  0  0  0  0  0  0
    9.2850   -3.7090   25.1090 C   0  0  0  0  0  0  0  0  0  0  0  0
    7.2210   -0.4620   20.0350 C   0  0  0  0  0  0  0  0  0  0  0  0
    8.9510    0.1280   21.6880 C   0  0  0  0  0  0  0  0  0  0  0  0
    8.7672   -4.9539   27.2147 C   0  0  0  0  0  0  0  0  0  0  0  0
    9.3060   -6.1863   25.1644 C   0  0  0  0  0  0  0  0  0  0  0  0
    7.3845   -5.5968   27.1999 C   0  0  0  0  0  0  0  0  0  0  0  0
    7.9062   -6.7991   25.2257 C   0  0  0  0  0  0  0  0  0  0  0  0
    8.8771    1.0813   23.9905 C   0  0  0  0  0  0  0  0  0  0  0  0
    9.4200   -0.0840   22.9530 C   0  0  1  0  0  0  0  0  0  0  0  0
    6.9440    0.2550   18.0100 N   0  0  0  0  0  0  0  0  0  0  0  0
    9.2641   -4.8845   25.8388 N   0  0  0  0  0  0  0  0  0  0  0  0
    8.0810   -0.9750   21.0820 N   0  0  0  0  0  0  0  0  0  0  0  0
    9.1870    1.1500   21.0630 O   0  0  0  0  0  0  0  0  0  0  0  0
    7.4526   -6.8873   26.5811 O   0  0  0  0  0  0  0  0  0  0  0  0
    9.8028    5.0040   23.8033 S   0  0  0  0  0  0  0  0  0  0  0  0
    3.6256    2.0106   21.6303 H   0  0  0  0  0  0  0  0  0  0  0  0
    3.2724    2.7868   19.3204 H   0  0  0  0  0  0  0  0  0  0  0  0
    5.4858    0.4664   22.1692 H   0  0  0  0  0  0  0  0  0  0  0  0
    7.5957   -0.7779   24.7973 H   0  0  0  0  0  0  0  0  0  0  0  0
   11.0384   -2.1852   22.6338 H   0  0  0  0  0  0  0  0  0  0  0  0
    4.7836    2.0664   17.4848 H   0  0  0  0  0  0  0  0  0  0  0  0
    7.5634   -2.8637   26.1037 H   0  0  0  0  0  0  0  0  0  0  0  0
   11.0139   -4.2645   23.9419 H   0  0  0  0  0  0  0  0  0  0  0  0
   11.5925    1.9010   23.3455 H   0  0  0  0  0  0  0  0  0  0  0  0
    8.5274   -1.0858   18.3384 H   0  0  0  0  0  0  0  0  0  0  0  0
   12.1213    4.4748   23.2422 H   0  0  0  0  0  0  0  0  0  0  0  0
    7.7599    3.7576   24.2842 H   0  0  0  0  0  0  0  0  0  0  0  0
    8.7043   -3.9576   27.6640 H   0  0  0  0  0  0  0  0  0  0  0  0
    9.4508   -5.5642   27.8158 H   0  0  0  0  0  0  0  0  0  0  0  0
   10.0157   -6.8385   25.6807 H   0  0  0  0  0  0  0  0  0  0  0  0
    9.6157   -6.0831   24.1225 H   0  0  0  0  0  0  0  0  0  0  0  0
    7.0304   -5.7389   28.2230 H   0  0  0  0  0  0  0  0  0  0  0  0
    6.6546   -4.9733   26.6758 H   0  0  0  0  0  0  0  0  0  0  0  0
    7.1886   -6.2213   24.6315 H   0  0  0  0  0  0  0  0  0  0  0  0
    7.9303   -7.8141   24.8176 H   0  0  0  0  0  0  0  0  0  0  0  0
    8.9708    0.7434   25.0308 H   0  0  0  0  0  0  0  0  0  0  0  0
    7.7972    1.1781   23.8117 H   0  0  0  0  0  0  0  0  0  0  0  0
   10.5743    0.2174   22.9808 H   0  0  0  0  0  0  0  0  0  0  0  0
    7.0325    0.4238   17.0175 H   0  0  0  0  0  0  0  0  0  0  0  0
    8.1175   -1.8104   21.3538 H   0  0  0  0  0  0  0  0  0  0  0  0
  1  2  1  0  0  0  0
  1  3  2  0  0  0  0
  2  6  2  0  0  0  0
  3 13  1  0  0  0  0
  4  7  2  0  0  0  0
  4 14  1  0  0  0  0
  5  8  1  0  0  0  0
  5 14  2  0  0  0  0
  6 16  1  0  0  0  0
  7 17  1  0  0  0  0
  8 17  2  0  0  0  0
  9 11  2  0  0  0  0
  9 15  1  0  0  0  0
 10 18  2  0  0  0  0
 10 26  1  0  0  0  0
 11 31  1  0  0  0  0
 12 15  2  0  0  0  0
 12 31  1  0  0  0  0
 13 16  2  0  0  0  0
 13 18  1  0  0  0  0
 14 25  1  0  0  0  0
 15 24  1  0  0  0  0
 16 26  1  0  0  0  0
 17 27  1  0  0  0  0
 18 28  1  0  0  0  0
 19 25  1  1  0  0  0
 19 28  1  0  0  0  0
 19 29  2  0  0  0  0
 20 22  1  0  0  0  0
 20 27  1  0  0  0  0
 21 23  1  0  0  0  0
 21 27  1  0  0  0  0
 22 30  1  0  0  0  0
 23 30  1  0  0  0  0
 24 25  1  0  0  0  0
  1 32  1  0  0  0  0
  2 33  1  0  0  0  0
  3 34  1  0  0  0  0
  4 35  1  0  0  0  0
  5 36  1  0  0  0  0
  6 37  1  0  0  0  0
  7 38  1  0  0  0  0
  8 39  1  0  0  0  0
  9 40  1  0  0  0  0
 10 41  1  0  0  0  0
 11 42  1  0  0  0  0
 12 43  1  0  0  0  0
 20 44  1  0  0  0  0
 20 45  1  0  0  0  0
 21 46  1  0  0  0  0
 21 47  1  0  0  0  0
 22 48  1  0  0  0  0
 22 49  1  0  0  0  0
 23 50  1  0  0  0  0
 23 51  1  0  0  0  0
 24 52  1  0  0  0  0
 24 53  1  0  0  0  0
 25 54  1  0  0  0  0
 26 55  1  0  0  0  0
 28 56  1  0  0  0  0
M  END
> <clash_score>
0

> <docking_score>
-8.724142074584961

> <overlap_score>
0.8730815052986145

$$$$
BENZO_306_2
  -OEChem-08232013503D

 59 63  0     1  0  0  0  0  0999 V2000
    4.2970    1.6690   20.8430 C   0  0  0  0  0  0  0  0  0  0  0  0
    4.0980    2.1130   19.5350 C   0  0  0  0  0  0  0  0  0  0  0  0
   10.2645    4.1315   23.6906 C   0  0  0  0  0  0  0  0  0  0  0  0
    5.3360    0.8000   21.1530 C   0  0  0  0  0  0  0  0  0  0  0  0
   10.1177    2.7447   23.6595 C   0  0  0  0  0  0  0  0  0  0  0  0
    8.3510   -1.5420   24.6110 C   0  0  0  0  0  0  0  0  0  0  0  0
   10.2760   -2.3270   23.4020 C   0  0  0  0  0  0  0  0  0  0  0  0
    4.9400    1.7060   18.5060 C   0  0  0  0  0  0  0  0  0  0  0  0
    8.3310   -2.7170   25.3430 C   0  0  0  0  0  0  0  0  0  0  0  0
   10.2570   -3.5000   24.1350 C   0  0  0  0  0  0  0  0  0  0  0  0
   11.4307    4.7205   23.2018 C   0  0  0  0  0  0  0  0  0  0  0  0
   12.3032    2.5360   22.6510 C   0  0  0  0  0  0  0  0  0  0  0  0
    7.6830   -0.5170   18.7600 C   0  0  0  0  0  0  0  0  0  0  0  0
    6.1600    0.3870   20.1140 C   0  0  0  0  0  0  0  0  0  0  0  0
    9.3300   -1.3350   23.6390 C   0  0  0  0  0  0  0  0  0  0  0  0
   11.1370    1.9470   23.1397 C   0  0  0  0  0  0  0  0  0  0  0  0
    5.9810    0.8330   18.8060 C   0  0  0  0  0  0  0  0  0  0  0  0
    9.2850   -3.7090   25.1090 C   0  0  0  0  0  0  0  0  0  0  0  0
    7.2210   -0.4620   20.0350 C   0  0  0  0  0  0  0  0  0  0  0  0
   12.4500    3.9227   22.6820 C   0  0  0  0  0  0  0  0  0  0  0  0
    8.9510    0.1280   21.6880 C   0  0  0  0  0  0  0  0  0  0  0  0
    8.7672   -4.9539   27.2147 C   0  0  0  0  0  0  0  0  0  0  0  0
    9.3060   -6.1863   25.1644 C   0  0  0  0  0  0  0  0  0  0  0  0
    7.3845   -5.5968   27.1999 C   0  0  0  0  0  0  0  0  0  0  0  0
    7.9062   -6.7991   25.2257 C   0  0  0  0  0  0  0  0  0  0  0  0
   10.9777    0.4443   23.1075 C   0  0  0  0  0  0  0  0  0  0  0  0
    9.4200   -0.0840   22.9530 C   0  0  2  0  0  0  0  0  0  0  0  0
    6.9440    0.2550   18.0100 N   0  0  0  0  0  0  0  0  0  0  0  0
    9.2641   -4.8845   25.8388 N   0  0  0  0  0  0  0  0  0  0  0  0
    8.0810   -0.9750   21.0820 N   0  0  0  0  0  0  0  0  0  0  0  0
    9.1870    1.1500   21.0630 O   0  0  0  0  0  0  0  0  0  0  0  0
    7.4526   -6.8873   26.5811 O   0  0  0  0  0  0  0  0  0  0  0  0
   13.8890    4.6500   22.0802 Cl  0  0  0  0  0  0  0  0  0  0  0  0
    3.6256    2.0106   21.6303 H   0  0  0  0  0  0  0  0  0  0  0  0
    3.2724    2.7868   19.3204 H   0  0  0  0  0  0  0  0  0  0  0  0
    9.4706    4.7523   24.0955 H   0  0  0  0  0  0  0  0  0  0  0  0
    5.4858    0.4664   22.1692 H   0  0  0  0  0  0  0  0  0  0  0  0
    9.2057    2.2944   24.0426 H   0  0  0  0  0  0  0  0  0  0  0  0
    7.5957   -0.7779   24.7973 H   0  0  0  0  0  0  0  0  0  0  0  0
   11.0384   -2.1852   22.6338 H   0  0  0  0  0  0  0  0  0  0  0  0
    4.7836    2.0664   17.4848 H   0  0  0  0  0  0  0  0  0  0  0  0
    7.5634   -2.8637   26.1037 H   0  0  0  0  0  0  0  0  0  0  0  0
   11.0139   -4.2645   23.9419 H   0  0  0  0  0  0  0  0  0  0  0  0
   11.5314    5.8026   23.2326 H   0  0  0  0  0  0  0  0  0  0  0  0
   13.0949    1.9096   22.2463 H   0  0  0  0  0  0  0  0  0  0  0  0
    8.5274   -1.0858   18.3384 H   0  0  0  0  0  0  0  0  0  0  0  0
    8.7043   -3.9576   27.6640 H   0  0  0  0  0  0  0  0  0  0  0  0
    9.4508   -5.5642   27.8158 H   0  0  0  0  0  0  0  0  0  0  0  0
   10.0157   -6.8385   25.6807 H   0  0  0  0  0  0  0  0  0  0  0  0
    9.6157   -6.0831   24.1225 H   0  0  0  0  0  0  0  0  0  0  0  0
    7.0304   -5.7389   28.2230 H   0  0  0  0  0  0  0  0  0  0  0  0
    6.6546   -4.9733   26.6758 H   0  0  0  0  0  0  0  0  0  0  0  0
    7.1886   -6.2213   24.6315 H   0  0  0  0  0  0  0  0  0  0  0  0
    7.9303   -7.8141   24.8176 H   0  0  0  0  0  0  0  0  0  0  0  0
   11.5363    0.0386   22.2539 H   0  0  0  0  0  0  0  0  0  0  0  0
   11.4704    0.0336   23.9998 H   0  0  0  0  0  0  0  0  0  0  0  0
    8.9182    0.7194   23.6789 H   0  0  0  0  0  0  0  0  0  0  0  0
    7.0325    0.4238   17.0175 H   0  0  0  0  0  0  0  0  0  0  0  0
    8.1175   -1.8104   21.3538 H   0  0  0  0  0  0  0  0  0  0  0  0
  1  2  1  0  0  0  0
  1  4  2  0  0  0  0
  2  8  2  0  0  0  0
  3  5  2  0  0  0  0
  3 11  1  0  0  0  0
  4 14  1  0  0  0  0
  5 16  1  0  0  0  0
  6  9  2  0  0  0  0
  6 15  1  0  0  0  0
  7 10  1  0  0  0  0
  7 15  2  0  0  0  0
  8 17  1  0  0  0  0
  9 18  1  0  0  0  0
 10 18  2  0  0  0  0
 11 20  2  0  0  0  0
 12 16  2  0  0  0  0
 12 20  1  0  0  0  0
 13 19  2  0  0  0  0
 13 28  1  0  0  0  0
 14 17  2  0  0  0  0
 14 19  1  0  0  0  0
 15 27  1  0  0  0  0
 16 26  1  0  0  0  0
 17 28  1  0  0  0  0
 18 29  1  0  0  0  0
 19 30  1  0  0  0  0
 20 33  1  0  0  0  0
 21 27  1  6  0  0  0
 21 30  1  0  0  0  0
 21 31  2  0  0  0  0
 22 24  1  0  0  0  0
 22 29  1  0  0  0  0
 23 25  1  0  0  0  0
 23 29  1  0  0  0  0
 24 32  1  0  0  0  0
 25 32  1  0  0  0  0
 26 27  1  0  0  0  0
  1 34  1  0  0  0  0
  2 35  1  0  0  0  0
  3 36  1  0  0  0  0
  4 37  1  0  0  0  0
  5 38  1  0  0  0  0
  6 39  1  0  0  0  0
  7 40  1  0  0  0  0
  8 41  1  0  0  0  0
  9 42  1  0  0  0  0
 10 43  1  0  0  0  0
 11 44  1  0  0  0  0
 12 45  1  0  0  0  0
 13 46  1  0  0  0  0
 22 47  1  0  0  0  0
 22 48  1  0  0  0  0
 23 49  1  0  0  0  0
 23 50  1  0  0  0  0
 24 51  1  0  0  0  0
 24 52  1  0  0  0  0
 25 53  1  0  0  0  0
 25 54  1  0  0  0  0
 26 55  1  0  0  0  0
 26 56  1  0  0  0  0
 27 57  1  0  0  0  0
 28 58  1  0  0  0  0
 30 59  1  0  0  0  0
M  END
> <clash_score>
0

> <docking_score>
-10.543203353881836

> <overlap_score>
0.9475387334823608

$$$$
BENZO_306_1
  -OEChem-08232013503D

 59 63  0     1  0  0  0  0  0999 V2000
    4.2970    1.6690   20.8430 C   0  0  0  0  0  0  0  0  0  0  0  0
    4.0980    2.1130   19.5350 C   0  0  0  0  0  0  0  0  0  0  0  0
    9.3211    4.8553   24.0536 C   0  0  0  0  0  0  0  0  0  0  0  0
    5.3360    0.8000   21.1530 C   0  0  0  0  0  0  0  0  0  0  0  0
    8.7511    3.5884   24.1784 C   0  0  0  0  0  0  0  0  0  0  0  0
    8.3510   -1.5420   24.6110 C   0  0  0  0  0  0  0  0  0  0  0  0
   10.2760   -2.3270   23.4020 C   0  0  0  0  0  0  0  0  0  0  0  0
    4.9400    1.7060   18.5060 C   0  0  0  0  0  0  0  0  0  0  0  0
    8.3310   -2.7170   25.3430 C   0  0  0  0  0  0  0  0  0  0  0  0
   10.2570   -3.5000   24.1350 C   0  0  0  0  0  0  0  0  0  0  0  0
   10.6349    4.9878   23.6042 C   0  0  0  0  0  0  0  0  0  0  0  0
   10.8089    2.5864   23.4046 C   0  0  0  0  0  0  0  0  0  0  0  0
    7.6830   -0.5170   18.7600 C   0  0  0  0  0  0  0  0  0  0  0  0
    6.1600    0.3870   20.1140 C   0  0  0  0  0  0  0  0  0  0  0  0
    9.3300   -1.3350   23.6390 C   0  0  0  0  0  0  0  0  0  0  0  0
    9.4950    2.4539   23.8539 C   0  0  0  0  0  0  0  0  0  0  0  0
    5.9810    0.8330   18.8060 C   0  0  0  0  0  0  0  0  0  0  0  0
    9.2850   -3.7090   25.1090 C   0  0  0  0  0  0  0  0  0  0  0  0
    7.2210   -0.4620   20.0350 C   0  0  0  0  0  0  0  0  0  0  0  0
   11.3788    3.8534   23.2798 C   0  0  0  0  0  0  0  0  0  0  0  0
    8.9510    0.1280   21.6880 C   0  0  0  0  0  0  0  0  0  0  0  0
    8.7672   -4.9539   27.2147 C   0  0  0  0  0  0  0  0  0  0  0  0
    9.3060   -6.1863   25.1644 C   0  0  0  0  0  0  0  0  0  0  0  0
    7.3845   -5.5968   27.1999 C   0  0  0  0  0  0  0  0  0  0  0  0
    7.9062   -6.7991   25.2257 C   0  0  0  0  0  0  0  0  0  0  0  0
    8.8771    1.0813   23.9905 C   0  0  0  0  0  0  0  0  0  0  0  0
    9.4200   -0.0840   22.9530 C   0  0  1  0  0  0  0  0  0  0  0  0
    6.9440    0.2550   18.0100 N   0  0  0  0  0  0  0  0  0  0  0  0
    9.2641   -4.8845   25.8388 N   0  0  0  0  0  0  0  0  0  0  0  0
    8.0810   -0.9750   21.0820 N   0  0  0  0  0  0  0  0  0  0  0  0
    9.1870    1.1500   21.0630 O   0  0  0  0  0  0  0  0  0  0  0  0
    7.4526   -6.8873   26.5811 O   0  0  0  0  0  0  0  0  0  0  0  0
   13.0002    4.0175   22.7265 Cl  0  0  0  0  0  0  0  0  0  0  0  0
    3.6256    2.0106   21.6303 H   0  0  0  0  0  0  0  0  0  0  0  0
    3.2724    2.7868   19.3204 H   0  0  0  0  0  0  0  0  0  0  0  0
    8.7415    5.7384   24.3065 H   0  0  0  0  0  0  0  0  0  0  0  0
    5.4858    0.4664   22.1692 H   0  0  0  0  0  0  0  0  0  0  0  0
    7.7267    3.4945   24.5294 H   0  0  0  0  0  0  0  0  0  0  0  0
    7.5957   -0.7779   24.7973 H   0  0  0  0  0  0  0  0  0  0  0  0
   11.0384   -2.1852   22.6338 H   0  0  0  0  0  0  0  0  0  0  0  0
    4.7836    2.0664   17.4848 H   0  0  0  0  0  0  0  0  0  0  0  0
    7.5634   -2.8637   26.1037 H   0  0  0  0  0  0  0  0  0  0  0  0
   11.0139   -4.2645   23.9419 H   0  0  0  0  0  0  0  0  0  0  0  0
   11.0663    5.9816   23.5122 H   0  0  0  0  0  0  0  0  0  0  0  0
   11.3846    1.6989   23.1523 H   0  0  0  0  0  0  0  0  0  0  0  0
    8.5274   -1.0858   18.3384 H   0  0  0  0  0  0  0  0  0  0  0  0
    8.7043   -3.9576   27.6640 H   0  0  0  0  0  0  0  0  0  0  0  0
    9.4508   -5.5642   27.8158 H   0  0  0  0  0  0  0  0  0  0  0  0
   10.0157   -6.8385   25.6807 H   0  0  0  0  0  0  0  0  0  0  0  0
    9.6157   -6.0831   24.1225 H   0  0  0  0  0  0  0  0  0  0  0  0
    7.0304   -5.7389   28.2230 H   0  0  0  0  0  0  0  0  0  0  0  0
    6.6546   -4.9733   26.6758 H   0  0  0  0  0  0  0  0  0  0  0  0
    7.1886   -6.2213   24.6315 H   0  0  0  0  0  0  0  0  0  0  0  0
    7.9303   -7.8141   24.8176 H   0  0  0  0  0  0  0  0  0  0  0  0
    8.9708    0.7434   25.0308 H   0  0  0  0  0  0  0  0  0  0  0  0
    7.7972    1.1781   23.8117 H   0  0  0  0  0  0  0  0  0  0  0  0
   10.5743    0.2174   22.9808 H   0  0  0  0  0  0  0  0  0  0  0  0
    7.0325    0.4238   17.0175 H   0  0  0  0  0  0  0  0  0  0  0  0
    8.1175   -1.8104   21.3538 H   0  0  0  0  0  0  0  0  0  0  0  0
  1  2  1  0  0  0  0
  1  4  2  0  0  0  0
  2  8  2  0  0  0  0
  3  5  2  0  0  0  0
  3 11  1  0  0  0  0
  4 14  1  0  0  0  0
  5 16  1  0  0  0  0
  6  9  2  0  0  0  0
  6 15  1  0  0  0  0
  7 10  1  0  0  0  0
  7 15  2  0  0  0  0
  8 17  1  0  0  0  0
  9 18  1  0  0  0  0
 10 18  2  0  0  0  0
 11 20  2  0  0  0  0
 12 16  2  0  0  0  0
 12 20  1  0  0  0  0
 13 19  2  0  0  0  0
 13 28  1  0  0  0  0
 14 17  2  0  0  0  0
 14 19  1  0  0  0  0
 15 27  1  0  0  0  0
 16 26  1  0  0  0  0
 17 28  1  0  0  0  0
 18 29  1  0  0  0  0
 19 30  1  0  0  0  0
 20 33  1  0  0  0  0
 21 27  1  1  0  0  0
 21 30  1  0  0  0  0
 21 31  2  0  0  0  0
 22 24  1  0  0  0  0
 22 29  1  0  0  0  0
 23 25  1  0  0  0  0
 23 29  1  0  0  0  0
 24 32  1  0  0  0  0
 25 32  1  0  0  0  0
 26 27  1  0  0  0  0
  1 34  1  0  0  0  0
  2 35  1  0  0  0  0
  3 36  1  0  0  0  0
  4 37  1  0  0  0  0
  5 38  1  0  0  0  0
  6 39  1  0  0  0  0
  7 40  1  0  0  0  0
  8 41  1  0  0  0  0
  9 42  1  0  0  0  0
 10 43  1  0  0  0  0
 11 44  1  0  0  0  0
 12 45  1  0  0  0  0
 13 46  1  0  0  0  0
 22 47  1  0  0  0  0
 22 48  1  0  0  0  0
 23 49  1  0  0  0  0
 23 50  1  0  0  0  0
 24 51  1  0  0  0  0
 24 52  1  0  0  0  0
 25 53  1  0  0  0  0
 25 54  1  0  0  0  0
 26 55  1  0  0  0  0
 26 56  1  0  0  0  0
 27 57  1  0  0  0  0
 28 58  1  0  0  0  0
 30 59  1  0  0  0  0
M  END
> <clash_score>
0

> <docking_score>
-9.535329818725586

> <overlap_score>
0.8834657073020935

$$$$
BENZO_308_1
  -OEChem-08232013503D

 49 52  0     1  0  0  0  0  0999 V2000
    8.3510   -1.5420   24.6110 C   0  0  0  0  0  0  0  0  0  0  0  0
   10.2760   -2.3270   23.4020 C   0  0  0  0  0  0  0  0  0  0  0  0
    8.3310   -2.7170   25.3430 C   0  0  0  0  0  0  0  0  0  0  0  0
   10.2570   -3.5000   24.1350 C   0  0  0  0  0  0  0  0  0  0  0  0
   11.9019    2.6854   22.1912 C   0  0  0  0  0  0  0  0  0  0  0  0
   11.8820    4.0381   22.4508 C   0  0  0  0  0  0  0  0  0  0  0  0
   10.5617    2.7635   24.0885 C   0  0  0  0  0  0  0  0  0  0  0  0
    9.3300   -1.3350   23.6390 C   0  0  0  0  0  0  0  0  0  0  0  0
   11.1370    1.9470   23.1397 C   0  0  0  0  0  0  0  0  0  0  0  0
    9.2850   -3.7090   25.1090 C   0  0  0  0  0  0  0  0  0  0  0  0
    5.9810    0.8330   18.8060 C   0  0  0  0  0  0  0  0  0  0  0  0
    7.2210   -0.4620   20.0350 C   0  0  0  0  0  0  0  0  0  0  0  0
    4.9400    1.7060   18.5060 C   0  0  0  0  0  0  0  0  0  0  0  0
    4.0980    2.1130   19.5350 C   0  0  0  0  0  0  0  0  0  0  0  0
    4.2970    1.6690   20.8430 C   0  0  0  0  0  0  0  0  0  0  0  0
    5.3360    0.8000   21.1530 C   0  0  0  0  0  0  0  0  0  0  0  0
    8.9510    0.1280   21.6880 C   0  0  0  0  0  0  0  0  0  0  0  0
    8.2526   -5.1189   26.8655 C   0  0  0  0  0  0  0  0  0  0  0  0
   10.2443   -5.9398   25.5977 C   0  0  0  0  0  0  0  0  0  0  0  0
   10.9777    0.4443   23.1075 C   0  0  0  0  0  0  0  0  0  0  0  0
    9.4200   -0.0840   22.9530 C   0  0  1  0  0  0  0  0  0  0  0  0
    6.9440    0.2550   18.0100 N   0  0  0  0  0  0  0  0  0  0  0  0
    7.6830   -0.5170   18.7600 N   0  0  0  0  0  0  0  0  0  0  0  0
    6.1600    0.3870   20.1140 N   0  0  0  0  0  0  0  0  0  0  0  0
    8.0810   -0.9750   21.0820 N   0  0  0  0  0  0  0  0  0  0  0  0
    9.2638   -4.9025   25.8500 N   0  0  0  0  0  0  0  0  0  0  0  0
    9.1870    1.1500   21.0630 O   0  0  0  0  0  0  0  0  0  0  0  0
   10.9440    4.4131   23.8336 S   0  0  0  0  0  0  0  0  0  0  0  0
    7.5957   -0.7779   24.7973 H   0  0  0  0  0  0  0  0  0  0  0  0
   11.0384   -2.1852   22.6338 H   0  0  0  0  0  0  0  0  0  0  0  0
    7.5634   -2.8637   26.1037 H   0  0  0  0  0  0  0  0  0  0  0  0
   11.0139   -4.2645   23.9419 H   0  0  0  0  0  0  0  0  0  0  0  0
   12.4414    2.2505   21.3593 H   0  0  0  0  0  0  0  0  0  0  0  0
   12.3738    4.8240   21.8953 H   0  0  0  0  0  0  0  0  0  0  0  0
    9.9357    2.4743   24.9213 H   0  0  0  0  0  0  0  0  0  0  0  0
    4.7733    2.0700   17.5071 H   0  0  0  0  0  0  0  0  0  0  0  0
    3.2813    2.7836   19.2995 H   0  0  0  0  0  0  0  0  0  0  0  0
    3.6335    1.9977   21.6542 H   0  0  0  0  0  0  0  0  0  0  0  0
    5.5067    0.4537   22.1474 H   0  0  0  0  0  0  0  0  0  0  0  0
    8.4030   -6.1050   27.3292 H   0  0  0  0  0  0  0  0  0  0  0  0
    8.3320   -4.3364   27.6345 H   0  0  0  0  0  0  0  0  0  0  0  0
    7.2550   -5.0794   26.4037 H   0  0  0  0  0  0  0  0  0  0  0  0
   10.0625   -6.7890   26.2728 H   0  0  0  0  0  0  0  0  0  0  0  0
   10.1609   -6.2770   24.5540 H   0  0  0  0  0  0  0  0  0  0  0  0
   11.2540   -5.5406   25.7744 H   0  0  0  0  0  0  0  0  0  0  0  0
   11.5363    0.0386   22.2539 H   0  0  0  0  0  0  0  0  0  0  0  0
   11.4704    0.0336   23.9998 H   0  0  0  0  0  0  0  0  0  0  0  0
    8.9182    0.7194   23.6789 H   0  0  0  0  0  0  0  0  0  0  0  0
    8.1152   -1.8120   21.3518 H   0  0  0  0  0  0  0  0  0  0  0  0
  1  3  2  0  0  0  0
  1  8  1  0  0  0  0
  2  4  1  0  0  0  0
  2  8  2  0  0  0  0
  3 10  1  0  0  0  0
  4 10  2  0  0  0  0
  5  6  2  0  0  0  0
  5  9  1  0  0  0  0
  6 28  1  0  0  0  0
  7  9  2  0  0  0  0
  7 28  1  0  0  0  0
  8 21  1  0  0  0  0
  9 20  1  0  0  0  0
 10 26  1  0  0  0  0
 11 13  1  0  0  0  0
 11 22  2  0  0  0  0
 11 24  1  0  0  0  0
 12 23  2  0  0  0  0
 12 24  1  0  0  0  0
 12 25  1  0  0  0  0
 13 14  2  0  0  0  0
 14 15  1  0  0  0  0
 15 16  2  0  0  0  0
 16 24  1  0  0  0  0
 17 21  1  0  0  0  0
 17 25  1  0  0  0  0
 17 27  2  0  0  0  0
 18 26  1  0  0  0  0
 19 26  1  0  0  0  0
 20 21  1  1  0  0  0
 22 23  1  0  0  0  0
  1 29  1  0  0  0  0
  2 30  1  0  0  0  0
  3 31  1  0  0  0  0
  4 32  1  0  0  0  0
  5 33  1  0  0  0  0
  6 34  1  0  0  0  0
  7 35  1  0  0  0  0
 13 36  1  0  0  0  0
 14 37  1  0  0  0  0
 15 38  1  0  0  0  0
 16 39  1  0  0  0  0
 18 40  1  0  0  0  0
 18 41  1  0  0  0  0
 18 42  1  0  0  0  0
 19 43  1  0  0  0  0
 19 44  1  0  0  0  0
 19 45  1  0  0  0  0
 20 46  1  0  0  0  0
 20 47  1  0  0  0  0
 21 48  1  0  0  0  0
 25 49  1  0  0  0  0
M  END
> <clash_score>
0

> <docking_score>
-10.476798057556152

> <overlap_score>
0.92215895652771

$$$$
BENZO_309_1
  -OEChem-08232013503D

 52 55  0     1  0  0  0  0  0999 V2000
   11.4296    4.7207   23.1993 C   0  0  0  0  0  0  0  0  0  0  0  0
   12.4494    3.9228   22.6806 C   0  0  0  0  0  0  0  0  0  0  0  0
   10.2636    4.1317   23.6883 C   0  0  0  0  0  0  0  0  0  0  0  0
   12.3031    2.5360   22.6508 C   0  0  0  0  0  0  0  0  0  0  0  0
   10.1173    2.7449   23.6585 C   0  0  0  0  0  0  0  0  0  0  0  0
    8.3510   -1.5420   24.6110 C   0  0  0  0  0  0  0  0  0  0  0  0
   10.2760   -2.3270   23.4020 C   0  0  0  0  0  0  0  0  0  0  0  0
    8.3310   -2.7170   25.3430 C   0  0  0  0  0  0  0  0  0  0  0  0
   10.2570   -3.5000   24.1350 C   0  0  0  0  0  0  0  0  0  0  0  0
   11.1370    1.9470   23.1397 C   0  0  0  0  0  0  0  0  0  0  0  0
    9.3300   -1.3350   23.6390 C   0  0  0  0  0  0  0  0  0  0  0  0
    9.2850   -3.7090   25.1090 C   0  0  0  0  0  0  0  0  0  0  0  0
    5.9810    0.8330   18.8060 C   0  0  0  0  0  0  0  0  0  0  0  0
    7.2210   -0.4620   20.0350 C   0  0  0  0  0  0  0  0  0  0  0  0
    4.9400    1.7060   18.5060 C   0  0  0  0  0  0  0  0  0  0  0  0
    4.0980    2.1130   19.5350 C   0  0  0  0  0  0  0  0  0  0  0  0
    4.2970    1.6690   20.8430 C   0  0  0  0  0  0  0  0  0  0  0  0
    5.3360    0.8000   21.1530 C   0  0  0  0  0  0  0  0  0  0  0  0
    8.9510    0.1280   21.6880 C   0  0  0  0  0  0  0  0  0  0  0  0
    8.2526   -5.1189   26.8655 C   0  0  0  0  0  0  0  0  0  0  0  0
   10.2443   -5.9398   25.5977 C   0  0  0  0  0  0  0  0  0  0  0  0
   10.9777    0.4443   23.1075 C   0  0  0  0  0  0  0  0  0  0  0  0
    9.4200   -0.0840   22.9530 C   0  0  1  0  0  0  0  0  0  0  0  0
    6.9440    0.2550   18.0100 N   0  0  0  0  0  0  0  0  0  0  0  0
    7.6830   -0.5170   18.7600 N   0  0  0  0  0  0  0  0  0  0  0  0
    6.1600    0.3870   20.1140 N   0  0  0  0  0  0  0  0  0  0  0  0
    8.0810   -0.9750   21.0820 N   0  0  0  0  0  0  0  0  0  0  0  0
    9.2638   -4.9025   25.8500 N   0  0  0  0  0  0  0  0  0  0  0  0
    9.1870    1.1500   21.0630 O   0  0  0  0  0  0  0  0  0  0  0  0
   11.5443    5.8005   23.2237 H   0  0  0  0  0  0  0  0  0  0  0  0
   13.3579    4.3812   22.3008 H   0  0  0  0  0  0  0  0  0  0  0  0
    9.4699    4.7525   24.0932 H   0  0  0  0  0  0  0  0  0  0  0  0
   13.1028    1.9222   22.2446 H   0  0  0  0  0  0  0  0  0  0  0  0
    9.2052    2.2948   24.0415 H   0  0  0  0  0  0  0  0  0  0  0  0
    7.5957   -0.7779   24.7973 H   0  0  0  0  0  0  0  0  0  0  0  0
   11.0384   -2.1852   22.6338 H   0  0  0  0  0  0  0  0  0  0  0  0
    7.5634   -2.8637   26.1037 H   0  0  0  0  0  0  0  0  0  0  0  0
   11.0139   -4.2645   23.9419 H   0  0  0  0  0  0  0  0  0  0  0  0
    4.7733    2.0700   17.5071 H   0  0  0  0  0  0  0  0  0  0  0  0
    3.2813    2.7836   19.2995 H   0  0  0  0  0  0  0  0  0  0  0  0
    3.6335    1.9977   21.6542 H   0  0  0  0  0  0  0  0  0  0  0  0
    5.5067    0.4537   22.1474 H   0  0  0  0  0  0  0  0  0  0  0  0
    8.4030   -6.1050   27.3292 H   0  0  0  0  0  0  0  0  0  0  0  0
    8.3320   -4.3364   27.6345 H   0  0  0  0  0  0  0  0  0  0  0  0
    7.2550   -5.0794   26.4037 H   0  0  0  0  0  0  0  0  0  0  0  0
   10.0625   -6.7890   26.2728 H   0  0  0  0  0  0  0  0  0  0  0  0
   10.1609   -6.2770   24.5540 H   0  0  0  0  0  0  0  0  0  0  0  0
   11.2540   -5.5406   25.7744 H   0  0  0  0  0  0  0  0  0  0  0  0
   11.5363    0.0387   22.2539 H   0  0  0  0  0  0  0  0  0  0  0  0
   11.4704    0.0336   23.9998 H   0  0  0  0  0  0  0  0  0  0  0  0
    8.9182    0.7194   23.6789 H   0  0  0  0  0  0  0  0  0  0  0  0
    8.1152   -1.8120   21.3518 H   0  0  0  0  0  0  0  0  0  0  0  0
  1  2  1  0  0  0  0
  1  3  2  0  0  0  0
  2  4  2  0  0  0  0
  3  5  1  0  0  0  0
  4 10  1  0  0  0  0
  5 10  2  0  0  0  0
  6  8  2  0  0  0  0
  6 11  1  0  0  0  0
  7  9  1  0  0  0  0
  7 11  2  0  0  0  0
  8 12  1  0  0  0  0
  9 12  2  0  0  0  0
 10 22  1  0  0  0  0
 11 23  1  0  0  0  0
 12 28  1  0  0  0  0
 13 15  1  0  0  0  0
 13 24  2  0  0  0  0
 13 26  1  0  0  0  0
 14 25  2  0  0  0  0
 14 26  1  0  0  0  0
 14 27  1  0  0  0  0
 15 16  2  0  0  0  0
 16 17  1  0  0  0  0
 17 18  2  0  0  0  0
 18 26  1  0  0  0  0
 19 23  1  0  0  0  0
 19 27  1  0  0  0  0
 19 29  2  0  0  0  0
 20 28  1  0  0  0  0
 21 28  1  0  0  0  0
 22 23  1  1  0  0  0
 24 25  1  0  0  0  0
  1 30  1  0  0  0  0
  2 31  1  0  0  0  0
  3 32  1  0  0  0  0
  4 33  1  0  0  0  0
  5 34  1  0  0  0  0
  6 35  1  0  0  0  0
  7 36  1  0  0  0  0
  8 37  1  0  0  0  0
  9 38  1  0  0  0  0
 15 39  1  0  0  0  0
 16 40  1  0  0  0  0
 17 41  1  0  0  0  0
 18 42  1  0  0  0  0
 20 43  1  0  0  0  0
 20 44  1  0  0  0  0
 20 45  1  0  0  0  0
 21 46  1  0  0  0  0
 21 47  1  0  0  0  0
 21 48  1  0  0  0  0
 22 49  1  0  0  0  0
 22 50  1  0  0  0  0
 23 51  1  0  0  0  0
 27 52  1  0  0  0  0
M  END
> <clash_score>
0

> <docking_score>
-11.935619354248047

> <overlap_score>
0.9330858588218689

$$$$
BENZO_309_2
  -OEChem-08232013503D

 52 55  0     1  0  0  0  0  0999 V2000
   10.6367    4.9868   23.6018 C   0  0  0  0  0  0  0  0  0  0  0  0
    9.3228    4.8557   24.0511 C   0  0  0  0  0  0  0  0  0  0  0  0
   11.3798    3.8515   23.2784 C   0  0  0  0  0  0  0  0  0  0  0  0
    8.7519    3.5893   24.1772 C   0  0  0  0  0  0  0  0  0  0  0  0
   10.8090    2.5851   23.4045 C   0  0  0  0  0  0  0  0  0  0  0  0
    8.3510   -1.5420   24.6110 C   0  0  0  0  0  0  0  0  0  0  0  0
   10.2760   -2.3270   23.4020 C   0  0  0  0  0  0  0  0  0  0  0  0
    8.3310   -2.7170   25.3430 C   0  0  0  0  0  0  0  0  0  0  0  0
   10.2570   -3.5000   24.1350 C   0  0  0  0  0  0  0  0  0  0  0  0
    9.4950    2.4539   23.8539 C   0  0  0  0  0  0  0  0  0  0  0  0
    9.3300   -1.3350   23.6390 C   0  0  0  0  0  0  0  0  0  0  0  0
    9.2850   -3.7090   25.1090 C   0  0  0  0  0  0  0  0  0  0  0  0
    5.9810    0.8330   18.8060 C   0  0  0  0  0  0  0  0  0  0  0  0
    7.2210   -0.4620   20.0350 C   0  0  0  0  0  0  0  0  0  0  0  0
    4.9400    1.7060   18.5060 C   0  0  0  0  0  0  0  0  0  0  0  0
    4.0980    2.1130   19.5350 C   0  0  0  0  0  0  0  0  0  0  0  0
    4.2970    1.6690   20.8430 C   0  0  0  0  0  0  0  0  0  0  0  0
    5.3360    0.8000   21.1530 C   0  0  0  0  0  0  0  0  0  0  0  0
    8.9510    0.1280   21.6880 C   0  0  0  0  0  0  0  0  0  0  0  0
    8.2526   -5.1189   26.8655 C   0  0  0  0  0  0  0  0  0  0  0  0
   10.2443   -5.9398   25.5977 C   0  0  0  0  0  0  0  0  0  0  0  0
    8.8771    1.0813   23.9905 C   0  0  0  0  0  0  0  0  0  0  0  0
    9.4200   -0.0840   22.9530 C   0  0  2  0  0  0  0  0  0  0  0  0
    6.9440    0.2550   18.0100 N   0  0  0  0  0  0  0  0  0  0  0  0
    7.6830   -0.5170   18.7600 N   0  0  0  0  0  0  0  0  0  0  0  0
    6.1600    0.3870   20.1140 N   0  0  0  0  0  0  0  0  0  0  0  0
    8.0810   -0.9750   21.0820 N   0  0  0  0  0  0  0  0  0  0  0  0
    9.2638   -4.9025   25.8500 N   0  0  0  0  0  0  0  0  0  0  0  0
    9.1870    1.1500   21.0630 O   0  0  0  0  0  0  0  0  0  0  0  0
   11.0806    5.9731   23.5024 H   0  0  0  0  0  0  0  0  0  0  0  0
    8.7437    5.7397   24.3019 H   0  0  0  0  0  0  0  0  0  0  0  0
   12.4025    3.9533   22.9274 H   0  0  0  0  0  0  0  0  0  0  0  0
    7.7275    3.4967   24.5283 H   0  0  0  0  0  0  0  0  0  0  0  0
   11.3955    1.7061   23.1503 H   0  0  0  0  0  0  0  0  0  0  0  0
    7.5957   -0.7779   24.7973 H   0  0  0  0  0  0  0  0  0  0  0  0
   11.0384   -2.1852   22.6338 H   0  0  0  0  0  0  0  0  0  0  0  0
    7.5634   -2.8637   26.1037 H   0  0  0  0  0  0  0  0  0  0  0  0
   11.0139   -4.2645   23.9419 H   0  0  0  0  0  0  0  0  0  0  0  0
    4.7733    2.0700   17.5071 H   0  0  0  0  0  0  0  0  0  0  0  0
    3.2813    2.7836   19.2995 H   0  0  0  0  0  0  0  0  0  0  0  0
    3.6335    1.9977   21.6542 H   0  0  0  0  0  0  0  0  0  0  0  0
    5.5067    0.4537   22.1474 H   0  0  0  0  0  0  0  0  0  0  0  0
    8.4030   -6.1050   27.3292 H   0  0  0  0  0  0  0  0  0  0  0  0
    8.3320   -4.3364   27.6345 H   0  0  0  0  0  0  0  0  0  0  0  0
    7.2550   -5.0794   26.4037 H   0  0  0  0  0  0  0  0  0  0  0  0
   10.0625   -6.7890   26.2728 H   0  0  0  0  0  0  0  0  0  0  0  0
   10.1609   -6.2770   24.5540 H   0  0  0  0  0  0  0  0  0  0  0  0
   11.2540   -5.5406   25.7744 H   0  0  0  0  0  0  0  0  0  0  0  0
    8.9708    0.7434   25.0308 H   0  0  0  0  0  0  0  0  0  0  0  0
    7.7972    1.1781   23.8117 H   0  0  0  0  0  0  0  0  0  0  0  0
   10.5743    0.2174   22.9808 H   0  0  0  0  0  0  0  0  0  0  0  0
    8.1152   -1.8120   21.3518 H   0  0  0  0  0  0  0  0  0  0  0  0
  1  2  1  0  0  0  0
  1  3  2  0  0  0  0
  2  4  2  0  0  0  0
  3  5  1  0  0  0  0
  4 10  1  0  0  0  0
  5 10  2  0  0  0  0
  6  8  2  0  0  0  0
  6 11  1  0  0  0  0
  7  9  1  0  0  0  0
  7 11  2  0  0  0  0
  8 12  1  0  0  0  0
  9 12  2  0  0  0  0
 10 22  1  0  0  0  0
 11 23  1  0  0  0  0
 12 28  1  0  0  0  0
 13 15  1  0  0  0  0
 13 24  2  0  0  0  0
 13 26  1  0  0  0  0
 14 25  2  0  0  0  0
 14 26  1  0  0  0  0
 14 27  1  0  0  0  0
 15 16  2  0  0  0  0
 16 17  1  0  0  0  0
 17 18  2  0  0  0  0
 18 26  1  0  0  0  0
 19 23  1  0  0  0  0
 19 27  1  0  0  0  0
 19 29  2  0  0  0  0
 20 28  1  0  0  0  0
 21 28  1  0  0  0  0
 22 23  1  6  0  0  0
 24 25  1  0  0  0  0
  1 30  1  0  0  0  0
  2 31  1  0  0  0  0
  3 32  1  0  0  0  0
  4 33  1  0  0  0  0
  5 34  1  0  0  0  0
  6 35  1  0  0  0  0
  7 36  1  0  0  0  0
  8 37  1  0  0  0  0
  9 38  1  0  0  0  0
 15 39  1  0  0  0  0
 16 40  1  0  0  0  0
 17 41  1  0  0  0  0
 18 42  1  0  0  0  0
 20 43  1  0  0  0  0
 20 44  1  0  0  0  0
 20 45  1  0  0  0  0
 21 46  1  0  0  0  0
 21 47  1  0  0  0  0
 21 48  1  0  0  0  0
 22 49  1  0  0  0  0
 22 50  1  0  0  0  0
 23 51  1  0  0  0  0
 27 52  1  0  0  0  0
M  END
> <clash_score>
0

> <docking_score>
-10.820984840393066

> <overlap_score>
0.8615376949310303

$$$$
BENZO_308_2
  -OEChem-08232013503D

 49 52  0     1  0  0  0  0  0999 V2000
    8.3510   -1.5420   24.6110 C   0  0  0  0  0  0  0  0  0  0  0  0
   10.2760   -2.3270   23.4020 C   0  0  0  0  0  0  0  0  0  0  0  0
    8.3310   -2.7170   25.3430 C   0  0  0  0  0  0  0  0  0  0  0  0
   10.2570   -3.5000   24.1350 C   0  0  0  0  0  0  0  0  0  0  0  0
   10.8633    2.6804   23.5273 C   0  0  0  0  0  0  0  0  0  0  0  0
   11.1655    4.0230   23.4669 C   0  0  0  0  0  0  0  0  0  0  0  0
    8.8035    3.6322   24.0309 C   0  0  0  0  0  0  0  0  0  0  0  0
    9.3300   -1.3350   23.6390 C   0  0  0  0  0  0  0  0  0  0  0  0
    9.4950    2.4539   23.8539 C   0  0  0  0  0  0  0  0  0  0  0  0
    9.2850   -3.7090   25.1090 C   0  0  0  0  0  0  0  0  0  0  0  0
    5.9810    0.8330   18.8060 C   0  0  0  0  0  0  0  0  0  0  0  0
    7.2210   -0.4620   20.0350 C   0  0  0  0  0  0  0  0  0  0  0  0
    4.9400    1.7060   18.5060 C   0  0  0  0  0  0  0  0  0  0  0  0
    4.0980    2.1130   19.5350 C   0  0  0  0  0  0  0  0  0  0  0  0
    4.2970    1.6690   20.8430 C   0  0  0  0  0  0  0  0  0  0  0  0
    5.3360    0.8000   21.1530 C   0  0  0  0  0  0  0  0  0  0  0  0
    8.9510    0.1280   21.6880 C   0  0  0  0  0  0  0  0  0  0  0  0
    8.2526   -5.1189   26.8655 C   0  0  0  0  0  0  0  0  0  0  0  0
   10.2443   -5.9398   25.5977 C   0  0  0  0  0  0  0  0  0  0  0  0
    8.8771    1.0813   23.9905 C   0  0  0  0  0  0  0  0  0  0  0  0
    9.4200   -0.0840   22.9530 C   0  0  2  0  0  0  0  0  0  0  0  0
    6.9440    0.2550   18.0100 N   0  0  0  0  0  0  0  0  0  0  0  0
    7.6830   -0.5170   18.7600 N   0  0  0  0  0  0  0  0  0  0  0  0
    6.1600    0.3870   20.1140 N   0  0  0  0  0  0  0  0  0  0  0  0
    8.0810   -0.9750   21.0820 N   0  0  0  0  0  0  0  0  0  0  0  0
    9.2638   -4.9025   25.8500 N   0  0  0  0  0  0  0  0  0  0  0  0
    9.1870    1.1500   21.0630 O   0  0  0  0  0  0  0  0  0  0  0  0
    9.8028    5.0040   23.8033 S   0  0  0  0  0  0  0  0  0  0  0  0
    7.5957   -0.7779   24.7973 H   0  0  0  0  0  0  0  0  0  0  0  0
   11.0384   -2.1852   22.6338 H   0  0  0  0  0  0  0  0  0  0  0  0
    7.5634   -2.8637   26.1037 H   0  0  0  0  0  0  0  0  0  0  0  0
   11.0139   -4.2645   23.9419 H   0  0  0  0  0  0  0  0  0  0  0  0
   11.5925    1.9010   23.3455 H   0  0  0  0  0  0  0  0  0  0  0  0
   12.1213    4.4748   23.2422 H   0  0  0  0  0  0  0  0  0  0  0  0
    7.7599    3.7576   24.2842 H   0  0  0  0  0  0  0  0  0  0  0  0
    4.7733    2.0700   17.5071 H   0  0  0  0  0  0  0  0  0  0  0  0
    3.2813    2.7836   19.2995 H   0  0  0  0  0  0  0  0  0  0  0  0
    3.6335    1.9977   21.6542 H   0  0  0  0  0  0  0  0  0  0  0  0
    5.5067    0.4537   22.1474 H   0  0  0  0  0  0  0  0  0  0  0  0
    8.4030   -6.1050   27.3292 H   0  0  0  0  0  0  0  0  0  0  0  0
    8.3320   -4.3364   27.6345 H   0  0  0  0  0  0  0  0  0  0  0  0
    7.2550   -5.0794   26.4037 H   0  0  0  0  0  0  0  0  0  0  0  0
   10.0625   -6.7890   26.2728 H   0  0  0  0  0  0  0  0  0  0  0  0
   10.1609   -6.2770   24.5540 H   0  0  0  0  0  0  0  0  0  0  0  0
   11.2540   -5.5406   25.7744 H   0  0  0  0  0  0  0  0  0  0  0  0
    8.9708    0.7434   25.0308 H   0  0  0  0  0  0  0  0  0  0  0  0
    7.7972    1.1781   23.8117 H   0  0  0  0  0  0  0  0  0  0  0  0
   10.5743    0.2174   22.9808 H   0  0  0  0  0  0  0  0  0  0  0  0
    8.1152   -1.8120   21.3518 H   0  0  0  0  0  0  0  0  0  0  0  0
  1  3  2  0  0  0  0
  1  8  1  0  0  0  0
  2  4  1  0  0  0  0
  2  8  2  0  0  0  0
  3 10  1  0  0  0  0
  4 10  2  0  0  0  0
  5  6  2  0  0  0  0
  5  9  1  0  0  0  0
  6 28  1  0  0  0  0
  7  9  2  0  0  0  0
  7 28  1  0  0  0  0
  8 21  1  0  0  0  0
  9 20  1  0  0  0  0
 10 26  1  0  0  0  0
 11 13  1  0  0  0  0
 11 22  2  0  0  0  0
 11 24  1  0  0  0  0
 12 23  2  0  0  0  0
 12 24  1  0  0  0  0
 12 25  1  0  0  0  0
 13 14  2  0  0  0  0
 14 15  1  0  0  0  0
 15 16  2  0  0  0  0
 16 24  1  0  0  0  0
 17 21  1  0  0  0  0
 17 25  1  0  0  0  0
 17 27  2  0  0  0  0
 18 26  1  0  0  0  0
 19 26  1  0  0  0  0
 20 21  1  6  0  0  0
 22 23  1  0  0  0  0
  1 29  1  0  0  0  0
  2 30  1  0  0  0  0
  3 31  1  0  0  0  0
  4 32  1  0  0  0  0
  5 33  1  0  0  0  0
  6 34  1  0  0  0  0
  7 35  1  0  0  0  0
 13 36  1  0  0  0  0
 14 37  1  0  0  0  0
 15 38  1  0  0  0  0
 16 39  1  0  0  0  0
 18 40  1  0  0  0  0
 18 41  1  0  0  0  0
 18 42  1  0  0  0  0
 19 43  1  0  0  0  0
 19 44  1  0  0  0  0
 19 45  1  0  0  0  0
 20 46  1  0  0  0  0
 20 47  1  0  0  0  0
 21 48  1  0  0  0  0
 25 49  1  0  0  0  0
M  END
> <clash_score>
0

> <docking_score>
-10.544351577758789

> <overlap_score>
0.85877525806427

$$$$
BENZO_307_1
  -OEChem-08232013503D

 59 63  0     1  0  0  0  0  0999 V2000
    4.2970    1.6690   20.8430 C   0  0  0  0  0  0  0  0  0  0  0  0
    4.0980    2.1130   19.5350 C   0  0  0  0  0  0  0  0  0  0  0  0
    5.3360    0.8000   21.1530 C   0  0  0  0  0  0  0  0  0  0  0  0
    8.3510   -1.5420   24.6110 C   0  0  0  0  0  0  0  0  0  0  0  0
   10.2760   -2.3270   23.4020 C   0  0  0  0  0  0  0  0  0  0  0  0
    4.9400    1.7060   18.5060 C   0  0  0  0  0  0  0  0  0  0  0  0
    8.3310   -2.7170   25.3430 C   0  0  0  0  0  0  0  0  0  0  0  0
   10.2570   -3.5000   24.1350 C   0  0  0  0  0  0  0  0  0  0  0  0
   10.2235    2.9023   23.6242 C   0  0  0  0  0  0  0  0  0  0  0  0
   12.2090    2.6870   22.7043 C   0  0  0  0  0  0  0  0  0  0  0  0
    7.6830   -0.5170   18.7600 C   0  0  0  0  0  0  0  0  0  0  0  0
    6.1600    0.3870   20.1140 C   0  0  0  0  0  0  0  0  0  0  0  0
    9.3300   -1.3350   23.6390 C   0  0  0  0  0  0  0  0  0  0  0  0
   11.1370    1.9470   23.1397 C   0  0  0  0  0  0  0  0  0  0  0  0
    5.9810    0.8330   18.8060 C   0  0  0  0  0  0  0  0  0  0  0  0
    9.2850   -3.7090   25.1090 C   0  0  0  0  0  0  0  0  0  0  0  0
    7.2210   -0.4620   20.0350 C   0  0  0  0  0  0  0  0  0  0  0  0
    8.9510    0.1280   21.6880 C   0  0  0  0  0  0  0  0  0  0  0  0
    8.7672   -4.9539   27.2147 C   0  0  0  0  0  0  0  0  0  0  0  0
    9.3060   -6.1863   25.1644 C   0  0  0  0  0  0  0  0  0  0  0  0
    7.3845   -5.5968   27.1999 C   0  0  0  0  0  0  0  0  0  0  0  0
    7.9062   -6.7991   25.2257 C   0  0  0  0  0  0  0  0  0  0  0  0
   12.7031    5.1430   22.6555 C   0  0  0  0  0  0  0  0  0  0  0  0
   10.9777    0.4443   23.1075 C   0  0  0  0  0  0  0  0  0  0  0  0
    9.4200   -0.0840   22.9530 C   0  0  1  0  0  0  0  0  0  0  0  0
   10.6758    4.1536   23.5079 N   0  0  0  0  0  0  0  0  0  0  0  0
    6.9440    0.2550   18.0100 N   0  0  0  0  0  0  0  0  0  0  0  0
   11.8853    3.9898   22.9453 N   0  0  0  0  0  0  0  0  0  0  0  0
    9.2641   -4.8845   25.8388 N   0  0  0  0  0  0  0  0  0  0  0  0
    8.0810   -0.9750   21.0820 N   0  0  0  0  0  0  0  0  0  0  0  0
    9.1870    1.1500   21.0630 O   0  0  0  0  0  0  0  0  0  0  0  0
    7.4526   -6.8873   26.5811 O   0  0  0  0  0  0  0  0  0  0  0  0
    3.6256    2.0106   21.6303 H   0  0  0  0  0  0  0  0  0  0  0  0
    3.2724    2.7868   19.3204 H   0  0  0  0  0  0  0  0  0  0  0  0
    5.4858    0.4664   22.1692 H   0  0  0  0  0  0  0  0  0  0  0  0
    7.5957   -0.7779   24.7973 H   0  0  0  0  0  0  0  0  0  0  0  0
   11.0384   -2.1852   22.6338 H   0  0  0  0  0  0  0  0  0  0  0  0
    4.7836    2.0664   17.4848 H   0  0  0  0  0  0  0  0  0  0  0  0
    7.5634   -2.8637   26.1037 H   0  0  0  0  0  0  0  0  0  0  0  0
   11.0139   -4.2645   23.9419 H   0  0  0  0  0  0  0  0  0  0  0  0
    9.2470    2.7411   24.0585 H   0  0  0  0  0  0  0  0  0  0  0  0
   13.1519    2.4044   22.2557 H   0  0  0  0  0  0  0  0  0  0  0  0
    8.5274   -1.0858   18.3384 H   0  0  0  0  0  0  0  0  0  0  0  0
    8.7043   -3.9576   27.6640 H   0  0  0  0  0  0  0  0  0  0  0  0
    9.4508   -5.5642   27.8158 H   0  0  0  0  0  0  0  0  0  0  0  0
   10.0157   -6.8385   25.6807 H   0  0  0  0  0  0  0  0  0  0  0  0
    9.6157   -6.0831   24.1225 H   0  0  0  0  0  0  0  0  0  0  0  0
    7.0304   -5.7389   28.2230 H   0  0  0  0  0  0  0  0  0  0  0  0
    6.6546   -4.9733   26.6758 H   0  0  0  0  0  0  0  0  0  0  0  0
    7.1886   -6.2213   24.6315 H   0  0  0  0  0  0  0  0  0  0  0  0
    7.9303   -7.8141   24.8176 H   0  0  0  0  0  0  0  0  0  0  0  0
   12.4640    5.4803   21.6435 H   0  0  0  0  0  0  0  0  0  0  0  0
   12.4902    5.9323   23.3818 H   0  0  0  0  0  0  0  0  0  0  0  0
   13.7583    4.8651   22.7277 H   0  0  0  0  0  0  0  0  0  0  0  0
   11.5363    0.0386   22.2539 H   0  0  0  0  0  0  0  0  0  0  0  0
   11.4704    0.0336   23.9998 H   0  0  0  0  0  0  0  0  0  0  0  0
    8.9182    0.7194   23.6789 H   0  0  0  0  0  0  0  0  0  0  0  0
    7.0325    0.4238   17.0175 H   0  0  0  0  0  0  0  0  0  0  0  0
    8.1175   -1.8104   21.3538 H   0  0  0  0  0  0  0  0  0  0  0  0
  1  2  1  0  0  0  0
  1  3  2  0  0  0  0
  2  6  2  0  0  0  0
  3 12  1  0  0  0  0
  4  7  2  0  0  0  0
  4 13  1  0  0  0  0
  5  8  1  0  0  0  0
  5 13  2  0  0  0  0
  6 15  1  0  0  0  0
  7 16  1  0  0  0  0
  8 16  2  0  0  0  0
  9 14  1  0  0  0  0
  9 26  2  0  0  0  0
 10 14  2  0  0  0  0
 10 28  1  0  0  0  0
 11 17  2  0  0  0  0
 11 27  1  0  0  0  0
 12 15  2  0  0  0  0
 12 17  1  0  0  0  0
 13 25  1  0  0  0  0
 14 24  1  0  0  0  0
 15 27  1  0  0  0  0
 16 29  1  0  0  0  0
 17 30  1  0  0  0  0
 18 25  1  0  0  0  0
 18 30  1  0  0  0  0
 18 31  2  0  0  0  0
 19 21  1  0  0  0  0
 19 29  1  0  0  0  0
 20 22  1  0  0  0  0
 20 29  1  0  0  0  0
 21 32  1  0  0  0  0
 22 32  1  0  0  0  0
 23 28  1  0  0  0  0
 24 25  1  1  0  0  0
 26 28  1  0  0  0  0
  1 33  1  0  0  0  0
  2 34  1  0  0  0  0
  3 35  1  0  0  0  0
  4 36  1  0  0  0  0
  5 37  1  0  0  0  0
  6 38  1  0  0  0  0
  7 39  1  0  0  0  0
  8 40  1  0  0  0  0
  9 41  1  0  0  0  0
 10 42  1  0  0  0  0
 11 43  1  0  0  0  0
 19 44  1  0  0  0  0
 19 45  1  0  0  0  0
 20 46  1  0  0  0  0
 20 47  1  0  0  0  0
 21 48  1  0  0  0  0
 21 49  1  0  0  0  0
 22 50  1  0  0  0  0
 22 51  1  0  0  0  0
 23 52  1  0  0  0  0
 23 53  1  0  0  0  0
 23 54  1  0  0  0  0
 24 55  1  0  0  0  0
 24 56  1  0  0  0  0
 25 57  1  0  0  0  0
 27 58  1  0  0  0  0
 30 59  1  0  0  0  0
M  END
> <clash_score>
0

> <docking_score>
-10.071882247924805

> <overlap_score>
0.9414446949958801

$$$$
BENZO_307_2
  -OEChem-08232013503D

 59 63  0     1  0  0  0  0  0999 V2000
    4.2970    1.6690   20.8430 C   0  0  0  0  0  0  0  0  0  0  0  0
    4.0980    2.1130   19.5350 C   0  0  0  0  0  0  0  0  0  0  0  0
    5.3360    0.8000   21.1530 C   0  0  0  0  0  0  0  0  0  0  0  0
    8.3510   -1.5420   24.6110 C   0  0  0  0  0  0  0  0  0  0  0  0
   10.2760   -2.3270   23.4020 C   0  0  0  0  0  0  0  0  0  0  0  0
    4.9400    1.7060   18.5060 C   0  0  0  0  0  0  0  0  0  0  0  0
    8.3310   -2.7170   25.3430 C   0  0  0  0  0  0  0  0  0  0  0  0
   10.2570   -3.5000   24.1350 C   0  0  0  0  0  0  0  0  0  0  0  0
   10.7939    2.7770   23.4177 C   0  0  0  0  0  0  0  0  0  0  0  0
    8.9123    3.6676   24.1257 C   0  0  0  0  0  0  0  0  0  0  0  0
    7.6830   -0.5170   18.7600 C   0  0  0  0  0  0  0  0  0  0  0  0
    6.1600    0.3870   20.1140 C   0  0  0  0  0  0  0  0  0  0  0  0
    9.3300   -1.3350   23.6390 C   0  0  0  0  0  0  0  0  0  0  0  0
    9.4950    2.4539   23.8539 C   0  0  0  0  0  0  0  0  0  0  0  0
    5.9810    0.8330   18.8060 C   0  0  0  0  0  0  0  0  0  0  0  0
    9.2850   -3.7090   25.1090 C   0  0  0  0  0  0  0  0  0  0  0  0
    7.2210   -0.4620   20.0350 C   0  0  0  0  0  0  0  0  0  0  0  0
    8.9510    0.1280   21.6880 C   0  0  0  0  0  0  0  0  0  0  0  0
    8.7672   -4.9539   27.2147 C   0  0  0  0  0  0  0  0  0  0  0  0
    9.3060   -6.1863   25.1644 C   0  0  0  0  0  0  0  0  0  0  0  0
    7.3845   -5.5968   27.1999 C   0  0  0  0  0  0  0  0  0  0  0  0
    7.9062   -6.7991   25.2257 C   0  0  0  0  0  0  0  0  0  0  0  0
    9.7138    6.0371   23.9775 C   0  0  0  0  0  0  0  0  0  0  0  0
    8.8771    1.0813   23.9905 C   0  0  0  0  0  0  0  0  0  0  0  0
    9.4200   -0.0840   22.9530 C   0  0  2  0  0  0  0  0  0  0  0  0
   11.0232    4.0928   23.4110 N   0  0  0  0  0  0  0  0  0  0  0  0
    6.9440    0.2550   18.0100 N   0  0  0  0  0  0  0  0  0  0  0  0
    9.8605    4.6073   23.8463 N   0  0  0  0  0  0  0  0  0  0  0  0
    9.2641   -4.8845   25.8388 N   0  0  0  0  0  0  0  0  0  0  0  0
    8.0810   -0.9750   21.0820 N   0  0  0  0  0  0  0  0  0  0  0  0
    9.1870    1.1500   21.0630 O   0  0  0  0  0  0  0  0  0  0  0  0
    7.4526   -6.8873   26.5811 O   0  0  0  0  0  0  0  0  0  0  0  0
    3.6256    2.0106   21.6303 H   0  0  0  0  0  0  0  0  0  0  0  0
    3.2724    2.7868   19.3204 H   0  0  0  0  0  0  0  0  0  0  0  0
    5.4858    0.4664   22.1692 H   0  0  0  0  0  0  0  0  0  0  0  0
    7.5957   -0.7779   24.7973 H   0  0  0  0  0  0  0  0  0  0  0  0
   11.0384   -2.1852   22.6338 H   0  0  0  0  0  0  0  0  0  0  0  0
    4.7836    2.0664   17.4848 H   0  0  0  0  0  0  0  0  0  0  0  0
    7.5634   -2.8637   26.1037 H   0  0  0  0  0  0  0  0  0  0  0  0
   11.0139   -4.2645   23.9419 H   0  0  0  0  0  0  0  0  0  0  0  0
   11.5843    2.1103   23.1031 H   0  0  0  0  0  0  0  0  0  0  0  0
    7.9276    3.9360   24.4839 H   0  0  0  0  0  0  0  0  0  0  0  0
    8.5274   -1.0858   18.3384 H   0  0  0  0  0  0  0  0  0  0  0  0
    8.7043   -3.9576   27.6640 H   0  0  0  0  0  0  0  0  0  0  0  0
    9.4508   -5.5642   27.8158 H   0  0  0  0  0  0  0  0  0  0  0  0
   10.0157   -6.8385   25.6807 H   0  0  0  0  0  0  0  0  0  0  0  0
    9.6157   -6.0831   24.1225 H   0  0  0  0  0  0  0  0  0  0  0  0
    7.0304   -5.7389   28.2230 H   0  0  0  0  0  0  0  0  0  0  0  0
    6.6546   -4.9733   26.6758 H   0  0  0  0  0  0  0  0  0  0  0  0
    7.1886   -6.2213   24.6315 H   0  0  0  0  0  0  0  0  0  0  0  0
    7.9303   -7.8141   24.8176 H   0  0  0  0  0  0  0  0  0  0  0  0
   10.0225    6.3165   24.9883 H   0  0  0  0  0  0  0  0  0  0  0  0
   10.3410    6.5371   23.2342 H   0  0  0  0  0  0  0  0  0  0  0  0
    8.6688    6.3103   23.8064 H   0  0  0  0  0  0  0  0  0  0  0  0
    8.9708    0.7434   25.0308 H   0  0  0  0  0  0  0  0  0  0  0  0
    7.7972    1.1781   23.8117 H   0  0  0  0  0  0  0  0  0  0  0  0
   10.5743    0.2174   22.9808 H   0  0  0  0  0  0  0  0  0  0  0  0
    7.0325    0.4238   17.0175 H   0  0  0  0  0  0  0  0  0  0  0  0
    8.1175   -1.8104   21.3538 H   0  0  0  0  0  0  0  0  0  0  0  0
  1  2  1  0  0  0  0
  1  3  2  0  0  0  0
  2  6  2  0  0  0  0
  3 12  1  0  0  0  0
  4  7  2  0  0  0  0
  4 13  1  0  0  0  0
  5  8  1  0  0  0  0
  5 13  2  0  0  0  0
  6 15  1  0  0  0  0
  7 16  1  0  0  0  0
  8 16  2  0  0  0  0
  9 14  1  0  0  0  0
  9 26  2  0  0  0  0
 10 14  2  0  0  0  0
 10 28  1  0  0  0  0
 11 17  2  0  0  0  0
 11 27  1  0  0  0  0
 12 15  2  0  0  0  0
 12 17  1  0  0  0  0
 13 25  1  0  0  0  0
 14 24  1  0  0  0  0
 15 27  1  0  0  0  0
 16 29  1  0  0  0  0
 17 30  1  0  0  0  0
 18 25  1  0  0  0  0
 18 30  1  0  0  0  0
 18 31  2  0  0  0  0
 19 21  1  0  0  0  0
 19 29  1  0  0  0  0
 20 22  1  0  0  0  0
 20 29  1  0  0  0  0
 21 32  1  0  0  0  0
 22 32  1  0  0  0  0
 23 28  1  0  0  0  0
 24 25  1  6  0  0  0
 26 28  1  0  0  0  0
  1 33  1  0  0  0  0
  2 34  1  0  0  0  0
  3 35  1  0  0  0  0
  4 36  1  0  0  0  0
  5 37  1  0  0  0  0
  6 38  1  0  0  0  0
  7 39  1  0  0  0  0
  8 40  1  0  0  0  0
  9 41  1  0  0  0  0
 10 42  1  0  0  0  0
 11 43  1  0  0  0  0
 19 44  1  0  0  0  0
 19 45  1  0  0  0  0
 20 46  1  0  0  0  0
 20 47  1  0  0  0  0
 21 48  1  0  0  0  0
 21 49  1  0  0  0  0
 22 50  1  0  0  0  0
 22 51  1  0  0  0  0
 23 52  1  0  0  0  0
 23 53  1  0  0  0  0
 23 54  1  0  0  0  0
 24 55  1  0  0  0  0
 24 56  1  0  0  0  0
 25 57  1  0  0  0  0
 27 58  1  0  0  0  0
 30 59  1  0  0  0  0
M  END
> <clash_score>
0

> <docking_score>
-8.876188278198242

> <overlap_score>
0.868576169013977

$$$$
BENZO_311_1
  -OEChem-08232013503D

 52 55  0     1  0  0  0  0  0999 V2000
    8.3510   -1.5420   24.6110 C   0  0  0  0  0  0  0  0  0  0  0  0
   10.2760   -2.3270   23.4020 C   0  0  0  0  0  0  0  0  0  0  0  0
    8.3310   -2.7170   25.3430 C   0  0  0  0  0  0  0  0  0  0  0  0
   10.2570   -3.5000   24.1350 C   0  0  0  0  0  0  0  0  0  0  0  0
   10.2235    2.9023   23.6242 C   0  0  0  0  0  0  0  0  0  0  0  0
   12.2091    2.6870   22.7043 C   0  0  0  0  0  0  0  0  0  0  0  0
    9.3300   -1.3350   23.6390 C   0  0  0  0  0  0  0  0  0  0  0  0
   11.1370    1.9470   23.1397 C   0  0  0  0  0  0  0  0  0  0  0  0
    9.2850   -3.7090   25.1090 C   0  0  0  0  0  0  0  0  0  0  0  0
    5.9810    0.8330   18.8060 C   0  0  0  0  0  0  0  0  0  0  0  0
    7.2210   -0.4620   20.0350 C   0  0  0  0  0  0  0  0  0  0  0  0
    4.9400    1.7060   18.5060 C   0  0  0  0  0  0  0  0  0  0  0  0
    4.0980    2.1130   19.5350 C   0  0  0  0  0  0  0  0  0  0  0  0
    4.2970    1.6690   20.8430 C   0  0  0  0  0  0  0  0  0  0  0  0
    5.3360    0.8000   21.1530 C   0  0  0  0  0  0  0  0  0  0  0  0
    8.9510    0.1280   21.6880 C   0  0  0  0  0  0  0  0  0  0  0  0
   12.7031    5.1430   22.6555 C   0  0  0  0  0  0  0  0  0  0  0  0
    8.2526   -5.1189   26.8655 C   0  0  0  0  0  0  0  0  0  0  0  0
   10.2443   -5.9398   25.5977 C   0  0  0  0  0  0  0  0  0  0  0  0
   10.9777    0.4443   23.1075 C   0  0  0  0  0  0  0  0  0  0  0  0
    9.4200   -0.0840   22.9530 C   0  0  1  0  0  0  0  0  0  0  0  0
   10.6758    4.1536   23.5079 N   0  0  0  0  0  0  0  0  0  0  0  0
    6.9440    0.2550   18.0100 N   0  0  0  0  0  0  0  0  0  0  0  0
    7.6830   -0.5170   18.7600 N   0  0  0  0  0  0  0  0  0  0  0  0
   11.8853    3.9898   22.9453 N   0  0  0  0  0  0  0  0  0  0  0  0
    6.1600    0.3870   20.1140 N   0  0  0  0  0  0  0  0  0  0  0  0
    8.0810   -0.9750   21.0820 N   0  0  0  0  0  0  0  0  0  0  0  0
    9.2638   -4.9025   25.8500 N   0  0  0  0  0  0  0  0  0  0  0  0
    9.1870    1.1500   21.0630 O   0  0  0  0  0  0  0  0  0  0  0  0
    7.5957   -0.7779   24.7973 H   0  0  0  0  0  0  0  0  0  0  0  0
   11.0384   -2.1852   22.6338 H   0  0  0  0  0  0  0  0  0  0  0  0
    7.5634   -2.8637   26.1037 H   0  0  0  0  0  0  0  0  0  0  0  0
   11.0139   -4.2645   23.9419 H   0  0  0  0  0  0  0  0  0  0  0  0
    9.2470    2.7411   24.0585 H   0  0  0  0  0  0  0  0  0  0  0  0
   13.1519    2.4044   22.2557 H   0  0  0  0  0  0  0  0  0  0  0  0
    4.7733    2.0700   17.5071 H   0  0  0  0  0  0  0  0  0  0  0  0
    3.2813    2.7836   19.2995 H   0  0  0  0  0  0  0  0  0  0  0  0
    3.6335    1.9977   21.6542 H   0  0  0  0  0  0  0  0  0  0  0  0
    5.5067    0.4537   22.1474 H   0  0  0  0  0  0  0  0  0  0  0  0
   12.4640    5.4803   21.6435 H   0  0  0  0  0  0  0  0  0  0  0  0
   12.4902    5.9323   23.3818 H   0  0  0  0  0  0  0  0  0  0  0  0
   13.7583    4.8651   22.7277 H   0  0  0  0  0  0  0  0  0  0  0  0
    8.4030   -6.1050   27.3292 H   0  0  0  0  0  0  0  0  0  0  0  0
    8.3320   -4.3364   27.6345 H   0  0  0  0  0  0  0  0  0  0  0  0
    7.2550   -5.0794   26.4037 H   0  0  0  0  0  0  0  0  0  0  0  0
   10.0625   -6.7890   26.2728 H   0  0  0  0  0  0  0  0  0  0  0  0
   10.1609   -6.2770   24.5540 H   0  0  0  0  0  0  0  0  0  0  0  0
   11.2540   -5.5406   25.7744 H   0  0  0  0  0  0  0  0  0  0  0  0
   11.5363    0.0387   22.2539 H   0  0  0  0  0  0  0  0  0  0  0  0
   11.4704    0.0336   23.9998 H   0  0  0  0  0  0  0  0  0  0  0  0
    8.9182    0.7194   23.6789 H   0  0  0  0  0  0  0  0  0  0  0  0
    8.1152   -1.8120   21.3518 H   0  0  0  0  0  0  0  0  0  0  0  0
  1  3  2  0  0  0  0
  1  7  1  0  0  0  0
  2  4  1  0  0  0  0
  2  7  2  0  0  0  0
  3  9  1  0  0  0  0
  4  9  2  0  0  0  0
  5  8  1  0  0  0  0
  5 22  2  0  0  0  0
  6  8  2  0  0  0  0
  6 25  1  0  0  0  0
  7 21  1  0  0  0  0
  8 20  1  0  0  0  0
  9 28  1  0  0  0  0
 10 12  1  0  0  0  0
 10 23  2  0  0  0  0
 10 26  1  0  0  0  0
 11 24  2  0  0  0  0
 11 26  1  0  0  0  0
 11 27  1  0  0  0  0
 12 13  2  0  0  0  0
 13 14  1  0  0  0  0
 14 15  2  0  0  0  0
 15 26  1  0  0  0  0
 16 21  1  0  0  0  0
 16 27  1  0  0  0  0
 16 29  2  0  0  0  0
 17 25  1  0  0  0  0
 18 28  1  0  0  0  0
 19 28  1  0  0  0  0
 20 21  1  1  0  0  0
 22 25  1  0  0  0  0
 23 24  1  0  0  0  0
  1 30  1  0  0  0  0
  2 31  1  0  0  0  0
  3 32  1  0  0  0  0
  4 33  1  0  0  0  0
  5 34  1  0  0  0  0
  6 35  1  0  0  0  0
 12 36  1  0  0  0  0
 13 37  1  0  0  0  0
 14 38  1  0  0  0  0
 15 39  1  0  0  0  0
 17 40  1  0  0  0  0
 17 41  1  0  0  0  0
 17 42  1  0  0  0  0
 18 43  1  0  0  0  0
 18 44  1  0  0  0  0
 18 45  1  0  0  0  0
 19 46  1  0  0  0  0
 19 47  1  0  0  0  0
 19 48  1  0  0  0  0
 20 49  1  0  0  0  0
 20 50  1  0  0  0  0
 21 51  1  0  0  0  0
 27 52  1  0  0  0  0
M  END
> <clash_score>
0

> <docking_score>
-11.892093658447266

> <overlap_score>
0.9275824427604675

$$$$
BENZO_311_2
  -OEChem-08232013503D

 52 55  0     1  0  0  0  0  0999 V2000
    8.3510   -1.5420   24.6110 C   0  0  0  0  0  0  0  0  0  0  0  0
   10.2760   -2.3270   23.4020 C   0  0  0  0  0  0  0  0  0  0  0  0
    8.3310   -2.7170   25.3430 C   0  0  0  0  0  0  0  0  0  0  0  0
   10.2570   -3.5000   24.1350 C   0  0  0  0  0  0  0  0  0  0  0  0
   10.7939    2.7770   23.4177 C   0  0  0  0  0  0  0  0  0  0  0  0
    8.9123    3.6676   24.1257 C   0  0  0  0  0  0  0  0  0  0  0  0
    9.3300   -1.3350   23.6390 C   0  0  0  0  0  0  0  0  0  0  0  0
    9.4950    2.4539   23.8539 C   0  0  0  0  0  0  0  0  0  0  0  0
    9.2850   -3.7090   25.1090 C   0  0  0  0  0  0  0  0  0  0  0  0
    5.9810    0.8330   18.8060 C   0  0  0  0  0  0  0  0  0  0  0  0
    7.2210   -0.4620   20.0350 C   0  0  0  0  0  0  0  0  0  0  0  0
    4.9400    1.7060   18.5060 C   0  0  0  0  0  0  0  0  0  0  0  0
    4.0980    2.1130   19.5350 C   0  0  0  0  0  0  0  0  0  0  0  0
    4.2970    1.6690   20.8430 C   0  0  0  0  0  0  0  0  0  0  0  0
    5.3360    0.8000   21.1530 C   0  0  0  0  0  0  0  0  0  0  0  0
    8.9510    0.1280   21.6880 C   0  0  0  0  0  0  0  0  0  0  0  0
    9.7138    6.0371   23.9775 C   0  0  0  0  0  0  0  0  0  0  0  0
    8.2526   -5.1189   26.8655 C   0  0  0  0  0  0  0  0  0  0  0  0
   10.2443   -5.9398   25.5977 C   0  0  0  0  0  0  0  0  0  0  0  0
    8.8771    1.0813   23.9905 C   0  0  0  0  0  0  0  0  0  0  0  0
    9.4200   -0.0840   22.9530 C   0  0  2  0  0  0  0  0  0  0  0  0
   11.0232    4.0928   23.4110 N   0  0  0  0  0  0  0  0  0  0  0  0
    6.9440    0.2550   18.0100 N   0  0  0  0  0  0  0  0  0  0  0  0
    7.6830   -0.5170   18.7600 N   0  0  0  0  0  0  0  0  0  0  0  0
    9.8605    4.6073   23.8463 N   0  0  0  0  0  0  0  0  0  0  0  0
    6.1600    0.3870   20.1140 N   0  0  0  0  0  0  0  0  0  0  0  0
    8.0810   -0.9750   21.0820 N   0  0  0  0  0  0  0  0  0  0  0  0
    9.2638   -4.9025   25.8500 N   0  0  0  0  0  0  0  0  0  0  0  0
    9.1870    1.1500   21.0630 O   0  0  0  0  0  0  0  0  0  0  0  0
    7.5957   -0.7779   24.7973 H   0  0  0  0  0  0  0  0  0  0  0  0
   11.0384   -2.1852   22.6338 H   0  0  0  0  0  0  0  0  0  0  0  0
    7.5634   -2.8637   26.1037 H   0  0  0  0  0  0  0  0  0  0  0  0
   11.0139   -4.2645   23.9419 H   0  0  0  0  0  0  0  0  0  0  0  0
   11.5843    2.1103   23.1031 H   0  0  0  0  0  0  0  0  0  0  0  0
    7.9277    3.9360   24.4839 H   0  0  0  0  0  0  0  0  0  0  0  0
    4.7733    2.0700   17.5071 H   0  0  0  0  0  0  0  0  0  0  0  0
    3.2813    2.7836   19.2995 H   0  0  0  0  0  0  0  0  0  0  0  0
    3.6335    1.9977   21.6542 H   0  0  0  0  0  0  0  0  0  0  0  0
    5.5067    0.4537   22.1474 H   0  0  0  0  0  0  0  0  0  0  0  0
   10.0225    6.3165   24.9883 H   0  0  0  0  0  0  0  0  0  0  0  0
   10.3410    6.5371   23.2342 H   0  0  0  0  0  0  0  0  0  0  0  0
    8.6688    6.3103   23.8064 H   0  0  0  0  0  0  0  0  0  0  0  0
    8.4030   -6.1050   27.3292 H   0  0  0  0  0  0  0  0  0  0  0  0
    8.3320   -4.3364   27.6345 H   0  0  0  0  0  0  0  0  0  0  0  0
    7.2550   -5.0794   26.4037 H   0  0  0  0  0  0  0  0  0  0  0  0
   10.0625   -6.7890   26.2728 H   0  0  0  0  0  0  0  0  0  0  0  0
   10.1609   -6.2770   24.5540 H   0  0  0  0  0  0  0  0  0  0  0  0
   11.2540   -5.5406   25.7744 H   0  0  0  0  0  0  0  0  0  0  0  0
    8.9708    0.7434   25.0308 H   0  0  0  0  0  0  0  0  0  0  0  0
    7.7972    1.1781   23.8117 H   0  0  0  0  0  0  0  0  0  0  0  0
   10.5743    0.2174   22.9808 H   0  0  0  0  0  0  0  0  0  0  0  0
    8.1152   -1.8120   21.3518 H   0  0  0  0  0  0  0  0  0  0  0  0
  1  3  2  0  0  0  0
  1  7  1  0  0  0  0
  2  4  1  0  0  0  0
  2  7  2  0  0  0  0
  3  9  1  0  0  0  0
  4  9  2  0  0  0  0
  5  8  1  0  0  0  0
  5 22  2  0  0  0  0
  6  8  2  0  0  0  0
  6 25  1  0  0  0  0
  7 21  1  0  0  0  0
  8 20  1  0  0  0  0
  9 28  1  0  0  0  0
 10 12  1  0  0  0  0
 10 23  2  0  0  0  0
 10 26  1  0  0  0  0
 11 24  2  0  0  0  0
 11 26  1  0  0  0  0
 11 27  1  0  0  0  0
 12 13  2  0  0  0  0
 13 14  1  0  0  0  0
 14 15  2  0  0  0  0
 15 26  1  0  0  0  0
 16 21  1  0  0  0  0
 16 27  1  0  0  0  0
 16 29  2  0  0  0  0
 17 25  1  0  0  0  0
 18 28  1  0  0  0  0
 19 28  1  0  0  0  0
 20 21  1  6  0  0  0
 22 25  1  0  0  0  0
 23 24  1  0  0  0  0
  1 30  1  0  0  0  0
  2 31  1  0  0  0  0
  3 32  1  0  0  0  0
  4 33  1  0  0  0  0
  5 34  1  0  0  0  0
  6 35  1  0  0  0  0
 12 36  1  0  0  0  0
 13 37  1  0  0  0  0
 14 38  1  0  0  0  0
 15 39  1  0  0  0  0
 17 40  1  0  0  0  0
 17 41  1  0  0  0  0
 17 42  1  0  0  0  0
 18 43  1  0  0  0  0
 18 44  1  0  0  0  0
 18 45  1  0  0  0  0
 19 46  1  0  0  0  0
 19 47  1  0  0  0  0
 19 48  1  0  0  0  0
 20 49  1  0  0  0  0
 20 50  1  0  0  0  0
 21 51  1  0  0  0  0
 27 52  1  0  0  0  0
M  END
> <clash_score>
0

> <docking_score>
-10.69639778137207

> <overlap_score>
0.854282557964325

$$$$
BENZO_310_1
  -OEChem-08232013503D

 52 55  0     1  0  0  0  0  0999 V2000
   10.2645    4.1315   23.6906 C   0  0  0  0  0  0  0  0  0  0  0  0
   10.1177    2.7447   23.6595 C   0  0  0  0  0  0  0  0  0  0  0  0
    8.3510   -1.5420   24.6110 C   0  0  0  0  0  0  0  0  0  0  0  0
   10.2760   -2.3270   23.4020 C   0  0  0  0  0  0  0  0  0  0  0  0
    8.3310   -2.7170   25.3430 C   0  0  0  0  0  0  0  0  0  0  0  0
   10.2570   -3.5000   24.1350 C   0  0  0  0  0  0  0  0  0  0  0  0
   11.4306    4.7205   23.2018 C   0  0  0  0  0  0  0  0  0  0  0  0
   12.3032    2.5360   22.6510 C   0  0  0  0  0  0  0  0  0  0  0  0
    9.3300   -1.3350   23.6390 C   0  0  0  0  0  0  0  0  0  0  0  0
   11.1370    1.9470   23.1397 C   0  0  0  0  0  0  0  0  0  0  0  0
    9.2850   -3.7090   25.1090 C   0  0  0  0  0  0  0  0  0  0  0  0
   12.4500    3.9228   22.6820 C   0  0  0  0  0  0  0  0  0  0  0  0
    5.9810    0.8330   18.8060 C   0  0  0  0  0  0  0  0  0  0  0  0
    7.2210   -0.4620   20.0350 C   0  0  0  0  0  0  0  0  0  0  0  0
    4.9400    1.7060   18.5060 C   0  0  0  0  0  0  0  0  0  0  0  0
    4.0980    2.1130   19.5350 C   0  0  0  0  0  0  0  0  0  0  0  0
    4.2970    1.6690   20.8430 C   0  0  0  0  0  0  0  0  0  0  0  0
    5.3360    0.8000   21.1530 C   0  0  0  0  0  0  0  0  0  0  0  0
    8.9510    0.1280   21.6880 C   0  0  0  0  0  0  0  0  0  0  0  0
    8.2526   -5.1189   26.8655 C   0  0  0  0  0  0  0  0  0  0  0  0
   10.2443   -5.9398   25.5977 C   0  0  0  0  0  0  0  0  0  0  0  0
   10.9777    0.4443   23.1075 C   0  0  0  0  0  0  0  0  0  0  0  0
    9.4200   -0.0840   22.9530 C   0  0  1  0  0  0  0  0  0  0  0  0
    6.9440    0.2550   18.0100 N   0  0  0  0  0  0  0  0  0  0  0  0
    7.6830   -0.5170   18.7600 N   0  0  0  0  0  0  0  0  0  0  0  0
    6.1600    0.3870   20.1140 N   0  0  0  0  0  0  0  0  0  0  0  0
    8.0810   -0.9750   21.0820 N   0  0  0  0  0  0  0  0  0  0  0  0
    9.2638   -4.9025   25.8500 N   0  0  0  0  0  0  0  0  0  0  0  0
    9.1870    1.1500   21.0630 O   0  0  0  0  0  0  0  0  0  0  0  0
   13.8890    4.6500   22.0802 Cl  0  0  0  0  0  0  0  0  0  0  0  0
    9.4706    4.7523   24.0955 H   0  0  0  0  0  0  0  0  0  0  0  0
    9.2057    2.2944   24.0426 H   0  0  0  0  0  0  0  0  0  0  0  0
    7.5957   -0.7779   24.7973 H   0  0  0  0  0  0  0  0  0  0  0  0
   11.0384   -2.1852   22.6338 H   0  0  0  0  0  0  0  0  0  0  0  0
    7.5634   -2.8637   26.1037 H   0  0  0  0  0  0  0  0  0  0  0  0
   11.0139   -4.2645   23.9419 H   0  0  0  0  0  0  0  0  0  0  0  0
   11.5314    5.8026   23.2326 H   0  0  0  0  0  0  0  0  0  0  0  0
   13.0949    1.9096   22.2463 H   0  0  0  0  0  0  0  0  0  0  0  0
    4.7733    2.0700   17.5071 H   0  0  0  0  0  0  0  0  0  0  0  0
    3.2813    2.7836   19.2995 H   0  0  0  0  0  0  0  0  0  0  0  0
    3.6335    1.9977   21.6542 H   0  0  0  0  0  0  0  0  0  0  0  0
    5.5067    0.4537   22.1474 H   0  0  0  0  0  0  0  0  0  0  0  0
    8.4030   -6.1050   27.3292 H   0  0  0  0  0  0  0  0  0  0  0  0
    8.3320   -4.3364   27.6345 H   0  0  0  0  0  0  0  0  0  0  0  0
    7.2550   -5.0794   26.4037 H   0  0  0  0  0  0  0  0  0  0  0  0
   10.0625   -6.7890   26.2728 H   0  0  0  0  0  0  0  0  0  0  0  0
   10.1609   -6.2770   24.5540 H   0  0  0  0  0  0  0  0  0  0  0  0
   11.2540   -5.5406   25.7744 H   0  0  0  0  0  0  0  0  0  0  0  0
   11.5363    0.0387   22.2539 H   0  0  0  0  0  0  0  0  0  0  0  0
   11.4704    0.0336   23.9998 H   0  0  0  0  0  0  0  0  0  0  0  0
    8.9182    0.7194   23.6789 H   0  0  0  0  0  0  0  0  0  0  0  0
    8.1152   -1.8120   21.3518 H   0  0  0  0  0  0  0  0  0  0  0  0
  1  2  2  0  0  0  0
  1  7  1  0  0  0  0
  2 10  1  0  0  0  0
  3  5  2  0  0  0  0
  3  9  1  0  0  0  0
  4  6  1  0  0  0  0
  4  9  2  0  0  0  0
  5 11  1  0  0  0  0
  6 11  2  0  0  0  0
  7 12  2  0  0  0  0
  8 10  2  0  0  0  0
  8 12  1  0  0  0  0
  9 23  1  0  0  0  0
 10 22  1  0  0  0  0
 11 28  1  0  0  0  0
 12 30  1  0  0  0  0
 13 15  1  0  0  0  0
 13 24  2  0  0  0  0
 13 26  1  0  0  0  0
 14 25  2  0  0  0  0
 14 26  1  0  0  0  0
 14 27  1  0  0  0  0
 15 16  2  0  0  0  0
 16 17  1  0  0  0  0
 17 18  2  0  0  0  0
 18 26  1  0  0  0  0
 19 23  1  0  0  0  0
 19 27  1  0  0  0  0
 19 29  2  0  0  0  0
 20 28  1  0  0  0  0
 21 28  1  0  0  0  0
 22 23  1  1  0  0  0
 24 25  1  0  0  0  0
  1 31  1  0  0  0  0
  2 32  1  0  0  0  0
  3 33  1  0  0  0  0
  4 34  1  0  0  0  0
  5 35  1  0  0  0  0
  6 36  1  0  0  0  0
  7 37  1  0  0  0  0
  8 38  1  0  0  0  0
 15 39  1  0  0  0  0
 16 40  1  0  0  0  0
 17 41  1  0  0  0  0
 18 42  1  0  0  0  0
 20 43  1  0  0  0  0
 20 44  1  0  0  0  0
 20 45  1  0  0  0  0
 21 46  1  0  0  0  0
 21 47  1  0  0  0  0
 21 48  1  0  0  0  0
 22 49  1  0  0  0  0
 22 50  1  0  0  0  0
 23 51  1  0  0  0  0
 27 52  1  0  0  0  0
M  END
> <clash_score>
0

> <docking_score>
-12.363401412963867

> <overlap_score>
0.9337273836135864

$$$$
BENZO_310_2
  -OEChem-08232013503D

 52 55  0     1  0  0  0  0  0999 V2000
    9.3211    4.8553   24.0536 C   0  0  0  0  0  0  0  0  0  0  0  0
    8.7511    3.5884   24.1784 C   0  0  0  0  0  0  0  0  0  0  0  0
    8.3510   -1.5420   24.6110 C   0  0  0  0  0  0  0  0  0  0  0  0
   10.2760   -2.3270   23.4020 C   0  0  0  0  0  0  0  0  0  0  0  0
    8.3310   -2.7170   25.3430 C   0  0  0  0  0  0  0  0  0  0  0  0
   10.2570   -3.5000   24.1350 C   0  0  0  0  0  0  0  0  0  0  0  0
   10.6349    4.9878   23.6042 C   0  0  0  0  0  0  0  0  0  0  0  0
   10.8089    2.5864   23.4046 C   0  0  0  0  0  0  0  0  0  0  0  0
    9.3300   -1.3350   23.6390 C   0  0  0  0  0  0  0  0  0  0  0  0
    9.4950    2.4539   23.8539 C   0  0  0  0  0  0  0  0  0  0  0  0
    9.2850   -3.7090   25.1090 C   0  0  0  0  0  0  0  0  0  0  0  0
   11.3788    3.8534   23.2798 C   0  0  0  0  0  0  0  0  0  0  0  0
    5.9810    0.8330   18.8060 C   0  0  0  0  0  0  0  0  0  0  0  0
    7.2210   -0.4620   20.0350 C   0  0  0  0  0  0  0  0  0  0  0  0
    4.9400    1.7060   18.5060 C   0  0  0  0  0  0  0  0  0  0  0  0
    4.0980    2.1130   19.5350 C   0  0  0  0  0  0  0  0  0  0  0  0
    4.2970    1.6690   20.8430 C   0  0  0  0  0  0  0  0  0  0  0  0
    5.3360    0.8000   21.1530 C   0  0  0  0  0  0  0  0  0  0  0  0
    8.9510    0.1280   21.6880 C   0  0  0  0  0  0  0  0  0  0  0  0
    8.2526   -5.1189   26.8655 C   0  0  0  0  0  0  0  0  0  0  0  0
   10.2443   -5.9398   25.5977 C   0  0  0  0  0  0  0  0  0  0  0  0
    8.8771    1.0813   23.9905 C   0  0  0  0  0  0  0  0  0  0  0  0
    9.4200   -0.0840   22.9530 C   0  0  2  0  0  0  0  0  0  0  0  0
    6.9440    0.2550   18.0100 N   0  0  0  0  0  0  0  0  0  0  0  0
    7.6830   -0.5170   18.7600 N   0  0  0  0  0  0  0  0  0  0  0  0
    6.1600    0.3870   20.1140 N   0  0  0  0  0  0  0  0  0  0  0  0
    8.0810   -0.9750   21.0820 N   0  0  0  0  0  0  0  0  0  0  0  0
    9.2638   -4.9025   25.8500 N   0  0  0  0  0  0  0  0  0  0  0  0
    9.1870    1.1500   21.0630 O   0  0  0  0  0  0  0  0  0  0  0  0
   13.0002    4.0175   22.7265 Cl  0  0  0  0  0  0  0  0  0  0  0  0
    8.7415    5.7384   24.3065 H   0  0  0  0  0  0  0  0  0  0  0  0
    7.7267    3.4945   24.5294 H   0  0  0  0  0  0  0  0  0  0  0  0
    7.5957   -0.7779   24.7973 H   0  0  0  0  0  0  0  0  0  0  0  0
   11.0384   -2.1852   22.6338 H   0  0  0  0  0  0  0  0  0  0  0  0
    7.5634   -2.8637   26.1037 H   0  0  0  0  0  0  0  0  0  0  0  0
   11.0139   -4.2645   23.9419 H   0  0  0  0  0  0  0  0  0  0  0  0
   11.0663    5.9816   23.5121 H   0  0  0  0  0  0  0  0  0  0  0  0
   11.3846    1.6989   23.1523 H   0  0  0  0  0  0  0  0  0  0  0  0
    4.7733    2.0700   17.5071 H   0  0  0  0  0  0  0  0  0  0  0  0
    3.2813    2.7836   19.2995 H   0  0  0  0  0  0  0  0  0  0  0  0
    3.6335    1.9977   21.6542 H   0  0  0  0  0  0  0  0  0  0  0  0
    5.5067    0.4537   22.1474 H   0  0  0  0  0  0  0  0  0  0  0  0
    8.4030   -6.1050   27.3292 H   0  0  0  0  0  0  0  0  0  0  0  0
    8.3320   -4.3364   27.6345 H   0  0  0  0  0  0  0  0  0  0  0  0
    7.2550   -5.0794   26.4037 H   0  0  0  0  0  0  0  0  0  0  0  0
   10.0625   -6.7890   26.2728 H   0  0  0  0  0  0  0  0  0  0  0  0
   10.1609   -6.2770   24.5540 H   0  0  0  0  0  0  0  0  0  0  0  0
   11.2540   -5.5406   25.7744 H   0  0  0  0  0  0  0  0  0  0  0  0
    8.9708    0.7434   25.0308 H   0  0  0  0  0  0  0  0  0  0  0  0
    7.7972    1.1781   23.8117 H   0  0  0  0  0  0  0  0  0  0  0  0
   10.5743    0.2174   22.9808 H   0  0  0  0  0  0  0  0  0  0  0  0
    8.1152   -1.8120   21.3518 H   0  0  0  0  0  0  0  0  0  0  0  0
  1  2  2  0  0  0  0
  1  7  1  0  0  0  0
  2 10  1  0  0  0  0
  3  5  2  0  0  0  0
  3  9  1  0  0  0  0
  4  6  1  0  0  0  0
  4  9  2  0  0  0  0
  5 11  1  0  0  0  0
  6 11  2  0  0  0  0
  7 12  2  0  0  0  0
  8 10  2  0  0  0  0
  8 12  1  0  0  0  0
  9 23  1  0  0  0  0
 10 22  1  0  0  0  0
 11 28  1  0  0  0  0
 12 30  1  0  0  0  0
 13 15  1  0  0  0  0
 13 24  2  0  0  0  0
 13 26  1  0  0  0  0
 14 25  2  0  0  0  0
 14 26  1  0  0  0  0
 14 27  1  0  0  0  0
 15 16  2  0  0  0  0
 16 17  1  0  0  0  0
 17 18  2  0  0  0  0
 18 26  1  0  0  0  0
 19 23  1  0  0  0  0
 19 27  1  0  0  0  0
 19 29  2  0  0  0  0
 20 28  1  0  0  0  0
 21 28  1  0  0  0  0
 22 23  1  6  0  0  0
 24 25  1  0  0  0  0
  1 31  1  0  0  0  0
  2 32  1  0  0  0  0
  3 33  1  0  0  0  0
  4 34  1  0  0  0  0
  5 35  1  0  0  0  0
  6 36  1  0  0  0  0
  7 37  1  0  0  0  0
  8 38  1  0  0  0  0
 15 39  1  0  0  0  0
 16 40  1  0  0  0  0
 17 41  1  0  0  0  0
 18 42  1  0  0  0  0
 20 43  1  0  0  0  0
 20 44  1  0  0  0  0
 20 45  1  0  0  0  0
 21 46  1  0  0  0  0
 21 47  1  0  0  0  0
 21 48  1  0  0  0  0
 22 49  1  0  0  0  0
 22 50  1  0  0  0  0
 23 51  1  0  0  0  0
 27 52  1  0  0  0  0
M  END
> <clash_score>
0

> <docking_score>
-11.355537414550781

> <overlap_score>
0.869275689125061

$$$$
BENZO_313_1
  -OEChem-08232013503D

 54 57  0     1  0  0  0  0  0999 V2000
   11.4296    4.7207   23.1993 C   0  0  0  0  0  0  0  0  0  0  0  0
   12.4494    3.9228   22.6806 C   0  0  0  0  0  0  0  0  0  0  0  0
   10.2636    4.1317   23.6883 C   0  0  0  0  0  0  0  0  0  0  0  0
   12.3031    2.5360   22.6508 C   0  0  0  0  0  0  0  0  0  0  0  0
   10.1173    2.7449   23.6585 C   0  0  0  0  0  0  0  0  0  0  0  0
    8.3510   -1.5420   24.6110 C   0  0  0  0  0  0  0  0  0  0  0  0
   10.2760   -2.3270   23.4020 C   0  0  0  0  0  0  0  0  0  0  0  0
    8.3310   -2.7170   25.3430 C   0  0  0  0  0  0  0  0  0  0  0  0
   10.2570   -3.5000   24.1350 C   0  0  0  0  0  0  0  0  0  0  0  0
   11.1370    1.9470   23.1397 C   0  0  0  0  0  0  0  0  0  0  0  0
    9.3300   -1.3350   23.6390 C   0  0  0  0  0  0  0  0  0  0  0  0
    9.2850   -3.7090   25.1090 C   0  0  0  0  0  0  0  0  0  0  0  0
    5.9810    0.8330   18.8060 C   0  0  0  0  0  0  0  0  0  0  0  0
    7.2210   -0.4620   20.0350 C   0  0  0  0  0  0  0  0  0  0  0  0
    4.9400    1.7060   18.5060 C   0  0  0  0  0  0  0  0  0  0  0  0
    4.0980    2.1130   19.5350 C   0  0  0  0  0  0  0  0  0  0  0  0
    4.2970    1.6690   20.8430 C   0  0  0  0  0  0  0  0  0  0  0  0
    5.3360    0.8000   21.1530 C   0  0  0  0  0  0  0  0  0  0  0  0
    8.1533   -5.5442   26.4004 C   0  0  0  0  0  0  0  0  0  0  0  0
    8.9510    0.1280   21.6880 C   0  0  0  0  0  0  0  0  0  0  0  0
    9.2263   -7.8280   26.2037 C   0  0  0  0  0  0  0  0  0  0  0  0
   10.9777    0.4443   23.1075 C   0  0  0  0  0  0  0  0  0  0  0  0
    8.5718   -6.8147   27.1254 C   0  0  0  0  0  0  0  0  0  0  0  0
    9.4200   -0.0840   22.9530 C   0  0  1  0  0  0  0  0  0  0  0  0
    6.9440    0.2550   18.0100 N   0  0  0  0  0  0  0  0  0  0  0  0
    7.6830   -0.5170   18.7600 N   0  0  0  0  0  0  0  0  0  0  0  0
    6.1600    0.3870   20.1140 N   0  0  0  0  0  0  0  0  0  0  0  0
    9.2630   -4.8903   25.8409 N   0  0  0  0  0  0  0  0  0  0  0  0
    8.0810   -0.9750   21.0820 N   0  0  0  0  0  0  0  0  0  0  0  0
    6.9823   -5.1841   26.3423 O   0  0  0  0  0  0  0  0  0  0  0  0
    9.1870    1.1500   21.0630 O   0  0  0  0  0  0  0  0  0  0  0  0
   11.5443    5.8005   23.2237 H   0  0  0  0  0  0  0  0  0  0  0  0
   13.3579    4.3812   22.3008 H   0  0  0  0  0  0  0  0  0  0  0  0
    9.4699    4.7525   24.0932 H   0  0  0  0  0  0  0  0  0  0  0  0
   13.1028    1.9222   22.2446 H   0  0  0  0  0  0  0  0  0  0  0  0
    9.2052    2.2948   24.0415 H   0  0  0  0  0  0  0  0  0  0  0  0
    7.5948   -0.7783   24.7966 H   0  0  0  0  0  0  0  0  0  0  0  0
   11.0389   -2.1844   22.6342 H   0  0  0  0  0  0  0  0  0  0  0  0
    7.5642   -2.8624   26.1050 H   0  0  0  0  0  0  0  0  0  0  0  0
   11.0137   -4.2649   23.9418 H   0  0  0  0  0  0  0  0  0  0  0  0
    4.7733    2.0700   17.5071 H   0  0  0  0  0  0  0  0  0  0  0  0
    3.2813    2.7836   19.2995 H   0  0  0  0  0  0  0  0  0  0  0  0
    3.6335    1.9977   21.6542 H   0  0  0  0  0  0  0  0  0  0  0  0
    5.5067    0.4537   22.1474 H   0  0  0  0  0  0  0  0  0  0  0  0
    8.5494   -8.1169   25.3929 H   0  0  0  0  0  0  0  0  0  0  0  0
    9.4976   -8.7302   26.7605 H   0  0  0  0  0  0  0  0  0  0  0  0
   10.1358   -7.4186   25.7518 H   0  0  0  0  0  0  0  0  0  0  0  0
   11.5363    0.0387   22.2539 H   0  0  0  0  0  0  0  0  0  0  0  0
   11.4704    0.0336   23.9998 H   0  0  0  0  0  0  0  0  0  0  0  0
    9.2702   -6.5441   27.9257 H   0  0  0  0  0  0  0  0  0  0  0  0
    7.6830   -7.2605   27.5867 H   0  0  0  0  0  0  0  0  0  0  0  0
    8.9182    0.7194   23.6789 H   0  0  0  0  0  0  0  0  0  0  0  0
   10.1694   -5.3468   25.9962 H   0  0  0  0  0  0  0  0  0  0  0  0
    8.1152   -1.8120   21.3518 H   0  0  0  0  0  0  0  0  0  0  0  0
  1  2  1  0  0  0  0
  1  3  2  0  0  0  0
  2  4  2  0  0  0  0
  3  5  1  0  0  0  0
  4 10  1  0  0  0  0
  5 10  2  0  0  0  0
  6  8  2  0  0  0  0
  6 11  1  0  0  0  0
  7  9  1  0  0  0  0
  7 11  2  0  0  0  0
  8 12  1  0  0  0  0
  9 12  2  0  0  0  0
 10 22  1  0  0  0  0
 11 24  1  0  0  0  0
 12 28  1  0  0  0  0
 13 15  1  0  0  0  0
 13 25  2  0  0  0  0
 13 27  1  0  0  0  0
 14 26  2  0  0  0  0
 14 27  1  0  0  0  0
 14 29  1  0  0  0  0
 15 16  2  0  0  0  0
 16 17  1  0  0  0  0
 17 18  2  0  0  0  0
 18 27  1  0  0  0  0
 19 23  1  0  0  0  0
 19 28  1  0  0  0  0
 19 30  2  0  0  0  0
 20 24  1  0  0  0  0
 20 29  1  0  0  0  0
 20 31  2  0  0  0  0
 21 23  1  0  0  0  0
 22 24  1  1  0  0  0
 25 26  1  0  0  0  0
  1 32  1  0  0  0  0
  2 33  1  0  0  0  0
  3 34  1  0  0  0  0
  4 35  1  0  0  0  0
  5 36  1  0  0  0  0
  6 37  1  0  0  0  0
  7 38  1  0  0  0  0
  8 39  1  0  0  0  0
  9 40  1  0  0  0  0
 15 41  1  0  0  0  0
 16 42  1  0  0  0  0
 17 43  1  0  0  0  0
 18 44  1  0  0  0  0
 21 45  1  0  0  0  0
 21 46  1  0  0  0  0
 21 47  1  0  0  0  0
 22 48  1  0  0  0  0
 22 49  1  0  0  0  0
 23 50  1  0  0  0  0
 23 51  1  0  0  0  0
 24 52  1  0  0  0  0
 28 53  1  0  0  0  0
 29 54  1  0  0  0  0
M  END
> <clash_score>
1.23585177754165

> <docking_score>
-10.035417556762695

> <overlap_score>
0.9388611912727356

$$$$
BENZO_312_1
  -OEChem-08232013503D

 51 54  0     1  0  0  0  0  0999 V2000
    8.3510   -1.5420   24.6110 C   0  0  0  0  0  0  0  0  0  0  0  0
   10.2760   -2.3270   23.4020 C   0  0  0  0  0  0  0  0  0  0  0  0
    8.3310   -2.7170   25.3430 C   0  0  0  0  0  0  0  0  0  0  0  0
   10.2570   -3.5000   24.1350 C   0  0  0  0  0  0  0  0  0  0  0  0
   11.9019    2.6854   22.1912 C   0  0  0  0  0  0  0  0  0  0  0  0
   11.8820    4.0381   22.4508 C   0  0  0  0  0  0  0  0  0  0  0  0
   10.5617    2.7635   24.0885 C   0  0  0  0  0  0  0  0  0  0  0  0
    9.3300   -1.3350   23.6390 C   0  0  0  0  0  0  0  0  0  0  0  0
   11.1370    1.9470   23.1397 C   0  0  0  0  0  0  0  0  0  0  0  0
    9.2850   -3.7090   25.1090 C   0  0  0  0  0  0  0  0  0  0  0  0
    5.9810    0.8330   18.8060 C   0  0  0  0  0  0  0  0  0  0  0  0
    7.2210   -0.4620   20.0350 C   0  0  0  0  0  0  0  0  0  0  0  0
    4.9400    1.7060   18.5060 C   0  0  0  0  0  0  0  0  0  0  0  0
    4.0980    2.1130   19.5350 C   0  0  0  0  0  0  0  0  0  0  0  0
    4.2970    1.6690   20.8430 C   0  0  0  0  0  0  0  0  0  0  0  0
    5.3360    0.8000   21.1530 C   0  0  0  0  0  0  0  0  0  0  0  0
    8.1533   -5.5442   26.4004 C   0  0  0  0  0  0  0  0  0  0  0  0
    8.9510    0.1280   21.6880 C   0  0  0  0  0  0  0  0  0  0  0  0
    9.2263   -7.8280   26.2037 C   0  0  0  0  0  0  0  0  0  0  0  0
   10.9777    0.4443   23.1075 C   0  0  0  0  0  0  0  0  0  0  0  0
    8.5718   -6.8147   27.1254 C   0  0  0  0  0  0  0  0  0  0  0  0
    9.4200   -0.0840   22.9530 C   0  0  1  0  0  0  0  0  0  0  0  0
    6.9440    0.2550   18.0100 N   0  0  0  0  0  0  0  0  0  0  0  0
    7.6830   -0.5170   18.7600 N   0  0  0  0  0  0  0  0  0  0  0  0
    6.1600    0.3870   20.1140 N   0  0  0  0  0  0  0  0  0  0  0  0
    9.2630   -4.8903   25.8409 N   0  0  0  0  0  0  0  0  0  0  0  0
    8.0810   -0.9750   21.0820 N   0  0  0  0  0  0  0  0  0  0  0  0
    6.9823   -5.1841   26.3423 O   0  0  0  0  0  0  0  0  0  0  0  0
    9.1870    1.1500   21.0630 O   0  0  0  0  0  0  0  0  0  0  0  0
   10.9440    4.4131   23.8336 S   0  0  0  0  0  0  0  0  0  0  0  0
    7.5948   -0.7783   24.7966 H   0  0  0  0  0  0  0  0  0  0  0  0
   11.0389   -2.1844   22.6342 H   0  0  0  0  0  0  0  0  0  0  0  0
    7.5642   -2.8624   26.1050 H   0  0  0  0  0  0  0  0  0  0  0  0
   11.0137   -4.2649   23.9418 H   0  0  0  0  0  0  0  0  0  0  0  0
   12.4414    2.2505   21.3593 H   0  0  0  0  0  0  0  0  0  0  0  0
   12.3738    4.8240   21.8953 H   0  0  0  0  0  0  0  0  0  0  0  0
    9.9357    2.4743   24.9213 H   0  0  0  0  0  0  0  0  0  0  0  0
    4.7733    2.0700   17.5071 H   0  0  0  0  0  0  0  0  0  0  0  0
    3.2813    2.7836   19.2995 H   0  0  0  0  0  0  0  0  0  0  0  0
    3.6335    1.9977   21.6542 H   0  0  0  0  0  0  0  0  0  0  0  0
    5.5067    0.4537   22.1474 H   0  0  0  0  0  0  0  0  0  0  0  0
    8.5494   -8.1169   25.3929 H   0  0  0  0  0  0  0  0  0  0  0  0
    9.4976   -8.7302   26.7605 H   0  0  0  0  0  0  0  0  0  0  0  0
   10.1358   -7.4186   25.7518 H   0  0  0  0  0  0  0  0  0  0  0  0
   11.5363    0.0386   22.2539 H   0  0  0  0  0  0  0  0  0  0  0  0
   11.4704    0.0336   23.9998 H   0  0  0  0  0  0  0  0  0  0  0  0
    9.2702   -6.5441   27.9257 H   0  0  0  0  0  0  0  0  0  0  0  0
    7.6830   -7.2605   27.5867 H   0  0  0  0  0  0  0  0  0  0  0  0
    8.9182    0.7194   23.6789 H   0  0  0  0  0  0  0  0  0  0  0  0
   10.1694   -5.3468   25.9962 H   0  0  0  0  0  0  0  0  0  0  0  0
    8.1152   -1.8120   21.3518 H   0  0  0  0  0  0  0  0  0  0  0  0
  1  3  2  0  0  0  0
  1  8  1  0  0  0  0
  2  4  1  0  0  0  0
  2  8  2  0  0  0  0
  3 10  1  0  0  0  0
  4 10  2  0  0  0  0
  5  6  2  0  0  0  0
  5  9  1  0  0  0  0
  6 30  1  0  0  0  0
  7  9  2  0  0  0  0
  7 30  1  0  0  0  0
  8 22  1  0  0  0  0
  9 20  1  0  0  0  0
 10 26  1  0  0  0  0
 11 13  1  0  0  0  0
 11 23  2  0  0  0  0
 11 25  1  0  0  0  0
 12 24  2  0  0  0  0
 12 25  1  0  0  0  0
 12 27  1  0  0  0  0
 13 14  2  0  0  0  0
 14 15  1  0  0  0  0
 15 16  2  0  0  0  0
 16 25  1  0  0  0  0
 17 21  1  0  0  0  0
 17 26  1  0  0  0  0
 17 28  2  0  0  0  0
 18 22  1  0  0  0  0
 18 27  1  0  0  0  0
 18 29  2  0  0  0  0
 19 21  1  0  0  0  0
 20 22  1  1  0  0  0
 23 24  1  0  0  0  0
  1 31  1  0  0  0  0
  2 32  1  0  0  0  0
  3 33  1  0  0  0  0
  4 34  1  0  0  0  0
  5 35  1  0  0  0  0
  6 36  1  0  0  0  0
  7 37  1  0  0  0  0
 13 38  1  0  0  0  0
 14 39  1  0  0  0  0
 15 40  1  0  0  0  0
 16 41  1  0  0  0  0
 19 42  1  0  0  0  0
 19 43  1  0  0  0  0
 19 44  1  0  0  0  0
 20 45  1  0  0  0  0
 20 46  1  0  0  0  0
 21 47  1  0  0  0  0
 21 48  1  0  0  0  0
 22 49  1  0  0  0  0
 26 50  1  0  0  0  0
 27 51  1  0  0  0  0
M  END
> <clash_score>
1.23585177754165

> <docking_score>
-8.5765962600708

> <overlap_score>
0.9279859066009521

$$$$
BENZO_313_2
  -OEChem-08232013503D

 54 57  0     1  0  0  0  0  0999 V2000
   10.6367    4.9868   23.6018 C   0  0  0  0  0  0  0  0  0  0  0  0
    9.3228    4.8557   24.0511 C   0  0  0  0  0  0  0  0  0  0  0  0
   11.3798    3.8515   23.2784 C   0  0  0  0  0  0  0  0  0  0  0  0
    8.7519    3.5893   24.1772 C   0  0  0  0  0  0  0  0  0  0  0  0
   10.8090    2.5851   23.4045 C   0  0  0  0  0  0  0  0  0  0  0  0
    8.3510   -1.5420   24.6110 C   0  0  0  0  0  0  0  0  0  0  0  0
   10.2760   -2.3270   23.4020 C   0  0  0  0  0  0  0  0  0  0  0  0
    8.3310   -2.7170   25.3430 C   0  0  0  0  0  0  0  0  0  0  0  0
   10.2570   -3.5000   24.1350 C   0  0  0  0  0  0  0  0  0  0  0  0
    9.4950    2.4539   23.8539 C   0  0  0  0  0  0  0  0  0  0  0  0
    9.3300   -1.3350   23.6390 C   0  0  0  0  0  0  0  0  0  0  0  0
    9.2850   -3.7090   25.1090 C   0  0  0  0  0  0  0  0  0  0  0  0
    5.9810    0.8330   18.8060 C   0  0  0  0  0  0  0  0  0  0  0  0
    7.2210   -0.4620   20.0350 C   0  0  0  0  0  0  0  0  0  0  0  0
    4.9400    1.7060   18.5060 C   0  0  0  0  0  0  0  0  0  0  0  0
    4.0980    2.1130   19.5350 C   0  0  0  0  0  0  0  0  0  0  0  0
    4.2970    1.6690   20.8430 C   0  0  0  0  0  0  0  0  0  0  0  0
    5.3360    0.8000   21.1530 C   0  0  0  0  0  0  0  0  0  0  0  0
    8.1533   -5.5442   26.4004 C   0  0  0  0  0  0  0  0  0  0  0  0
    8.9510    0.1280   21.6880 C   0  0  0  0  0  0  0  0  0  0  0  0
    9.2263   -7.8280   26.2037 C   0  0  0  0  0  0  0  0  0  0  0  0
    8.8771    1.0813   23.9905 C   0  0  0  0  0  0  0  0  0  0  0  0
    8.5718   -6.8147   27.1254 C   0  0  0  0  0  0  0  0  0  0  0  0
    9.4200   -0.0840   22.9530 C   0  0  2  0  0  0  0  0  0  0  0  0
    6.9440    0.2550   18.0100 N   0  0  0  0  0  0  0  0  0  0  0  0
    7.6830   -0.5170   18.7600 N   0  0  0  0  0  0  0  0  0  0  0  0
    6.1600    0.3870   20.1140 N   0  0  0  0  0  0  0  0  0  0  0  0
    9.2630   -4.8903   25.8409 N   0  0  0  0  0  0  0  0  0  0  0  0
    8.0810   -0.9750   21.0820 N   0  0  0  0  0  0  0  0  0  0  0  0
    6.9823   -5.1841   26.3423 O   0  0  0  0  0  0  0  0  0  0  0  0
    9.1870    1.1500   21.0630 O   0  0  0  0  0  0  0  0  0  0  0  0
   11.0806    5.9731   23.5024 H   0  0  0  0  0  0  0  0  0  0  0  0
    8.7437    5.7397   24.3019 H   0  0  0  0  0  0  0  0  0  0  0  0
   12.4025    3.9533   22.9274 H   0  0  0  0  0  0  0  0  0  0  0  0
    7.7275    3.4967   24.5283 H   0  0  0  0  0  0  0  0  0  0  0  0
   11.3955    1.7061   23.1503 H   0  0  0  0  0  0  0  0  0  0  0  0
    7.5948   -0.7783   24.7966 H   0  0  0  0  0  0  0  0  0  0  0  0
   11.0389   -2.1844   22.6342 H   0  0  0  0  0  0  0  0  0  0  0  0
    7.5642   -2.8624   26.1050 H   0  0  0  0  0  0  0  0  0  0  0  0
   11.0137   -4.2649   23.9418 H   0  0  0  0  0  0  0  0  0  0  0  0
    4.7733    2.0700   17.5071 H   0  0  0  0  0  0  0  0  0  0  0  0
    3.2813    2.7836   19.2995 H   0  0  0  0  0  0  0  0  0  0  0  0
    3.6335    1.9977   21.6542 H   0  0  0  0  0  0  0  0  0  0  0  0
    5.5067    0.4537   22.1474 H   0  0  0  0  0  0  0  0  0  0  0  0
    8.5494   -8.1169   25.3929 H   0  0  0  0  0  0  0  0  0  0  0  0
    9.4976   -8.7302   26.7605 H   0  0  0  0  0  0  0  0  0  0  0  0
   10.1358   -7.4186   25.7518 H   0  0  0  0  0  0  0  0  0  0  0  0
    8.9708    0.7434   25.0308 H   0  0  0  0  0  0  0  0  0  0  0  0
    7.7972    1.1781   23.8117 H   0  0  0  0  0  0  0  0  0  0  0  0
    9.2702   -6.5441   27.9257 H   0  0  0  0  0  0  0  0  0  0  0  0
    7.6830   -7.2605   27.5867 H   0  0  0  0  0  0  0  0  0  0  0  0
   10.5743    0.2174   22.9808 H   0  0  0  0  0  0  0  0  0  0  0  0
   10.1694   -5.3468   25.9962 H   0  0  0  0  0  0  0  0  0  0  0  0
    8.1152   -1.8120   21.3518 H   0  0  0  0  0  0  0  0  0  0  0  0
  1  2  1  0  0  0  0
  1  3  2  0  0  0  0
  2  4  2  0  0  0  0
  3  5  1  0  0  0  0
  4 10  1  0  0  0  0
  5 10  2  0  0  0  0
  6  8  2  0  0  0  0
  6 11  1  0  0  0  0
  7  9  1  0  0  0  0
  7 11  2  0  0  0  0
  8 12  1  0  0  0  0
  9 12  2  0  0  0  0
 10 22  1  0  0  0  0
 11 24  1  0  0  0  0
 12 28  1  0  0  0  0
 13 15  1  0  0  0  0
 13 25  2  0  0  0  0
 13 27  1  0  0  0  0
 14 26  2  0  0  0  0
 14 27  1  0  0  0  0
 14 29  1  0  0  0  0
 15 16  2  0  0  0  0
 16 17  1  0  0  0  0
 17 18  2  0  0  0  0
 18 27  1  0  0  0  0
 19 23  1  0  0  0  0
 19 28  1  0  0  0  0
 19 30  2  0  0  0  0
 20 24  1  0  0  0  0
 20 29  1  0  0  0  0
 20 31  2  0  0  0  0
 21 23  1  0  0  0  0
 22 24  1  6  0  0  0
 25 26  1  0  0  0  0
  1 32  1  0  0  0  0
  2 33  1  0  0  0  0
  3 34  1  0  0  0  0
  4 35  1  0  0  0  0
  5 36  1  0  0  0  0
  6 37  1  0  0  0  0
  7 38  1  0  0  0  0
  8 39  1  0  0  0  0
  9 40  1  0  0  0  0
 15 41  1  0  0  0  0
 16 42  1  0  0  0  0
 17 43  1  0  0  0  0
 18 44  1  0  0  0  0
 21 45  1  0  0  0  0
 21 46  1  0  0  0  0
 21 47  1  0  0  0  0
 22 48  1  0  0  0  0
 22 49  1  0  0  0  0
 23 50  1  0  0  0  0
 23 51  1  0  0  0  0
 24 52  1  0  0  0  0
 28 53  1  0  0  0  0
 29 54  1  0  0  0  0
M  END
> <clash_score>
1.23585177754165

> <docking_score>
-8.920783996582031

> <overlap_score>
0.8675584197044373

$$$$
BENZO_312_2
  -OEChem-08232013503D

 51 54  0     1  0  0  0  0  0999 V2000
    8.3510   -1.5420   24.6110 C   0  0  0  0  0  0  0  0  0  0  0  0
   10.2760   -2.3270   23.4020 C   0  0  0  0  0  0  0  0  0  0  0  0
    8.3310   -2.7170   25.3430 C   0  0  0  0  0  0  0  0  0  0  0  0
   10.2570   -3.5000   24.1350 C   0  0  0  0  0  0  0  0  0  0  0  0
   10.8633    2.6804   23.5273 C   0  0  0  0  0  0  0  0  0  0  0  0
   11.1655    4.0230   23.4669 C   0  0  0  0  0  0  0  0  0  0  0  0
    8.8035    3.6322   24.0309 C   0  0  0  0  0  0  0  0  0  0  0  0
    9.3300   -1.3350   23.6390 C   0  0  0  0  0  0  0  0  0  0  0  0
    9.4950    2.4539   23.8539 C   0  0  0  0  0  0  0  0  0  0  0  0
    9.2850   -3.7090   25.1090 C   0  0  0  0  0  0  0  0  0  0  0  0
    5.9810    0.8330   18.8060 C   0  0  0  0  0  0  0  0  0  0  0  0
    7.2210   -0.4620   20.0350 C   0  0  0  0  0  0  0  0  0  0  0  0
    4.9400    1.7060   18.5060 C   0  0  0  0  0  0  0  0  0  0  0  0
    4.0980    2.1130   19.5350 C   0  0  0  0  0  0  0  0  0  0  0  0
    4.2970    1.6690   20.8430 C   0  0  0  0  0  0  0  0  0  0  0  0
    5.3360    0.8000   21.1530 C   0  0  0  0  0  0  0  0  0  0  0  0
    8.1533   -5.5442   26.4004 C   0  0  0  0  0  0  0  0  0  0  0  0
    8.9510    0.1280   21.6880 C   0  0  0  0  0  0  0  0  0  0  0  0
    9.2263   -7.8280   26.2037 C   0  0  0  0  0  0  0  0  0  0  0  0
    8.8771    1.0813   23.9905 C   0  0  0  0  0  0  0  0  0  0  0  0
    8.5718   -6.8147   27.1254 C   0  0  0  0  0  0  0  0  0  0  0  0
    9.4200   -0.0840   22.9530 C   0  0  2  0  0  0  0  0  0  0  0  0
    6.9440    0.2550   18.0100 N   0  0  0  0  0  0  0  0  0  0  0  0
    7.6830   -0.5170   18.7600 N   0  0  0  0  0  0  0  0  0  0  0  0
    6.1600    0.3870   20.1140 N   0  0  0  0  0  0  0  0  0  0  0  0
    9.2630   -4.8903   25.8409 N   0  0  0  0  0  0  0  0  0  0  0  0
    8.0810   -0.9750   21.0820 N   0  0  0  0  0  0  0  0  0  0  0  0
    6.9823   -5.1841   26.3423 O   0  0  0  0  0  0  0  0  0  0  0  0
    9.1870    1.1500   21.0630 O   0  0  0  0  0  0  0  0  0  0  0  0
    9.8028    5.0040   23.8033 S   0  0  0  0  0  0  0  0  0  0  0  0
    7.5948   -0.7783   24.7966 H   0  0  0  0  0  0  0  0  0  0  0  0
   11.0389   -2.1844   22.6342 H   0  0  0  0  0  0  0  0  0  0  0  0
    7.5642   -2.8624   26.1050 H   0  0  0  0  0  0  0  0  0  0  0  0
   11.0137   -4.2649   23.9418 H   0  0  0  0  0  0  0  0  0  0  0  0
   11.5925    1.9010   23.3455 H   0  0  0  0  0  0  0  0  0  0  0  0
   12.1213    4.4748   23.2422 H   0  0  0  0  0  0  0  0  0  0  0  0
    7.7599    3.7576   24.2842 H   0  0  0  0  0  0  0  0  0  0  0  0
    4.7733    2.0700   17.5071 H   0  0  0  0  0  0  0  0  0  0  0  0
    3.2813    2.7836   19.2995 H   0  0  0  0  0  0  0  0  0  0  0  0
    3.6335    1.9977   21.6542 H   0  0  0  0  0  0  0  0  0  0  0  0
    5.5067    0.4537   22.1474 H   0  0  0  0  0  0  0  0  0  0  0  0
    8.5494   -8.1169   25.3929 H   0  0  0  0  0  0  0  0  0  0  0  0
    9.4976   -8.7302   26.7605 H   0  0  0  0  0  0  0  0  0  0  0  0
   10.1358   -7.4186   25.7518 H   0  0  0  0  0  0  0  0  0  0  0  0
    8.9708    0.7434   25.0308 H   0  0  0  0  0  0  0  0  0  0  0  0
    7.7972    1.1781   23.8117 H   0  0  0  0  0  0  0  0  0  0  0  0
    9.2702   -6.5441   27.9257 H   0  0  0  0  0  0  0  0  0  0  0  0
    7.6830   -7.2605   27.5867 H   0  0  0  0  0  0  0  0  0  0  0  0
   10.5743    0.2174   22.9808 H   0  0  0  0  0  0  0  0  0  0  0  0
   10.1694   -5.3468   25.9962 H   0  0  0  0  0  0  0  0  0  0  0  0
    8.1152   -1.8120   21.3518 H   0  0  0  0  0  0  0  0  0  0  0  0
  1  3  2  0  0  0  0
  1  8  1  0  0  0  0
  2  4  1  0  0  0  0
  2  8  2  0  0  0  0
  3 10  1  0  0  0  0
  4 10  2  0  0  0  0
  5  6  2  0  0  0  0
  5  9  1  0  0  0  0
  6 30  1  0  0  0  0
  7  9  2  0  0  0  0
  7 30  1  0  0  0  0
  8 22  1  0  0  0  0
  9 20  1  0  0  0  0
 10 26  1  0  0  0  0
 11 13  1  0  0  0  0
 11 23  2  0  0  0  0
 11 25  1  0  0  0  0
 12 24  2  0  0  0  0
 12 25  1  0  0  0  0
 12 27  1  0  0  0  0
 13 14  2  0  0  0  0
 14 15  1  0  0  0  0
 15 16  2  0  0  0  0
 16 25  1  0  0  0  0
 17 21  1  0  0  0  0
 17 26  1  0  0  0  0
 17 28  2  0  0  0  0
 18 22  1  0  0  0  0
 18 27  1  0  0  0  0
 18 29  2  0  0  0  0
 19 21  1  0  0  0  0
 20 22  1  6  0  0  0
 23 24  1  0  0  0  0
  1 31  1  0  0  0  0
  2 32  1  0  0  0  0
  3 33  1  0  0  0  0
  4 34  1  0  0  0  0
  5 35  1  0  0  0  0
  6 36  1  0  0  0  0
  7 37  1  0  0  0  0
 13 38  1  0  0  0  0
 14 39  1  0  0  0  0
 15 40  1  0  0  0  0
 16 41  1  0  0  0  0
 19 42  1  0  0  0  0
 19 43  1  0  0  0  0
 19 44  1  0  0  0  0
 20 45  1  0  0  0  0
 20 46  1  0  0  0  0
 21 47  1  0  0  0  0
 21 48  1  0  0  0  0
 22 49  1  0  0  0  0
 26 50  1  0  0  0  0
 27 51  1  0  0  0  0
M  END
> <clash_score>
1.23585177754165

> <docking_score>
-8.644148826599121

> <overlap_score>
0.8648198843002319

$$$$
BENZO_314_2
  -OEChem-08232013503D

 54 57  0     1  0  0  0  0  0999 V2000
    9.3211    4.8553   24.0536 C   0  0  0  0  0  0  0  0  0  0  0  0
    8.7511    3.5884   24.1784 C   0  0  0  0  0  0  0  0  0  0  0  0
    8.3510   -1.5420   24.6110 C   0  0  0  0  0  0  0  0  0  0  0  0
   10.2760   -2.3270   23.4020 C   0  0  0  0  0  0  0  0  0  0  0  0
    8.3310   -2.7170   25.3430 C   0  0  0  0  0  0  0  0  0  0  0  0
   10.2570   -3.5000   24.1350 C   0  0  0  0  0  0  0  0  0  0  0  0
   10.6349    4.9878   23.6042 C   0  0  0  0  0  0  0  0  0  0  0  0
   10.8089    2.5864   23.4046 C   0  0  0  0  0  0  0  0  0  0  0  0
    9.3300   -1.3350   23.6390 C   0  0  0  0  0  0  0  0  0  0  0  0
    9.4950    2.4539   23.8539 C   0  0  0  0  0  0  0  0  0  0  0  0
    9.2850   -3.7090   25.1090 C   0  0  0  0  0  0  0  0  0  0  0  0
   11.3788    3.8534   23.2798 C   0  0  0  0  0  0  0  0  0  0  0  0
    5.9810    0.8330   18.8060 C   0  0  0  0  0  0  0  0  0  0  0  0
    7.2210   -0.4620   20.0350 C   0  0  0  0  0  0  0  0  0  0  0  0
    4.9400    1.7060   18.5060 C   0  0  0  0  0  0  0  0  0  0  0  0
    4.0980    2.1130   19.5350 C   0  0  0  0  0  0  0  0  0  0  0  0
    4.2970    1.6690   20.8430 C   0  0  0  0  0  0  0  0  0  0  0  0
    5.3360    0.8000   21.1530 C   0  0  0  0  0  0  0  0  0  0  0  0
    8.3657   -5.2677   26.8531 C   0  0  0  0  0  0  0  0  0  0  0  0
    8.9510    0.1280   21.6880 C   0  0  0  0  0  0  0  0  0  0  0  0
    7.9616   -7.7593   26.6677 C   0  0  0  0  0  0  0  0  0  0  0  0
    8.8771    1.0813   23.9905 C   0  0  0  0  0  0  0  0  0  0  0  0
    8.6986   -6.6495   27.3958 C   0  0  0  0  0  0  0  0  0  0  0  0
    9.4200   -0.0840   22.9530 C   0  0  2  0  0  0  0  0  0  0  0  0
    6.9440    0.2550   18.0100 N   0  0  0  0  0  0  0  0  0  0  0  0
    7.6830   -0.5170   18.7600 N   0  0  0  0  0  0  0  0  0  0  0  0
    6.1600    0.3870   20.1140 N   0  0  0  0  0  0  0  0  0  0  0  0
    9.2630   -4.8903   25.8409 N   0  0  0  0  0  0  0  0  0  0  0  0
    8.0810   -0.9750   21.0820 N   0  0  0  0  0  0  0  0  0  0  0  0
    7.4224   -4.6107   27.2809 O   0  0  0  0  0  0  0  0  0  0  0  0
    9.1870    1.1500   21.0630 O   0  0  0  0  0  0  0  0  0  0  0  0
   13.0002    4.0175   22.7265 Cl  0  0  0  0  0  0  0  0  0  0  0  0
    8.7415    5.7384   24.3065 H   0  0  0  0  0  0  0  0  0  0  0  0
    7.7267    3.4945   24.5294 H   0  0  0  0  0  0  0  0  0  0  0  0
    7.5948   -0.7783   24.7966 H   0  0  0  0  0  0  0  0  0  0  0  0
   11.0389   -2.1844   22.6342 H   0  0  0  0  0  0  0  0  0  0  0  0
    7.5642   -2.8624   26.1050 H   0  0  0  0  0  0  0  0  0  0  0  0
   11.0137   -4.2649   23.9418 H   0  0  0  0  0  0  0  0  0  0  0  0
   11.0663    5.9816   23.5121 H   0  0  0  0  0  0  0  0  0  0  0  0
   11.3846    1.6989   23.1523 H   0  0  0  0  0  0  0  0  0  0  0  0
    4.7733    2.0700   17.5071 H   0  0  0  0  0  0  0  0  0  0  0  0
    3.2813    2.7836   19.2995 H   0  0  0  0  0  0  0  0  0  0  0  0
    3.6335    1.9977   21.6542 H   0  0  0  0  0  0  0  0  0  0  0  0
    5.5067    0.4537   22.1474 H   0  0  0  0  0  0  0  0  0  0  0  0
    6.8773   -7.6263   26.7426 H   0  0  0  0  0  0  0  0  0  0  0  0
    8.2173   -8.7325   27.0977 H   0  0  0  0  0  0  0  0  0  0  0  0
    8.2252   -7.7749   25.6050 H   0  0  0  0  0  0  0  0  0  0  0  0
    8.9708    0.7434   25.0308 H   0  0  0  0  0  0  0  0  0  0  0  0
    7.7972    1.1781   23.8117 H   0  0  0  0  0  0  0  0  0  0  0  0
    9.7794   -6.8076   27.3045 H   0  0  0  0  0  0  0  0  0  0  0  0
    8.4402   -6.6763   28.4606 H   0  0  0  0  0  0  0  0  0  0  0  0
   10.5743    0.2174   22.9808 H   0  0  0  0  0  0  0  0  0  0  0  0
    9.9927   -5.5774   25.6187 H   0  0  0  0  0  0  0  0  0  0  0  0
    8.1152   -1.8120   21.3518 H   0  0  0  0  0  0  0  0  0  0  0  0
  1  2  2  0  0  0  0
  1  7  1  0  0  0  0
  2 10  1  0  0  0  0
  3  5  2  0  0  0  0
  3  9  1  0  0  0  0
  4  6  1  0  0  0  0
  4  9  2  0  0  0  0
  5 11  1  0  0  0  0
  6 11  2  0  0  0  0
  7 12  2  0  0  0  0
  8 10  2  0  0  0  0
  8 12  1  0  0  0  0
  9 24  1  0  0  0  0
 10 22  1  0  0  0  0
 11 28  1  0  0  0  0
 12 32  1  0  0  0  0
 13 15  1  0  0  0  0
 13 25  2  0  0  0  0
 13 27  1  0  0  0  0
 14 26  2  0  0  0  0
 14 27  1  0  0  0  0
 14 29  1  0  0  0  0
 15 16  2  0  0  0  0
 16 17  1  0  0  0  0
 17 18  2  0  0  0  0
 18 27  1  0  0  0  0
 19 23  1  0  0  0  0
 19 28  1  0  0  0  0
 19 30  2  0  0  0  0
 20 24  1  0  0  0  0
 20 29  1  0  0  0  0
 20 31  2  0  0  0  0
 21 23  1  0  0  0  0
 22 24  1  6  0  0  0
 25 26  1  0  0  0  0
  1 33  1  0  0  0  0
  2 34  1  0  0  0  0
  3 35  1  0  0  0  0
  4 36  1  0  0  0  0
  5 37  1  0  0  0  0
  6 38  1  0  0  0  0
  7 39  1  0  0  0  0
  8 40  1  0  0  0  0
 15 41  1  0  0  0  0
 16 42  1  0  0  0  0
 17 43  1  0  0  0  0
 18 44  1  0  0  0  0
 21 45  1  0  0  0  0
 21 46  1  0  0  0  0
 21 47  1  0  0  0  0
 22 48  1  0  0  0  0
 22 49  1  0  0  0  0
 23 50  1  0  0  0  0
 23 51  1  0  0  0  0
 24 52  1  0  0  0  0
 28 53  1  0  0  0  0
 29 54  1  0  0  0  0
M  END
> <clash_score>
0.7802342650595874

> <docking_score>
-9.179880142211914

> <overlap_score>
0.8765793442726135

$$$$
BENZO_314_1
  -OEChem-08232013503D

 54 57  0     1  0  0  0  0  0999 V2000
   10.2645    4.1315   23.6906 C   0  0  0  0  0  0  0  0  0  0  0  0
   10.1177    2.7447   23.6595 C   0  0  0  0  0  0  0  0  0  0  0  0
    8.3510   -1.5420   24.6110 C   0  0  0  0  0  0  0  0  0  0  0  0
   10.2760   -2.3270   23.4020 C   0  0  0  0  0  0  0  0  0  0  0  0
    8.3310   -2.7170   25.3430 C   0  0  0  0  0  0  0  0  0  0  0  0
   10.2570   -3.5000   24.1350 C   0  0  0  0  0  0  0  0  0  0  0  0
   11.4306    4.7205   23.2018 C   0  0  0  0  0  0  0  0  0  0  0  0
   12.3032    2.5360   22.6510 C   0  0  0  0  0  0  0  0  0  0  0  0
    9.3300   -1.3350   23.6390 C   0  0  0  0  0  0  0  0  0  0  0  0
   11.1370    1.9470   23.1397 C   0  0  0  0  0  0  0  0  0  0  0  0
    9.2850   -3.7090   25.1090 C   0  0  0  0  0  0  0  0  0  0  0  0
   12.4500    3.9228   22.6820 C   0  0  0  0  0  0  0  0  0  0  0  0
    5.9810    0.8330   18.8060 C   0  0  0  0  0  0  0  0  0  0  0  0
    7.2210   -0.4620   20.0350 C   0  0  0  0  0  0  0  0  0  0  0  0
    4.9400    1.7060   18.5060 C   0  0  0  0  0  0  0  0  0  0  0  0
    4.0980    2.1130   19.5350 C   0  0  0  0  0  0  0  0  0  0  0  0
    4.2970    1.6690   20.8430 C   0  0  0  0  0  0  0  0  0  0  0  0
    5.3360    0.8000   21.1530 C   0  0  0  0  0  0  0  0  0  0  0  0
    8.3657   -5.2677   26.8531 C   0  0  0  0  0  0  0  0  0  0  0  0
    8.9510    0.1280   21.6880 C   0  0  0  0  0  0  0  0  0  0  0  0
    7.9616   -7.7593   26.6677 C   0  0  0  0  0  0  0  0  0  0  0  0
   10.9777    0.4443   23.1075 C   0  0  0  0  0  0  0  0  0  0  0  0
    8.6986   -6.6495   27.3958 C   0  0  0  0  0  0  0  0  0  0  0  0
    9.4200   -0.0840   22.9530 C   0  0  1  0  0  0  0  0  0  0  0  0
    6.9440    0.2550   18.0100 N   0  0  0  0  0  0  0  0  0  0  0  0
    7.6830   -0.5170   18.7600 N   0  0  0  0  0  0  0  0  0  0  0  0
    6.1600    0.3870   20.1140 N   0  0  0  0  0  0  0  0  0  0  0  0
    9.2630   -4.8903   25.8409 N   0  0  0  0  0  0  0  0  0  0  0  0
    8.0810   -0.9750   21.0820 N   0  0  0  0  0  0  0  0  0  0  0  0
    7.4224   -4.6107   27.2809 O   0  0  0  0  0  0  0  0  0  0  0  0
    9.1870    1.1500   21.0630 O   0  0  0  0  0  0  0  0  0  0  0  0
   13.8890    4.6500   22.0802 Cl  0  0  0  0  0  0  0  0  0  0  0  0
    9.4706    4.7523   24.0955 H   0  0  0  0  0  0  0  0  0  0  0  0
    9.2057    2.2944   24.0426 H   0  0  0  0  0  0  0  0  0  0  0  0
    7.5948   -0.7783   24.7966 H   0  0  0  0  0  0  0  0  0  0  0  0
   11.0389   -2.1844   22.6342 H   0  0  0  0  0  0  0  0  0  0  0  0
    7.5642   -2.8624   26.1050 H   0  0  0  0  0  0  0  0  0  0  0  0
   11.0137   -4.2649   23.9418 H   0  0  0  0  0  0  0  0  0  0  0  0
   11.5314    5.8026   23.2326 H   0  0  0  0  0  0  0  0  0  0  0  0
   13.0949    1.9096   22.2463 H   0  0  0  0  0  0  0  0  0  0  0  0
    4.7733    2.0700   17.5071 H   0  0  0  0  0  0  0  0  0  0  0  0
    3.2813    2.7836   19.2995 H   0  0  0  0  0  0  0  0  0  0  0  0
    3.6335    1.9977   21.6542 H   0  0  0  0  0  0  0  0  0  0  0  0
    5.5067    0.4537   22.1474 H   0  0  0  0  0  0  0  0  0  0  0  0
    6.8773   -7.6263   26.7426 H   0  0  0  0  0  0  0  0  0  0  0  0
    8.2173   -8.7325   27.0977 H   0  0  0  0  0  0  0  0  0  0  0  0
    8.2252   -7.7749   25.6050 H   0  0  0  0  0  0  0  0  0  0  0  0
   11.5363    0.0387   22.2539 H   0  0  0  0  0  0  0  0  0  0  0  0
   11.4704    0.0336   23.9998 H   0  0  0  0  0  0  0  0  0  0  0  0
    9.7794   -6.8076   27.3045 H   0  0  0  0  0  0  0  0  0  0  0  0
    8.4402   -6.6763   28.4606 H   0  0  0  0  0  0  0  0  0  0  0  0
    8.9182    0.7194   23.6789 H   0  0  0  0  0  0  0  0  0  0  0  0
    9.9927   -5.5774   25.6187 H   0  0  0  0  0  0  0  0  0  0  0  0
    8.1152   -1.8120   21.3518 H   0  0  0  0  0  0  0  0  0  0  0  0
  1  2  2  0  0  0  0
  1  7  1  0  0  0  0
  2 10  1  0  0  0  0
  3  5  2  0  0  0  0
  3  9  1  0  0  0  0
  4  6  1  0  0  0  0
  4  9  2  0  0  0  0
  5 11  1  0  0  0  0
  6 11  2  0  0  0  0
  7 12  2  0  0  0  0
  8 10  2  0  0  0  0
  8 12  1  0  0  0  0
  9 24  1  0  0  0  0
 10 22  1  0  0  0  0
 11 28  1  0  0  0  0
 12 32  1  0  0  0  0
 13 15  1  0  0  0  0
 13 25  2  0  0  0  0
 13 27  1  0  0  0  0
 14 26  2  0  0  0  0
 14 27  1  0  0  0  0
 14 29  1  0  0  0  0
 15 16  2  0  0  0  0
 16 17  1  0  0  0  0
 17 18  2  0  0  0  0
 18 27  1  0  0  0  0
 19 23  1  0  0  0  0
 19 28  1  0  0  0  0
 19 30  2  0  0  0  0
 20 24  1  0  0  0  0
 20 29  1  0  0  0  0
 20 31  2  0  0  0  0
 21 23  1  0  0  0  0
 22 24  1  1  0  0  0
 25 26  1  0  0  0  0
  1 33  1  0  0  0  0
  2 34  1  0  0  0  0
  3 35  1  0  0  0  0
  4 36  1  0  0  0  0
  5 37  1  0  0  0  0
  6 38  1  0  0  0  0
  7 39  1  0  0  0  0
  8 40  1  0  0  0  0
 15 41  1  0  0  0  0
 16 42  1  0  0  0  0
 17 43  1  0  0  0  0
 18 44  1  0  0  0  0
 21 45  1  0  0  0  0
 21 46  1  0  0  0  0
 21 47  1  0  0  0  0
 22 48  1  0  0  0  0
 22 49  1  0  0  0  0
 23 50  1  0  0  0  0
 23 51  1  0  0  0  0
 24 52  1  0  0  0  0
 28 53  1  0  0  0  0
 29 54  1  0  0  0  0
M  END
> <clash_score>
0.7802342650595874

> <docking_score>
-10.187744140625

> <overlap_score>
0.9408099055290222

$$$$
BENZO_317_1
  -OEChem-08232013503D

 59 63  0     1  0  0  0  0  0999 V2000
   10.6051    5.0072   23.5714 C   0  0  0  0  0  0  0  0  0  0  0  0
    9.2931    4.8685   24.0240 C   0  0  0  0  0  0  0  0  0  0  0  0
   11.3561    3.8759   23.2522 C   0  0  0  0  0  0  0  0  0  0  0  0
    8.7320    3.5984   24.1576 C   0  0  0  0  0  0  0  0  0  0  0  0
   10.7950    2.6058   23.3857 C   0  0  0  0  0  0  0  0  0  0  0  0
    8.3510   -1.5420   24.6110 C   0  0  0  0  0  0  0  0  0  0  0  0
   10.2760   -2.3270   23.4020 C   0  0  0  0  0  0  0  0  0  0  0  0
    8.3310   -2.7170   25.3430 C   0  0  0  0  0  0  0  0  0  0  0  0
   10.2570   -3.5000   24.1350 C   0  0  0  0  0  0  0  0  0  0  0  0
    9.4829    2.4671   23.8384 C   0  0  0  0  0  0  0  0  0  0  0  0
    9.3300   -1.3350   23.6390 C   0  0  0  0  0  0  0  0  0  0  0  0
    9.2850   -3.7090   25.1090 C   0  0  0  0  0  0  0  0  0  0  0  0
    5.9810    0.8330   18.8060 C   0  0  0  0  0  0  0  0  0  0  0  0
    7.2210   -0.4620   20.0350 C   0  0  0  0  0  0  0  0  0  0  0  0
    4.9400    1.7060   18.5060 C   0  0  0  0  0  0  0  0  0  0  0  0
    4.0980    2.1130   19.5350 C   0  0  0  0  0  0  0  0  0  0  0  0
    4.2970    1.6690   20.8430 C   0  0  0  0  0  0  0  0  0  0  0  0
    5.3360    0.8000   21.1530 C   0  0  0  0  0  0  0  0  0  0  0  0
    8.9510    0.1280   21.6880 C   0  0  0  0  0  0  0  0  0  0  0  0
    7.3211   -6.8875   26.5227 C   0  0  0  0  0  0  0  0  0  0  0  0
    7.3523   -5.5278   27.2244 C   0  0  0  0  0  0  0  0  0  0  0  0
    7.9422   -6.8107   25.1261 C   0  0  0  0  0  0  0  0  0  0  0  0
    8.7641   -4.9418   27.2163 C   0  0  0  0  0  0  0  0  0  0  0  0
    9.3411   -6.1879   25.1670 C   0  0  0  0  0  0  0  0  0  0  0  0
    8.8757    1.0906   23.9831 C   0  0  0  0  0  0  0  0  0  0  0  0
    9.4200   -0.0840   22.9530 C   0  0  1  0  0  0  0  0  0  0  0  0
    6.9440    0.2550   18.0100 N   0  0  0  0  0  0  0  0  0  0  0  0
    7.6830   -0.5170   18.7600 N   0  0  0  0  0  0  0  0  0  0  0  0
    6.1600    0.3870   20.1140 N   0  0  0  0  0  0  0  0  0  0  0  0
    9.2641   -4.8861   25.8398 N   0  0  0  0  0  0  0  0  0  0  0  0
    8.0810   -0.9750   21.0820 N   0  0  0  0  0  0  0  0  0  0  0  0
    9.1870    1.1500   21.0630 O   0  0  0  0  0  0  0  0  0  0  0  0
   11.0414    5.9962   23.4662 H   0  0  0  0  0  0  0  0  0  0  0  0
    8.7078    5.7493   24.2716 H   0  0  0  0  0  0  0  0  0  0  0  0
   12.3772    3.9835   22.8987 H   0  0  0  0  0  0  0  0  0  0  0  0
    7.7090    3.4999   24.5112 H   0  0  0  0  0  0  0  0  0  0  0  0
   11.3876    1.7301   23.1348 H   0  0  0  0  0  0  0  0  0  0  0  0
    7.5957   -0.7779   24.7973 H   0  0  0  0  0  0  0  0  0  0  0  0
   11.0384   -2.1852   22.6338 H   0  0  0  0  0  0  0  0  0  0  0  0
    7.5634   -2.8637   26.1037 H   0  0  0  0  0  0  0  0  0  0  0  0
   11.0139   -4.2645   23.9419 H   0  0  0  0  0  0  0  0  0  0  0  0
    4.7733    2.0700   17.5071 H   0  0  0  0  0  0  0  0  0  0  0  0
    3.2813    2.7836   19.2995 H   0  0  0  0  0  0  0  0  0  0  0  0
    3.6335    1.9977   21.6542 H   0  0  0  0  0  0  0  0  0  0  0  0
    5.5067    0.4537   22.1474 H   0  0  0  0  0  0  0  0  0  0  0  0
    7.8644   -7.6283   27.1289 H   0  0  0  0  0  0  0  0  0  0  0  0
    6.2830   -7.2423   26.4478 H   0  0  0  0  0  0  0  0  0  0  0  0
    6.6663   -4.8405   26.7221 H   0  0  0  0  0  0  0  0  0  0  0  0
    7.0062   -5.6400   28.2540 H   0  0  0  0  0  0  0  0  0  0  0  0
    8.0018   -7.8160   24.6962 H   0  0  0  0  0  0  0  0  0  0  0  0
    7.2963   -6.2182   24.4678 H   0  0  0  0  0  0  0  0  0  0  0  0
    8.7322   -3.9404   27.6532 H   0  0  0  0  0  0  0  0  0  0  0  0
    9.4260   -5.5610   27.8283 H   0  0  0  0  0  0  0  0  0  0  0  0
   10.0249   -6.8474   25.7028 H   0  0  0  0  0  0  0  0  0  0  0  0
    9.7015   -6.0700   24.1446 H   0  0  0  0  0  0  0  0  0  0  0  0
    8.9639    0.7632   25.0273 H   0  0  0  0  0  0  0  0  0  0  0  0
    7.7964    1.1765   23.7949 H   0  0  0  0  0  0  0  0  0  0  0  0
   10.5749    0.2253   22.9765 H   0  0  0  0  0  0  0  0  0  0  0  0
    8.1354   -1.7990   21.3694 H   0  0  0  0  0  0  0  0  0  0  0  0
  1  2  1  0  0  0  0
  1  3  2  0  0  0  0
  2  4  2  0  0  0  0
  3  5  1  0  0  0  0
  4 10  1  0  0  0  0
  5 10  2  0  0  0  0
  6  8  2  0  0  0  0
  6 11  1  0  0  0  0
  7  9  1  0  0  0  0
  7 11  2  0  0  0  0
  8 12  1  0  0  0  0
  9 12  2  0  0  0  0
 10 25  1  0  0  0  0
 11 26  1  0  0  0  0
 12 30  1  0  0  0  0
 13 15  1  0  0  0  0
 13 27  2  0  0  0  0
 13 29  1  0  0  0  0
 14 28  2  0  0  0  0
 14 29  1  0  0  0  0
 14 31  1  0  0  0  0
 15 16  2  0  0  0  0
 16 17  1  0  0  0  0
 17 18  2  0  0  0  0
 18 29  1  0  0  0  0
 19 26  1  1  0  0  0
 19 31  1  0  0  0  0
 19 32  2  0  0  0  0
 20 21  1  0  0  0  0
 20 22  1  0  0  0  0
 21 23  1  0  0  0  0
 22 24  1  0  0  0  0
 23 30  1  0  0  0  0
 24 30  1  0  0  0  0
 25 26  1  0  0  0  0
 27 28  1  0  0  0  0
  1 33  1  0  0  0  0
  2 34  1  0  0  0  0
  3 35  1  0  0  0  0
  4 36  1  0  0  0  0
  5 37  1  0  0  0  0
  6 38  1  0  0  0  0
  7 39  1  0  0  0  0
  8 40  1  0  0  0  0
  9 41  1  0  0  0  0
 15 42  1  0  0  0  0
 16 43  1  0  0  0  0
 17 44  1  0  0  0  0
 18 45  1  0  0  0  0
 20 46  1  0  0  0  0
 20 47  1  0  0  0  0
 21 48  1  0  0  0  0
 21 49  1  0  0  0  0
 22 50  1  0  0  0  0
 22 51  1  0  0  0  0
 23 52  1  0  0  0  0
 23 53  1  0  0  0  0
 24 54  1  0  0  0  0
 24 55  1  0  0  0  0
 25 56  1  0  0  0  0
 25 57  1  0  0  0  0
 26 58  1  0  0  0  0
 31 59  1  0  0  0  0
M  END
> <clash_score>
0

> <docking_score>
-9.498176574707031

> <overlap_score>
0.8739050030708313

$$$$
BENZO_315_1
  -OEChem-08232013503D

 54 57  0     1  0  0  0  0  0999 V2000
    8.3510   -1.5420   24.6110 C   0  0  0  0  0  0  0  0  0  0  0  0
   10.2760   -2.3270   23.4020 C   0  0  0  0  0  0  0  0  0  0  0  0
    8.3310   -2.7170   25.3430 C   0  0  0  0  0  0  0  0  0  0  0  0
   10.2570   -3.5000   24.1350 C   0  0  0  0  0  0  0  0  0  0  0  0
   10.2235    2.9023   23.6242 C   0  0  0  0  0  0  0  0  0  0  0  0
   12.2091    2.6870   22.7043 C   0  0  0  0  0  0  0  0  0  0  0  0
    9.3300   -1.3350   23.6390 C   0  0  0  0  0  0  0  0  0  0  0  0
   11.1370    1.9470   23.1397 C   0  0  0  0  0  0  0  0  0  0  0  0
    9.2850   -3.7090   25.1090 C   0  0  0  0  0  0  0  0  0  0  0  0
    5.9810    0.8330   18.8060 C   0  0  0  0  0  0  0  0  0  0  0  0
    7.2210   -0.4620   20.0350 C   0  0  0  0  0  0  0  0  0  0  0  0
    4.9400    1.7060   18.5060 C   0  0  0  0  0  0  0  0  0  0  0  0
    4.0980    2.1130   19.5350 C   0  0  0  0  0  0  0  0  0  0  0  0
    4.2970    1.6690   20.8430 C   0  0  0  0  0  0  0  0  0  0  0  0
    5.3360    0.8000   21.1530 C   0  0  0  0  0  0  0  0  0  0  0  0
    8.1533   -5.5442   26.4004 C   0  0  0  0  0  0  0  0  0  0  0  0
    8.9510    0.1280   21.6880 C   0  0  0  0  0  0  0  0  0  0  0  0
    9.2263   -7.8280   26.2037 C   0  0  0  0  0  0  0  0  0  0  0  0
   12.7031    5.1430   22.6555 C   0  0  0  0  0  0  0  0  0  0  0  0
   10.9777    0.4443   23.1075 C   0  0  0  0  0  0  0  0  0  0  0  0
    8.5718   -6.8147   27.1254 C   0  0  0  0  0  0  0  0  0  0  0  0
    9.4200   -0.0840   22.9530 C   0  0  1  0  0  0  0  0  0  0  0  0
   10.6758    4.1536   23.5079 N   0  0  0  0  0  0  0  0  0  0  0  0
    6.9440    0.2550   18.0100 N   0  0  0  0  0  0  0  0  0  0  0  0
    7.6830   -0.5170   18.7600 N   0  0  0  0  0  0  0  0  0  0  0  0
   11.8853    3.9898   22.9453 N   0  0  0  0  0  0  0  0  0  0  0  0
    6.1600    0.3870   20.1140 N   0  0  0  0  0  0  0  0  0  0  0  0
    9.2630   -4.8903   25.8409 N   0  0  0  0  0  0  0  0  0  0  0  0
    8.0810   -0.9750   21.0820 N   0  0  0  0  0  0  0  0  0  0  0  0
    6.9823   -5.1841   26.3423 O   0  0  0  0  0  0  0  0  0  0  0  0
    9.1870    1.1500   21.0630 O   0  0  0  0  0  0  0  0  0  0  0  0
    7.5948   -0.7783   24.7966 H   0  0  0  0  0  0  0  0  0  0  0  0
   11.0389   -2.1844   22.6342 H   0  0  0  0  0  0  0  0  0  0  0  0
    7.5642   -2.8624   26.1050 H   0  0  0  0  0  0  0  0  0  0  0  0
   11.0137   -4.2649   23.9418 H   0  0  0  0  0  0  0  0  0  0  0  0
    9.2470    2.7411   24.0585 H   0  0  0  0  0  0  0  0  0  0  0  0
   13.1519    2.4044   22.2557 H   0  0  0  0  0  0  0  0  0  0  0  0
    4.7733    2.0700   17.5071 H   0  0  0  0  0  0  0  0  0  0  0  0
    3.2813    2.7836   19.2995 H   0  0  0  0  0  0  0  0  0  0  0  0
    3.6335    1.9977   21.6542 H   0  0  0  0  0  0  0  0  0  0  0  0
    5.5067    0.4537   22.1474 H   0  0  0  0  0  0  0  0  0  0  0  0
    8.5494   -8.1169   25.3929 H   0  0  0  0  0  0  0  0  0  0  0  0
    9.4976   -8.7302   26.7605 H   0  0  0  0  0  0  0  0  0  0  0  0
   10.1358   -7.4186   25.7518 H   0  0  0  0  0  0  0  0  0  0  0  0
   12.4640    5.4803   21.6435 H   0  0  0  0  0  0  0  0  0  0  0  0
   12.4902    5.9323   23.3818 H   0  0  0  0  0  0  0  0  0  0  0  0
   13.7583    4.8651   22.7277 H   0  0  0  0  0  0  0  0  0  0  0  0
   11.5363    0.0387   22.2539 H   0  0  0  0  0  0  0  0  0  0  0  0
   11.4704    0.0336   23.9998 H   0  0  0  0  0  0  0  0  0  0  0  0
    9.2702   -6.5441   27.9257 H   0  0  0  0  0  0  0  0  0  0  0  0
    7.6830   -7.2605   27.5867 H   0  0  0  0  0  0  0  0  0  0  0  0
    8.9182    0.7194   23.6789 H   0  0  0  0  0  0  0  0  0  0  0  0
   10.1694   -5.3468   25.9962 H   0  0  0  0  0  0  0  0  0  0  0  0
    8.1152   -1.8120   21.3518 H   0  0  0  0  0  0  0  0  0  0  0  0
  1  3  2  0  0  0  0
  1  7  1  0  0  0  0
  2  4  1  0  0  0  0
  2  7  2  0  0  0  0
  3  9  1  0  0  0  0
  4  9  2  0  0  0  0
  5  8  1  0  0  0  0
  5 23  2  0  0  0  0
  6  8  2  0  0  0  0
  6 26  1  0  0  0  0
  7 22  1  0  0  0  0
  8 20  1  0  0  0  0
  9 28  1  0  0  0  0
 10 12  1  0  0  0  0
 10 24  2  0  0  0  0
 10 27  1  0  0  0  0
 11 25  2  0  0  0  0
 11 27  1  0  0  0  0
 11 29  1  0  0  0  0
 12 13  2  0  0  0  0
 13 14  1  0  0  0  0
 14 15  2  0  0  0  0
 15 27  1  0  0  0  0
 16 21  1  0  0  0  0
 16 28  1  0  0  0  0
 16 30  2  0  0  0  0
 17 22  1  0  0  0  0
 17 29  1  0  0  0  0
 17 31  2  0  0  0  0
 18 21  1  0  0  0  0
 19 26  1  0  0  0  0
 20 22  1  1  0  0  0
 23 26  1  0  0  0  0
 24 25  1  0  0  0  0
  1 32  1  0  0  0  0
  2 33  1  0  0  0  0
  3 34  1  0  0  0  0
  4 35  1  0  0  0  0
  5 36  1  0  0  0  0
  6 37  1  0  0  0  0
 12 38  1  0  0  0  0
 13 39  1  0  0  0  0
 14 40  1  0  0  0  0
 15 41  1  0  0  0  0
 18 42  1  0  0  0  0
 18 43  1  0  0  0  0
 18 44  1  0  0  0  0
 19 45  1  0  0  0  0
 19 46  1  0  0  0  0
 19 47  1  0  0  0  0
 20 48  1  0  0  0  0
 20 49  1  0  0  0  0
 21 50  1  0  0  0  0
 21 51  1  0  0  0  0
 22 52  1  0  0  0  0
 28 53  1  0  0  0  0
 29 54  1  0  0  0  0
M  END
> <clash_score>
1.23585177754165

> <docking_score>
-9.991888999938965

> <overlap_score>
0.9333745837211609

$$$$
BENZO_315_2
  -OEChem-08232013503D

 54 57  0     1  0  0  0  0  0999 V2000
    8.3510   -1.5420   24.6110 C   0  0  0  0  0  0  0  0  0  0  0  0
   10.2760   -2.3270   23.4020 C   0  0  0  0  0  0  0  0  0  0  0  0
    8.3310   -2.7170   25.3430 C   0  0  0  0  0  0  0  0  0  0  0  0
   10.2570   -3.5000   24.1350 C   0  0  0  0  0  0  0  0  0  0  0  0
   10.7939    2.7770   23.4177 C   0  0  0  0  0  0  0  0  0  0  0  0
    8.9123    3.6676   24.1257 C   0  0  0  0  0  0  0  0  0  0  0  0
    9.3300   -1.3350   23.6390 C   0  0  0  0  0  0  0  0  0  0  0  0
    9.4950    2.4539   23.8539 C   0  0  0  0  0  0  0  0  0  0  0  0
    9.2850   -3.7090   25.1090 C   0  0  0  0  0  0  0  0  0  0  0  0
    5.9810    0.8330   18.8060 C   0  0  0  0  0  0  0  0  0  0  0  0
    7.2210   -0.4620   20.0350 C   0  0  0  0  0  0  0  0  0  0  0  0
    4.9400    1.7060   18.5060 C   0  0  0  0  0  0  0  0  0  0  0  0
    4.0980    2.1130   19.5350 C   0  0  0  0  0  0  0  0  0  0  0  0
    4.2970    1.6690   20.8430 C   0  0  0  0  0  0  0  0  0  0  0  0
    5.3360    0.8000   21.1530 C   0  0  0  0  0  0  0  0  0  0  0  0
    8.1533   -5.5442   26.4004 C   0  0  0  0  0  0  0  0  0  0  0  0
    8.9510    0.1280   21.6880 C   0  0  0  0  0  0  0  0  0  0  0  0
    9.2263   -7.8280   26.2037 C   0  0  0  0  0  0  0  0  0  0  0  0
    9.7138    6.0371   23.9775 C   0  0  0  0  0  0  0  0  0  0  0  0
    8.8771    1.0813   23.9905 C   0  0  0  0  0  0  0  0  0  0  0  0
    8.5718   -6.8147   27.1254 C   0  0  0  0  0  0  0  0  0  0  0  0
    9.4200   -0.0840   22.9530 C   0  0  2  0  0  0  0  0  0  0  0  0
   11.0232    4.0928   23.4110 N   0  0  0  0  0  0  0  0  0  0  0  0
    6.9440    0.2550   18.0100 N   0  0  0  0  0  0  0  0  0  0  0  0
    7.6830   -0.5170   18.7600 N   0  0  0  0  0  0  0  0  0  0  0  0
    9.8605    4.6073   23.8463 N   0  0  0  0  0  0  0  0  0  0  0  0
    6.1600    0.3870   20.1140 N   0  0  0  0  0  0  0  0  0  0  0  0
    9.2630   -4.8903   25.8409 N   0  0  0  0  0  0  0  0  0  0  0  0
    8.0810   -0.9750   21.0820 N   0  0  0  0  0  0  0  0  0  0  0  0
    6.9823   -5.1841   26.3423 O   0  0  0  0  0  0  0  0  0  0  0  0
    9.1870    1.1500   21.0630 O   0  0  0  0  0  0  0  0  0  0  0  0
    7.5948   -0.7783   24.7966 H   0  0  0  0  0  0  0  0  0  0  0  0
   11.0389   -2.1844   22.6342 H   0  0  0  0  0  0  0  0  0  0  0  0
    7.5642   -2.8624   26.1050 H   0  0  0  0  0  0  0  0  0  0  0  0
   11.0137   -4.2649   23.9418 H   0  0  0  0  0  0  0  0  0  0  0  0
   11.5843    2.1103   23.1031 H   0  0  0  0  0  0  0  0  0  0  0  0
    7.9277    3.9360   24.4839 H   0  0  0  0  0  0  0  0  0  0  0  0
    4.7733    2.0700   17.5071 H   0  0  0  0  0  0  0  0  0  0  0  0
    3.2813    2.7836   19.2995 H   0  0  0  0  0  0  0  0  0  0  0  0
    3.6335    1.9977   21.6542 H   0  0  0  0  0  0  0  0  0  0  0  0
    5.5067    0.4537   22.1474 H   0  0  0  0  0  0  0  0  0  0  0  0
    8.5494   -8.1169   25.3929 H   0  0  0  0  0  0  0  0  0  0  0  0
    9.4976   -8.7302   26.7605 H   0  0  0  0  0  0  0  0  0  0  0  0
   10.1358   -7.4186   25.7518 H   0  0  0  0  0  0  0  0  0  0  0  0
   10.0225    6.3165   24.9883 H   0  0  0  0  0  0  0  0  0  0  0  0
   10.3410    6.5371   23.2342 H   0  0  0  0  0  0  0  0  0  0  0  0
    8.6688    6.3103   23.8064 H   0  0  0  0  0  0  0  0  0  0  0  0
    8.9708    0.7434   25.0308 H   0  0  0  0  0  0  0  0  0  0  0  0
    7.7972    1.1781   23.8117 H   0  0  0  0  0  0  0  0  0  0  0  0
    9.2702   -6.5441   27.9257 H   0  0  0  0  0  0  0  0  0  0  0  0
    7.6830   -7.2605   27.5867 H   0  0  0  0  0  0  0  0  0  0  0  0
   10.5743    0.2174   22.9808 H   0  0  0  0  0  0  0  0  0  0  0  0
   10.1694   -5.3468   25.9962 H   0  0  0  0  0  0  0  0  0  0  0  0
    8.1152   -1.8120   21.3518 H   0  0  0  0  0  0  0  0  0  0  0  0
  1  3  2  0  0  0  0
  1  7  1  0  0  0  0
  2  4  1  0  0  0  0
  2  7  2  0  0  0  0
  3  9  1  0  0  0  0
  4  9  2  0  0  0  0
  5  8  1  0  0  0  0
  5 23  2  0  0  0  0
  6  8  2  0  0  0  0
  6 26  1  0  0  0  0
  7 22  1  0  0  0  0
  8 20  1  0  0  0  0
  9 28  1  0  0  0  0
 10 12  1  0  0  0  0
 10 24  2  0  0  0  0
 10 27  1  0  0  0  0
 11 25  2  0  0  0  0
 11 27  1  0  0  0  0
 11 29  1  0  0  0  0
 12 13  2  0  0  0  0
 13 14  1  0  0  0  0
 14 15  2  0  0  0  0
 15 27  1  0  0  0  0
 16 21  1  0  0  0  0
 16 28  1  0  0  0  0
 16 30  2  0  0  0  0
 17 22  1  0  0  0  0
 17 29  1  0  0  0  0
 17 31  2  0  0  0  0
 18 21  1  0  0  0  0
 19 26  1  0  0  0  0
 20 22  1  6  0  0  0
 23 26  1  0  0  0  0
 24 25  1  0  0  0  0
  1 32  1  0  0  0  0
  2 33  1  0  0  0  0
  3 34  1  0  0  0  0
  4 35  1  0  0  0  0
  5 36  1  0  0  0  0
  6 37  1  0  0  0  0
 12 38  1  0  0  0  0
 13 39  1  0  0  0  0
 14 40  1  0  0  0  0
 15 41  1  0  0  0  0
 18 42  1  0  0  0  0
 18 43  1  0  0  0  0
 18 44  1  0  0  0  0
 19 45  1  0  0  0  0
 19 46  1  0  0  0  0
 19 47  1  0  0  0  0
 20 48  1  0  0  0  0
 20 49  1  0  0  0  0
 21 50  1  0  0  0  0
 21 51  1  0  0  0  0
 22 52  1  0  0  0  0
 28 53  1  0  0  0  0
 29 54  1  0  0  0  0
M  END
> <clash_score>
1.23585177754165

> <docking_score>
-8.796195030212402

> <overlap_score>
0.8603261709213257

$$$$
BENZO_317_2
  -OEChem-08232013503D

 59 63  0     1  0  0  0  0  0999 V2000
   11.4307    4.7297   23.1589 C   0  0  0  0  0  0  0  0  0  0  0  0
   12.4501    3.9274   22.6463 C   0  0  0  0  0  0  0  0  0  0  0  0
   10.2648    4.1449   23.6533 C   0  0  0  0  0  0  0  0  0  0  0  0
   12.3036    2.5404   22.6279 C   0  0  0  0  0  0  0  0  0  0  0  0
   10.1183    2.7579   23.6349 C   0  0  0  0  0  0  0  0  0  0  0  0
    8.3510   -1.5420   24.6110 C   0  0  0  0  0  0  0  0  0  0  0  0
   10.2760   -2.3270   23.4020 C   0  0  0  0  0  0  0  0  0  0  0  0
    8.3310   -2.7170   25.3430 C   0  0  0  0  0  0  0  0  0  0  0  0
   10.2570   -3.5000   24.1350 C   0  0  0  0  0  0  0  0  0  0  0  0
   11.1377    1.9556   23.1223 C   0  0  0  0  0  0  0  0  0  0  0  0
    9.3300   -1.3350   23.6390 C   0  0  0  0  0  0  0  0  0  0  0  0
    9.2850   -3.7090   25.1090 C   0  0  0  0  0  0  0  0  0  0  0  0
    5.9810    0.8330   18.8060 C   0  0  0  0  0  0  0  0  0  0  0  0
    7.2210   -0.4620   20.0350 C   0  0  0  0  0  0  0  0  0  0  0  0
    4.9400    1.7060   18.5060 C   0  0  0  0  0  0  0  0  0  0  0  0
    4.0980    2.1130   19.5350 C   0  0  0  0  0  0  0  0  0  0  0  0
    4.2970    1.6690   20.8430 C   0  0  0  0  0  0  0  0  0  0  0  0
    5.3360    0.8000   21.1530 C   0  0  0  0  0  0  0  0  0  0  0  0
    8.9510    0.1280   21.6880 C   0  0  0  0  0  0  0  0  0  0  0  0
    7.3211   -6.8875   26.5227 C   0  0  0  0  0  0  0  0  0  0  0  0
    7.3523   -5.5278   27.2244 C   0  0  0  0  0  0  0  0  0  0  0  0
    7.9422   -6.8107   25.1261 C   0  0  0  0  0  0  0  0  0  0  0  0
    8.7641   -4.9418   27.2163 C   0  0  0  0  0  0  0  0  0  0  0  0
    9.3411   -6.1879   25.1670 C   0  0  0  0  0  0  0  0  0  0  0  0
   10.9782    0.4528   23.1025 C   0  0  0  0  0  0  0  0  0  0  0  0
    9.4200   -0.0840   22.9530 C   0  0  2  0  0  0  0  0  0  0  0  0
    6.9440    0.2550   18.0100 N   0  0  0  0  0  0  0  0  0  0  0  0
    7.6830   -0.5170   18.7600 N   0  0  0  0  0  0  0  0  0  0  0  0
    6.1600    0.3870   20.1140 N   0  0  0  0  0  0  0  0  0  0  0  0
    9.2641   -4.8861   25.8398 N   0  0  0  0  0  0  0  0  0  0  0  0
    8.0810   -0.9750   21.0820 N   0  0  0  0  0  0  0  0  0  0  0  0
    9.1870    1.1500   21.0630 O   0  0  0  0  0  0  0  0  0  0  0  0
   11.5455    5.8096   23.1743 H   0  0  0  0  0  0  0  0  0  0  0  0
   13.3585    4.3825   22.2623 H   0  0  0  0  0  0  0  0  0  0  0  0
    9.4714    4.7691   24.0535 H   0  0  0  0  0  0  0  0  0  0  0  0
   13.1031    1.9232   22.2264 H   0  0  0  0  0  0  0  0  0  0  0  0
    9.2064    2.3111   24.0221 H   0  0  0  0  0  0  0  0  0  0  0  0
    7.5957   -0.7779   24.7973 H   0  0  0  0  0  0  0  0  0  0  0  0
   11.0384   -2.1852   22.6338 H   0  0  0  0  0  0  0  0  0  0  0  0
    7.5634   -2.8637   26.1037 H   0  0  0  0  0  0  0  0  0  0  0  0
   11.0139   -4.2645   23.9419 H   0  0  0  0  0  0  0  0  0  0  0  0
    4.7733    2.0700   17.5071 H   0  0  0  0  0  0  0  0  0  0  0  0
    3.2813    2.7836   19.2995 H   0  0  0  0  0  0  0  0  0  0  0  0
    3.6335    1.9977   21.6542 H   0  0  0  0  0  0  0  0  0  0  0  0
    5.5067    0.4537   22.1474 H   0  0  0  0  0  0  0  0  0  0  0  0
    7.8644   -7.6283   27.1289 H   0  0  0  0  0  0  0  0  0  0  0  0
    6.2830   -7.2423   26.4478 H   0  0  0  0  0  0  0  0  0  0  0  0
    6.6663   -4.8405   26.7221 H   0  0  0  0  0  0  0  0  0  0  0  0
    7.0062   -5.6400   28.2540 H   0  0  0  0  0  0  0  0  0  0  0  0
    8.0018   -7.8160   24.6962 H   0  0  0  0  0  0  0  0  0  0  0  0
    7.2963   -6.2182   24.4678 H   0  0  0  0  0  0  0  0  0  0  0  0
    8.7322   -3.9404   27.6532 H   0  0  0  0  0  0  0  0  0  0  0  0
    9.4260   -5.5610   27.8283 H   0  0  0  0  0  0  0  0  0  0  0  0
   10.0249   -6.8474   25.7028 H   0  0  0  0  0  0  0  0  0  0  0  0
    9.7015   -6.0700   24.1446 H   0  0  0  0  0  0  0  0  0  0  0  0
   11.5374    0.0399   22.2527 H   0  0  0  0  0  0  0  0  0  0  0  0
   11.4700    0.0494   23.9985 H   0  0  0  0  0  0  0  0  0  0  0  0
    8.9187    0.7273   23.6745 H   0  0  0  0  0  0  0  0  0  0  0  0
    8.1354   -1.7990   21.3694 H   0  0  0  0  0  0  0  0  0  0  0  0
  1  2  1  0  0  0  0
  1  3  2  0  0  0  0
  2  4  2  0  0  0  0
  3  5  1  0  0  0  0
  4 10  1  0  0  0  0
  5 10  2  0  0  0  0
  6  8  2  0  0  0  0
  6 11  1  0  0  0  0
  7  9  1  0  0  0  0
  7 11  2  0  0  0  0
  8 12  1  0  0  0  0
  9 12  2  0  0  0  0
 10 25  1  0  0  0  0
 11 26  1  0  0  0  0
 12 30  1  0  0  0  0
 13 15  1  0  0  0  0
 13 27  2  0  0  0  0
 13 29  1  0  0  0  0
 14 28  2  0  0  0  0
 14 29  1  0  0  0  0
 14 31  1  0  0  0  0
 15 16  2  0  0  0  0
 16 17  1  0  0  0  0
 17 18  2  0  0  0  0
 18 29  1  0  0  0  0
 19 26  1  6  0  0  0
 19 31  1  0  0  0  0
 19 32  2  0  0  0  0
 20 21  1  0  0  0  0
 20 22  1  0  0  0  0
 21 23  1  0  0  0  0
 22 24  1  0  0  0  0
 23 30  1  0  0  0  0
 24 30  1  0  0  0  0
 25 26  1  0  0  0  0
 27 28  1  0  0  0  0
  1 33  1  0  0  0  0
  2 34  1  0  0  0  0
  3 35  1  0  0  0  0
  4 36  1  0  0  0  0
  5 37  1  0  0  0  0
  6 38  1  0  0  0  0
  7 39  1  0  0  0  0
  8 40  1  0  0  0  0
  9 41  1  0  0  0  0
 15 42  1  0  0  0  0
 16 43  1  0  0  0  0
 17 44  1  0  0  0  0
 18 45  1  0  0  0  0
 20 46  1  0  0  0  0
 20 47  1  0  0  0  0
 21 48  1  0  0  0  0
 21 49  1  0  0  0  0
 22 50  1  0  0  0  0
 22 51  1  0  0  0  0
 23 52  1  0  0  0  0
 23 53  1  0  0  0  0
 24 54  1  0  0  0  0
 24 55  1  0  0  0  0
 25 56  1  0  0  0  0
 25 57  1  0  0  0  0
 26 58  1  0  0  0  0
 31 59  1  0  0  0  0
M  END
> <clash_score>
0

> <docking_score>
-10.604120254516602

> <overlap_score>
0.9455479383468628

$$$$
BENZO_316_1
  -OEChem-08232013503D

 56 60  0     1  0  0  0  0  0999 V2000
    8.3510   -1.5420   24.6110 C   0  0  0  0  0  0  0  0  0  0  0  0
   10.2760   -2.3270   23.4020 C   0  0  0  0  0  0  0  0  0  0  0  0
    8.3310   -2.7170   25.3430 C   0  0  0  0  0  0  0  0  0  0  0  0
   10.2570   -3.5000   24.1350 C   0  0  0  0  0  0  0  0  0  0  0  0
   10.8518    2.7022   23.5205 C   0  0  0  0  0  0  0  0  0  0  0  0
   11.1431    4.0467   23.4499 C   0  0  0  0  0  0  0  0  0  0  0  0
    8.7801    3.6410   23.9989 C   0  0  0  0  0  0  0  0  0  0  0  0
    9.3300   -1.3350   23.6390 C   0  0  0  0  0  0  0  0  0  0  0  0
    9.4829    2.4671   23.8384 C   0  0  0  0  0  0  0  0  0  0  0  0
    9.2850   -3.7090   25.1090 C   0  0  0  0  0  0  0  0  0  0  0  0
    5.9810    0.8330   18.8060 C   0  0  0  0  0  0  0  0  0  0  0  0
    7.2210   -0.4620   20.0350 C   0  0  0  0  0  0  0  0  0  0  0  0
    4.9400    1.7060   18.5060 C   0  0  0  0  0  0  0  0  0  0  0  0
    4.0980    2.1130   19.5350 C   0  0  0  0  0  0  0  0  0  0  0  0
    4.2970    1.6690   20.8430 C   0  0  0  0  0  0  0  0  0  0  0  0
    5.3360    0.8000   21.1530 C   0  0  0  0  0  0  0  0  0  0  0  0
    8.9510    0.1280   21.6880 C   0  0  0  0  0  0  0  0  0  0  0  0
    7.3211   -6.8875   26.5227 C   0  0  0  0  0  0  0  0  0  0  0  0
    7.3523   -5.5278   27.2244 C   0  0  0  0  0  0  0  0  0  0  0  0
    7.9422   -6.8107   25.1261 C   0  0  0  0  0  0  0  0  0  0  0  0
    8.7641   -4.9418   27.2163 C   0  0  0  0  0  0  0  0  0  0  0  0
    9.3411   -6.1879   25.1670 C   0  0  0  0  0  0  0  0  0  0  0  0
    8.8757    1.0906   23.9831 C   0  0  0  0  0  0  0  0  0  0  0  0
    9.4200   -0.0840   22.9530 C   0  0  1  0  0  0  0  0  0  0  0  0
    6.9440    0.2550   18.0100 N   0  0  0  0  0  0  0  0  0  0  0  0
    7.6830   -0.5170   18.7600 N   0  0  0  0  0  0  0  0  0  0  0  0
    6.1600    0.3870   20.1140 N   0  0  0  0  0  0  0  0  0  0  0  0
    9.2641   -4.8861   25.8398 N   0  0  0  0  0  0  0  0  0  0  0  0
    8.0810   -0.9750   21.0820 N   0  0  0  0  0  0  0  0  0  0  0  0
    9.1870    1.1500   21.0630 O   0  0  0  0  0  0  0  0  0  0  0  0
    9.7695    5.0191   23.7662 S   0  0  0  0  0  0  0  0  0  0  0  0
    7.5957   -0.7779   24.7973 H   0  0  0  0  0  0  0  0  0  0  0  0
   11.0384   -2.1852   22.6338 H   0  0  0  0  0  0  0  0  0  0  0  0
    7.5634   -2.8637   26.1037 H   0  0  0  0  0  0  0  0  0  0  0  0
   11.0139   -4.2645   23.9419 H   0  0  0  0  0  0  0  0  0  0  0  0
   11.5890    1.9274   23.3518 H   0  0  0  0  0  0  0  0  0  0  0  0
   12.0968    4.5045   23.2284 H   0  0  0  0  0  0  0  0  0  0  0  0
    7.7334    3.7598   24.2427 H   0  0  0  0  0  0  0  0  0  0  0  0
    4.7733    2.0700   17.5071 H   0  0  0  0  0  0  0  0  0  0  0  0
    3.2813    2.7836   19.2995 H   0  0  0  0  0  0  0  0  0  0  0  0
    3.6335    1.9977   21.6542 H   0  0  0  0  0  0  0  0  0  0  0  0
    5.5067    0.4537   22.1474 H   0  0  0  0  0  0  0  0  0  0  0  0
    7.8644   -7.6283   27.1289 H   0  0  0  0  0  0  0  0  0  0  0  0
    6.2830   -7.2423   26.4478 H   0  0  0  0  0  0  0  0  0  0  0  0
    6.6663   -4.8405   26.7221 H   0  0  0  0  0  0  0  0  0  0  0  0
    7.0062   -5.6400   28.2540 H   0  0  0  0  0  0  0  0  0  0  0  0
    8.0018   -7.8160   24.6962 H   0  0  0  0  0  0  0  0  0  0  0  0
    7.2963   -6.2182   24.4678 H   0  0  0  0  0  0  0  0  0  0  0  0
    8.7322   -3.9404   27.6532 H   0  0  0  0  0  0  0  0  0  0  0  0
    9.4260   -5.5610   27.8283 H   0  0  0  0  0  0  0  0  0  0  0  0
   10.0249   -6.8474   25.7028 H   0  0  0  0  0  0  0  0  0  0  0  0
    9.7015   -6.0700   24.1446 H   0  0  0  0  0  0  0  0  0  0  0  0
    8.9639    0.7632   25.0273 H   0  0  0  0  0  0  0  0  0  0  0  0
    7.7964    1.1765   23.7949 H   0  0  0  0  0  0  0  0  0  0  0  0
   10.5749    0.2253   22.9765 H   0  0  0  0  0  0  0  0  0  0  0  0
    8.1354   -1.7990   21.3694 H   0  0  0  0  0  0  0  0  0  0  0  0
  1  3  2  0  0  0  0
  1  8  1  0  0  0  0
  2  4  1  0  0  0  0
  2  8  2  0  0  0  0
  3 10  1  0  0  0  0
  4 10  2  0  0  0  0
  5  6  2  0  0  0  0
  5  9  1  0  0  0  0
  6 31  1  0  0  0  0
  7  9  2  0  0  0  0
  7 31  1  0  0  0  0
  8 24  1  0  0  0  0
  9 23  1  0  0  0  0
 10 28  1  0  0  0  0
 11 13  1  0  0  0  0
 11 25  2  0  0  0  0
 11 27  1  0  0  0  0
 12 26  2  0  0  0  0
 12 27  1  0  0  0  0
 12 29  1  0  0  0  0
 13 14  2  0  0  0  0
 14 15  1  0  0  0  0
 15 16  2  0  0  0  0
 16 27  1  0  0  0  0
 17 24  1  1  0  0  0
 17 29  1  0  0  0  0
 17 30  2  0  0  0  0
 18 19  1  0  0  0  0
 18 20  1  0  0  0  0
 19 21  1  0  0  0  0
 20 22  1  0  0  0  0
 21 28  1  0  0  0  0
 22 28  1  0  0  0  0
 23 24  1  0  0  0  0
 25 26  1  0  0  0  0
  1 32  1  0  0  0  0
  2 33  1  0  0  0  0
  3 34  1  0  0  0  0
  4 35  1  0  0  0  0
  5 36  1  0  0  0  0
  6 37  1  0  0  0  0
  7 38  1  0  0  0  0
 13 39  1  0  0  0  0
 14 40  1  0  0  0  0
 15 41  1  0  0  0  0
 16 42  1  0  0  0  0
 18 43  1  0  0  0  0
 18 44  1  0  0  0  0
 19 45  1  0  0  0  0
 19 46  1  0  0  0  0
 20 47  1  0  0  0  0
 20 48  1  0  0  0  0
 21 49  1  0  0  0  0
 21 50  1  0  0  0  0
 22 51  1  0  0  0  0
 22 52  1  0  0  0  0
 23 53  1  0  0  0  0
 23 54  1  0  0  0  0
 24 55  1  0  0  0  0
 29 56  1  0  0  0  0
M  END
> <clash_score>
0

> <docking_score>
-9.217626571655273

> <overlap_score>
0.8712783455848694

$$$$
BENZO_316_2
  -OEChem-08232013503D

 56 60  0     1  0  0  0  0  0999 V2000
    8.3510   -1.5420   24.6110 C   0  0  0  0  0  0  0  0  0  0  0  0
   10.2760   -2.3270   23.4020 C   0  0  0  0  0  0  0  0  0  0  0  0
    8.3310   -2.7170   25.3430 C   0  0  0  0  0  0  0  0  0  0  0  0
   10.2570   -3.5000   24.1350 C   0  0  0  0  0  0  0  0  0  0  0  0
   11.9035    2.6860   22.1682 C   0  0  0  0  0  0  0  0  0  0  0  0
   11.8836    4.0408   22.4165 C   0  0  0  0  0  0  0  0  0  0  0  0
   10.5617    2.7801   24.0637 C   0  0  0  0  0  0  0  0  0  0  0  0
    9.3300   -1.3350   23.6390 C   0  0  0  0  0  0  0  0  0  0  0  0
   11.1377    1.9556   23.1223 C   0  0  0  0  0  0  0  0  0  0  0  0
    9.2850   -3.7090   25.1090 C   0  0  0  0  0  0  0  0  0  0  0  0
    5.9810    0.8330   18.8060 C   0  0  0  0  0  0  0  0  0  0  0  0
    7.2210   -0.4620   20.0350 C   0  0  0  0  0  0  0  0  0  0  0  0
    4.9400    1.7060   18.5060 C   0  0  0  0  0  0  0  0  0  0  0  0
    4.0980    2.1130   19.5350 C   0  0  0  0  0  0  0  0  0  0  0  0
    4.2970    1.6690   20.8430 C   0  0  0  0  0  0  0  0  0  0  0  0
    5.3360    0.8000   21.1530 C   0  0  0  0  0  0  0  0  0  0  0  0
    8.9510    0.1280   21.6880 C   0  0  0  0  0  0  0  0  0  0  0  0
    7.3211   -6.8875   26.5227 C   0  0  0  0  0  0  0  0  0  0  0  0
    7.3523   -5.5278   27.2244 C   0  0  0  0  0  0  0  0  0  0  0  0
    7.9422   -6.8107   25.1261 C   0  0  0  0  0  0  0  0  0  0  0  0
    8.7641   -4.9418   27.2163 C   0  0  0  0  0  0  0  0  0  0  0  0
    9.3411   -6.1879   25.1670 C   0  0  0  0  0  0  0  0  0  0  0  0
   10.9782    0.4528   23.1025 C   0  0  0  0  0  0  0  0  0  0  0  0
    9.4200   -0.0840   22.9530 C   0  0  2  0  0  0  0  0  0  0  0  0
    6.9440    0.2550   18.0100 N   0  0  0  0  0  0  0  0  0  0  0  0
    7.6830   -0.5170   18.7600 N   0  0  0  0  0  0  0  0  0  0  0  0
    6.1600    0.3870   20.1140 N   0  0  0  0  0  0  0  0  0  0  0  0
    9.2641   -4.8861   25.8398 N   0  0  0  0  0  0  0  0  0  0  0  0
    8.0810   -0.9750   21.0820 N   0  0  0  0  0  0  0  0  0  0  0  0
    9.1870    1.1500   21.0630 O   0  0  0  0  0  0  0  0  0  0  0  0
   10.9445    4.4275   23.7953 S   0  0  0  0  0  0  0  0  0  0  0  0
    7.5957   -0.7779   24.7973 H   0  0  0  0  0  0  0  0  0  0  0  0
   11.0384   -2.1852   22.6338 H   0  0  0  0  0  0  0  0  0  0  0  0
    7.5634   -2.8637   26.1037 H   0  0  0  0  0  0  0  0  0  0  0  0
   11.0139   -4.2645   23.9419 H   0  0  0  0  0  0  0  0  0  0  0  0
   12.4436    2.2440   21.3404 H   0  0  0  0  0  0  0  0  0  0  0  0
   12.3760    4.8219   21.8548 H   0  0  0  0  0  0  0  0  0  0  0  0
    9.9349    2.4981   24.8983 H   0  0  0  0  0  0  0  0  0  0  0  0
    4.7733    2.0700   17.5071 H   0  0  0  0  0  0  0  0  0  0  0  0
    3.2813    2.7836   19.2995 H   0  0  0  0  0  0  0  0  0  0  0  0
    3.6335    1.9977   21.6542 H   0  0  0  0  0  0  0  0  0  0  0  0
    5.5067    0.4537   22.1474 H   0  0  0  0  0  0  0  0  0  0  0  0
    7.8644   -7.6283   27.1289 H   0  0  0  0  0  0  0  0  0  0  0  0
    6.2830   -7.2423   26.4478 H   0  0  0  0  0  0  0  0  0  0  0  0
    6.6663   -4.8405   26.7221 H   0  0  0  0  0  0  0  0  0  0  0  0
    7.0062   -5.6400   28.2540 H   0  0  0  0  0  0  0  0  0  0  0  0
    8.0018   -7.8160   24.6962 H   0  0  0  0  0  0  0  0  0  0  0  0
    7.2963   -6.2182   24.4678 H   0  0  0  0  0  0  0  0  0  0  0  0
    8.7322   -3.9404   27.6532 H   0  0  0  0  0  0  0  0  0  0  0  0
    9.4260   -5.5610   27.8283 H   0  0  0  0  0  0  0  0  0  0  0  0
   10.0249   -6.8474   25.7028 H   0  0  0  0  0  0  0  0  0  0  0  0
    9.7015   -6.0700   24.1446 H   0  0  0  0  0  0  0  0  0  0  0  0
   11.5374    0.0399   22.2527 H   0  0  0  0  0  0  0  0  0  0  0  0
   11.4700    0.0494   23.9985 H   0  0  0  0  0  0  0  0  0  0  0  0
    8.9187    0.7273   23.6745 H   0  0  0  0  0  0  0  0  0  0  0  0
    8.1354   -1.7990   21.3694 H   0  0  0  0  0  0  0  0  0  0  0  0
  1  3  2  0  0  0  0
  1  8  1  0  0  0  0
  2  4  1  0  0  0  0
  2  8  2  0  0  0  0
  3 10  1  0  0  0  0
  4 10  2  0  0  0  0
  5  6  2  0  0  0  0
  5  9  1  0  0  0  0
  6 31  1  0  0  0  0
  7  9  2  0  0  0  0
  7 31  1  0  0  0  0
  8 24  1  0  0  0  0
  9 23  1  0  0  0  0
 10 28  1  0  0  0  0
 11 13  1  0  0  0  0
 11 25  2  0  0  0  0
 11 27  1  0  0  0  0
 12 26  2  0  0  0  0
 12 27  1  0  0  0  0
 12 29  1  0  0  0  0
 13 14  2  0  0  0  0
 14 15  1  0  0  0  0
 15 16  2  0  0  0  0
 16 27  1  0  0  0  0
 17 24  1  6  0  0  0
 17 29  1  0  0  0  0
 17 30  2  0  0  0  0
 18 19  1  0  0  0  0
 18 20  1  0  0  0  0
 19 21  1  0  0  0  0
 20 22  1  0  0  0  0
 21 28  1  0  0  0  0
 22 28  1  0  0  0  0
 23 24  1  0  0  0  0
 25 26  1  0  0  0  0
  1 32  1  0  0  0  0
  2 33  1  0  0  0  0
  3 34  1  0  0  0  0
  4 35  1  0  0  0  0
  5 36  1  0  0  0  0
  6 37  1  0  0  0  0
  7 38  1  0  0  0  0
 13 39  1  0  0  0  0
 14 40  1  0  0  0  0
 15 41  1  0  0  0  0
 16 42  1  0  0  0  0
 18 43  1  0  0  0  0
 18 44  1  0  0  0  0
 19 45  1  0  0  0  0
 19 46  1  0  0  0  0
 20 47  1  0  0  0  0
 20 48  1  0  0  0  0
 21 49  1  0  0  0  0
 21 50  1  0  0  0  0
 22 51  1  0  0  0  0
 22 52  1  0  0  0  0
 23 53  1  0  0  0  0
 23 54  1  0  0  0  0
 24 55  1  0  0  0  0
 29 56  1  0  0  0  0
M  END
> <clash_score>
0

> <docking_score>
-9.16683578491211

> <overlap_score>
0.9346765875816345

$$$$
BENZO_321_1
  -OEChem-08232013503D

 47 50  0     1  0  0  0  0  0999 V2000
   11.4296    4.7207   23.1993 C   0  0  0  0  0  0  0  0  0  0  0  0
   12.4494    3.9228   22.6806 C   0  0  0  0  0  0  0  0  0  0  0  0
   10.2636    4.1317   23.6883 C   0  0  0  0  0  0  0  0  0  0  0  0
   12.3031    2.5360   22.6508 C   0  0  0  0  0  0  0  0  0  0  0  0
   10.1173    2.7449   23.6585 C   0  0  0  0  0  0  0  0  0  0  0  0
    8.3310   -2.7170   25.3430 C   0  0  0  0  0  0  0  0  0  0  0  0
   10.2570   -3.5000   24.1350 C   0  0  0  0  0  0  0  0  0  0  0  0
    8.3510   -1.5420   24.6110 C   0  0  0  0  0  0  0  0  0  0  0  0
   10.2760   -2.3270   23.4020 C   0  0  0  0  0  0  0  0  0  0  0  0
    9.2850   -3.7090   25.1090 C   0  0  0  0  0  0  0  0  0  0  0  0
   11.1370    1.9470   23.1397 C   0  0  0  0  0  0  0  0  0  0  0  0
    9.3300   -1.3350   23.6390 C   0  0  0  0  0  0  0  0  0  0  0  0
    5.9810    0.8330   18.8060 C   0  0  0  0  0  0  0  0  0  0  0  0
    7.2210   -0.4620   20.0350 C   0  0  0  0  0  0  0  0  0  0  0  0
    4.9400    1.7060   18.5060 C   0  0  0  0  0  0  0  0  0  0  0  0
    4.0980    2.1130   19.5350 C   0  0  0  0  0  0  0  0  0  0  0  0
    4.2970    1.6690   20.8430 C   0  0  0  0  0  0  0  0  0  0  0  0
    5.3360    0.8000   21.1530 C   0  0  0  0  0  0  0  0  0  0  0  0
    8.9510    0.1280   21.6880 C   0  0  0  0  0  0  0  0  0  0  0  0
    9.2618   -4.9724   25.8910 C   0  0  0  0  0  0  0  0  0  0  0  0
   10.9777    0.4443   23.1075 C   0  0  0  0  0  0  0  0  0  0  0  0
    9.4200   -0.0840   22.9530 C   0  0  1  0  0  0  0  0  0  0  0  0
    6.9440    0.2550   18.0100 N   0  0  0  0  0  0  0  0  0  0  0  0
    7.6830   -0.5170   18.7600 N   0  0  0  0  0  0  0  0  0  0  0  0
    6.1600    0.3870   20.1140 N   0  0  0  0  0  0  0  0  0  0  0  0
    8.0810   -0.9750   21.0820 N   0  0  0  0  0  0  0  0  0  0  0  0
    9.1870    1.1500   21.0630 O   0  0  0  0  0  0  0  0  0  0  0  0
   11.5443    5.8005   23.2237 H   0  0  0  0  0  0  0  0  0  0  0  0
   13.3579    4.3812   22.3008 H   0  0  0  0  0  0  0  0  0  0  0  0
    9.4699    4.7525   24.0932 H   0  0  0  0  0  0  0  0  0  0  0  0
   13.1028    1.9222   22.2446 H   0  0  0  0  0  0  0  0  0  0  0  0
    9.2052    2.2948   24.0415 H   0  0  0  0  0  0  0  0  0  0  0  0
    7.5655   -2.8644   26.1055 H   0  0  0  0  0  0  0  0  0  0  0  0
   11.0125   -4.2662   23.9435 H   0  0  0  0  0  0  0  0  0  0  0  0
    7.5953   -0.7782   24.7971 H   0  0  0  0  0  0  0  0  0  0  0  0
   11.0394   -2.1837   22.6349 H   0  0  0  0  0  0  0  0  0  0  0  0
    4.7733    2.0700   17.5071 H   0  0  0  0  0  0  0  0  0  0  0  0
    3.2813    2.7836   19.2995 H   0  0  0  0  0  0  0  0  0  0  0  0
    3.6335    1.9977   21.6542 H   0  0  0  0  0  0  0  0  0  0  0  0
    5.5067    0.4537   22.1474 H   0  0  0  0  0  0  0  0  0  0  0  0
    8.6408   -5.7227   25.3864 H   0  0  0  0  0  0  0  0  0  0  0  0
   10.2726   -5.3829   26.0135 H   0  0  0  0  0  0  0  0  0  0  0  0
    8.8606   -4.8102   26.9000 H   0  0  0  0  0  0  0  0  0  0  0  0
   11.5363    0.0387   22.2539 H   0  0  0  0  0  0  0  0  0  0  0  0
   11.4704    0.0336   23.9998 H   0  0  0  0  0  0  0  0  0  0  0  0
    8.9182    0.7194   23.6789 H   0  0  0  0  0  0  0  0  0  0  0  0
    8.1152   -1.8120   21.3518 H   0  0  0  0  0  0  0  0  0  0  0  0
  1  2  1  0  0  0  0
  1  3  2  0  0  0  0
  2  4  2  0  0  0  0
  3  5  1  0  0  0  0
  4 11  1  0  0  0  0
  5 11  2  0  0  0  0
  6  8  2  0  0  0  0
  6 10  1  0  0  0  0
  7  9  1  0  0  0  0
  7 10  2  0  0  0  0
  8 12  1  0  0  0  0
  9 12  2  0  0  0  0
 10 20  1  0  0  0  0
 11 21  1  0  0  0  0
 12 22  1  0  0  0  0
 13 15  1  0  0  0  0
 13 23  2  0  0  0  0
 13 25  1  0  0  0  0
 14 24  2  0  0  0  0
 14 25  1  0  0  0  0
 14 26  1  0  0  0  0
 15 16  2  0  0  0  0
 16 17  1  0  0  0  0
 17 18  2  0  0  0  0
 18 25  1  0  0  0  0
 19 22  1  0  0  0  0
 19 26  1  0  0  0  0
 19 27  2  0  0  0  0
 21 22  1  1  0  0  0
 23 24  1  0  0  0  0
  1 28  1  0  0  0  0
  2 29  1  0  0  0  0
  3 30  1  0  0  0  0
  4 31  1  0  0  0  0
  5 32  1  0  0  0  0
  6 33  1  0  0  0  0
  7 34  1  0  0  0  0
  8 35  1  0  0  0  0
  9 36  1  0  0  0  0
 15 37  1  0  0  0  0
 16 38  1  0  0  0  0
 17 39  1  0  0  0  0
 18 40  1  0  0  0  0
 20 41  1  0  0  0  0
 20 42  1  0  0  0  0
 20 43  1  0  0  0  0
 21 44  1  0  0  0  0
 21 45  1  0  0  0  0
 22 46  1  0  0  0  0
 26 47  1  0  0  0  0
M  END
> <clash_score>
0

> <docking_score>
-11.606164932250977

> <overlap_score>
0.9015265107154846

$$$$
BENZO_320_1
  -OEChem-08232013503D

 44 47  0     1  0  0  0  0  0999 V2000
    8.3310   -2.7170   25.3430 C   0  0  0  0  0  0  0  0  0  0  0  0
   10.2570   -3.5000   24.1350 C   0  0  0  0  0  0  0  0  0  0  0  0
    8.3510   -1.5420   24.6110 C   0  0  0  0  0  0  0  0  0  0  0  0
   10.2760   -2.3270   23.4020 C   0  0  0  0  0  0  0  0  0  0  0  0
   11.9019    2.6854   22.1912 C   0  0  0  0  0  0  0  0  0  0  0  0
   11.8820    4.0381   22.4508 C   0  0  0  0  0  0  0  0  0  0  0  0
   10.5617    2.7635   24.0885 C   0  0  0  0  0  0  0  0  0  0  0  0
    9.2850   -3.7090   25.1090 C   0  0  0  0  0  0  0  0  0  0  0  0
    9.3300   -1.3350   23.6390 C   0  0  0  0  0  0  0  0  0  0  0  0
   11.1370    1.9470   23.1397 C   0  0  0  0  0  0  0  0  0  0  0  0
    5.9810    0.8330   18.8060 C   0  0  0  0  0  0  0  0  0  0  0  0
    7.2210   -0.4620   20.0350 C   0  0  0  0  0  0  0  0  0  0  0  0
    4.9400    1.7060   18.5060 C   0  0  0  0  0  0  0  0  0  0  0  0
    4.0980    2.1130   19.5350 C   0  0  0  0  0  0  0  0  0  0  0  0
    4.2970    1.6690   20.8430 C   0  0  0  0  0  0  0  0  0  0  0  0
    5.3360    0.8000   21.1530 C   0  0  0  0  0  0  0  0  0  0  0  0
    8.9510    0.1280   21.6880 C   0  0  0  0  0  0  0  0  0  0  0  0
    9.2618   -4.9724   25.8910 C   0  0  0  0  0  0  0  0  0  0  0  0
   10.9777    0.4443   23.1075 C   0  0  0  0  0  0  0  0  0  0  0  0
    9.4200   -0.0840   22.9530 C   0  0  1  0  0  0  0  0  0  0  0  0
    6.9440    0.2550   18.0100 N   0  0  0  0  0  0  0  0  0  0  0  0
    7.6830   -0.5170   18.7600 N   0  0  0  0  0  0  0  0  0  0  0  0
    6.1600    0.3870   20.1140 N   0  0  0  0  0  0  0  0  0  0  0  0
    8.0810   -0.9750   21.0820 N   0  0  0  0  0  0  0  0  0  0  0  0
    9.1870    1.1500   21.0630 O   0  0  0  0  0  0  0  0  0  0  0  0
   10.9440    4.4131   23.8336 S   0  0  0  0  0  0  0  0  0  0  0  0
    7.5655   -2.8644   26.1055 H   0  0  0  0  0  0  0  0  0  0  0  0
   11.0125   -4.2662   23.9435 H   0  0  0  0  0  0  0  0  0  0  0  0
    7.5953   -0.7782   24.7971 H   0  0  0  0  0  0  0  0  0  0  0  0
   11.0394   -2.1837   22.6349 H   0  0  0  0  0  0  0  0  0  0  0  0
   12.4414    2.2505   21.3593 H   0  0  0  0  0  0  0  0  0  0  0  0
   12.3738    4.8240   21.8953 H   0  0  0  0  0  0  0  0  0  0  0  0
    9.9357    2.4743   24.9213 H   0  0  0  0  0  0  0  0  0  0  0  0
    4.7733    2.0700   17.5071 H   0  0  0  0  0  0  0  0  0  0  0  0
    3.2813    2.7836   19.2995 H   0  0  0  0  0  0  0  0  0  0  0  0
    3.6335    1.9977   21.6542 H   0  0  0  0  0  0  0  0  0  0  0  0
    5.5067    0.4537   22.1474 H   0  0  0  0  0  0  0  0  0  0  0  0
    8.6408   -5.7227   25.3864 H   0  0  0  0  0  0  0  0  0  0  0  0
   10.2726   -5.3829   26.0135 H   0  0  0  0  0  0  0  0  0  0  0  0
    8.8606   -4.8102   26.9000 H   0  0  0  0  0  0  0  0  0  0  0  0
   11.5363    0.0386   22.2539 H   0  0  0  0  0  0  0  0  0  0  0  0
   11.4704    0.0336   23.9998 H   0  0  0  0  0  0  0  0  0  0  0  0
    8.9182    0.7194   23.6789 H   0  0  0  0  0  0  0  0  0  0  0  0
    8.1152   -1.8120   21.3518 H   0  0  0  0  0  0  0  0  0  0  0  0
  1  3  2  0  0  0  0
  1  8  1  0  0  0  0
  2  4  1  0  0  0  0
  2  8  2  0  0  0  0
  3  9  1  0  0  0  0
  4  9  2  0  0  0  0
  5  6  2  0  0  0  0
  5 10  1  0  0  0  0
  6 26  1  0  0  0  0
  7 10  2  0  0  0  0
  7 26  1  0  0  0  0
  8 18  1  0  0  0  0
  9 20  1  0  0  0  0
 10 19  1  0  0  0  0
 11 13  1  0  0  0  0
 11 21  2  0  0  0  0
 11 23  1  0  0  0  0
 12 22  2  0  0  0  0
 12 23  1  0  0  0  0
 12 24  1  0  0  0  0
 13 14  2  0  0  0  0
 14 15  1  0  0  0  0
 15 16  2  0  0  0  0
 16 23  1  0  0  0  0
 17 20  1  0  0  0  0
 17 24  1  0  0  0  0
 17 25  2  0  0  0  0
 19 20  1  1  0  0  0
 21 22  1  0  0  0  0
  1 27  1  0  0  0  0
  2 28  1  0  0  0  0
  3 29  1  0  0  0  0
  4 30  1  0  0  0  0
  5 31  1  0  0  0  0
  6 32  1  0  0  0  0
  7 33  1  0  0  0  0
 13 34  1  0  0  0  0
 14 35  1  0  0  0  0
 15 36  1  0  0  0  0
 16 37  1  0  0  0  0
 18 38  1  0  0  0  0
 18 39  1  0  0  0  0
 18 40  1  0  0  0  0
 19 41  1  0  0  0  0
 19 42  1  0  0  0  0
 20 43  1  0  0  0  0
 24 44  1  0  0  0  0
M  END
> <clash_score>
0

> <docking_score>
-10.147344589233398

> <overlap_score>
0.890483558177948

$$$$
BENZO_320_2
  -OEChem-08232013503D

 44 47  0     1  0  0  0  0  0999 V2000
    8.3310   -2.7170   25.3430 C   0  0  0  0  0  0  0  0  0  0  0  0
   10.2570   -3.5000   24.1350 C   0  0  0  0  0  0  0  0  0  0  0  0
    8.3510   -1.5420   24.6110 C   0  0  0  0  0  0  0  0  0  0  0  0
   10.2760   -2.3270   23.4020 C   0  0  0  0  0  0  0  0  0  0  0  0
   10.8633    2.6804   23.5273 C   0  0  0  0  0  0  0  0  0  0  0  0
   11.1655    4.0230   23.4669 C   0  0  0  0  0  0  0  0  0  0  0  0
    8.8035    3.6322   24.0309 C   0  0  0  0  0  0  0  0  0  0  0  0
    9.2850   -3.7090   25.1090 C   0  0  0  0  0  0  0  0  0  0  0  0
    9.3300   -1.3350   23.6390 C   0  0  0  0  0  0  0  0  0  0  0  0
    9.4950    2.4539   23.8539 C   0  0  0  0  0  0  0  0  0  0  0  0
    5.9810    0.8330   18.8060 C   0  0  0  0  0  0  0  0  0  0  0  0
    7.2210   -0.4620   20.0350 C   0  0  0  0  0  0  0  0  0  0  0  0
    4.9400    1.7060   18.5060 C   0  0  0  0  0  0  0  0  0  0  0  0
    4.0980    2.1130   19.5350 C   0  0  0  0  0  0  0  0  0  0  0  0
    4.2970    1.6690   20.8430 C   0  0  0  0  0  0  0  0  0  0  0  0
    5.3360    0.8000   21.1530 C   0  0  0  0  0  0  0  0  0  0  0  0
    8.9510    0.1280   21.6880 C   0  0  0  0  0  0  0  0  0  0  0  0
    9.2618   -4.9724   25.8910 C   0  0  0  0  0  0  0  0  0  0  0  0
    8.8771    1.0813   23.9905 C   0  0  0  0  0  0  0  0  0  0  0  0
    9.4200   -0.0840   22.9530 C   0  0  2  0  0  0  0  0  0  0  0  0
    6.9440    0.2550   18.0100 N   0  0  0  0  0  0  0  0  0  0  0  0
    7.6830   -0.5170   18.7600 N   0  0  0  0  0  0  0  0  0  0  0  0
    6.1600    0.3870   20.1140 N   0  0  0  0  0  0  0  0  0  0  0  0
    8.0810   -0.9750   21.0820 N   0  0  0  0  0  0  0  0  0  0  0  0
    9.1870    1.1500   21.0630 O   0  0  0  0  0  0  0  0  0  0  0  0
    9.8028    5.0040   23.8033 S   0  0  0  0  0  0  0  0  0  0  0  0
    7.5655   -2.8644   26.1055 H   0  0  0  0  0  0  0  0  0  0  0  0
   11.0125   -4.2662   23.9435 H   0  0  0  0  0  0  0  0  0  0  0  0
    7.5953   -0.7782   24.7971 H   0  0  0  0  0  0  0  0  0  0  0  0
   11.0394   -2.1837   22.6349 H   0  0  0  0  0  0  0  0  0  0  0  0
   11.5925    1.9010   23.3455 H   0  0  0  0  0  0  0  0  0  0  0  0
   12.1213    4.4748   23.2422 H   0  0  0  0  0  0  0  0  0  0  0  0
    7.7599    3.7576   24.2842 H   0  0  0  0  0  0  0  0  0  0  0  0
    4.7733    2.0700   17.5071 H   0  0  0  0  0  0  0  0  0  0  0  0
    3.2813    2.7836   19.2995 H   0  0  0  0  0  0  0  0  0  0  0  0
    3.6335    1.9977   21.6542 H   0  0  0  0  0  0  0  0  0  0  0  0
    5.5067    0.4537   22.1474 H   0  0  0  0  0  0  0  0  0  0  0  0
    8.6408   -5.7227   25.3864 H   0  0  0  0  0  0  0  0  0  0  0  0
   10.2726   -5.3829   26.0135 H   0  0  0  0  0  0  0  0  0  0  0  0
    8.8606   -4.8102   26.9000 H   0  0  0  0  0  0  0  0  0  0  0  0
    8.9708    0.7434   25.0308 H   0  0  0  0  0  0  0  0  0  0  0  0
    7.7972    1.1781   23.8117 H   0  0  0  0  0  0  0  0  0  0  0  0
   10.5743    0.2174   22.9808 H   0  0  0  0  0  0  0  0  0  0  0  0
    8.1152   -1.8120   21.3518 H   0  0  0  0  0  0  0  0  0  0  0  0
  1  3  2  0  0  0  0
  1  8  1  0  0  0  0
  2  4  1  0  0  0  0
  2  8  2  0  0  0  0
  3  9  1  0  0  0  0
  4  9  2  0  0  0  0
  5  6  2  0  0  0  0
  5 10  1  0  0  0  0
  6 26  1  0  0  0  0
  7 10  2  0  0  0  0
  7 26  1  0  0  0  0
  8 18  1  0  0  0  0
  9 20  1  0  0  0  0
 10 19  1  0  0  0  0
 11 13  1  0  0  0  0
 11 21  2  0  0  0  0
 11 23  1  0  0  0  0
 12 22  2  0  0  0  0
 12 23  1  0  0  0  0
 12 24  1  0  0  0  0
 13 14  2  0  0  0  0
 14 15  1  0  0  0  0
 15 16  2  0  0  0  0
 16 23  1  0  0  0  0
 17 20  1  0  0  0  0
 17 24  1  0  0  0  0
 17 25  2  0  0  0  0
 19 20  1  6  0  0  0
 21 22  1  0  0  0  0
  1 27  1  0  0  0  0
  2 28  1  0  0  0  0
  3 29  1  0  0  0  0
  4 30  1  0  0  0  0
  5 31  1  0  0  0  0
  6 32  1  0  0  0  0
  7 33  1  0  0  0  0
 13 34  1  0  0  0  0
 14 35  1  0  0  0  0
 15 36  1  0  0  0  0
 16 37  1  0  0  0  0
 18 38  1  0  0  0  0
 18 39  1  0  0  0  0
 18 40  1  0  0  0  0
 19 41  1  0  0  0  0
 19 42  1  0  0  0  0
 20 43  1  0  0  0  0
 24 44  1  0  0  0  0
M  END
> <clash_score>
0

> <docking_score>
-10.214898109436035

> <overlap_score>
0.826872706413269

$$$$
BENZO_321_2
  -OEChem-08232013503D

 47 50  0     1  0  0  0  0  0999 V2000
   10.6367    4.9868   23.6018 C   0  0  0  0  0  0  0  0  0  0  0  0
    9.3228    4.8557   24.0511 C   0  0  0  0  0  0  0  0  0  0  0  0
   11.3798    3.8515   23.2784 C   0  0  0  0  0  0  0  0  0  0  0  0
    8.7519    3.5893   24.1772 C   0  0  0  0  0  0  0  0  0  0  0  0
   10.8090    2.5851   23.4045 C   0  0  0  0  0  0  0  0  0  0  0  0
    8.3310   -2.7170   25.3430 C   0  0  0  0  0  0  0  0  0  0  0  0
   10.2570   -3.5000   24.1350 C   0  0  0  0  0  0  0  0  0  0  0  0
    8.3510   -1.5420   24.6110 C   0  0  0  0  0  0  0  0  0  0  0  0
   10.2760   -2.3270   23.4020 C   0  0  0  0  0  0  0  0  0  0  0  0
    9.2850   -3.7090   25.1090 C   0  0  0  0  0  0  0  0  0  0  0  0
    9.4950    2.4539   23.8539 C   0  0  0  0  0  0  0  0  0  0  0  0
    9.3300   -1.3350   23.6390 C   0  0  0  0  0  0  0  0  0  0  0  0
    5.9810    0.8330   18.8060 C   0  0  0  0  0  0  0  0  0  0  0  0
    7.2210   -0.4620   20.0350 C   0  0  0  0  0  0  0  0  0  0  0  0
    4.9400    1.7060   18.5060 C   0  0  0  0  0  0  0  0  0  0  0  0
    4.0980    2.1130   19.5350 C   0  0  0  0  0  0  0  0  0  0  0  0
    4.2970    1.6690   20.8430 C   0  0  0  0  0  0  0  0  0  0  0  0
    5.3360    0.8000   21.1530 C   0  0  0  0  0  0  0  0  0  0  0  0
    8.9510    0.1280   21.6880 C   0  0  0  0  0  0  0  0  0  0  0  0
    9.2618   -4.9724   25.8910 C   0  0  0  0  0  0  0  0  0  0  0  0
    8.8771    1.0813   23.9905 C   0  0  0  0  0  0  0  0  0  0  0  0
    9.4200   -0.0840   22.9530 C   0  0  2  0  0  0  0  0  0  0  0  0
    6.9440    0.2550   18.0100 N   0  0  0  0  0  0  0  0  0  0  0  0
    7.6830   -0.5170   18.7600 N   0  0  0  0  0  0  0  0  0  0  0  0
    6.1600    0.3870   20.1140 N   0  0  0  0  0  0  0  0  0  0  0  0
    8.0810   -0.9750   21.0820 N   0  0  0  0  0  0  0  0  0  0  0  0
    9.1870    1.1500   21.0630 O   0  0  0  0  0  0  0  0  0  0  0  0
   11.0806    5.9731   23.5024 H   0  0  0  0  0  0  0  0  0  0  0  0
    8.7437    5.7397   24.3019 H   0  0  0  0  0  0  0  0  0  0  0  0
   12.4025    3.9533   22.9274 H   0  0  0  0  0  0  0  0  0  0  0  0
    7.7275    3.4967   24.5283 H   0  0  0  0  0  0  0  0  0  0  0  0
   11.3955    1.7061   23.1503 H   0  0  0  0  0  0  0  0  0  0  0  0
    7.5655   -2.8644   26.1055 H   0  0  0  0  0  0  0  0  0  0  0  0
   11.0125   -4.2662   23.9435 H   0  0  0  0  0  0  0  0  0  0  0  0
    7.5953   -0.7782   24.7971 H   0  0  0  0  0  0  0  0  0  0  0  0
   11.0394   -2.1837   22.6349 H   0  0  0  0  0  0  0  0  0  0  0  0
    4.7733    2.0700   17.5071 H   0  0  0  0  0  0  0  0  0  0  0  0
    3.2813    2.7836   19.2995 H   0  0  0  0  0  0  0  0  0  0  0  0
    3.6335    1.9977   21.6542 H   0  0  0  0  0  0  0  0  0  0  0  0
    5.5067    0.4537   22.1474 H   0  0  0  0  0  0  0  0  0  0  0  0
    8.6408   -5.7227   25.3864 H   0  0  0  0  0  0  0  0  0  0  0  0
   10.2726   -5.3829   26.0135 H   0  0  0  0  0  0  0  0  0  0  0  0
    8.8606   -4.8102   26.9000 H   0  0  0  0  0  0  0  0  0  0  0  0
    8.9708    0.7434   25.0308 H   0  0  0  0  0  0  0  0  0  0  0  0
    7.7972    1.1781   23.8117 H   0  0  0  0  0  0  0  0  0  0  0  0
   10.5743    0.2174   22.9808 H   0  0  0  0  0  0  0  0  0  0  0  0
    8.1152   -1.8120   21.3518 H   0  0  0  0  0  0  0  0  0  0  0  0
  1  2  1  0  0  0  0
  1  3  2  0  0  0  0
  2  4  2  0  0  0  0
  3  5  1  0  0  0  0
  4 11  1  0  0  0  0
  5 11  2  0  0  0  0
  6  8  2  0  0  0  0
  6 10  1  0  0  0  0
  7  9  1  0  0  0  0
  7 10  2  0  0  0  0
  8 12  1  0  0  0  0
  9 12  2  0  0  0  0
 10 20  1  0  0  0  0
 11 21  1  0  0  0  0
 12 22  1  0  0  0  0
 13 15  1  0  0  0  0
 13 23  2  0  0  0  0
 13 25  1  0  0  0  0
 14 24  2  0  0  0  0
 14 25  1  0  0  0  0
 14 26  1  0  0  0  0
 15 16  2  0  0  0  0
 16 17  1  0  0  0  0
 17 18  2  0  0  0  0
 18 25  1  0  0  0  0
 19 22  1  0  0  0  0
 19 26  1  0  0  0  0
 19 27  2  0  0  0  0
 21 22  1  6  0  0  0
 23 24  1  0  0  0  0
  1 28  1  0  0  0  0
  2 29  1  0  0  0  0
  3 30  1  0  0  0  0
  4 31  1  0  0  0  0
  5 32  1  0  0  0  0
  6 33  1  0  0  0  0
  7 34  1  0  0  0  0
  8 35  1  0  0  0  0
  9 36  1  0  0  0  0
 15 37  1  0  0  0  0
 16 38  1  0  0  0  0
 17 39  1  0  0  0  0
 18 40  1  0  0  0  0
 20 41  1  0  0  0  0
 20 42  1  0  0  0  0
 20 43  1  0  0  0  0
 21 44  1  0  0  0  0
 21 45  1  0  0  0  0
 22 46  1  0  0  0  0
 26 47  1  0  0  0  0
M  END
> <clash_score>
0

> <docking_score>
-10.491531372070312

> <overlap_score>
0.8297222852706909

$$$$
BENZO_319_1
  -OEChem-08232013503D

 59 63  0     1  0  0  0  0  0999 V2000
    8.3510   -1.5420   24.6110 C   0  0  0  0  0  0  0  0  0  0  0  0
   10.2760   -2.3270   23.4020 C   0  0  0  0  0  0  0  0  0  0  0  0
    8.3310   -2.7170   25.3430 C   0  0  0  0  0  0  0  0  0  0  0  0
   10.2570   -3.5000   24.1350 C   0  0  0  0  0  0  0  0  0  0  0  0
   10.2246    2.9150   23.5993 C   0  0  0  0  0  0  0  0  0  0  0  0
   12.2096    2.6918   22.6802 C   0  0  0  0  0  0  0  0  0  0  0  0
    9.3300   -1.3350   23.6390 C   0  0  0  0  0  0  0  0  0  0  0  0
   11.1377    1.9556   23.1223 C   0  0  0  0  0  0  0  0  0  0  0  0
    9.2850   -3.7090   25.1090 C   0  0  0  0  0  0  0  0  0  0  0  0
    5.9810    0.8330   18.8060 C   0  0  0  0  0  0  0  0  0  0  0  0
    7.2210   -0.4620   20.0350 C   0  0  0  0  0  0  0  0  0  0  0  0
    4.9400    1.7060   18.5060 C   0  0  0  0  0  0  0  0  0  0  0  0
    4.0980    2.1130   19.5350 C   0  0  0  0  0  0  0  0  0  0  0  0
    4.2970    1.6690   20.8430 C   0  0  0  0  0  0  0  0  0  0  0  0
    5.3360    0.8000   21.1530 C   0  0  0  0  0  0  0  0  0  0  0  0
    8.9510    0.1280   21.6880 C   0  0  0  0  0  0  0  0  0  0  0  0
    7.3211   -6.8875   26.5227 C   0  0  0  0  0  0  0  0  0  0  0  0
    7.3523   -5.5278   27.2244 C   0  0  0  0  0  0  0  0  0  0  0  0
    7.9422   -6.8107   25.1261 C   0  0  0  0  0  0  0  0  0  0  0  0
    8.7641   -4.9418   27.2163 C   0  0  0  0  0  0  0  0  0  0  0  0
    9.3411   -6.1879   25.1670 C   0  0  0  0  0  0  0  0  0  0  0  0
   12.7040    5.1473   22.6110 C   0  0  0  0  0  0  0  0  0  0  0  0
   10.9782    0.4528   23.1025 C   0  0  0  0  0  0  0  0  0  0  0  0
    9.4200   -0.0840   22.9530 C   0  0  1  0  0  0  0  0  0  0  0  0
   10.6770    4.1653   23.4725 N   0  0  0  0  0  0  0  0  0  0  0  0
    6.9440    0.2550   18.0100 N   0  0  0  0  0  0  0  0  0  0  0  0
    7.6830   -0.5170   18.7600 N   0  0  0  0  0  0  0  0  0  0  0  0
   11.8861    3.9966   22.9107 N   0  0  0  0  0  0  0  0  0  0  0  0
    6.1600    0.3870   20.1140 N   0  0  0  0  0  0  0  0  0  0  0  0
    9.2641   -4.8861   25.8398 N   0  0  0  0  0  0  0  0  0  0  0  0
    8.0810   -0.9750   21.0820 N   0  0  0  0  0  0  0  0  0  0  0  0
    9.1870    1.1500   21.0630 O   0  0  0  0  0  0  0  0  0  0  0  0
    7.5957   -0.7779   24.7973 H   0  0  0  0  0  0  0  0  0  0  0  0
   11.0384   -2.1852   22.6338 H   0  0  0  0  0  0  0  0  0  0  0  0
    7.5634   -2.8637   26.1037 H   0  0  0  0  0  0  0  0  0  0  0  0
   11.0139   -4.2645   23.9419 H   0  0  0  0  0  0  0  0  0  0  0  0
    9.2482    2.7576   24.0354 H   0  0  0  0  0  0  0  0  0  0  0  0
   13.1522    2.4055   22.2336 H   0  0  0  0  0  0  0  0  0  0  0  0
    4.7733    2.0700   17.5071 H   0  0  0  0  0  0  0  0  0  0  0  0
    3.2813    2.7836   19.2995 H   0  0  0  0  0  0  0  0  0  0  0  0
    3.6335    1.9977   21.6542 H   0  0  0  0  0  0  0  0  0  0  0  0
    5.5067    0.4537   22.1474 H   0  0  0  0  0  0  0  0  0  0  0  0
    7.8644   -7.6283   27.1289 H   0  0  0  0  0  0  0  0  0  0  0  0
    6.2830   -7.2423   26.4478 H   0  0  0  0  0  0  0  0  0  0  0  0
    6.6663   -4.8405   26.7221 H   0  0  0  0  0  0  0  0  0  0  0  0
    7.0062   -5.6400   28.2540 H   0  0  0  0  0  0  0  0  0  0  0  0
    8.0018   -7.8160   24.6962 H   0  0  0  0  0  0  0  0  0  0  0  0
    7.2963   -6.2182   24.4678 H   0  0  0  0  0  0  0  0  0  0  0  0
    8.7322   -3.9404   27.6532 H   0  0  0  0  0  0  0  0  0  0  0  0
    9.4260   -5.5610   27.8283 H   0  0  0  0  0  0  0  0  0  0  0  0
   10.0249   -6.8474   25.7028 H   0  0  0  0  0  0  0  0  0  0  0  0
    9.7015   -6.0700   24.1446 H   0  0  0  0  0  0  0  0  0  0  0  0
   12.4645    5.4764   21.5964 H   0  0  0  0  0  0  0  0  0  0  0  0
   12.4916    5.9426   23.3309 H   0  0  0  0  0  0  0  0  0  0  0  0
   13.7592    4.8699   22.6849 H   0  0  0  0  0  0  0  0  0  0  0  0
   11.5374    0.0399   22.2527 H   0  0  0  0  0  0  0  0  0  0  0  0
   11.4700    0.0494   23.9985 H   0  0  0  0  0  0  0  0  0  0  0  0
    8.9187    0.7273   23.6745 H   0  0  0  0  0  0  0  0  0  0  0  0
    8.1354   -1.7990   21.3694 H   0  0  0  0  0  0  0  0  0  0  0  0
  1  3  2  0  0  0  0
  1  7  1  0  0  0  0
  2  4  1  0  0  0  0
  2  7  2  0  0  0  0
  3  9  1  0  0  0  0
  4  9  2  0  0  0  0
  5  8  1  0  0  0  0
  5 25  2  0  0  0  0
  6  8  2  0  0  0  0
  6 28  1  0  0  0  0
  7 24  1  0  0  0  0
  8 23  1  0  0  0  0
  9 30  1  0  0  0  0
 10 12  1  0  0  0  0
 10 26  2  0  0  0  0
 10 29  1  0  0  0  0
 11 27  2  0  0  0  0
 11 29  1  0  0  0  0
 11 31  1  0  0  0  0
 12 13  2  0  0  0  0
 13 14  1  0  0  0  0
 14 15  2  0  0  0  0
 15 29  1  0  0  0  0
 16 24  1  0  0  0  0
 16 31  1  0  0  0  0
 16 32  2  0  0  0  0
 17 18  1  0  0  0  0
 17 19  1  0  0  0  0
 18 20  1  0  0  0  0
 19 21  1  0  0  0  0
 20 30  1  0  0  0  0
 21 30  1  0  0  0  0
 22 28  1  0  0  0  0
 23 24  1  1  0  0  0
 25 28  1  0  0  0  0
 26 27  1  0  0  0  0
  1 33  1  0  0  0  0
  2 34  1  0  0  0  0
  3 35  1  0  0  0  0
  4 36  1  0  0  0  0
  5 37  1  0  0  0  0
  6 38  1  0  0  0  0
 12 39  1  0  0  0  0
 13 40  1  0  0  0  0
 14 41  1  0  0  0  0
 15 42  1  0  0  0  0
 17 43  1  0  0  0  0
 17 44  1  0  0  0  0
 18 45  1  0  0  0  0
 18 46  1  0  0  0  0
 19 47  1  0  0  0  0
 19 48  1  0  0  0  0
 20 49  1  0  0  0  0
 20 50  1  0  0  0  0
 21 51  1  0  0  0  0
 21 52  1  0  0  0  0
 22 53  1  0  0  0  0
 22 54  1  0  0  0  0
 22 55  1  0  0  0  0
 23 56  1  0  0  0  0
 23 57  1  0  0  0  0
 24 58  1  0  0  0  0
 31 59  1  0  0  0  0
M  END
> <clash_score>
0

> <docking_score>
-10.55361270904541

> <overlap_score>
0.9401388168334961

$$$$
BENZO_319_2
  -OEChem-08232013503D

 59 63  0     1  0  0  0  0  0999 V2000
    8.3510   -1.5420   24.6110 C   0  0  0  0  0  0  0  0  0  0  0  0
   10.2760   -2.3270   23.4020 C   0  0  0  0  0  0  0  0  0  0  0  0
    8.3310   -2.7170   25.3430 C   0  0  0  0  0  0  0  0  0  0  0  0
   10.2570   -3.5000   24.1350 C   0  0  0  0  0  0  0  0  0  0  0  0
   10.7785    2.7977   23.3980 C   0  0  0  0  0  0  0  0  0  0  0  0
    8.8916    3.6777   24.1053 C   0  0  0  0  0  0  0  0  0  0  0  0
    9.3300   -1.3350   23.6390 C   0  0  0  0  0  0  0  0  0  0  0  0
    9.4829    2.4671   23.8384 C   0  0  0  0  0  0  0  0  0  0  0  0
    9.2850   -3.7090   25.1090 C   0  0  0  0  0  0  0  0  0  0  0  0
    5.9810    0.8330   18.8060 C   0  0  0  0  0  0  0  0  0  0  0  0
    7.2210   -0.4620   20.0350 C   0  0  0  0  0  0  0  0  0  0  0  0
    4.9400    1.7060   18.5060 C   0  0  0  0  0  0  0  0  0  0  0  0
    4.0980    2.1130   19.5350 C   0  0  0  0  0  0  0  0  0  0  0  0
    4.2970    1.6690   20.8430 C   0  0  0  0  0  0  0  0  0  0  0  0
    5.3360    0.8000   21.1530 C   0  0  0  0  0  0  0  0  0  0  0  0
    8.9510    0.1280   21.6880 C   0  0  0  0  0  0  0  0  0  0  0  0
    7.3211   -6.8875   26.5227 C   0  0  0  0  0  0  0  0  0  0  0  0
    7.3523   -5.5278   27.2244 C   0  0  0  0  0  0  0  0  0  0  0  0
    7.9422   -6.8107   25.1261 C   0  0  0  0  0  0  0  0  0  0  0  0
    8.7641   -4.9418   27.2163 C   0  0  0  0  0  0  0  0  0  0  0  0
    9.3411   -6.1879   25.1670 C   0  0  0  0  0  0  0  0  0  0  0  0
    9.6750    6.0523   23.9437 C   0  0  0  0  0  0  0  0  0  0  0  0
    8.8757    1.0906   23.9831 C   0  0  0  0  0  0  0  0  0  0  0  0
    9.4200   -0.0840   22.9530 C   0  0  2  0  0  0  0  0  0  0  0  0
   10.9979    4.1151   23.3843 N   0  0  0  0  0  0  0  0  0  0  0  0
    6.9440    0.2550   18.0100 N   0  0  0  0  0  0  0  0  0  0  0  0
    7.6830   -0.5170   18.7600 N   0  0  0  0  0  0  0  0  0  0  0  0
    9.8322    4.6230   23.8194 N   0  0  0  0  0  0  0  0  0  0  0  0
    6.1600    0.3870   20.1140 N   0  0  0  0  0  0  0  0  0  0  0  0
    9.2641   -4.8861   25.8398 N   0  0  0  0  0  0  0  0  0  0  0  0
    8.0810   -0.9750   21.0820 N   0  0  0  0  0  0  0  0  0  0  0  0
    9.1870    1.1500   21.0630 O   0  0  0  0  0  0  0  0  0  0  0  0
    7.5957   -0.7779   24.7973 H   0  0  0  0  0  0  0  0  0  0  0  0
   11.0384   -2.1852   22.6338 H   0  0  0  0  0  0  0  0  0  0  0  0
    7.5634   -2.8637   26.1037 H   0  0  0  0  0  0  0  0  0  0  0  0
   11.0139   -4.2645   23.9419 H   0  0  0  0  0  0  0  0  0  0  0  0
   11.5733    2.1354   23.0851 H   0  0  0  0  0  0  0  0  0  0  0  0
    7.9057    3.9405   24.4642 H   0  0  0  0  0  0  0  0  0  0  0  0
    4.7733    2.0700   17.5071 H   0  0  0  0  0  0  0  0  0  0  0  0
    3.2813    2.7836   19.2995 H   0  0  0  0  0  0  0  0  0  0  0  0
    3.6335    1.9977   21.6542 H   0  0  0  0  0  0  0  0  0  0  0  0
    5.5067    0.4537   22.1474 H   0  0  0  0  0  0  0  0  0  0  0  0
    7.8644   -7.6283   27.1289 H   0  0  0  0  0  0  0  0  0  0  0  0
    6.2830   -7.2423   26.4478 H   0  0  0  0  0  0  0  0  0  0  0  0
    6.6663   -4.8405   26.7221 H   0  0  0  0  0  0  0  0  0  0  0  0
    7.0062   -5.6400   28.2540 H   0  0  0  0  0  0  0  0  0  0  0  0
    8.0018   -7.8160   24.6962 H   0  0  0  0  0  0  0  0  0  0  0  0
    7.2963   -6.2182   24.4678 H   0  0  0  0  0  0  0  0  0  0  0  0
    8.7322   -3.9404   27.6532 H   0  0  0  0  0  0  0  0  0  0  0  0
    9.4260   -5.5610   27.8283 H   0  0  0  0  0  0  0  0  0  0  0  0
   10.0249   -6.8474   25.7028 H   0  0  0  0  0  0  0  0  0  0  0  0
    9.7015   -6.0700   24.1446 H   0  0  0  0  0  0  0  0  0  0  0  0
    9.9836    6.3391   24.9525 H   0  0  0  0  0  0  0  0  0  0  0  0
   10.2970    6.5534   23.1967 H   0  0  0  0  0  0  0  0  0  0  0  0
    8.6277    6.3169   23.7734 H   0  0  0  0  0  0  0  0  0  0  0  0
    8.9639    0.7632   25.0273 H   0  0  0  0  0  0  0  0  0  0  0  0
    7.7964    1.1765   23.7949 H   0  0  0  0  0  0  0  0  0  0  0  0
   10.5749    0.2253   22.9765 H   0  0  0  0  0  0  0  0  0  0  0  0
    8.1354   -1.7990   21.3694 H   0  0  0  0  0  0  0  0  0  0  0  0
  1  3  2  0  0  0  0
  1  7  1  0  0  0  0
  2  4  1  0  0  0  0
  2  7  2  0  0  0  0
  3  9  1  0  0  0  0
  4  9  2  0  0  0  0
  5  8  1  0  0  0  0
  5 25  2  0  0  0  0
  6  8  2  0  0  0  0
  6 28  1  0  0  0  0
  7 24  1  0  0  0  0
  8 23  1  0  0  0  0
  9 30  1  0  0  0  0
 10 12  1  0  0  0  0
 10 26  2  0  0  0  0
 10 29  1  0  0  0  0
 11 27  2  0  0  0  0
 11 29  1  0  0  0  0
 11 31  1  0  0  0  0
 12 13  2  0  0  0  0
 13 14  1  0  0  0  0
 14 15  2  0  0  0  0
 15 29  1  0  0  0  0
 16 24  1  0  0  0  0
 16 31  1  0  0  0  0
 16 32  2  0  0  0  0
 17 18  1  0  0  0  0
 17 19  1  0  0  0  0
 18 20  1  0  0  0  0
 19 21  1  0  0  0  0
 20 30  1  0  0  0  0
 21 30  1  0  0  0  0
 22 28  1  0  0  0  0
 23 24  1  6  0  0  0
 25 28  1  0  0  0  0
 26 27  1  0  0  0  0
  1 33  1  0  0  0  0
  2 34  1  0  0  0  0
  3 35  1  0  0  0  0
  4 36  1  0  0  0  0
  5 37  1  0  0  0  0
  6 38  1  0  0  0  0
 12 39  1  0  0  0  0
 13 40  1  0  0  0  0
 14 41  1  0  0  0  0
 15 42  1  0  0  0  0
 17 43  1  0  0  0  0
 17 44  1  0  0  0  0
 18 45  1  0  0  0  0
 18 46  1  0  0  0  0
 19 47  1  0  0  0  0
 19 48  1  0  0  0  0
 20 49  1  0  0  0  0
 20 50  1  0  0  0  0
 21 51  1  0  0  0  0
 21 52  1  0  0  0  0
 22 53  1  0  0  0  0
 22 54  1  0  0  0  0
 22 55  1  0  0  0  0
 23 56  1  0  0  0  0
 23 57  1  0  0  0  0
 24 58  1  0  0  0  0
 31 59  1  0  0  0  0
M  END
> <clash_score>
0

> <docking_score>
-9.348796844482422

> <overlap_score>
0.8668239712715149

$$$$
BENZO_318_2
  -OEChem-08232013503D

 59 63  0     1  0  0  0  0  0999 V2000
   10.2658    4.1447   23.6556 C   0  0  0  0  0  0  0  0  0  0  0  0
   10.1187    2.7578   23.6359 C   0  0  0  0  0  0  0  0  0  0  0  0
    8.3510   -1.5420   24.6110 C   0  0  0  0  0  0  0  0  0  0  0  0
   10.2760   -2.3270   23.4020 C   0  0  0  0  0  0  0  0  0  0  0  0
    8.3310   -2.7170   25.3430 C   0  0  0  0  0  0  0  0  0  0  0  0
   10.2570   -3.5000   24.1350 C   0  0  0  0  0  0  0  0  0  0  0  0
   11.4317    4.7295   23.1614 C   0  0  0  0  0  0  0  0  0  0  0  0
   12.3037    2.5404   22.6281 C   0  0  0  0  0  0  0  0  0  0  0  0
    9.3300   -1.3350   23.6390 C   0  0  0  0  0  0  0  0  0  0  0  0
   11.1377    1.9556   23.1223 C   0  0  0  0  0  0  0  0  0  0  0  0
    9.2850   -3.7090   25.1090 C   0  0  0  0  0  0  0  0  0  0  0  0
   12.4507    3.9274   22.6477 C   0  0  0  0  0  0  0  0  0  0  0  0
    5.9810    0.8330   18.8060 C   0  0  0  0  0  0  0  0  0  0  0  0
    7.2210   -0.4620   20.0350 C   0  0  0  0  0  0  0  0  0  0  0  0
    4.9400    1.7060   18.5060 C   0  0  0  0  0  0  0  0  0  0  0  0
    4.0980    2.1130   19.5350 C   0  0  0  0  0  0  0  0  0  0  0  0
    4.2970    1.6690   20.8430 C   0  0  0  0  0  0  0  0  0  0  0  0
    5.3360    0.8000   21.1530 C   0  0  0  0  0  0  0  0  0  0  0  0
    8.9510    0.1280   21.6880 C   0  0  0  0  0  0  0  0  0  0  0  0
    7.3211   -6.8875   26.5227 C   0  0  0  0  0  0  0  0  0  0  0  0
    7.3523   -5.5278   27.2244 C   0  0  0  0  0  0  0  0  0  0  0  0
    7.9422   -6.8107   25.1261 C   0  0  0  0  0  0  0  0  0  0  0  0
    8.7641   -4.9418   27.2163 C   0  0  0  0  0  0  0  0  0  0  0  0
    9.3411   -6.1879   25.1670 C   0  0  0  0  0  0  0  0  0  0  0  0
   10.9782    0.4528   23.1025 C   0  0  0  0  0  0  0  0  0  0  0  0
    9.4200   -0.0840   22.9530 C   0  0  2  0  0  0  0  0  0  0  0  0
    6.9440    0.2550   18.0100 N   0  0  0  0  0  0  0  0  0  0  0  0
    7.6830   -0.5170   18.7600 N   0  0  0  0  0  0  0  0  0  0  0  0
    6.1600    0.3870   20.1140 N   0  0  0  0  0  0  0  0  0  0  0  0
    9.2641   -4.8861   25.8398 N   0  0  0  0  0  0  0  0  0  0  0  0
    8.0810   -0.9750   21.0820 N   0  0  0  0  0  0  0  0  0  0  0  0
    9.1870    1.1500   21.0630 O   0  0  0  0  0  0  0  0  0  0  0  0
   13.8895    4.6494   22.0392 Cl  0  0  0  0  0  0  0  0  0  0  0  0
    9.4721    4.7690   24.0558 H   0  0  0  0  0  0  0  0  0  0  0  0
    9.2068    2.3107   24.0232 H   0  0  0  0  0  0  0  0  0  0  0  0
    7.5957   -0.7779   24.7973 H   0  0  0  0  0  0  0  0  0  0  0  0
   11.0384   -2.1852   22.6338 H   0  0  0  0  0  0  0  0  0  0  0  0
    7.5634   -2.8637   26.1037 H   0  0  0  0  0  0  0  0  0  0  0  0
   11.0139   -4.2645   23.9419 H   0  0  0  0  0  0  0  0  0  0  0  0
   11.5327    5.8118   23.1833 H   0  0  0  0  0  0  0  0  0  0  0  0
   13.0951    1.9106   22.2282 H   0  0  0  0  0  0  0  0  0  0  0  0
    4.7733    2.0700   17.5071 H   0  0  0  0  0  0  0  0  0  0  0  0
    3.2813    2.7836   19.2995 H   0  0  0  0  0  0  0  0  0  0  0  0
    3.6335    1.9977   21.6542 H   0  0  0  0  0  0  0  0  0  0  0  0
    5.5067    0.4537   22.1474 H   0  0  0  0  0  0  0  0  0  0  0  0
    7.8644   -7.6283   27.1289 H   0  0  0  0  0  0  0  0  0  0  0  0
    6.2830   -7.2423   26.4478 H   0  0  0  0  0  0  0  0  0  0  0  0
    6.6663   -4.8405   26.7221 H   0  0  0  0  0  0  0  0  0  0  0  0
    7.0062   -5.6400   28.2540 H   0  0  0  0  0  0  0  0  0  0  0  0
    8.0018   -7.8160   24.6962 H   0  0  0  0  0  0  0  0  0  0  0  0
    7.2963   -6.2182   24.4678 H   0  0  0  0  0  0  0  0  0  0  0  0
    8.7322   -3.9404   27.6532 H   0  0  0  0  0  0  0  0  0  0  0  0
    9.4260   -5.5610   27.8283 H   0  0  0  0  0  0  0  0  0  0  0  0
   10.0249   -6.8474   25.7028 H   0  0  0  0  0  0  0  0  0  0  0  0
    9.7015   -6.0700   24.1446 H   0  0  0  0  0  0  0  0  0  0  0  0
   11.5374    0.0399   22.2527 H   0  0  0  0  0  0  0  0  0  0  0  0
   11.4700    0.0494   23.9985 H   0  0  0  0  0  0  0  0  0  0  0  0
    8.9187    0.7273   23.6745 H   0  0  0  0  0  0  0  0  0  0  0  0
    8.1354   -1.7990   21.3694 H   0  0  0  0  0  0  0  0  0  0  0  0
  1  2  2  0  0  0  0
  1  7  1  0  0  0  0
  2 10  1  0  0  0  0
  3  5  2  0  0  0  0
  3  9  1  0  0  0  0
  4  6  1  0  0  0  0
  4  9  2  0  0  0  0
  5 11  1  0  0  0  0
  6 11  2  0  0  0  0
  7 12  2  0  0  0  0
  8 10  2  0  0  0  0
  8 12  1  0  0  0  0
  9 26  1  0  0  0  0
 10 25  1  0  0  0  0
 11 30  1  0  0  0  0
 12 33  1  0  0  0  0
 13 15  1  0  0  0  0
 13 27  2  0  0  0  0
 13 29  1  0  0  0  0
 14 28  2  0  0  0  0
 14 29  1  0  0  0  0
 14 31  1  0  0  0  0
 15 16  2  0  0  0  0
 16 17  1  0  0  0  0
 17 18  2  0  0  0  0
 18 29  1  0  0  0  0
 19 26  1  6  0  0  0
 19 31  1  0  0  0  0
 19 32  2  0  0  0  0
 20 21  1  0  0  0  0
 20 22  1  0  0  0  0
 21 23  1  0  0  0  0
 22 24  1  0  0  0  0
 23 30  1  0  0  0  0
 24 30  1  0  0  0  0
 25 26  1  0  0  0  0
 27 28  1  0  0  0  0
  1 34  1  0  0  0  0
  2 35  1  0  0  0  0
  3 36  1  0  0  0  0
  4 37  1  0  0  0  0
  5 38  1  0  0  0  0
  6 39  1  0  0  0  0
  7 40  1  0  0  0  0
  8 41  1  0  0  0  0
 15 42  1  0  0  0  0
 16 43  1  0  0  0  0
 17 44  1  0  0  0  0
 18 45  1  0  0  0  0
 20 46  1  0  0  0  0
 20 47  1  0  0  0  0
 21 48  1  0  0  0  0
 21 49  1  0  0  0  0
 22 50  1  0  0  0  0
 22 51  1  0  0  0  0
 23 52  1  0  0  0  0
 23 53  1  0  0  0  0
 24 54  1  0  0  0  0
 24 55  1  0  0  0  0
 25 56  1  0  0  0  0
 25 57  1  0  0  0  0
 26 58  1  0  0  0  0
 31 59  1  0  0  0  0
M  END
> <clash_score>
0

> <docking_score>
-11.026713371276855

> <overlap_score>
0.9461336731910706

$$$$
BENZO_318_1
  -OEChem-08232013503D

 59 63  0     1  0  0  0  0  0999 V2000
    9.2913    4.8680   24.0265 C   0  0  0  0  0  0  0  0  0  0  0  0
    8.7312    3.5975   24.1588 C   0  0  0  0  0  0  0  0  0  0  0  0
    8.3510   -1.5420   24.6110 C   0  0  0  0  0  0  0  0  0  0  0  0
   10.2760   -2.3270   23.4020 C   0  0  0  0  0  0  0  0  0  0  0  0
    8.3310   -2.7170   25.3430 C   0  0  0  0  0  0  0  0  0  0  0  0
   10.2570   -3.5000   24.1350 C   0  0  0  0  0  0  0  0  0  0  0  0
   10.6033    5.0082   23.5739 C   0  0  0  0  0  0  0  0  0  0  0  0
   10.7949    2.6072   23.3858 C   0  0  0  0  0  0  0  0  0  0  0  0
    9.3300   -1.3350   23.6390 C   0  0  0  0  0  0  0  0  0  0  0  0
    9.4829    2.4671   23.8384 C   0  0  0  0  0  0  0  0  0  0  0  0
    9.2850   -3.7090   25.1090 C   0  0  0  0  0  0  0  0  0  0  0  0
   11.3551    3.8778   23.2536 C   0  0  0  0  0  0  0  0  0  0  0  0
    5.9810    0.8330   18.8060 C   0  0  0  0  0  0  0  0  0  0  0  0
    7.2210   -0.4620   20.0350 C   0  0  0  0  0  0  0  0  0  0  0  0
    4.9400    1.7060   18.5060 C   0  0  0  0  0  0  0  0  0  0  0  0
    4.0980    2.1130   19.5350 C   0  0  0  0  0  0  0  0  0  0  0  0
    4.2970    1.6690   20.8430 C   0  0  0  0  0  0  0  0  0  0  0  0
    5.3360    0.8000   21.1530 C   0  0  0  0  0  0  0  0  0  0  0  0
    8.9510    0.1280   21.6880 C   0  0  0  0  0  0  0  0  0  0  0  0
    7.3211   -6.8875   26.5227 C   0  0  0  0  0  0  0  0  0  0  0  0
    7.3523   -5.5278   27.2244 C   0  0  0  0  0  0  0  0  0  0  0  0
    7.9422   -6.8107   25.1261 C   0  0  0  0  0  0  0  0  0  0  0  0
    8.7641   -4.9418   27.2163 C   0  0  0  0  0  0  0  0  0  0  0  0
    9.3411   -6.1879   25.1670 C   0  0  0  0  0  0  0  0  0  0  0  0
    8.8757    1.0906   23.9831 C   0  0  0  0  0  0  0  0  0  0  0  0
    9.4200   -0.0840   22.9530 C   0  0  1  0  0  0  0  0  0  0  0  0
    6.9440    0.2550   18.0100 N   0  0  0  0  0  0  0  0  0  0  0  0
    7.6830   -0.5170   18.7600 N   0  0  0  0  0  0  0  0  0  0  0  0
    6.1600    0.3870   20.1140 N   0  0  0  0  0  0  0  0  0  0  0  0
    9.2641   -4.8861   25.8398 N   0  0  0  0  0  0  0  0  0  0  0  0
    8.0810   -0.9750   21.0820 N   0  0  0  0  0  0  0  0  0  0  0  0
    9.1870    1.1500   21.0630 O   0  0  0  0  0  0  0  0  0  0  0  0
   12.9740    4.0513   22.6963 Cl  0  0  0  0  0  0  0  0  0  0  0  0
    8.7056    5.7481   24.2762 H   0  0  0  0  0  0  0  0  0  0  0  0
    7.7082    3.4977   24.5123 H   0  0  0  0  0  0  0  0  0  0  0  0
    7.5957   -0.7779   24.7973 H   0  0  0  0  0  0  0  0  0  0  0  0
   11.0384   -2.1852   22.6338 H   0  0  0  0  0  0  0  0  0  0  0  0
    7.5634   -2.8637   26.1037 H   0  0  0  0  0  0  0  0  0  0  0  0
   11.0139   -4.2645   23.9419 H   0  0  0  0  0  0  0  0  0  0  0  0
   11.0270    6.0047   23.4760 H   0  0  0  0  0  0  0  0  0  0  0  0
   11.3767    1.7227   23.1369 H   0  0  0  0  0  0  0  0  0  0  0  0
    4.7733    2.0700   17.5071 H   0  0  0  0  0  0  0  0  0  0  0  0
    3.2813    2.7836   19.2995 H   0  0  0  0  0  0  0  0  0  0  0  0
    3.6335    1.9977   21.6542 H   0  0  0  0  0  0  0  0  0  0  0  0
    5.5067    0.4537   22.1474 H   0  0  0  0  0  0  0  0  0  0  0  0
    7.8644   -7.6283   27.1289 H   0  0  0  0  0  0  0  0  0  0  0  0
    6.2830   -7.2423   26.4478 H   0  0  0  0  0  0  0  0  0  0  0  0
    6.6663   -4.8405   26.7221 H   0  0  0  0  0  0  0  0  0  0  0  0
    7.0062   -5.6400   28.2540 H   0  0  0  0  0  0  0  0  0  0  0  0
    8.0018   -7.8160   24.6962 H   0  0  0  0  0  0  0  0  0  0  0  0
    7.2963   -6.2182   24.4678 H   0  0  0  0  0  0  0  0  0  0  0  0
    8.7322   -3.9404   27.6532 H   0  0  0  0  0  0  0  0  0  0  0  0
    9.4260   -5.5610   27.8283 H   0  0  0  0  0  0  0  0  0  0  0  0
   10.0249   -6.8474   25.7028 H   0  0  0  0  0  0  0  0  0  0  0  0
    9.7015   -6.0700   24.1446 H   0  0  0  0  0  0  0  0  0  0  0  0
    8.9639    0.7632   25.0273 H   0  0  0  0  0  0  0  0  0  0  0  0
    7.7964    1.1765   23.7949 H   0  0  0  0  0  0  0  0  0  0  0  0
   10.5749    0.2253   22.9765 H   0  0  0  0  0  0  0  0  0  0  0  0
    8.1354   -1.7990   21.3694 H   0  0  0  0  0  0  0  0  0  0  0  0
  1  2  2  0  0  0  0
  1  7  1  0  0  0  0
  2 10  1  0  0  0  0
  3  5  2  0  0  0  0
  3  9  1  0  0  0  0
  4  6  1  0  0  0  0
  4  9  2  0  0  0  0
  5 11  1  0  0  0  0
  6 11  2  0  0  0  0
  7 12  2  0  0  0  0
  8 10  2  0  0  0  0
  8 12  1  0  0  0  0
  9 26  1  0  0  0  0
 10 25  1  0  0  0  0
 11 30  1  0  0  0  0
 12 33  1  0  0  0  0
 13 15  1  0  0  0  0
 13 27  2  0  0  0  0
 13 29  1  0  0  0  0
 14 28  2  0  0  0  0
 14 29  1  0  0  0  0
 14 31  1  0  0  0  0
 15 16  2  0  0  0  0
 16 17  1  0  0  0  0
 17 18  2  0  0  0  0
 18 29  1  0  0  0  0
 19 26  1  1  0  0  0
 19 31  1  0  0  0  0
 19 32  2  0  0  0  0
 20 21  1  0  0  0  0
 20 22  1  0  0  0  0
 21 23  1  0  0  0  0
 22 24  1  0  0  0  0
 23 30  1  0  0  0  0
 24 30  1  0  0  0  0
 25 26  1  0  0  0  0
 27 28  1  0  0  0  0
  1 34  1  0  0  0  0
  2 35  1  0  0  0  0
  3 36  1  0  0  0  0
  4 37  1  0  0  0  0
  5 38  1  0  0  0  0
  6 39  1  0  0  0  0
  7 40  1  0  0  0  0
  8 41  1  0  0  0  0
 15 42  1  0  0  0  0
 16 43  1  0  0  0  0
 17 44  1  0  0  0  0
 18 45  1  0  0  0  0
 20 46  1  0  0  0  0
 20 47  1  0  0  0  0
 21 48  1  0  0  0  0
 21 49  1  0  0  0  0
 22 50  1  0  0  0  0
 22 51  1  0  0  0  0
 23 52  1  0  0  0  0
 23 53  1  0  0  0  0
 24 54  1  0  0  0  0
 24 55  1  0  0  0  0
 25 56  1  0  0  0  0
 25 57  1  0  0  0  0
 26 58  1  0  0  0  0
 31 59  1  0  0  0  0
M  END
> <clash_score>
0

> <docking_score>
-10.0452299118042

> <overlap_score>
0.8812171220779419

$$$$
BENZO_323_1
  -OEChem-08232013503D

 47 50  0     1  0  0  0  0  0999 V2000
    8.3310   -2.7170   25.3430 C   0  0  0  0  0  0  0  0  0  0  0  0
   10.2570   -3.5000   24.1350 C   0  0  0  0  0  0  0  0  0  0  0  0
    8.3510   -1.5420   24.6110 C   0  0  0  0  0  0  0  0  0  0  0  0
   10.2760   -2.3270   23.4020 C   0  0  0  0  0  0  0  0  0  0  0  0
   10.2235    2.9023   23.6242 C   0  0  0  0  0  0  0  0  0  0  0  0
   12.2091    2.6870   22.7043 C   0  0  0  0  0  0  0  0  0  0  0  0
    9.2850   -3.7090   25.1090 C   0  0  0  0  0  0  0  0  0  0  0  0
    9.3300   -1.3350   23.6390 C   0  0  0  0  0  0  0  0  0  0  0  0
   11.1370    1.9470   23.1397 C   0  0  0  0  0  0  0  0  0  0  0  0
    5.9810    0.8330   18.8060 C   0  0  0  0  0  0  0  0  0  0  0  0
    7.2210   -0.4620   20.0350 C   0  0  0  0  0  0  0  0  0  0  0  0
    4.9400    1.7060   18.5060 C   0  0  0  0  0  0  0  0  0  0  0  0
    4.0980    2.1130   19.5350 C   0  0  0  0  0  0  0  0  0  0  0  0
    4.2970    1.6690   20.8430 C   0  0  0  0  0  0  0  0  0  0  0  0
    5.3360    0.8000   21.1530 C   0  0  0  0  0  0  0  0  0  0  0  0
    8.9510    0.1280   21.6880 C   0  0  0  0  0  0  0  0  0  0  0  0
    9.2618   -4.9724   25.8910 C   0  0  0  0  0  0  0  0  0  0  0  0
   12.7031    5.1430   22.6555 C   0  0  0  0  0  0  0  0  0  0  0  0
   10.9777    0.4443   23.1075 C   0  0  0  0  0  0  0  0  0  0  0  0
    9.4200   -0.0840   22.9530 C   0  0  1  0  0  0  0  0  0  0  0  0
   10.6758    4.1536   23.5079 N   0  0  0  0  0  0  0  0  0  0  0  0
    6.9440    0.2550   18.0100 N   0  0  0  0  0  0  0  0  0  0  0  0
    7.6830   -0.5170   18.7600 N   0  0  0  0  0  0  0  0  0  0  0  0
   11.8853    3.9898   22.9453 N   0  0  0  0  0  0  0  0  0  0  0  0
    6.1600    0.3870   20.1140 N   0  0  0  0  0  0  0  0  0  0  0  0
    8.0810   -0.9750   21.0820 N   0  0  0  0  0  0  0  0  0  0  0  0
    9.1870    1.1500   21.0630 O   0  0  0  0  0  0  0  0  0  0  0  0
    7.5655   -2.8644   26.1055 H   0  0  0  0  0  0  0  0  0  0  0  0
   11.0125   -4.2662   23.9435 H   0  0  0  0  0  0  0  0  0  0  0  0
    7.5953   -0.7782   24.7971 H   0  0  0  0  0  0  0  0  0  0  0  0
   11.0394   -2.1837   22.6349 H   0  0  0  0  0  0  0  0  0  0  0  0
    9.2470    2.7411   24.0585 H   0  0  0  0  0  0  0  0  0  0  0  0
   13.1519    2.4044   22.2557 H   0  0  0  0  0  0  0  0  0  0  0  0
    4.7733    2.0700   17.5071 H   0  0  0  0  0  0  0  0  0  0  0  0
    3.2813    2.7836   19.2995 H   0  0  0  0  0  0  0  0  0  0  0  0
    3.6335    1.9977   21.6542 H   0  0  0  0  0  0  0  0  0  0  0  0
    5.5067    0.4537   22.1474 H   0  0  0  0  0  0  0  0  0  0  0  0
    8.6408   -5.7227   25.3864 H   0  0  0  0  0  0  0  0  0  0  0  0
   10.2726   -5.3829   26.0135 H   0  0  0  0  0  0  0  0  0  0  0  0
    8.8606   -4.8102   26.9000 H   0  0  0  0  0  0  0  0  0  0  0  0
   12.4640    5.4803   21.6435 H   0  0  0  0  0  0  0  0  0  0  0  0
   12.4902    5.9323   23.3818 H   0  0  0  0  0  0  0  0  0  0  0  0
   13.7583    4.8651   22.7277 H   0  0  0  0  0  0  0  0  0  0  0  0
   11.5363    0.0387   22.2539 H   0  0  0  0  0  0  0  0  0  0  0  0
   11.4704    0.0336   23.9998 H   0  0  0  0  0  0  0  0  0  0  0  0
    8.9182    0.7194   23.6789 H   0  0  0  0  0  0  0  0  0  0  0  0
    8.1152   -1.8120   21.3518 H   0  0  0  0  0  0  0  0  0  0  0  0
  1  3  2  0  0  0  0
  1  7  1  0  0  0  0
  2  4  1  0  0  0  0
  2  7  2  0  0  0  0
  3  8  1  0  0  0  0
  4  8  2  0  0  0  0
  5  9  1  0  0  0  0
  5 21  2  0  0  0  0
  6  9  2  0  0  0  0
  6 24  1  0  0  0  0
  7 17  1  0  0  0  0
  8 20  1  0  0  0  0
  9 19  1  0  0  0  0
 10 12  1  0  0  0  0
 10 22  2  0  0  0  0
 10 25  1  0  0  0  0
 11 23  2  0  0  0  0
 11 25  1  0  0  0  0
 11 26  1  0  0  0  0
 12 13  2  0  0  0  0
 13 14  1  0  0  0  0
 14 15  2  0  0  0  0
 15 25  1  0  0  0  0
 16 20  1  0  0  0  0
 16 26  1  0  0  0  0
 16 27  2  0  0  0  0
 18 24  1  0  0  0  0
 19 20  1  1  0  0  0
 21 24  1  0  0  0  0
 22 23  1  0  0  0  0
  1 28  1  0  0  0  0
  2 29  1  0  0  0  0
  3 30  1  0  0  0  0
  4 31  1  0  0  0  0
  5 32  1  0  0  0  0
  6 33  1  0  0  0  0
 12 34  1  0  0  0  0
 13 35  1  0  0  0  0
 14 36  1  0  0  0  0
 15 37  1  0  0  0  0
 17 38  1  0  0  0  0
 17 39  1  0  0  0  0
 17 40  1  0  0  0  0
 18 41  1  0  0  0  0
 18 42  1  0  0  0  0
 18 43  1  0  0  0  0
 19 44  1  0  0  0  0
 19 45  1  0  0  0  0
 20 46  1  0  0  0  0
 26 47  1  0  0  0  0
M  END
> <clash_score>
0

> <docking_score>
-11.562637329101562

> <overlap_score>
0.896013617515564

$$$$
BENZO_323_2
  -OEChem-08232013503D

 47 50  0     1  0  0  0  0  0999 V2000
    8.3310   -2.7170   25.3430 C   0  0  0  0  0  0  0  0  0  0  0  0
   10.2570   -3.5000   24.1350 C   0  0  0  0  0  0  0  0  0  0  0  0
    8.3510   -1.5420   24.6110 C   0  0  0  0  0  0  0  0  0  0  0  0
   10.2760   -2.3270   23.4020 C   0  0  0  0  0  0  0  0  0  0  0  0
   10.7939    2.7770   23.4177 C   0  0  0  0  0  0  0  0  0  0  0  0
    8.9123    3.6676   24.1257 C   0  0  0  0  0  0  0  0  0  0  0  0
    9.2850   -3.7090   25.1090 C   0  0  0  0  0  0  0  0  0  0  0  0
    9.3300   -1.3350   23.6390 C   0  0  0  0  0  0  0  0  0  0  0  0
    9.4950    2.4539   23.8539 C   0  0  0  0  0  0  0  0  0  0  0  0
    5.9810    0.8330   18.8060 C   0  0  0  0  0  0  0  0  0  0  0  0
    7.2210   -0.4620   20.0350 C   0  0  0  0  0  0  0  0  0  0  0  0
    4.9400    1.7060   18.5060 C   0  0  0  0  0  0  0  0  0  0  0  0
    4.0980    2.1130   19.5350 C   0  0  0  0  0  0  0  0  0  0  0  0
    4.2970    1.6690   20.8430 C   0  0  0  0  0  0  0  0  0  0  0  0
    5.3360    0.8000   21.1530 C   0  0  0  0  0  0  0  0  0  0  0  0
    8.9510    0.1280   21.6880 C   0  0  0  0  0  0  0  0  0  0  0  0
    9.2618   -4.9724   25.8910 C   0  0  0  0  0  0  0  0  0  0  0  0
    9.7138    6.0371   23.9775 C   0  0  0  0  0  0  0  0  0  0  0  0
    8.8771    1.0813   23.9905 C   0  0  0  0  0  0  0  0  0  0  0  0
    9.4200   -0.0840   22.9530 C   0  0  2  0  0  0  0  0  0  0  0  0
   11.0232    4.0928   23.4110 N   0  0  0  0  0  0  0  0  0  0  0  0
    6.9440    0.2550   18.0100 N   0  0  0  0  0  0  0  0  0  0  0  0
    7.6830   -0.5170   18.7600 N   0  0  0  0  0  0  0  0  0  0  0  0
    9.8605    4.6073   23.8463 N   0  0  0  0  0  0  0  0  0  0  0  0
    6.1600    0.3870   20.1140 N   0  0  0  0  0  0  0  0  0  0  0  0
    8.0810   -0.9750   21.0820 N   0  0  0  0  0  0  0  0  0  0  0  0
    9.1870    1.1500   21.0630 O   0  0  0  0  0  0  0  0  0  0  0  0
    7.5655   -2.8644   26.1055 H   0  0  0  0  0  0  0  0  0  0  0  0
   11.0125   -4.2662   23.9435 H   0  0  0  0  0  0  0  0  0  0  0  0
    7.5953   -0.7782   24.7971 H   0  0  0  0  0  0  0  0  0  0  0  0
   11.0394   -2.1837   22.6349 H   0  0  0  0  0  0  0  0  0  0  0  0
   11.5843    2.1103   23.1031 H   0  0  0  0  0  0  0  0  0  0  0  0
    7.9277    3.9360   24.4839 H   0  0  0  0  0  0  0  0  0  0  0  0
    4.7733    2.0700   17.5071 H   0  0  0  0  0  0  0  0  0  0  0  0
    3.2813    2.7836   19.2995 H   0  0  0  0  0  0  0  0  0  0  0  0
    3.6335    1.9977   21.6542 H   0  0  0  0  0  0  0  0  0  0  0  0
    5.5067    0.4537   22.1474 H   0  0  0  0  0  0  0  0  0  0  0  0
    8.6408   -5.7227   25.3864 H   0  0  0  0  0  0  0  0  0  0  0  0
   10.2726   -5.3829   26.0135 H   0  0  0  0  0  0  0  0  0  0  0  0
    8.8606   -4.8102   26.9000 H   0  0  0  0  0  0  0  0  0  0  0  0
   10.0225    6.3165   24.9883 H   0  0  0  0  0  0  0  0  0  0  0  0
   10.3410    6.5371   23.2342 H   0  0  0  0  0  0  0  0  0  0  0  0
    8.6688    6.3103   23.8064 H   0  0  0  0  0  0  0  0  0  0  0  0
    8.9708    0.7434   25.0308 H   0  0  0  0  0  0  0  0  0  0  0  0
    7.7972    1.1781   23.8117 H   0  0  0  0  0  0  0  0  0  0  0  0
   10.5743    0.2174   22.9808 H   0  0  0  0  0  0  0  0  0  0  0  0
    8.1152   -1.8120   21.3518 H   0  0  0  0  0  0  0  0  0  0  0  0
  1  3  2  0  0  0  0
  1  7  1  0  0  0  0
  2  4  1  0  0  0  0
  2  7  2  0  0  0  0
  3  8  1  0  0  0  0
  4  8  2  0  0  0  0
  5  9  1  0  0  0  0
  5 21  2  0  0  0  0
  6  9  2  0  0  0  0
  6 24  1  0  0  0  0
  7 17  1  0  0  0  0
  8 20  1  0  0  0  0
  9 19  1  0  0  0  0
 10 12  1  0  0  0  0
 10 22  2  0  0  0  0
 10 25  1  0  0  0  0
 11 23  2  0  0  0  0
 11 25  1  0  0  0  0
 11 26  1  0  0  0  0
 12 13  2  0  0  0  0
 13 14  1  0  0  0  0
 14 15  2  0  0  0  0
 15 25  1  0  0  0  0
 16 20  1  0  0  0  0
 16 26  1  0  0  0  0
 16 27  2  0  0  0  0
 18 24  1  0  0  0  0
 19 20  1  6  0  0  0
 21 24  1  0  0  0  0
 22 23  1  0  0  0  0
  1 28  1  0  0  0  0
  2 29  1  0  0  0  0
  3 30  1  0  0  0  0
  4 31  1  0  0  0  0
  5 32  1  0  0  0  0
  6 33  1  0  0  0  0
 12 34  1  0  0  0  0
 13 35  1  0  0  0  0
 14 36  1  0  0  0  0
 15 37  1  0  0  0  0
 17 38  1  0  0  0  0
 17 39  1  0  0  0  0
 17 40  1  0  0  0  0
 18 41  1  0  0  0  0
 18 42  1  0  0  0  0
 18 43  1  0  0  0  0
 19 44  1  0  0  0  0
 19 45  1  0  0  0  0
 20 46  1  0  0  0  0
 26 47  1  0  0  0  0
M  END
> <clash_score>
0

> <docking_score>
-10.366943359375

> <overlap_score>
0.8224517703056335

$$$$
BENZO_322_1
  -OEChem-08232013503D

 47 50  0     1  0  0  0  0  0999 V2000
   10.2645    4.1315   23.6906 C   0  0  0  0  0  0  0  0  0  0  0  0
   10.1177    2.7447   23.6595 C   0  0  0  0  0  0  0  0  0  0  0  0
    8.3310   -2.7170   25.3430 C   0  0  0  0  0  0  0  0  0  0  0  0
   10.2570   -3.5000   24.1350 C   0  0  0  0  0  0  0  0  0  0  0  0
    8.3510   -1.5420   24.6110 C   0  0  0  0  0  0  0  0  0  0  0  0
   10.2760   -2.3270   23.4020 C   0  0  0  0  0  0  0  0  0  0  0  0
   11.4306    4.7205   23.2018 C   0  0  0  0  0  0  0  0  0  0  0  0
   12.3032    2.5360   22.6510 C   0  0  0  0  0  0  0  0  0  0  0  0
    9.2850   -3.7090   25.1090 C   0  0  0  0  0  0  0  0  0  0  0  0
    9.3300   -1.3350   23.6390 C   0  0  0  0  0  0  0  0  0  0  0  0
   11.1370    1.9470   23.1397 C   0  0  0  0  0  0  0  0  0  0  0  0
   12.4500    3.9228   22.6820 C   0  0  0  0  0  0  0  0  0  0  0  0
    5.9810    0.8330   18.8060 C   0  0  0  0  0  0  0  0  0  0  0  0
    7.2210   -0.4620   20.0350 C   0  0  0  0  0  0  0  0  0  0  0  0
    4.9400    1.7060   18.5060 C   0  0  0  0  0  0  0  0  0  0  0  0
    4.0980    2.1130   19.5350 C   0  0  0  0  0  0  0  0  0  0  0  0
    4.2970    1.6690   20.8430 C   0  0  0  0  0  0  0  0  0  0  0  0
    5.3360    0.8000   21.1530 C   0  0  0  0  0  0  0  0  0  0  0  0
    8.9510    0.1280   21.6880 C   0  0  0  0  0  0  0  0  0  0  0  0
    9.2618   -4.9724   25.8910 C   0  0  0  0  0  0  0  0  0  0  0  0
   10.9777    0.4443   23.1075 C   0  0  0  0  0  0  0  0  0  0  0  0
    9.4200   -0.0840   22.9530 C   0  0  1  0  0  0  0  0  0  0  0  0
    6.9440    0.2550   18.0100 N   0  0  0  0  0  0  0  0  0  0  0  0
    7.6830   -0.5170   18.7600 N   0  0  0  0  0  0  0  0  0  0  0  0
    6.1600    0.3870   20.1140 N   0  0  0  0  0  0  0  0  0  0  0  0
    8.0810   -0.9750   21.0820 N   0  0  0  0  0  0  0  0  0  0  0  0
    9.1870    1.1500   21.0630 O   0  0  0  0  0  0  0  0  0  0  0  0
   13.8890    4.6500   22.0802 Cl  0  0  0  0  0  0  0  0  0  0  0  0
    9.4706    4.7523   24.0955 H   0  0  0  0  0  0  0  0  0  0  0  0
    9.2057    2.2944   24.0426 H   0  0  0  0  0  0  0  0  0  0  0  0
    7.5655   -2.8644   26.1055 H   0  0  0  0  0  0  0  0  0  0  0  0
   11.0125   -4.2662   23.9435 H   0  0  0  0  0  0  0  0  0  0  0  0
    7.5953   -0.7782   24.7971 H   0  0  0  0  0  0  0  0  0  0  0  0
   11.0394   -2.1837   22.6349 H   0  0  0  0  0  0  0  0  0  0  0  0
   11.5314    5.8026   23.2326 H   0  0  0  0  0  0  0  0  0  0  0  0
   13.0949    1.9096   22.2463 H   0  0  0  0  0  0  0  0  0  0  0  0
    4.7733    2.0700   17.5071 H   0  0  0  0  0  0  0  0  0  0  0  0
    3.2813    2.7836   19.2995 H   0  0  0  0  0  0  0  0  0  0  0  0
    3.6335    1.9977   21.6542 H   0  0  0  0  0  0  0  0  0  0  0  0
    5.5067    0.4537   22.1474 H   0  0  0  0  0  0  0  0  0  0  0  0
    8.6408   -5.7227   25.3864 H   0  0  0  0  0  0  0  0  0  0  0  0
   10.2726   -5.3829   26.0135 H   0  0  0  0  0  0  0  0  0  0  0  0
    8.8606   -4.8102   26.9000 H   0  0  0  0  0  0  0  0  0  0  0  0
   11.5363    0.0387   22.2539 H   0  0  0  0  0  0  0  0  0  0  0  0
   11.4704    0.0336   23.9998 H   0  0  0  0  0  0  0  0  0  0  0  0
    8.9182    0.7194   23.6789 H   0  0  0  0  0  0  0  0  0  0  0  0
    8.1152   -1.8120   21.3518 H   0  0  0  0  0  0  0  0  0  0  0  0
  1  2  2  0  0  0  0
  1  7  1  0  0  0  0
  2 11  1  0  0  0  0
  3  5  2  0  0  0  0
  3  9  1  0  0  0  0
  4  6  1  0  0  0  0
  4  9  2  0  0  0  0
  5 10  1  0  0  0  0
  6 10  2  0  0  0  0
  7 12  2  0  0  0  0
  8 11  2  0  0  0  0
  8 12  1  0  0  0  0
  9 20  1  0  0  0  0
 10 22  1  0  0  0  0
 11 21  1  0  0  0  0
 12 28  1  0  0  0  0
 13 15  1  0  0  0  0
 13 23  2  0  0  0  0
 13 25  1  0  0  0  0
 14 24  2  0  0  0  0
 14 25  1  0  0  0  0
 14 26  1  0  0  0  0
 15 16  2  0  0  0  0
 16 17  1  0  0  0  0
 17 18  2  0  0  0  0
 18 25  1  0  0  0  0
 19 22  1  0  0  0  0
 19 26  1  0  0  0  0
 19 27  2  0  0  0  0
 21 22  1  1  0  0  0
 23 24  1  0  0  0  0
  1 29  1  0  0  0  0
  2 30  1  0  0  0  0
  3 31  1  0  0  0  0
  4 32  1  0  0  0  0
  5 33  1  0  0  0  0
  6 34  1  0  0  0  0
  7 35  1  0  0  0  0
  8 36  1  0  0  0  0
 15 37  1  0  0  0  0
 16 38  1  0  0  0  0
 17 39  1  0  0  0  0
 18 40  1  0  0  0  0
 20 41  1  0  0  0  0
 20 42  1  0  0  0  0
 20 43  1  0  0  0  0
 21 44  1  0  0  0  0
 21 45  1  0  0  0  0
 22 46  1  0  0  0  0
 26 47  1  0  0  0  0
M  END
> <clash_score>
0

> <docking_score>
-12.033950805664062

> <overlap_score>
0.9022155404090881

$$$$
BENZO_322_2
  -OEChem-08232013503D

 47 50  0     1  0  0  0  0  0999 V2000
    9.3211    4.8553   24.0536 C   0  0  0  0  0  0  0  0  0  0  0  0
    8.7511    3.5884   24.1784 C   0  0  0  0  0  0  0  0  0  0  0  0
    8.3310   -2.7170   25.3430 C   0  0  0  0  0  0  0  0  0  0  0  0
   10.2570   -3.5000   24.1350 C   0  0  0  0  0  0  0  0  0  0  0  0
    8.3510   -1.5420   24.6110 C   0  0  0  0  0  0  0  0  0  0  0  0
   10.2760   -2.3270   23.4020 C   0  0  0  0  0  0  0  0  0  0  0  0
   10.6349    4.9878   23.6042 C   0  0  0  0  0  0  0  0  0  0  0  0
   10.8089    2.5864   23.4046 C   0  0  0  0  0  0  0  0  0  0  0  0
    9.2850   -3.7090   25.1090 C   0  0  0  0  0  0  0  0  0  0  0  0
    9.3300   -1.3350   23.6390 C   0  0  0  0  0  0  0  0  0  0  0  0
    9.4950    2.4539   23.8539 C   0  0  0  0  0  0  0  0  0  0  0  0
   11.3788    3.8534   23.2798 C   0  0  0  0  0  0  0  0  0  0  0  0
    5.9810    0.8330   18.8060 C   0  0  0  0  0  0  0  0  0  0  0  0
    7.2210   -0.4620   20.0350 C   0  0  0  0  0  0  0  0  0  0  0  0
    4.9400    1.7060   18.5060 C   0  0  0  0  0  0  0  0  0  0  0  0
    4.0980    2.1130   19.5350 C   0  0  0  0  0  0  0  0  0  0  0  0
    4.2970    1.6690   20.8430 C   0  0  0  0  0  0  0  0  0  0  0  0
    5.3360    0.8000   21.1530 C   0  0  0  0  0  0  0  0  0  0  0  0
    8.9510    0.1280   21.6880 C   0  0  0  0  0  0  0  0  0  0  0  0
    9.2618   -4.9724   25.8910 C   0  0  0  0  0  0  0  0  0  0  0  0
    8.8771    1.0813   23.9905 C   0  0  0  0  0  0  0  0  0  0  0  0
    9.4200   -0.0840   22.9530 C   0  0  2  0  0  0  0  0  0  0  0  0
    6.9440    0.2550   18.0100 N   0  0  0  0  0  0  0  0  0  0  0  0
    7.6830   -0.5170   18.7600 N   0  0  0  0  0  0  0  0  0  0  0  0
    6.1600    0.3870   20.1140 N   0  0  0  0  0  0  0  0  0  0  0  0
    8.0810   -0.9750   21.0820 N   0  0  0  0  0  0  0  0  0  0  0  0
    9.1870    1.1500   21.0630 O   0  0  0  0  0  0  0  0  0  0  0  0
   13.0002    4.0175   22.7265 Cl  0  0  0  0  0  0  0  0  0  0  0  0
    8.7415    5.7384   24.3065 H   0  0  0  0  0  0  0  0  0  0  0  0
    7.7267    3.4945   24.5294 H   0  0  0  0  0  0  0  0  0  0  0  0
    7.5655   -2.8644   26.1055 H   0  0  0  0  0  0  0  0  0  0  0  0
   11.0125   -4.2662   23.9435 H   0  0  0  0  0  0  0  0  0  0  0  0
    7.5953   -0.7782   24.7971 H   0  0  0  0  0  0  0  0  0  0  0  0
   11.0394   -2.1837   22.6349 H   0  0  0  0  0  0  0  0  0  0  0  0
   11.0663    5.9816   23.5121 H   0  0  0  0  0  0  0  0  0  0  0  0
   11.3846    1.6989   23.1523 H   0  0  0  0  0  0  0  0  0  0  0  0
    4.7733    2.0700   17.5071 H   0  0  0  0  0  0  0  0  0  0  0  0
    3.2813    2.7836   19.2995 H   0  0  0  0  0  0  0  0  0  0  0  0
    3.6335    1.9977   21.6542 H   0  0  0  0  0  0  0  0  0  0  0  0
    5.5067    0.4537   22.1474 H   0  0  0  0  0  0  0  0  0  0  0  0
    8.6408   -5.7227   25.3864 H   0  0  0  0  0  0  0  0  0  0  0  0
   10.2726   -5.3829   26.0135 H   0  0  0  0  0  0  0  0  0  0  0  0
    8.8606   -4.8102   26.9000 H   0  0  0  0  0  0  0  0  0  0  0  0
    8.9708    0.7434   25.0308 H   0  0  0  0  0  0  0  0  0  0  0  0
    7.7972    1.1781   23.8117 H   0  0  0  0  0  0  0  0  0  0  0  0
   10.5743    0.2174   22.9808 H   0  0  0  0  0  0  0  0  0  0  0  0
    8.1152   -1.8120   21.3518 H   0  0  0  0  0  0  0  0  0  0  0  0
  1  2  2  0  0  0  0
  1  7  1  0  0  0  0
  2 11  1  0  0  0  0
  3  5  2  0  0  0  0
  3  9  1  0  0  0  0
  4  6  1  0  0  0  0
  4  9  2  0  0  0  0
  5 10  1  0  0  0  0
  6 10  2  0  0  0  0
  7 12  2  0  0  0  0
  8 11  2  0  0  0  0
  8 12  1  0  0  0  0
  9 20  1  0  0  0  0
 10 22  1  0  0  0  0
 11 21  1  0  0  0  0
 12 28  1  0  0  0  0
 13 15  1  0  0  0  0
 13 23  2  0  0  0  0
 13 25  1  0  0  0  0
 14 24  2  0  0  0  0
 14 25  1  0  0  0  0
 14 26  1  0  0  0  0
 15 16  2  0  0  0  0
 16 17  1  0  0  0  0
 17 18  2  0  0  0  0
 18 25  1  0  0  0  0
 19 22  1  0  0  0  0
 19 26  1  0  0  0  0
 19 27  2  0  0  0  0
 21 22  1  6  0  0  0
 23 24  1  0  0  0  0
  1 29  1  0  0  0  0
  2 30  1  0  0  0  0
  3 31  1  0  0  0  0
  4 32  1  0  0  0  0
  5 33  1  0  0  0  0
  6 34  1  0  0  0  0
  7 35  1  0  0  0  0
  8 36  1  0  0  0  0
 15 37  1  0  0  0  0
 16 38  1  0  0  0  0
 17 39  1  0  0  0  0
 18 40  1  0  0  0  0
 20 41  1  0  0  0  0
 20 42  1  0  0  0  0
 20 43  1  0  0  0  0
 21 44  1  0  0  0  0
 21 45  1  0  0  0  0
 22 46  1  0  0  0  0
 26 47  1  0  0  0  0
M  END
> <clash_score>
0

> <docking_score>
-11.026084899902344

> <overlap_score>
0.8375335931777954

$$$$
BENZO_325_1
  -OEChem-08232013503D

 48 51  0     1  0  0  0  0  0999 V2000
   11.4296    4.7207   23.1993 C   0  0  0  0  0  0  0  0  0  0  0  0
   12.4494    3.9228   22.6806 C   0  0  0  0  0  0  0  0  0  0  0  0
   10.2636    4.1317   23.6883 C   0  0  0  0  0  0  0  0  0  0  0  0
   12.3031    2.5360   22.6508 C   0  0  0  0  0  0  0  0  0  0  0  0
   10.1173    2.7449   23.6585 C   0  0  0  0  0  0  0  0  0  0  0  0
    8.3510   -1.5420   24.6110 C   0  0  0  0  0  0  0  0  0  0  0  0
   10.2760   -2.3270   23.4020 C   0  0  0  0  0  0  0  0  0  0  0  0
    8.3310   -2.7170   25.3430 C   0  0  0  0  0  0  0  0  0  0  0  0
   10.2570   -3.5000   24.1350 C   0  0  0  0  0  0  0  0  0  0  0  0
   11.1370    1.9470   23.1397 C   0  0  0  0  0  0  0  0  0  0  0  0
    9.3300   -1.3350   23.6390 C   0  0  0  0  0  0  0  0  0  0  0  0
    9.2850   -3.7090   25.1090 C   0  0  0  0  0  0  0  0  0  0  0  0
    5.9810    0.8330   18.8060 C   0  0  0  0  0  0  0  0  0  0  0  0
    7.2210   -0.4620   20.0350 C   0  0  0  0  0  0  0  0  0  0  0  0
    4.9400    1.7060   18.5060 C   0  0  0  0  0  0  0  0  0  0  0  0
    4.0980    2.1130   19.5350 C   0  0  0  0  0  0  0  0  0  0  0  0
    4.2970    1.6690   20.8430 C   0  0  0  0  0  0  0  0  0  0  0  0
    5.3360    0.8000   21.1530 C   0  0  0  0  0  0  0  0  0  0  0  0
    8.9510    0.1280   21.6880 C   0  0  0  0  0  0  0  0  0  0  0  0
    8.2362   -4.9970   26.8045 C   0  0  0  0  0  0  0  0  0  0  0  0
   10.9777    0.4443   23.1075 C   0  0  0  0  0  0  0  0  0  0  0  0
    9.4200   -0.0840   22.9530 C   0  0  1  0  0  0  0  0  0  0  0  0
    6.9440    0.2550   18.0100 N   0  0  0  0  0  0  0  0  0  0  0  0
    7.6830   -0.5170   18.7600 N   0  0  0  0  0  0  0  0  0  0  0  0
    6.1600    0.3870   20.1140 N   0  0  0  0  0  0  0  0  0  0  0  0
    8.0810   -0.9750   21.0820 N   0  0  0  0  0  0  0  0  0  0  0  0
    9.1870    1.1500   21.0630 O   0  0  0  0  0  0  0  0  0  0  0  0
    9.2637   -4.8607   25.8240 O   0  0  0  0  0  0  0  0  0  0  0  0
   11.5443    5.8005   23.2237 H   0  0  0  0  0  0  0  0  0  0  0  0
   13.3579    4.3812   22.3008 H   0  0  0  0  0  0  0  0  0  0  0  0
    9.4699    4.7525   24.0932 H   0  0  0  0  0  0  0  0  0  0  0  0
   13.1028    1.9222   22.2446 H   0  0  0  0  0  0  0  0  0  0  0  0
    9.2052    2.2948   24.0415 H   0  0  0  0  0  0  0  0  0  0  0  0
    7.5962   -0.7776   24.7981 H   0  0  0  0  0  0  0  0  0  0  0  0
   11.0395   -2.1844   22.6346 H   0  0  0  0  0  0  0  0  0  0  0  0
    7.5664   -2.8672   26.1058 H   0  0  0  0  0  0  0  0  0  0  0  0
   11.0120   -4.2666   23.9463 H   0  0  0  0  0  0  0  0  0  0  0  0
    4.7733    2.0700   17.5071 H   0  0  0  0  0  0  0  0  0  0  0  0
    3.2813    2.7836   19.2995 H   0  0  0  0  0  0  0  0  0  0  0  0
    3.6335    1.9977   21.6542 H   0  0  0  0  0  0  0  0  0  0  0  0
    5.5067    0.4537   22.1474 H   0  0  0  0  0  0  0  0  0  0  0  0
    8.3331   -5.9645   27.3029 H   0  0  0  0  0  0  0  0  0  0  0  0
    7.2585   -4.9200   26.3221 H   0  0  0  0  0  0  0  0  0  0  0  0
    8.3403   -4.1976   27.5420 H   0  0  0  0  0  0  0  0  0  0  0  0
   11.5363    0.0387   22.2539 H   0  0  0  0  0  0  0  0  0  0  0  0
   11.4704    0.0336   23.9998 H   0  0  0  0  0  0  0  0  0  0  0  0
    8.9182    0.7194   23.6789 H   0  0  0  0  0  0  0  0  0  0  0  0
    8.1152   -1.8120   21.3518 H   0  0  0  0  0  0  0  0  0  0  0  0
  1  2  1  0  0  0  0
  1  3  2  0  0  0  0
  2  4  2  0  0  0  0
  3  5  1  0  0  0  0
  4 10  1  0  0  0  0
  5 10  2  0  0  0  0
  6  8  2  0  0  0  0
  6 11  1  0  0  0  0
  7  9  1  0  0  0  0
  7 11  2  0  0  0  0
  8 12  1  0  0  0  0
  9 12  2  0  0  0  0
 10 21  1  0  0  0  0
 11 22  1  0  0  0  0
 12 28  1  0  0  0  0
 13 15  1  0  0  0  0
 13 23  2  0  0  0  0
 13 25  1  0  0  0  0
 14 24  2  0  0  0  0
 14 25  1  0  0  0  0
 14 26  1  0  0  0  0
 15 16  2  0  0  0  0
 16 17  1  0  0  0  0
 17 18  2  0  0  0  0
 18 25  1  0  0  0  0
 19 22  1  0  0  0  0
 19 26  1  0  0  0  0
 19 27  2  0  0  0  0
 20 28  1  0  0  0  0
 21 22  1  1  0  0  0
 23 24  1  0  0  0  0
  1 29  1  0  0  0  0
  2 30  1  0  0  0  0
  3 31  1  0  0  0  0
  4 32  1  0  0  0  0
  5 33  1  0  0  0  0
  6 34  1  0  0  0  0
  7 35  1  0  0  0  0
  8 36  1  0  0  0  0
  9 37  1  0  0  0  0
 15 38  1  0  0  0  0
 16 39  1  0  0  0  0
 17 40  1  0  0  0  0
 18 41  1  0  0  0  0
 20 42  1  0  0  0  0
 20 43  1  0  0  0  0
 20 44  1  0  0  0  0
 21 45  1  0  0  0  0
 21 46  1  0  0  0  0
 22 47  1  0  0  0  0
 26 48  1  0  0  0  0
M  END
> <clash_score>
0

> <docking_score>
-11.314653396606445

> <overlap_score>
0.925540566444397

$$$$
BENZO_325_2
  -OEChem-08232013503D

 48 51  0     1  0  0  0  0  0999 V2000
   10.6367    4.9868   23.6018 C   0  0  0  0  0  0  0  0  0  0  0  0
    9.3228    4.8557   24.0511 C   0  0  0  0  0  0  0  0  0  0  0  0
   11.3798    3.8515   23.2784 C   0  0  0  0  0  0  0  0  0  0  0  0
    8.7519    3.5893   24.1772 C   0  0  0  0  0  0  0  0  0  0  0  0
   10.8090    2.5851   23.4045 C   0  0  0  0  0  0  0  0  0  0  0  0
    8.3510   -1.5420   24.6110 C   0  0  0  0  0  0  0  0  0  0  0  0
   10.2760   -2.3270   23.4020 C   0  0  0  0  0  0  0  0  0  0  0  0
    8.3310   -2.7170   25.3430 C   0  0  0  0  0  0  0  0  0  0  0  0
   10.2570   -3.5000   24.1350 C   0  0  0  0  0  0  0  0  0  0  0  0
    9.4950    2.4539   23.8539 C   0  0  0  0  0  0  0  0  0  0  0  0
    9.3300   -1.3350   23.6390 C   0  0  0  0  0  0  0  0  0  0  0  0
    9.2850   -3.7090   25.1090 C   0  0  0  0  0  0  0  0  0  0  0  0
    5.9810    0.8330   18.8060 C   0  0  0  0  0  0  0  0  0  0  0  0
    7.2210   -0.4620   20.0350 C   0  0  0  0  0  0  0  0  0  0  0  0
    4.9400    1.7060   18.5060 C   0  0  0  0  0  0  0  0  0  0  0  0
    4.0980    2.1130   19.5350 C   0  0  0  0  0  0  0  0  0  0  0  0
    4.2970    1.6690   20.8430 C   0  0  0  0  0  0  0  0  0  0  0  0
    5.3360    0.8000   21.1530 C   0  0  0  0  0  0  0  0  0  0  0  0
    8.9510    0.1280   21.6880 C   0  0  0  0  0  0  0  0  0  0  0  0
    8.2362   -4.9970   26.8045 C   0  0  0  0  0  0  0  0  0  0  0  0
    8.8771    1.0813   23.9905 C   0  0  0  0  0  0  0  0  0  0  0  0
    9.4200   -0.0840   22.9530 C   0  0  2  0  0  0  0  0  0  0  0  0
    6.9440    0.2550   18.0100 N   0  0  0  0  0  0  0  0  0  0  0  0
    7.6830   -0.5170   18.7600 N   0  0  0  0  0  0  0  0  0  0  0  0
    6.1600    0.3870   20.1140 N   0  0  0  0  0  0  0  0  0  0  0  0
    8.0810   -0.9750   21.0820 N   0  0  0  0  0  0  0  0  0  0  0  0
    9.1870    1.1500   21.0630 O   0  0  0  0  0  0  0  0  0  0  0  0
    9.2637   -4.8607   25.8240 O   0  0  0  0  0  0  0  0  0  0  0  0
   11.0806    5.9731   23.5024 H   0  0  0  0  0  0  0  0  0  0  0  0
    8.7437    5.7397   24.3019 H   0  0  0  0  0  0  0  0  0  0  0  0
   12.4025    3.9533   22.9274 H   0  0  0  0  0  0  0  0  0  0  0  0
    7.7275    3.4967   24.5283 H   0  0  0  0  0  0  0  0  0  0  0  0
   11.3955    1.7061   23.1503 H   0  0  0  0  0  0  0  0  0  0  0  0
    7.5962   -0.7776   24.7981 H   0  0  0  0  0  0  0  0  0  0  0  0
   11.0395   -2.1844   22.6346 H   0  0  0  0  0  0  0  0  0  0  0  0
    7.5664   -2.8672   26.1058 H   0  0  0  0  0  0  0  0  0  0  0  0
   11.0120   -4.2666   23.9463 H   0  0  0  0  0  0  0  0  0  0  0  0
    4.7733    2.0700   17.5071 H   0  0  0  0  0  0  0  0  0  0  0  0
    3.2813    2.7836   19.2995 H   0  0  0  0  0  0  0  0  0  0  0  0
    3.6335    1.9977   21.6542 H   0  0  0  0  0  0  0  0  0  0  0  0
    5.5067    0.4537   22.1474 H   0  0  0  0  0  0  0  0  0  0  0  0
    8.3331   -5.9645   27.3029 H   0  0  0  0  0  0  0  0  0  0  0  0
    7.2585   -4.9200   26.3221 H   0  0  0  0  0  0  0  0  0  0  0  0
    8.3403   -4.1976   27.5420 H   0  0  0  0  0  0  0  0  0  0  0  0
    8.9708    0.7434   25.0308 H   0  0  0  0  0  0  0  0  0  0  0  0
    7.7972    1.1781   23.8117 H   0  0  0  0  0  0  0  0  0  0  0  0
   10.5743    0.2174   22.9808 H   0  0  0  0  0  0  0  0  0  0  0  0
    8.1152   -1.8120   21.3518 H   0  0  0  0  0  0  0  0  0  0  0  0
  1  2  1  0  0  0  0
  1  3  2  0  0  0  0
  2  4  2  0  0  0  0
  3  5  1  0  0  0  0
  4 10  1  0  0  0  0
  5 10  2  0  0  0  0
  6  8  2  0  0  0  0
  6 11  1  0  0  0  0
  7  9  1  0  0  0  0
  7 11  2  0  0  0  0
  8 12  1  0  0  0  0
  9 12  2  0  0  0  0
 10 21  1  0  0  0  0
 11 22  1  0  0  0  0
 12 28  1  0  0  0  0
 13 15  1  0  0  0  0
 13 23  2  0  0  0  0
 13 25  1  0  0  0  0
 14 24  2  0  0  0  0
 14 25  1  0  0  0  0
 14 26  1  0  0  0  0
 15 16  2  0  0  0  0
 16 17  1  0  0  0  0
 17 18  2  0  0  0  0
 18 25  1  0  0  0  0
 19 22  1  0  0  0  0
 19 26  1  0  0  0  0
 19 27  2  0  0  0  0
 20 28  1  0  0  0  0
 21 22  1  6  0  0  0
 23 24  1  0  0  0  0
  1 29  1  0  0  0  0
  2 30  1  0  0  0  0
  3 31  1  0  0  0  0
  4 32  1  0  0  0  0
  5 33  1  0  0  0  0
  6 34  1  0  0  0  0
  7 35  1  0  0  0  0
  8 36  1  0  0  0  0
  9 37  1  0  0  0  0
 15 38  1  0  0  0  0
 16 39  1  0  0  0  0
 17 40  1  0  0  0  0
 18 41  1  0  0  0  0
 20 42  1  0  0  0  0
 20 43  1  0  0  0  0
 20 44  1  0  0  0  0
 21 45  1  0  0  0  0
 21 46  1  0  0  0  0
 22 47  1  0  0  0  0
 26 48  1  0  0  0  0
M  END
> <clash_score>
0

> <docking_score>
-10.200016975402832

> <overlap_score>
0.8538740277290344

$$$$
BENZO_324_1
  -OEChem-08232013503D

 45 48  0     1  0  0  0  0  0999 V2000
    8.3510   -1.5420   24.6110 C   0  0  0  0  0  0  0  0  0  0  0  0
   10.2760   -2.3270   23.4020 C   0  0  0  0  0  0  0  0  0  0  0  0
    8.3310   -2.7170   25.3430 C   0  0  0  0  0  0  0  0  0  0  0  0
   10.2570   -3.5000   24.1350 C   0  0  0  0  0  0  0  0  0  0  0  0
   11.9019    2.6854   22.1912 C   0  0  0  0  0  0  0  0  0  0  0  0
   11.8820    4.0381   22.4508 C   0  0  0  0  0  0  0  0  0  0  0  0
   10.5617    2.7635   24.0885 C   0  0  0  0  0  0  0  0  0  0  0  0
    9.3300   -1.3350   23.6390 C   0  0  0  0  0  0  0  0  0  0  0  0
   11.1370    1.9470   23.1397 C   0  0  0  0  0  0  0  0  0  0  0  0
    9.2850   -3.7090   25.1090 C   0  0  0  0  0  0  0  0  0  0  0  0
    5.9810    0.8330   18.8060 C   0  0  0  0  0  0  0  0  0  0  0  0
    7.2210   -0.4620   20.0350 C   0  0  0  0  0  0  0  0  0  0  0  0
    4.9400    1.7060   18.5060 C   0  0  0  0  0  0  0  0  0  0  0  0
    4.0980    2.1130   19.5350 C   0  0  0  0  0  0  0  0  0  0  0  0
    4.2970    1.6690   20.8430 C   0  0  0  0  0  0  0  0  0  0  0  0
    5.3360    0.8000   21.1530 C   0  0  0  0  0  0  0  0  0  0  0  0
    8.9510    0.1280   21.6880 C   0  0  0  0  0  0  0  0  0  0  0  0
    8.2362   -4.9970   26.8045 C   0  0  0  0  0  0  0  0  0  0  0  0
   10.9777    0.4443   23.1075 C   0  0  0  0  0  0  0  0  0  0  0  0
    9.4200   -0.0840   22.9530 C   0  0  1  0  0  0  0  0  0  0  0  0
    6.9440    0.2550   18.0100 N   0  0  0  0  0  0  0  0  0  0  0  0
    7.6830   -0.5170   18.7600 N   0  0  0  0  0  0  0  0  0  0  0  0
    6.1600    0.3870   20.1140 N   0  0  0  0  0  0  0  0  0  0  0  0
    8.0810   -0.9750   21.0820 N   0  0  0  0  0  0  0  0  0  0  0  0
    9.1870    1.1500   21.0630 O   0  0  0  0  0  0  0  0  0  0  0  0
    9.2637   -4.8607   25.8240 O   0  0  0  0  0  0  0  0  0  0  0  0
   10.9440    4.4131   23.8336 S   0  0  0  0  0  0  0  0  0  0  0  0
    7.5962   -0.7776   24.7981 H   0  0  0  0  0  0  0  0  0  0  0  0
   11.0395   -2.1844   22.6346 H   0  0  0  0  0  0  0  0  0  0  0  0
    7.5664   -2.8672   26.1058 H   0  0  0  0  0  0  0  0  0  0  0  0
   11.0120   -4.2666   23.9463 H   0  0  0  0  0  0  0  0  0  0  0  0
   12.4414    2.2505   21.3593 H   0  0  0  0  0  0  0  0  0  0  0  0
   12.3738    4.8240   21.8953 H   0  0  0  0  0  0  0  0  0  0  0  0
    9.9357    2.4743   24.9213 H   0  0  0  0  0  0  0  0  0  0  0  0
    4.7733    2.0700   17.5071 H   0  0  0  0  0  0  0  0  0  0  0  0
    3.2813    2.7836   19.2995 H   0  0  0  0  0  0  0  0  0  0  0  0
    3.6335    1.9977   21.6542 H   0  0  0  0  0  0  0  0  0  0  0  0
    5.5067    0.4537   22.1474 H   0  0  0  0  0  0  0  0  0  0  0  0
    8.3331   -5.9645   27.3029 H   0  0  0  0  0  0  0  0  0  0  0  0
    7.2585   -4.9200   26.3221 H   0  0  0  0  0  0  0  0  0  0  0  0
    8.3403   -4.1976   27.5420 H   0  0  0  0  0  0  0  0  0  0  0  0
   11.5363    0.0386   22.2539 H   0  0  0  0  0  0  0  0  0  0  0  0
   11.4704    0.0336   23.9998 H   0  0  0  0  0  0  0  0  0  0  0  0
    8.9182    0.7194   23.6789 H   0  0  0  0  0  0  0  0  0  0  0  0
    8.1152   -1.8120   21.3518 H   0  0  0  0  0  0  0  0  0  0  0  0
  1  3  2  0  0  0  0
  1  8  1  0  0  0  0
  2  4  1  0  0  0  0
  2  8  2  0  0  0  0
  3 10  1  0  0  0  0
  4 10  2  0  0  0  0
  5  6  2  0  0  0  0
  5  9  1  0  0  0  0
  6 27  1  0  0  0  0
  7  9  2  0  0  0  0
  7 27  1  0  0  0  0
  8 20  1  0  0  0  0
  9 19  1  0  0  0  0
 10 26  1  0  0  0  0
 11 13  1  0  0  0  0
 11 21  2  0  0  0  0
 11 23  1  0  0  0  0
 12 22  2  0  0  0  0
 12 23  1  0  0  0  0
 12 24  1  0  0  0  0
 13 14  2  0  0  0  0
 14 15  1  0  0  0  0
 15 16  2  0  0  0  0
 16 23  1  0  0  0  0
 17 20  1  0  0  0  0
 17 24  1  0  0  0  0
 17 25  2  0  0  0  0
 18 26  1  0  0  0  0
 19 20  1  1  0  0  0
 21 22  1  0  0  0  0
  1 28  1  0  0  0  0
  2 29  1  0  0  0  0
  3 30  1  0  0  0  0
  4 31  1  0  0  0  0
  5 32  1  0  0  0  0
  6 33  1  0  0  0  0
  7 34  1  0  0  0  0
 13 35  1  0  0  0  0
 14 36  1  0  0  0  0
 15 37  1  0  0  0  0
 16 38  1  0  0  0  0
 18 39  1  0  0  0  0
 18 40  1  0  0  0  0
 18 41  1  0  0  0  0
 19 42  1  0  0  0  0
 19 43  1  0  0  0  0
 20 44  1  0  0  0  0
 24 45  1  0  0  0  0
M  END
> <clash_score>
0

> <docking_score>
-9.855830192565918

> <overlap_score>
0.914577305316925

$$$$
BENZO_324_2
  -OEChem-08232013503D

 45 48  0     1  0  0  0  0  0999 V2000
    8.3510   -1.5420   24.6110 C   0  0  0  0  0  0  0  0  0  0  0  0
   10.2760   -2.3270   23.4020 C   0  0  0  0  0  0  0  0  0  0  0  0
    8.3310   -2.7170   25.3430 C   0  0  0  0  0  0  0  0  0  0  0  0
   10.2570   -3.5000   24.1350 C   0  0  0  0  0  0  0  0  0  0  0  0
   10.8633    2.6804   23.5273 C   0  0  0  0  0  0  0  0  0  0  0  0
   11.1655    4.0230   23.4669 C   0  0  0  0  0  0  0  0  0  0  0  0
    8.8035    3.6322   24.0309 C   0  0  0  0  0  0  0  0  0  0  0  0
    9.3300   -1.3350   23.6390 C   0  0  0  0  0  0  0  0  0  0  0  0
    9.4950    2.4539   23.8539 C   0  0  0  0  0  0  0  0  0  0  0  0
    9.2850   -3.7090   25.1090 C   0  0  0  0  0  0  0  0  0  0  0  0
    5.9810    0.8330   18.8060 C   0  0  0  0  0  0  0  0  0  0  0  0
    7.2210   -0.4620   20.0350 C   0  0  0  0  0  0  0  0  0  0  0  0
    4.9400    1.7060   18.5060 C   0  0  0  0  0  0  0  0  0  0  0  0
    4.0980    2.1130   19.5350 C   0  0  0  0  0  0  0  0  0  0  0  0
    4.2970    1.6690   20.8430 C   0  0  0  0  0  0  0  0  0  0  0  0
    5.3360    0.8000   21.1530 C   0  0  0  0  0  0  0  0  0  0  0  0
    8.9510    0.1280   21.6880 C   0  0  0  0  0  0  0  0  0  0  0  0
    8.2362   -4.9970   26.8045 C   0  0  0  0  0  0  0  0  0  0  0  0
    8.8771    1.0813   23.9905 C   0  0  0  0  0  0  0  0  0  0  0  0
    9.4200   -0.0840   22.9530 C   0  0  2  0  0  0  0  0  0  0  0  0
    6.9440    0.2550   18.0100 N   0  0  0  0  0  0  0  0  0  0  0  0
    7.6830   -0.5170   18.7600 N   0  0  0  0  0  0  0  0  0  0  0  0
    6.1600    0.3870   20.1140 N   0  0  0  0  0  0  0  0  0  0  0  0
    8.0810   -0.9750   21.0820 N   0  0  0  0  0  0  0  0  0  0  0  0
    9.1870    1.1500   21.0630 O   0  0  0  0  0  0  0  0  0  0  0  0
    9.2637   -4.8607   25.8240 O   0  0  0  0  0  0  0  0  0  0  0  0
    9.8028    5.0040   23.8033 S   0  0  0  0  0  0  0  0  0  0  0  0
    7.5962   -0.7776   24.7981 H   0  0  0  0  0  0  0  0  0  0  0  0
   11.0395   -2.1844   22.6346 H   0  0  0  0  0  0  0  0  0  0  0  0
    7.5664   -2.8672   26.1058 H   0  0  0  0  0  0  0  0  0  0  0  0
   11.0120   -4.2666   23.9463 H   0  0  0  0  0  0  0  0  0  0  0  0
   11.5925    1.9010   23.3455 H   0  0  0  0  0  0  0  0  0  0  0  0
   12.1213    4.4748   23.2422 H   0  0  0  0  0  0  0  0  0  0  0  0
    7.7599    3.7576   24.2842 H   0  0  0  0  0  0  0  0  0  0  0  0
    4.7733    2.0700   17.5071 H   0  0  0  0  0  0  0  0  0  0  0  0
    3.2813    2.7836   19.2995 H   0  0  0  0  0  0  0  0  0  0  0  0
    3.6335    1.9977   21.6542 H   0  0  0  0  0  0  0  0  0  0  0  0
    5.5067    0.4537   22.1474 H   0  0  0  0  0  0  0  0  0  0  0  0
    8.3331   -5.9645   27.3029 H   0  0  0  0  0  0  0  0  0  0  0  0
    7.2585   -4.9200   26.3221 H   0  0  0  0  0  0  0  0  0  0  0  0
    8.3403   -4.1976   27.5420 H   0  0  0  0  0  0  0  0  0  0  0  0
    8.9708    0.7434   25.0308 H   0  0  0  0  0  0  0  0  0  0  0  0
    7.7972    1.1781   23.8117 H   0  0  0  0  0  0  0  0  0  0  0  0
   10.5743    0.2174   22.9808 H   0  0  0  0  0  0  0  0  0  0  0  0
    8.1152   -1.8120   21.3518 H   0  0  0  0  0  0  0  0  0  0  0  0
  1  3  2  0  0  0  0
  1  8  1  0  0  0  0
  2  4  1  0  0  0  0
  2  8  2  0  0  0  0
  3 10  1  0  0  0  0
  4 10  2  0  0  0  0
  5  6  2  0  0  0  0
  5  9  1  0  0  0  0
  6 27  1  0  0  0  0
  7  9  2  0  0  0  0
  7 27  1  0  0  0  0
  8 20  1  0  0  0  0
  9 19  1  0  0  0  0
 10 26  1  0  0  0  0
 11 13  1  0  0  0  0
 11 21  2  0  0  0  0
 11 23  1  0  0  0  0
 12 22  2  0  0  0  0
 12 23  1  0  0  0  0
 12 24  1  0  0  0  0
 13 14  2  0  0  0  0
 14 15  1  0  0  0  0
 15 16  2  0  0  0  0
 16 23  1  0  0  0  0
 17 20  1  0  0  0  0
 17 24  1  0  0  0  0
 17 25  2  0  0  0  0
 18 26  1  0  0  0  0
 19 20  1  6  0  0  0
 21 22  1  0  0  0  0
  1 28  1  0  0  0  0
  2 29  1  0  0  0  0
  3 30  1  0  0  0  0
  4 31  1  0  0  0  0
  5 32  1  0  0  0  0
  6 33  1  0  0  0  0
  7 34  1  0  0  0  0
 13 35  1  0  0  0  0
 14 36  1  0  0  0  0
 15 37  1  0  0  0  0
 16 38  1  0  0  0  0
 18 39  1  0  0  0  0
 18 40  1  0  0  0  0
 18 41  1  0  0  0  0
 19 42  1  0  0  0  0
 19 43  1  0  0  0  0
 20 44  1  0  0  0  0
 24 45  1  0  0  0  0
M  END
> <clash_score>
0

> <docking_score>
-9.923384666442871

> <overlap_score>
0.8510884642601013

$$$$
BENZO_327_1
  -OEChem-08232013503D

 48 51  0     1  0  0  0  0  0999 V2000
    8.3510   -1.5420   24.6110 C   0  0  0  0  0  0  0  0  0  0  0  0
   10.2760   -2.3270   23.4020 C   0  0  0  0  0  0  0  0  0  0  0  0
    8.3310   -2.7170   25.3430 C   0  0  0  0  0  0  0  0  0  0  0  0
   10.2570   -3.5000   24.1350 C   0  0  0  0  0  0  0  0  0  0  0  0
   10.2235    2.9023   23.6242 C   0  0  0  0  0  0  0  0  0  0  0  0
   12.2091    2.6870   22.7043 C   0  0  0  0  0  0  0  0  0  0  0  0
    9.3300   -1.3350   23.6390 C   0  0  0  0  0  0  0  0  0  0  0  0
   11.1370    1.9470   23.1397 C   0  0  0  0  0  0  0  0  0  0  0  0
    9.2850   -3.7090   25.1090 C   0  0  0  0  0  0  0  0  0  0  0  0
    5.9810    0.8330   18.8060 C   0  0  0  0  0  0  0  0  0  0  0  0
    7.2210   -0.4620   20.0350 C   0  0  0  0  0  0  0  0  0  0  0  0
    4.9400    1.7060   18.5060 C   0  0  0  0  0  0  0  0  0  0  0  0
    4.0980    2.1130   19.5350 C   0  0  0  0  0  0  0  0  0  0  0  0
    4.2970    1.6690   20.8430 C   0  0  0  0  0  0  0  0  0  0  0  0
    5.3360    0.8000   21.1530 C   0  0  0  0  0  0  0  0  0  0  0  0
    8.9510    0.1280   21.6880 C   0  0  0  0  0  0  0  0  0  0  0  0
   12.7031    5.1430   22.6555 C   0  0  0  0  0  0  0  0  0  0  0  0
    8.2362   -4.9970   26.8045 C   0  0  0  0  0  0  0  0  0  0  0  0
   10.9777    0.4443   23.1075 C   0  0  0  0  0  0  0  0  0  0  0  0
    9.4200   -0.0840   22.9530 C   0  0  1  0  0  0  0  0  0  0  0  0
   10.6758    4.1536   23.5079 N   0  0  0  0  0  0  0  0  0  0  0  0
    6.9440    0.2550   18.0100 N   0  0  0  0  0  0  0  0  0  0  0  0
    7.6830   -0.5170   18.7600 N   0  0  0  0  0  0  0  0  0  0  0  0
   11.8853    3.9898   22.9453 N   0  0  0  0  0  0  0  0  0  0  0  0
    6.1600    0.3870   20.1140 N   0  0  0  0  0  0  0  0  0  0  0  0
    8.0810   -0.9750   21.0820 N   0  0  0  0  0  0  0  0  0  0  0  0
    9.1870    1.1500   21.0630 O   0  0  0  0  0  0  0  0  0  0  0  0
    9.2637   -4.8607   25.8240 O   0  0  0  0  0  0  0  0  0  0  0  0
    7.5962   -0.7776   24.7981 H   0  0  0  0  0  0  0  0  0  0  0  0
   11.0395   -2.1844   22.6346 H   0  0  0  0  0  0  0  0  0  0  0  0
    7.5664   -2.8672   26.1058 H   0  0  0  0  0  0  0  0  0  0  0  0
   11.0120   -4.2666   23.9463 H   0  0  0  0  0  0  0  0  0  0  0  0
    9.2470    2.7411   24.0585 H   0  0  0  0  0  0  0  0  0  0  0  0
   13.1519    2.4044   22.2557 H   0  0  0  0  0  0  0  0  0  0  0  0
    4.7733    2.0700   17.5071 H   0  0  0  0  0  0  0  0  0  0  0  0
    3.2813    2.7836   19.2995 H   0  0  0  0  0  0  0  0  0  0  0  0
    3.6335    1.9977   21.6542 H   0  0  0  0  0  0  0  0  0  0  0  0
    5.5067    0.4537   22.1474 H   0  0  0  0  0  0  0  0  0  0  0  0
   12.4640    5.4803   21.6435 H   0  0  0  0  0  0  0  0  0  0  0  0
   12.4902    5.9323   23.3818 H   0  0  0  0  0  0  0  0  0  0  0  0
   13.7583    4.8651   22.7277 H   0  0  0  0  0  0  0  0  0  0  0  0
    8.3331   -5.9645   27.3029 H   0  0  0  0  0  0  0  0  0  0  0  0
    7.2585   -4.9200   26.3221 H   0  0  0  0  0  0  0  0  0  0  0  0
    8.3403   -4.1976   27.5420 H   0  0  0  0  0  0  0  0  0  0  0  0
   11.5363    0.0387   22.2539 H   0  0  0  0  0  0  0  0  0  0  0  0
   11.4704    0.0336   23.9998 H   0  0  0  0  0  0  0  0  0  0  0  0
    8.9182    0.7194   23.6789 H   0  0  0  0  0  0  0  0  0  0  0  0
    8.1152   -1.8120   21.3518 H   0  0  0  0  0  0  0  0  0  0  0  0
  1  3  2  0  0  0  0
  1  7  1  0  0  0  0
  2  4  1  0  0  0  0
  2  7  2  0  0  0  0
  3  9  1  0  0  0  0
  4  9  2  0  0  0  0
  5  8  1  0  0  0  0
  5 21  2  0  0  0  0
  6  8  2  0  0  0  0
  6 24  1  0  0  0  0
  7 20  1  0  0  0  0
  8 19  1  0  0  0  0
  9 28  1  0  0  0  0
 10 12  1  0  0  0  0
 10 22  2  0  0  0  0
 10 25  1  0  0  0  0
 11 23  2  0  0  0  0
 11 25  1  0  0  0  0
 11 26  1  0  0  0  0
 12 13  2  0  0  0  0
 13 14  1  0  0  0  0
 14 15  2  0  0  0  0
 15 25  1  0  0  0  0
 16 20  1  0  0  0  0
 16 26  1  0  0  0  0
 16 27  2  0  0  0  0
 17 24  1  0  0  0  0
 18 28  1  0  0  0  0
 19 20  1  1  0  0  0
 21 24  1  0  0  0  0
 22 23  1  0  0  0  0
  1 29  1  0  0  0  0
  2 30  1  0  0  0  0
  3 31  1  0  0  0  0
  4 32  1  0  0  0  0
  5 33  1  0  0  0  0
  6 34  1  0  0  0  0
 12 35  1  0  0  0  0
 13 36  1  0  0  0  0
 14 37  1  0  0  0  0
 15 38  1  0  0  0  0
 17 39  1  0  0  0  0
 17 40  1  0  0  0  0
 17 41  1  0  0  0  0
 18 42  1  0  0  0  0
 18 43  1  0  0  0  0
 18 44  1  0  0  0  0
 19 45  1  0  0  0  0
 19 46  1  0  0  0  0
 20 47  1  0  0  0  0
 26 48  1  0  0  0  0
M  END
> <clash_score>
0

> <docking_score>
-11.271125793457031

> <overlap_score>
0.9200305342674255

$$$$
BENZO_327_2
  -OEChem-08232013503D

 48 51  0     1  0  0  0  0  0999 V2000
    8.3510   -1.5420   24.6110 C   0  0  0  0  0  0  0  0  0  0  0  0
   10.2760   -2.3270   23.4020 C   0  0  0  0  0  0  0  0  0  0  0  0
    8.3310   -2.7170   25.3430 C   0  0  0  0  0  0  0  0  0  0  0  0
   10.2570   -3.5000   24.1350 C   0  0  0  0  0  0  0  0  0  0  0  0
   10.7939    2.7770   23.4177 C   0  0  0  0  0  0  0  0  0  0  0  0
    8.9123    3.6676   24.1257 C   0  0  0  0  0  0  0  0  0  0  0  0
    9.3300   -1.3350   23.6390 C   0  0  0  0  0  0  0  0  0  0  0  0
    9.4950    2.4539   23.8539 C   0  0  0  0  0  0  0  0  0  0  0  0
    9.2850   -3.7090   25.1090 C   0  0  0  0  0  0  0  0  0  0  0  0
    5.9810    0.8330   18.8060 C   0  0  0  0  0  0  0  0  0  0  0  0
    7.2210   -0.4620   20.0350 C   0  0  0  0  0  0  0  0  0  0  0  0
    4.9400    1.7060   18.5060 C   0  0  0  0  0  0  0  0  0  0  0  0
    4.0980    2.1130   19.5350 C   0  0  0  0  0  0  0  0  0  0  0  0
    4.2970    1.6690   20.8430 C   0  0  0  0  0  0  0  0  0  0  0  0
    5.3360    0.8000   21.1530 C   0  0  0  0  0  0  0  0  0  0  0  0
    8.9510    0.1280   21.6880 C   0  0  0  0  0  0  0  0  0  0  0  0
    9.7138    6.0371   23.9775 C   0  0  0  0  0  0  0  0  0  0  0  0
    8.2362   -4.9970   26.8045 C   0  0  0  0  0  0  0  0  0  0  0  0
    8.8771    1.0813   23.9905 C   0  0  0  0  0  0  0  0  0  0  0  0
    9.4200   -0.0840   22.9530 C   0  0  2  0  0  0  0  0  0  0  0  0
   11.0232    4.0928   23.4110 N   0  0  0  0  0  0  0  0  0  0  0  0
    6.9440    0.2550   18.0100 N   0  0  0  0  0  0  0  0  0  0  0  0
    7.6830   -0.5170   18.7600 N   0  0  0  0  0  0  0  0  0  0  0  0
    9.8605    4.6073   23.8463 N   0  0  0  0  0  0  0  0  0  0  0  0
    6.1600    0.3870   20.1140 N   0  0  0  0  0  0  0  0  0  0  0  0
    8.0810   -0.9750   21.0820 N   0  0  0  0  0  0  0  0  0  0  0  0
    9.1870    1.1500   21.0630 O   0  0  0  0  0  0  0  0  0  0  0  0
    9.2637   -4.8607   25.8240 O   0  0  0  0  0  0  0  0  0  0  0  0
    7.5962   -0.7776   24.7981 H   0  0  0  0  0  0  0  0  0  0  0  0
   11.0395   -2.1844   22.6346 H   0  0  0  0  0  0  0  0  0  0  0  0
    7.5664   -2.8672   26.1058 H   0  0  0  0  0  0  0  0  0  0  0  0
   11.0120   -4.2666   23.9463 H   0  0  0  0  0  0  0  0  0  0  0  0
   11.5843    2.1103   23.1031 H   0  0  0  0  0  0  0  0  0  0  0  0
    7.9277    3.9360   24.4839 H   0  0  0  0  0  0  0  0  0  0  0  0
    4.7733    2.0700   17.5071 H   0  0  0  0  0  0  0  0  0  0  0  0
    3.2813    2.7836   19.2995 H   0  0  0  0  0  0  0  0  0  0  0  0
    3.6335    1.9977   21.6542 H   0  0  0  0  0  0  0  0  0  0  0  0
    5.5067    0.4537   22.1474 H   0  0  0  0  0  0  0  0  0  0  0  0
   10.0225    6.3165   24.9883 H   0  0  0  0  0  0  0  0  0  0  0  0
   10.3410    6.5371   23.2342 H   0  0  0  0  0  0  0  0  0  0  0  0
    8.6688    6.3103   23.8064 H   0  0  0  0  0  0  0  0  0  0  0  0
    8.3331   -5.9645   27.3029 H   0  0  0  0  0  0  0  0  0  0  0  0
    7.2585   -4.9200   26.3221 H   0  0  0  0  0  0  0  0  0  0  0  0
    8.3403   -4.1976   27.5420 H   0  0  0  0  0  0  0  0  0  0  0  0
    8.9708    0.7434   25.0308 H   0  0  0  0  0  0  0  0  0  0  0  0
    7.7972    1.1781   23.8117 H   0  0  0  0  0  0  0  0  0  0  0  0
   10.5743    0.2174   22.9808 H   0  0  0  0  0  0  0  0  0  0  0  0
    8.1152   -1.8120   21.3518 H   0  0  0  0  0  0  0  0  0  0  0  0
  1  3  2  0  0  0  0
  1  7  1  0  0  0  0
  2  4  1  0  0  0  0
  2  7  2  0  0  0  0
  3  9  1  0  0  0  0
  4  9  2  0  0  0  0
  5  8  1  0  0  0  0
  5 21  2  0  0  0  0
  6  8  2  0  0  0  0
  6 24  1  0  0  0  0
  7 20  1  0  0  0  0
  8 19  1  0  0  0  0
  9 28  1  0  0  0  0
 10 12  1  0  0  0  0
 10 22  2  0  0  0  0
 10 25  1  0  0  0  0
 11 23  2  0  0  0  0
 11 25  1  0  0  0  0
 11 26  1  0  0  0  0
 12 13  2  0  0  0  0
 13 14  1  0  0  0  0
 14 15  2  0  0  0  0
 15 25  1  0  0  0  0
 16 20  1  0  0  0  0
 16 26  1  0  0  0  0
 16 27  2  0  0  0  0
 17 24  1  0  0  0  0
 18 28  1  0  0  0  0
 19 20  1  6  0  0  0
 21 24  1  0  0  0  0
 22 23  1  0  0  0  0
  1 29  1  0  0  0  0
  2 30  1  0  0  0  0
  3 31  1  0  0  0  0
  4 32  1  0  0  0  0
  5 33  1  0  0  0  0
  6 34  1  0  0  0  0
 12 35  1  0  0  0  0
 13 36  1  0  0  0  0
 14 37  1  0  0  0  0
 15 38  1  0  0  0  0
 17 39  1  0  0  0  0
 17 40  1  0  0  0  0
 17 41  1  0  0  0  0
 18 42  1  0  0  0  0
 18 43  1  0  0  0  0
 18 44  1  0  0  0  0
 19 45  1  0  0  0  0
 19 46  1  0  0  0  0
 20 47  1  0  0  0  0
 26 48  1  0  0  0  0
M  END
> <clash_score>
0

> <docking_score>
-10.075430870056152

> <overlap_score>
0.8466094732284546

$$$$
BENZO_326_1
  -OEChem-08232013503D

 48 51  0     1  0  0  0  0  0999 V2000
   10.2645    4.1315   23.6906 C   0  0  0  0  0  0  0  0  0  0  0  0
   10.1177    2.7447   23.6595 C   0  0  0  0  0  0  0  0  0  0  0  0
    8.3510   -1.5420   24.6110 C   0  0  0  0  0  0  0  0  0  0  0  0
   10.2760   -2.3270   23.4020 C   0  0  0  0  0  0  0  0  0  0  0  0
    8.3310   -2.7170   25.3430 C   0  0  0  0  0  0  0  0  0  0  0  0
   10.2570   -3.5000   24.1350 C   0  0  0  0  0  0  0  0  0  0  0  0
   11.4306    4.7205   23.2018 C   0  0  0  0  0  0  0  0  0  0  0  0
   12.3032    2.5360   22.6510 C   0  0  0  0  0  0  0  0  0  0  0  0
    9.3300   -1.3350   23.6390 C   0  0  0  0  0  0  0  0  0  0  0  0
   11.1370    1.9470   23.1397 C   0  0  0  0  0  0  0  0  0  0  0  0
    9.2850   -3.7090   25.1090 C   0  0  0  0  0  0  0  0  0  0  0  0
   12.4500    3.9228   22.6820 C   0  0  0  0  0  0  0  0  0  0  0  0
    5.9810    0.8330   18.8060 C   0  0  0  0  0  0  0  0  0  0  0  0
    7.2210   -0.4620   20.0350 C   0  0  0  0  0  0  0  0  0  0  0  0
    4.9400    1.7060   18.5060 C   0  0  0  0  0  0  0  0  0  0  0  0
    4.0980    2.1130   19.5350 C   0  0  0  0  0  0  0  0  0  0  0  0
    4.2970    1.6690   20.8430 C   0  0  0  0  0  0  0  0  0  0  0  0
    5.3360    0.8000   21.1530 C   0  0  0  0  0  0  0  0  0  0  0  0
    8.9510    0.1280   21.6880 C   0  0  0  0  0  0  0  0  0  0  0  0
    8.2362   -4.9970   26.8045 C   0  0  0  0  0  0  0  0  0  0  0  0
   10.9777    0.4443   23.1075 C   0  0  0  0  0  0  0  0  0  0  0  0
    9.4200   -0.0840   22.9530 C   0  0  1  0  0  0  0  0  0  0  0  0
    6.9440    0.2550   18.0100 N   0  0  0  0  0  0  0  0  0  0  0  0
    7.6830   -0.5170   18.7600 N   0  0  0  0  0  0  0  0  0  0  0  0
    6.1600    0.3870   20.1140 N   0  0  0  0  0  0  0  0  0  0  0  0
    8.0810   -0.9750   21.0820 N   0  0  0  0  0  0  0  0  0  0  0  0
    9.1870    1.1500   21.0630 O   0  0  0  0  0  0  0  0  0  0  0  0
    9.2637   -4.8607   25.8240 O   0  0  0  0  0  0  0  0  0  0  0  0
   13.8890    4.6500   22.0802 Cl  0  0  0  0  0  0  0  0  0  0  0  0
    9.4706    4.7523   24.0955 H   0  0  0  0  0  0  0  0  0  0  0  0
    9.2057    2.2944   24.0426 H   0  0  0  0  0  0  0  0  0  0  0  0
    7.5962   -0.7776   24.7981 H   0  0  0  0  0  0  0  0  0  0  0  0
   11.0395   -2.1844   22.6346 H   0  0  0  0  0  0  0  0  0  0  0  0
    7.5664   -2.8672   26.1058 H   0  0  0  0  0  0  0  0  0  0  0  0
   11.0120   -4.2666   23.9463 H   0  0  0  0  0  0  0  0  0  0  0  0
   11.5314    5.8026   23.2326 H   0  0  0  0  0  0  0  0  0  0  0  0
   13.0949    1.9096   22.2463 H   0  0  0  0  0  0  0  0  0  0  0  0
    4.7733    2.0700   17.5071 H   0  0  0  0  0  0  0  0  0  0  0  0
    3.2813    2.7836   19.2995 H   0  0  0  0  0  0  0  0  0  0  0  0
    3.6335    1.9977   21.6542 H   0  0  0  0  0  0  0  0  0  0  0  0
    5.5067    0.4537   22.1474 H   0  0  0  0  0  0  0  0  0  0  0  0
    8.3331   -5.9645   27.3029 H   0  0  0  0  0  0  0  0  0  0  0  0
    7.2585   -4.9200   26.3221 H   0  0  0  0  0  0  0  0  0  0  0  0
    8.3403   -4.1976   27.5420 H   0  0  0  0  0  0  0  0  0  0  0  0
   11.5363    0.0387   22.2539 H   0  0  0  0  0  0  0  0  0  0  0  0
   11.4704    0.0336   23.9998 H   0  0  0  0  0  0  0  0  0  0  0  0
    8.9182    0.7194   23.6789 H   0  0  0  0  0  0  0  0  0  0  0  0
    8.1152   -1.8120   21.3518 H   0  0  0  0  0  0  0  0  0  0  0  0
  1  2  2  0  0  0  0
  1  7  1  0  0  0  0
  2 10  1  0  0  0  0
  3  5  2  0  0  0  0
  3  9  1  0  0  0  0
  4  6  1  0  0  0  0
  4  9  2  0  0  0  0
  5 11  1  0  0  0  0
  6 11  2  0  0  0  0
  7 12  2  0  0  0  0
  8 10  2  0  0  0  0
  8 12  1  0  0  0  0
  9 22  1  0  0  0  0
 10 21  1  0  0  0  0
 11 28  1  0  0  0  0
 12 29  1  0  0  0  0
 13 15  1  0  0  0  0
 13 23  2  0  0  0  0
 13 25  1  0  0  0  0
 14 24  2  0  0  0  0
 14 25  1  0  0  0  0
 14 26  1  0  0  0  0
 15 16  2  0  0  0  0
 16 17  1  0  0  0  0
 17 18  2  0  0  0  0
 18 25  1  0  0  0  0
 19 22  1  0  0  0  0
 19 26  1  0  0  0  0
 19 27  2  0  0  0  0
 20 28  1  0  0  0  0
 21 22  1  1  0  0  0
 23 24  1  0  0  0  0
  1 30  1  0  0  0  0
  2 31  1  0  0  0  0
  3 32  1  0  0  0  0
  4 33  1  0  0  0  0
  5 34  1  0  0  0  0
  6 35  1  0  0  0  0
  7 36  1  0  0  0  0
  8 37  1  0  0  0  0
 15 38  1  0  0  0  0
 16 39  1  0  0  0  0
 17 40  1  0  0  0  0
 18 41  1  0  0  0  0
 20 42  1  0  0  0  0
 20 43  1  0  0  0  0
 20 44  1  0  0  0  0
 21 45  1  0  0  0  0
 21 46  1  0  0  0  0
 22 47  1  0  0  0  0
 26 48  1  0  0  0  0
M  END
> <clash_score>
0

> <docking_score>
-11.742437362670898

> <overlap_score>
0.9261939525604248

$$$$
BENZO_326_2
  -OEChem-08232013503D

 48 51  0     1  0  0  0  0  0999 V2000
    9.3211    4.8553   24.0536 C   0  0  0  0  0  0  0  0  0  0  0  0
    8.7511    3.5884   24.1784 C   0  0  0  0  0  0  0  0  0  0  0  0
    8.3510   -1.5420   24.6110 C   0  0  0  0  0  0  0  0  0  0  0  0
   10.2760   -2.3270   23.4020 C   0  0  0  0  0  0  0  0  0  0  0  0
    8.3310   -2.7170   25.3430 C   0  0  0  0  0  0  0  0  0  0  0  0
   10.2570   -3.5000   24.1350 C   0  0  0  0  0  0  0  0  0  0  0  0
   10.6349    4.9878   23.6042 C   0  0  0  0  0  0  0  0  0  0  0  0
   10.8089    2.5864   23.4046 C   0  0  0  0  0  0  0  0  0  0  0  0
    9.3300   -1.3350   23.6390 C   0  0  0  0  0  0  0  0  0  0  0  0
    9.4950    2.4539   23.8539 C   0  0  0  0  0  0  0  0  0  0  0  0
    9.2850   -3.7090   25.1090 C   0  0  0  0  0  0  0  0  0  0  0  0
   11.3788    3.8534   23.2798 C   0  0  0  0  0  0  0  0  0  0  0  0
    5.9810    0.8330   18.8060 C   0  0  0  0  0  0  0  0  0  0  0  0
    7.2210   -0.4620   20.0350 C   0  0  0  0  0  0  0  0  0  0  0  0
    4.9400    1.7060   18.5060 C   0  0  0  0  0  0  0  0  0  0  0  0
    4.0980    2.1130   19.5350 C   0  0  0  0  0  0  0  0  0  0  0  0
    4.2970    1.6690   20.8430 C   0  0  0  0  0  0  0  0  0  0  0  0
    5.3360    0.8000   21.1530 C   0  0  0  0  0  0  0  0  0  0  0  0
    8.9510    0.1280   21.6880 C   0  0  0  0  0  0  0  0  0  0  0  0
    8.2362   -4.9970   26.8045 C   0  0  0  0  0  0  0  0  0  0  0  0
    8.8771    1.0813   23.9905 C   0  0  0  0  0  0  0  0  0  0  0  0
    9.4200   -0.0840   22.9530 C   0  0  2  0  0  0  0  0  0  0  0  0
    6.9440    0.2550   18.0100 N   0  0  0  0  0  0  0  0  0  0  0  0
    7.6830   -0.5170   18.7600 N   0  0  0  0  0  0  0  0  0  0  0  0
    6.1600    0.3870   20.1140 N   0  0  0  0  0  0  0  0  0  0  0  0
    8.0810   -0.9750   21.0820 N   0  0  0  0  0  0  0  0  0  0  0  0
    9.1870    1.1500   21.0630 O   0  0  0  0  0  0  0  0  0  0  0  0
    9.2637   -4.8607   25.8240 O   0  0  0  0  0  0  0  0  0  0  0  0
   13.0002    4.0175   22.7265 Cl  0  0  0  0  0  0  0  0  0  0  0  0
    8.7415    5.7384   24.3065 H   0  0  0  0  0  0  0  0  0  0  0  0
    7.7267    3.4945   24.5294 H   0  0  0  0  0  0  0  0  0  0  0  0
    7.5962   -0.7776   24.7981 H   0  0  0  0  0  0  0  0  0  0  0  0
   11.0395   -2.1844   22.6346 H   0  0  0  0  0  0  0  0  0  0  0  0
    7.5664   -2.8672   26.1058 H   0  0  0  0  0  0  0  0  0  0  0  0
   11.0120   -4.2666   23.9463 H   0  0  0  0  0  0  0  0  0  0  0  0
   11.0663    5.9816   23.5121 H   0  0  0  0  0  0  0  0  0  0  0  0
   11.3846    1.6989   23.1523 H   0  0  0  0  0  0  0  0  0  0  0  0
    4.7733    2.0700   17.5071 H   0  0  0  0  0  0  0  0  0  0  0  0
    3.2813    2.7836   19.2995 H   0  0  0  0  0  0  0  0  0  0  0  0
    3.6335    1.9977   21.6542 H   0  0  0  0  0  0  0  0  0  0  0  0
    5.5067    0.4537   22.1474 H   0  0  0  0  0  0  0  0  0  0  0  0
    8.3331   -5.9645   27.3029 H   0  0  0  0  0  0  0  0  0  0  0  0
    7.2585   -4.9200   26.3221 H   0  0  0  0  0  0  0  0  0  0  0  0
    8.3403   -4.1976   27.5420 H   0  0  0  0  0  0  0  0  0  0  0  0
    8.9708    0.7434   25.0308 H   0  0  0  0  0  0  0  0  0  0  0  0
    7.7972    1.1781   23.8117 H   0  0  0  0  0  0  0  0  0  0  0  0
   10.5743    0.2174   22.9808 H   0  0  0  0  0  0  0  0  0  0  0  0
    8.1152   -1.8120   21.3518 H   0  0  0  0  0  0  0  0  0  0  0  0
  1  2  2  0  0  0  0
  1  7  1  0  0  0  0
  2 10  1  0  0  0  0
  3  5  2  0  0  0  0
  3  9  1  0  0  0  0
  4  6  1  0  0  0  0
  4  9  2  0  0  0  0
  5 11  1  0  0  0  0
  6 11  2  0  0  0  0
  7 12  2  0  0  0  0
  8 10  2  0  0  0  0
  8 12  1  0  0  0  0
  9 22  1  0  0  0  0
 10 21  1  0  0  0  0
 11 28  1  0  0  0  0
 12 29  1  0  0  0  0
 13 15  1  0  0  0  0
 13 23  2  0  0  0  0
 13 25  1  0  0  0  0
 14 24  2  0  0  0  0
 14 25  1  0  0  0  0
 14 26  1  0  0  0  0
 15 16  2  0  0  0  0
 16 17  1  0  0  0  0
 17 18  2  0  0  0  0
 18 25  1  0  0  0  0
 19 22  1  0  0  0  0
 19 26  1  0  0  0  0
 19 27  2  0  0  0  0
 20 28  1  0  0  0  0
 21 22  1  6  0  0  0
 23 24  1  0  0  0  0
  1 30  1  0  0  0  0
  2 31  1  0  0  0  0
  3 32  1  0  0  0  0
  4 33  1  0  0  0  0
  5 34  1  0  0  0  0
  6 35  1  0  0  0  0
  7 36  1  0  0  0  0
  8 37  1  0  0  0  0
 15 38  1  0  0  0  0
 16 39  1  0  0  0  0
 17 40  1  0  0  0  0
 18 41  1  0  0  0  0
 20 42  1  0  0  0  0
 20 43  1  0  0  0  0
 20 44  1  0  0  0  0
 21 45  1  0  0  0  0
 21 46  1  0  0  0  0
 22 47  1  0  0  0  0
 26 48  1  0  0  0  0
M  END
> <clash_score>
0

> <docking_score>
-10.734570503234863

> <overlap_score>
0.8616358041763306

$$$$
BENZO_329_2
  -OEChem-08232013503D

 58 62  0     1  0  0  0  0  0999 V2000
   11.4307    4.7297   23.1590 C   0  0  0  0  0  0  0  0  0  0  0  0
   12.4501    3.9274   22.6463 C   0  0  0  0  0  0  0  0  0  0  0  0
   10.2648    4.1449   23.6534 C   0  0  0  0  0  0  0  0  0  0  0  0
   12.3036    2.5404   22.6280 C   0  0  0  0  0  0  0  0  0  0  0  0
   10.1183    2.7579   23.6350 C   0  0  0  0  0  0  0  0  0  0  0  0
    8.3510   -1.5420   24.6110 C   0  0  0  0  0  0  0  0  0  0  0  0
   10.2760   -2.3270   23.4020 C   0  0  0  0  0  0  0  0  0  0  0  0
    8.3310   -2.7170   25.3430 C   0  0  0  0  0  0  0  0  0  0  0  0
   10.2570   -3.5000   24.1350 C   0  0  0  0  0  0  0  0  0  0  0  0
   11.1377    1.9556   23.1223 C   0  0  0  0  0  0  0  0  0  0  0  0
    9.3300   -1.3350   23.6390 C   0  0  0  0  0  0  0  0  0  0  0  0
    9.2850   -3.7090   25.1090 C   0  0  0  0  0  0  0  0  0  0  0  0
    5.9810    0.8330   18.8060 C   0  0  0  0  0  0  0  0  0  0  0  0
    7.2210   -0.4620   20.0350 C   0  0  0  0  0  0  0  0  0  0  0  0
    4.9400    1.7060   18.5060 C   0  0  0  0  0  0  0  0  0  0  0  0
    4.0980    2.1130   19.5350 C   0  0  0  0  0  0  0  0  0  0  0  0
    4.2970    1.6690   20.8430 C   0  0  0  0  0  0  0  0  0  0  0  0
    5.3360    0.8000   21.1530 C   0  0  0  0  0  0  0  0  0  0  0  0
    8.0643   -5.4721   26.3672 C   0  0  0  0  0  0  0  0  0  0  0  0
    8.9510    0.1280   21.6880 C   0  0  0  0  0  0  0  0  0  0  0  0
    8.2649   -6.7591   27.1477 C   0  0  0  0  0  0  0  0  0  0  0  0
    9.4073   -6.6157   28.1377 C   0  0  0  0  0  0  0  0  0  0  0  0
   10.6967   -6.1489   27.4694 C   0  0  0  0  0  0  0  0  0  0  0  0
   10.4950   -5.7059   26.0212 C   0  0  0  0  0  0  0  0  0  0  0  0
   10.9782    0.4527   23.1025 C   0  0  0  0  0  0  0  0  0  0  0  0
    9.4200   -0.0840   22.9530 C   0  0  2  0  0  0  0  0  0  0  0  0
    6.9440    0.2550   18.0100 N   0  0  0  0  0  0  0  0  0  0  0  0
    7.6830   -0.5170   18.7600 N   0  0  0  0  0  0  0  0  0  0  0  0
    6.1600    0.3870   20.1140 N   0  0  0  0  0  0  0  0  0  0  0  0
    9.2624   -4.9267   25.8634 N   0  0  0  0  0  0  0  0  0  0  0  0
    8.0810   -0.9750   21.0820 N   0  0  0  0  0  0  0  0  0  0  0  0
    6.9247   -5.0497   26.1749 O   0  0  0  0  0  0  0  0  0  0  0  0
    9.1870    1.1500   21.0630 O   0  0  0  0  0  0  0  0  0  0  0  0
   11.5455    5.8096   23.1744 H   0  0  0  0  0  0  0  0  0  0  0  0
   13.3585    4.3825   22.2623 H   0  0  0  0  0  0  0  0  0  0  0  0
    9.4714    4.7691   24.0536 H   0  0  0  0  0  0  0  0  0  0  0  0
   13.1030    1.9232   22.2264 H   0  0  0  0  0  0  0  0  0  0  0  0
    9.2064    2.3111   24.0222 H   0  0  0  0  0  0  0  0  0  0  0  0
    7.5948   -0.7783   24.7966 H   0  0  0  0  0  0  0  0  0  0  0  0
   11.0389   -2.1844   22.6342 H   0  0  0  0  0  0  0  0  0  0  0  0
    7.5642   -2.8624   26.1050 H   0  0  0  0  0  0  0  0  0  0  0  0
   11.0137   -4.2649   23.9418 H   0  0  0  0  0  0  0  0  0  0  0  0
    4.7733    2.0700   17.5071 H   0  0  0  0  0  0  0  0  0  0  0  0
    3.2813    2.7836   19.2995 H   0  0  0  0  0  0  0  0  0  0  0  0
    3.6335    1.9977   21.6542 H   0  0  0  0  0  0  0  0  0  0  0  0
    5.5067    0.4537   22.1474 H   0  0  0  0  0  0  0  0  0  0  0  0
    7.3543   -6.9829   27.6818 H   0  0  0  0  0  0  0  0  0  0  0  0
    8.4783   -7.5436   26.4372 H   0  0  0  0  0  0  0  0  0  0  0  0
    9.1257   -5.9021   28.9399 H   0  0  0  0  0  0  0  0  0  0  0  0
    9.5814   -7.5840   28.6486 H   0  0  0  0  0  0  0  0  0  0  0  0
   11.1319   -5.3094   28.0513 H   0  0  0  0  0  0  0  0  0  0  0  0
   11.4591   -6.9570   27.5118 H   0  0  0  0  0  0  0  0  0  0  0  0
   11.3214   -5.0711   25.7158 H   0  0  0  0  0  0  0  0  0  0  0  0
   10.4496   -6.5786   25.3788 H   0  0  0  0  0  0  0  0  0  0  0  0
   11.5374    0.0399   22.2527 H   0  0  0  0  0  0  0  0  0  0  0  0
   11.4700    0.0494   23.9985 H   0  0  0  0  0  0  0  0  0  0  0  0
    8.9187    0.7273   23.6745 H   0  0  0  0  0  0  0  0  0  0  0  0
    8.1354   -1.7990   21.3694 H   0  0  0  0  0  0  0  0  0  0  0  0
  1  2  1  0  0  0  0
  1  3  2  0  0  0  0
  2  4  2  0  0  0  0
  3  5  1  0  0  0  0
  4 10  1  0  0  0  0
  5 10  2  0  0  0  0
  6  8  2  0  0  0  0
  6 11  1  0  0  0  0
  7  9  1  0  0  0  0
  7 11  2  0  0  0  0
  8 12  1  0  0  0  0
  9 12  2  0  0  0  0
 10 25  1  0  0  0  0
 11 26  1  0  0  0  0
 12 30  1  0  0  0  0
 13 15  1  0  0  0  0
 13 27  2  0  0  0  0
 13 29  1  0  0  0  0
 14 28  2  0  0  0  0
 14 29  1  0  0  0  0
 14 31  1  0  0  0  0
 15 16  2  0  0  0  0
 16 17  1  0  0  0  0
 17 18  2  0  0  0  0
 18 29  1  0  0  0  0
 19 21  1  0  0  0  0
 19 30  1  0  0  0  0
 19 32  2  0  0  0  0
 20 26  1  6  0  0  0
 20 31  1  0  0  0  0
 20 33  2  0  0  0  0
 21 22  1  0  0  0  0
 22 23  1  0  0  0  0
 23 24  1  0  0  0  0
 24 30  1  0  0  0  0
 25 26  1  0  0  0  0
 27 28  1  0  0  0  0
  1 34  1  0  0  0  0
  2 35  1  0  0  0  0
  3 36  1  0  0  0  0
  4 37  1  0  0  0  0
  5 38  1  0  0  0  0
  6 39  1  0  0  0  0
  7 40  1  0  0  0  0
  8 41  1  0  0  0  0
  9 42  1  0  0  0  0
 15 43  1  0  0  0  0
 16 44  1  0  0  0  0
 17 45  1  0  0  0  0
 18 46  1  0  0  0  0
 21 47  1  0  0  0  0
 21 48  1  0  0  0  0
 22 49  1  0  0  0  0
 22 50  1  0  0  0  0
 23 51  1  0  0  0  0
 23 52  1  0  0  0  0
 24 53  1  0  0  0  0
 24 54  1  0  0  0  0
 25 55  1  0  0  0  0
 25 56  1  0  0  0  0
 26 57  1  0  0  0  0
 31 58  1  0  0  0  0
M  END
> <clash_score>
1.2728248649063287

> <docking_score>
-9.763360977172852

> <overlap_score>
0.9460457563400269

$$$$
BENZO_329_1
  -OEChem-08232013503D

 58 62  0     1  0  0  0  0  0999 V2000
   10.6052    5.0071   23.5715 C   0  0  0  0  0  0  0  0  0  0  0  0
    9.2931    4.8684   24.0241 C   0  0  0  0  0  0  0  0  0  0  0  0
   11.3561    3.8758   23.2522 C   0  0  0  0  0  0  0  0  0  0  0  0
    8.7320    3.5984   24.1577 C   0  0  0  0  0  0  0  0  0  0  0  0
   10.7950    2.6058   23.3858 C   0  0  0  0  0  0  0  0  0  0  0  0
    8.3510   -1.5420   24.6110 C   0  0  0  0  0  0  0  0  0  0  0  0
   10.2760   -2.3270   23.4020 C   0  0  0  0  0  0  0  0  0  0  0  0
    8.3310   -2.7170   25.3430 C   0  0  0  0  0  0  0  0  0  0  0  0
   10.2570   -3.5000   24.1350 C   0  0  0  0  0  0  0  0  0  0  0  0
    9.4830    2.4670   23.8385 C   0  0  0  0  0  0  0  0  0  0  0  0
    9.3300   -1.3350   23.6390 C   0  0  0  0  0  0  0  0  0  0  0  0
    9.2850   -3.7090   25.1090 C   0  0  0  0  0  0  0  0  0  0  0  0
    5.9810    0.8330   18.8060 C   0  0  0  0  0  0  0  0  0  0  0  0
    7.2210   -0.4620   20.0350 C   0  0  0  0  0  0  0  0  0  0  0  0
    4.9400    1.7060   18.5060 C   0  0  0  0  0  0  0  0  0  0  0  0
    4.0980    2.1130   19.5350 C   0  0  0  0  0  0  0  0  0  0  0  0
    4.2970    1.6690   20.8430 C   0  0  0  0  0  0  0  0  0  0  0  0
    5.3360    0.8000   21.1530 C   0  0  0  0  0  0  0  0  0  0  0  0
    8.0643   -5.4721   26.3672 C   0  0  0  0  0  0  0  0  0  0  0  0
    8.9510    0.1280   21.6880 C   0  0  0  0  0  0  0  0  0  0  0  0
    8.2649   -6.7591   27.1477 C   0  0  0  0  0  0  0  0  0  0  0  0
    9.4073   -6.6157   28.1377 C   0  0  0  0  0  0  0  0  0  0  0  0
   10.6967   -6.1489   27.4694 C   0  0  0  0  0  0  0  0  0  0  0  0
   10.4950   -5.7059   26.0212 C   0  0  0  0  0  0  0  0  0  0  0  0
    8.8757    1.0906   23.9832 C   0  0  0  0  0  0  0  0  0  0  0  0
    9.4200   -0.0840   22.9530 C   0  0  1  0  0  0  0  0  0  0  0  0
    6.9440    0.2550   18.0100 N   0  0  0  0  0  0  0  0  0  0  0  0
    7.6830   -0.5170   18.7600 N   0  0  0  0  0  0  0  0  0  0  0  0
    6.1600    0.3870   20.1140 N   0  0  0  0  0  0  0  0  0  0  0  0
    9.2624   -4.9267   25.8634 N   0  0  0  0  0  0  0  0  0  0  0  0
    8.0810   -0.9750   21.0820 N   0  0  0  0  0  0  0  0  0  0  0  0
    6.9247   -5.0497   26.1749 O   0  0  0  0  0  0  0  0  0  0  0  0
    9.1870    1.1500   21.0630 O   0  0  0  0  0  0  0  0  0  0  0  0
   11.0415    5.9962   23.4663 H   0  0  0  0  0  0  0  0  0  0  0  0
    8.7079    5.7493   24.2717 H   0  0  0  0  0  0  0  0  0  0  0  0
   12.3773    3.9835   22.8987 H   0  0  0  0  0  0  0  0  0  0  0  0
    7.7090    3.4999   24.5113 H   0  0  0  0  0  0  0  0  0  0  0  0
   11.3876    1.7300   23.1348 H   0  0  0  0  0  0  0  0  0  0  0  0
    7.5948   -0.7783   24.7966 H   0  0  0  0  0  0  0  0  0  0  0  0
   11.0389   -2.1844   22.6342 H   0  0  0  0  0  0  0  0  0  0  0  0
    7.5642   -2.8624   26.1050 H   0  0  0  0  0  0  0  0  0  0  0  0
   11.0137   -4.2649   23.9418 H   0  0  0  0  0  0  0  0  0  0  0  0
    4.7733    2.0700   17.5071 H   0  0  0  0  0  0  0  0  0  0  0  0
    3.2813    2.7836   19.2995 H   0  0  0  0  0  0  0  0  0  0  0  0
    3.6335    1.9977   21.6542 H   0  0  0  0  0  0  0  0  0  0  0  0
    5.5067    0.4537   22.1474 H   0  0  0  0  0  0  0  0  0  0  0  0
    7.3543   -6.9829   27.6818 H   0  0  0  0  0  0  0  0  0  0  0  0
    8.4783   -7.5436   26.4372 H   0  0  0  0  0  0  0  0  0  0  0  0
    9.1257   -5.9021   28.9399 H   0  0  0  0  0  0  0  0  0  0  0  0
    9.5814   -7.5840   28.6486 H   0  0  0  0  0  0  0  0  0  0  0  0
   11.1319   -5.3094   28.0513 H   0  0  0  0  0  0  0  0  0  0  0  0
   11.4591   -6.9570   27.5118 H   0  0  0  0  0  0  0  0  0  0  0  0
   11.3214   -5.0711   25.7158 H   0  0  0  0  0  0  0  0  0  0  0  0
   10.4496   -6.5786   25.3788 H   0  0  0  0  0  0  0  0  0  0  0  0
    8.9639    0.7632   25.0273 H   0  0  0  0  0  0  0  0  0  0  0  0
    7.7964    1.1765   23.7950 H   0  0  0  0  0  0  0  0  0  0  0  0
   10.5749    0.2253   22.9765 H   0  0  0  0  0  0  0  0  0  0  0  0
    8.1354   -1.7990   21.3694 H   0  0  0  0  0  0  0  0  0  0  0  0
  1  2  1  0  0  0  0
  1  3  2  0  0  0  0
  2  4  2  0  0  0  0
  3  5  1  0  0  0  0
  4 10  1  0  0  0  0
  5 10  2  0  0  0  0
  6  8  2  0  0  0  0
  6 11  1  0  0  0  0
  7  9  1  0  0  0  0
  7 11  2  0  0  0  0
  8 12  1  0  0  0  0
  9 12  2  0  0  0  0
 10 25  1  0  0  0  0
 11 26  1  0  0  0  0
 12 30  1  0  0  0  0
 13 15  1  0  0  0  0
 13 27  2  0  0  0  0
 13 29  1  0  0  0  0
 14 28  2  0  0  0  0
 14 29  1  0  0  0  0
 14 31  1  0  0  0  0
 15 16  2  0  0  0  0
 16 17  1  0  0  0  0
 17 18  2  0  0  0  0
 18 29  1  0  0  0  0
 19 21  1  0  0  0  0
 19 30  1  0  0  0  0
 19 32  2  0  0  0  0
 20 26  1  1  0  0  0
 20 31  1  0  0  0  0
 20 33  2  0  0  0  0
 21 22  1  0  0  0  0
 22 23  1  0  0  0  0
 23 24  1  0  0  0  0
 24 30  1  0  0  0  0
 25 26  1  0  0  0  0
 27 28  1  0  0  0  0
  1 34  1  0  0  0  0
  2 35  1  0  0  0  0
  3 36  1  0  0  0  0
  4 37  1  0  0  0  0
  5 38  1  0  0  0  0
  6 39  1  0  0  0  0
  7 40  1  0  0  0  0
  8 41  1  0  0  0  0
  9 42  1  0  0  0  0
 15 43  1  0  0  0  0
 16 44  1  0  0  0  0
 17 45  1  0  0  0  0
 18 46  1  0  0  0  0
 21 47  1  0  0  0  0
 21 48  1  0  0  0  0
 22 49  1  0  0  0  0
 22 50  1  0  0  0  0
 23 51  1  0  0  0  0
 23 52  1  0  0  0  0
 24 53  1  0  0  0  0
 24 54  1  0  0  0  0
 25 55  1  0  0  0  0
 25 56  1  0  0  0  0
 26 57  1  0  0  0  0
 31 58  1  0  0  0  0
M  END
> <clash_score>
1.2728248649063287

> <docking_score>
-8.657383918762207

> <overlap_score>
0.8745534420013428

$$$$
BENZO_328_1
  -OEChem-08232013503D

 55 59  0     1  0  0  0  0  0999 V2000
    8.3510   -1.5420   24.6110 C   0  0  0  0  0  0  0  0  0  0  0  0
   10.2760   -2.3270   23.4020 C   0  0  0  0  0  0  0  0  0  0  0  0
    8.3310   -2.7170   25.3430 C   0  0  0  0  0  0  0  0  0  0  0  0
   10.2570   -3.5000   24.1350 C   0  0  0  0  0  0  0  0  0  0  0  0
   10.8518    2.7022   23.5205 C   0  0  0  0  0  0  0  0  0  0  0  0
   11.1431    4.0467   23.4499 C   0  0  0  0  0  0  0  0  0  0  0  0
    8.7801    3.6410   23.9990 C   0  0  0  0  0  0  0  0  0  0  0  0
    9.3300   -1.3350   23.6390 C   0  0  0  0  0  0  0  0  0  0  0  0
    9.4830    2.4670   23.8385 C   0  0  0  0  0  0  0  0  0  0  0  0
    9.2850   -3.7090   25.1090 C   0  0  0  0  0  0  0  0  0  0  0  0
    5.9810    0.8330   18.8060 C   0  0  0  0  0  0  0  0  0  0  0  0
    7.2210   -0.4620   20.0350 C   0  0  0  0  0  0  0  0  0  0  0  0
    4.9400    1.7060   18.5060 C   0  0  0  0  0  0  0  0  0  0  0  0
    4.0980    2.1130   19.5350 C   0  0  0  0  0  0  0  0  0  0  0  0
    4.2970    1.6690   20.8430 C   0  0  0  0  0  0  0  0  0  0  0  0
    5.3360    0.8000   21.1530 C   0  0  0  0  0  0  0  0  0  0  0  0
    8.0643   -5.4721   26.3672 C   0  0  0  0  0  0  0  0  0  0  0  0
    8.9510    0.1280   21.6880 C   0  0  0  0  0  0  0  0  0  0  0  0
    8.2649   -6.7591   27.1477 C   0  0  0  0  0  0  0  0  0  0  0  0
    9.4073   -6.6157   28.1377 C   0  0  0  0  0  0  0  0  0  0  0  0
   10.6967   -6.1489   27.4694 C   0  0  0  0  0  0  0  0  0  0  0  0
   10.4950   -5.7059   26.0212 C   0  0  0  0  0  0  0  0  0  0  0  0
    8.8757    1.0906   23.9832 C   0  0  0  0  0  0  0  0  0  0  0  0
    9.4200   -0.0840   22.9530 C   0  0  1  0  0  0  0  0  0  0  0  0
    6.9440    0.2550   18.0100 N   0  0  0  0  0  0  0  0  0  0  0  0
    7.6830   -0.5170   18.7600 N   0  0  0  0  0  0  0  0  0  0  0  0
    6.1600    0.3870   20.1140 N   0  0  0  0  0  0  0  0  0  0  0  0
    9.2624   -4.9267   25.8634 N   0  0  0  0  0  0  0  0  0  0  0  0
    8.0810   -0.9750   21.0820 N   0  0  0  0  0  0  0  0  0  0  0  0
    6.9247   -5.0497   26.1749 O   0  0  0  0  0  0  0  0  0  0  0  0
    9.1870    1.1500   21.0630 O   0  0  0  0  0  0  0  0  0  0  0  0
    9.7696    5.0191   23.7663 S   0  0  0  0  0  0  0  0  0  0  0  0
    7.5948   -0.7783   24.7966 H   0  0  0  0  0  0  0  0  0  0  0  0
   11.0389   -2.1844   22.6342 H   0  0  0  0  0  0  0  0  0  0  0  0
    7.5642   -2.8624   26.1050 H   0  0  0  0  0  0  0  0  0  0  0  0
   11.0137   -4.2649   23.9418 H   0  0  0  0  0  0  0  0  0  0  0  0
   11.5890    1.9273   23.3518 H   0  0  0  0  0  0  0  0  0  0  0  0
   12.0968    4.5045   23.2284 H   0  0  0  0  0  0  0  0  0  0  0  0
    7.7335    3.7598   24.2428 H   0  0  0  0  0  0  0  0  0  0  0  0
    4.7733    2.0700   17.5071 H   0  0  0  0  0  0  0  0  0  0  0  0
    3.2813    2.7836   19.2995 H   0  0  0  0  0  0  0  0  0  0  0  0
    3.6335    1.9977   21.6542 H   0  0  0  0  0  0  0  0  0  0  0  0
    5.5067    0.4537   22.1474 H   0  0  0  0  0  0  0  0  0  0  0  0
    7.3543   -6.9829   27.6818 H   0  0  0  0  0  0  0  0  0  0  0  0
    8.4783   -7.5436   26.4372 H   0  0  0  0  0  0  0  0  0  0  0  0
    9.1257   -5.9021   28.9399 H   0  0  0  0  0  0  0  0  0  0  0  0
    9.5814   -7.5840   28.6486 H   0  0  0  0  0  0  0  0  0  0  0  0
   11.1319   -5.3094   28.0513 H   0  0  0  0  0  0  0  0  0  0  0  0
   11.4591   -6.9570   27.5118 H   0  0  0  0  0  0  0  0  0  0  0  0
   11.3214   -5.0711   25.7158 H   0  0  0  0  0  0  0  0  0  0  0  0
   10.4496   -6.5786   25.3788 H   0  0  0  0  0  0  0  0  0  0  0  0
    8.9639    0.7632   25.0273 H   0  0  0  0  0  0  0  0  0  0  0  0
    7.7964    1.1765   23.7950 H   0  0  0  0  0  0  0  0  0  0  0  0
   10.5749    0.2253   22.9765 H   0  0  0  0  0  0  0  0  0  0  0  0
    8.1354   -1.7990   21.3694 H   0  0  0  0  0  0  0  0  0  0  0  0
  1  3  2  0  0  0  0
  1  8  1  0  0  0  0
  2  4  1  0  0  0  0
  2  8  2  0  0  0  0
  3 10  1  0  0  0  0
  4 10  2  0  0  0  0
  5  6  2  0  0  0  0
  5  9  1  0  0  0  0
  6 32  1  0  0  0  0
  7  9  2  0  0  0  0
  7 32  1  0  0  0  0
  8 24  1  0  0  0  0
  9 23  1  0  0  0  0
 10 28  1  0  0  0  0
 11 13  1  0  0  0  0
 11 25  2  0  0  0  0
 11 27  1  0  0  0  0
 12 26  2  0  0  0  0
 12 27  1  0  0  0  0
 12 29  1  0  0  0  0
 13 14  2  0  0  0  0
 14 15  1  0  0  0  0
 15 16  2  0  0  0  0
 16 27  1  0  0  0  0
 17 19  1  0  0  0  0
 17 28  1  0  0  0  0
 17 30  2  0  0  0  0
 18 24  1  1  0  0  0
 18 29  1  0  0  0  0
 18 31  2  0  0  0  0
 19 20  1  0  0  0  0
 20 21  1  0  0  0  0
 21 22  1  0  0  0  0
 22 28  1  0  0  0  0
 23 24  1  0  0  0  0
 25 26  1  0  0  0  0
  1 33  1  0  0  0  0
  2 34  1  0  0  0  0
  3 35  1  0  0  0  0
  4 36  1  0  0  0  0
  5 37  1  0  0  0  0
  6 38  1  0  0  0  0
  7 39  1  0  0  0  0
 13 40  1  0  0  0  0
 14 41  1  0  0  0  0
 15 42  1  0  0  0  0
 16 43  1  0  0  0  0
 19 44  1  0  0  0  0
 19 45  1  0  0  0  0
 20 46  1  0  0  0  0
 20 47  1  0  0  0  0
 21 48  1  0  0  0  0
 21 49  1  0  0  0  0
 22 50  1  0  0  0  0
 22 51  1  0  0  0  0
 23 52  1  0  0  0  0
 23 53  1  0  0  0  0
 24 54  1  0  0  0  0
 29 55  1  0  0  0  0
M  END
> <clash_score>
1.2728248649063287

> <docking_score>
-8.376847267150879

> <overlap_score>
0.8719334602355957

$$$$
BENZO_328_2
  -OEChem-08232013503D

 55 59  0     1  0  0  0  0  0999 V2000
    8.3510   -1.5420   24.6110 C   0  0  0  0  0  0  0  0  0  0  0  0
   10.2760   -2.3270   23.4020 C   0  0  0  0  0  0  0  0  0  0  0  0
    8.3310   -2.7170   25.3430 C   0  0  0  0  0  0  0  0  0  0  0  0
   10.2570   -3.5000   24.1350 C   0  0  0  0  0  0  0  0  0  0  0  0
   11.9035    2.6860   22.1682 C   0  0  0  0  0  0  0  0  0  0  0  0
   11.8836    4.0408   22.4166 C   0  0  0  0  0  0  0  0  0  0  0  0
   10.5617    2.7801   24.0638 C   0  0  0  0  0  0  0  0  0  0  0  0
    9.3300   -1.3350   23.6390 C   0  0  0  0  0  0  0  0  0  0  0  0
   11.1377    1.9556   23.1223 C   0  0  0  0  0  0  0  0  0  0  0  0
    9.2850   -3.7090   25.1090 C   0  0  0  0  0  0  0  0  0  0  0  0
    5.9810    0.8330   18.8060 C   0  0  0  0  0  0  0  0  0  0  0  0
    7.2210   -0.4620   20.0350 C   0  0  0  0  0  0  0  0  0  0  0  0
    4.9400    1.7060   18.5060 C   0  0  0  0  0  0  0  0  0  0  0  0
    4.0980    2.1130   19.5350 C   0  0  0  0  0  0  0  0  0  0  0  0
    4.2970    1.6690   20.8430 C   0  0  0  0  0  0  0  0  0  0  0  0
    5.3360    0.8000   21.1530 C   0  0  0  0  0  0  0  0  0  0  0  0
    8.0643   -5.4721   26.3672 C   0  0  0  0  0  0  0  0  0  0  0  0
    8.9510    0.1280   21.6880 C   0  0  0  0  0  0  0  0  0  0  0  0
    8.2649   -6.7591   27.1477 C   0  0  0  0  0  0  0  0  0  0  0  0
    9.4073   -6.6157   28.1377 C   0  0  0  0  0  0  0  0  0  0  0  0
   10.6967   -6.1489   27.4694 C   0  0  0  0  0  0  0  0  0  0  0  0
   10.4950   -5.7059   26.0212 C   0  0  0  0  0  0  0  0  0  0  0  0
   10.9782    0.4527   23.1025 C   0  0  0  0  0  0  0  0  0  0  0  0
    9.4200   -0.0840   22.9530 C   0  0  2  0  0  0  0  0  0  0  0  0
    6.9440    0.2550   18.0100 N   0  0  0  0  0  0  0  0  0  0  0  0
    7.6830   -0.5170   18.7600 N   0  0  0  0  0  0  0  0  0  0  0  0
    6.1600    0.3870   20.1140 N   0  0  0  0  0  0  0  0  0  0  0  0
    9.2624   -4.9267   25.8634 N   0  0  0  0  0  0  0  0  0  0  0  0
    8.0810   -0.9750   21.0820 N   0  0  0  0  0  0  0  0  0  0  0  0
    6.9247   -5.0497   26.1749 O   0  0  0  0  0  0  0  0  0  0  0  0
    9.1870    1.1500   21.0630 O   0  0  0  0  0  0  0  0  0  0  0  0
   10.9445    4.4274   23.7954 S   0  0  0  0  0  0  0  0  0  0  0  0
    7.5948   -0.7783   24.7966 H   0  0  0  0  0  0  0  0  0  0  0  0
   11.0389   -2.1844   22.6342 H   0  0  0  0  0  0  0  0  0  0  0  0
    7.5642   -2.8624   26.1050 H   0  0  0  0  0  0  0  0  0  0  0  0
   11.0137   -4.2649   23.9418 H   0  0  0  0  0  0  0  0  0  0  0  0
   12.4436    2.2440   21.3404 H   0  0  0  0  0  0  0  0  0  0  0  0
   12.3760    4.8219   21.8549 H   0  0  0  0  0  0  0  0  0  0  0  0
    9.9349    2.4980   24.8984 H   0  0  0  0  0  0  0  0  0  0  0  0
    4.7733    2.0700   17.5071 H   0  0  0  0  0  0  0  0  0  0  0  0
    3.2813    2.7836   19.2995 H   0  0  0  0  0  0  0  0  0  0  0  0
    3.6335    1.9977   21.6542 H   0  0  0  0  0  0  0  0  0  0  0  0
    5.5067    0.4537   22.1474 H   0  0  0  0  0  0  0  0  0  0  0  0
    7.3543   -6.9829   27.6818 H   0  0  0  0  0  0  0  0  0  0  0  0
    8.4783   -7.5436   26.4372 H   0  0  0  0  0  0  0  0  0  0  0  0
    9.1257   -5.9021   28.9399 H   0  0  0  0  0  0  0  0  0  0  0  0
    9.5814   -7.5840   28.6486 H   0  0  0  0  0  0  0  0  0  0  0  0
   11.1319   -5.3094   28.0513 H   0  0  0  0  0  0  0  0  0  0  0  0
   11.4591   -6.9570   27.5118 H   0  0  0  0  0  0  0  0  0  0  0  0
   11.3214   -5.0711   25.7158 H   0  0  0  0  0  0  0  0  0  0  0  0
   10.4496   -6.5786   25.3788 H   0  0  0  0  0  0  0  0  0  0  0  0
   11.5374    0.0399   22.2527 H   0  0  0  0  0  0  0  0  0  0  0  0
   11.4700    0.0494   23.9985 H   0  0  0  0  0  0  0  0  0  0  0  0
    8.9187    0.7273   23.6745 H   0  0  0  0  0  0  0  0  0  0  0  0
    8.1354   -1.7990   21.3694 H   0  0  0  0  0  0  0  0  0  0  0  0
  1  3  2  0  0  0  0
  1  8  1  0  0  0  0
  2  4  1  0  0  0  0
  2  8  2  0  0  0  0
  3 10  1  0  0  0  0
  4 10  2  0  0  0  0
  5  6  2  0  0  0  0
  5  9  1  0  0  0  0
  6 32  1  0  0  0  0
  7  9  2  0  0  0  0
  7 32  1  0  0  0  0
  8 24  1  0  0  0  0
  9 23  1  0  0  0  0
 10 28  1  0  0  0  0
 11 13  1  0  0  0  0
 11 25  2  0  0  0  0
 11 27  1  0  0  0  0
 12 26  2  0  0  0  0
 12 27  1  0  0  0  0
 12 29  1  0  0  0  0
 13 14  2  0  0  0  0
 14 15  1  0  0  0  0
 15 16  2  0  0  0  0
 16 27  1  0  0  0  0
 17 19  1  0  0  0  0
 17 28  1  0  0  0  0
 17 30  2  0  0  0  0
 18 24  1  6  0  0  0
 18 29  1  0  0  0  0
 18 31  2  0  0  0  0
 19 20  1  0  0  0  0
 20 21  1  0  0  0  0
 21 22  1  0  0  0  0
 22 28  1  0  0  0  0
 23 24  1  0  0  0  0
 25 26  1  0  0  0  0
  1 33  1  0  0  0  0
  2 34  1  0  0  0  0
  3 35  1  0  0  0  0
  4 36  1  0  0  0  0
  5 37  1  0  0  0  0
  6 38  1  0  0  0  0
  7 39  1  0  0  0  0
 13 40  1  0  0  0  0
 14 41  1  0  0  0  0
 15 42  1  0  0  0  0
 16 43  1  0  0  0  0
 19 44  1  0  0  0  0
 19 45  1  0  0  0  0
 20 46  1  0  0  0  0
 20 47  1  0  0  0  0
 21 48  1  0  0  0  0
 21 49  1  0  0  0  0
 22 50  1  0  0  0  0
 22 51  1  0  0  0  0
 23 52  1  0  0  0  0
 23 53  1  0  0  0  0
 24 54  1  0  0  0  0
 29 55  1  0  0  0  0
M  END
> <clash_score>
1.2728248649063287

> <docking_score>
-8.32602310180664

> <overlap_score>
0.9351983666419983

$$$$
BENZO_330_2
  -OEChem-08232013503D

 58 62  0     1  0  0  0  0  0999 V2000
   10.2658    4.1447   23.6556 C   0  0  0  0  0  0  0  0  0  0  0  0
   10.1187    2.7577   23.6360 C   0  0  0  0  0  0  0  0  0  0  0  0
    8.3510   -1.5420   24.6110 C   0  0  0  0  0  0  0  0  0  0  0  0
   10.2760   -2.3270   23.4020 C   0  0  0  0  0  0  0  0  0  0  0  0
    8.3310   -2.7170   25.3430 C   0  0  0  0  0  0  0  0  0  0  0  0
   10.2570   -3.5000   24.1350 C   0  0  0  0  0  0  0  0  0  0  0  0
   11.4318    4.7295   23.1615 C   0  0  0  0  0  0  0  0  0  0  0  0
   12.3037    2.5404   22.6282 C   0  0  0  0  0  0  0  0  0  0  0  0
    9.3300   -1.3350   23.6390 C   0  0  0  0  0  0  0  0  0  0  0  0
   11.1377    1.9556   23.1223 C   0  0  0  0  0  0  0  0  0  0  0  0
    9.2850   -3.7090   25.1090 C   0  0  0  0  0  0  0  0  0  0  0  0
   12.4507    3.9273   22.6478 C   0  0  0  0  0  0  0  0  0  0  0  0
    5.9810    0.8330   18.8060 C   0  0  0  0  0  0  0  0  0  0  0  0
    7.2210   -0.4620   20.0350 C   0  0  0  0  0  0  0  0  0  0  0  0
    4.9400    1.7060   18.5060 C   0  0  0  0  0  0  0  0  0  0  0  0
    4.0980    2.1130   19.5350 C   0  0  0  0  0  0  0  0  0  0  0  0
    4.2970    1.6690   20.8430 C   0  0  0  0  0  0  0  0  0  0  0  0
    5.3360    0.8000   21.1530 C   0  0  0  0  0  0  0  0  0  0  0  0
    8.0643   -5.4721   26.3672 C   0  0  0  0  0  0  0  0  0  0  0  0
    8.9510    0.1280   21.6880 C   0  0  0  0  0  0  0  0  0  0  0  0
    8.2649   -6.7591   27.1477 C   0  0  0  0  0  0  0  0  0  0  0  0
    9.4073   -6.6157   28.1377 C   0  0  0  0  0  0  0  0  0  0  0  0
   10.6967   -6.1489   27.4694 C   0  0  0  0  0  0  0  0  0  0  0  0
   10.4950   -5.7059   26.0212 C   0  0  0  0  0  0  0  0  0  0  0  0
   10.9782    0.4527   23.1025 C   0  0  0  0  0  0  0  0  0  0  0  0
    9.4200   -0.0840   22.9530 C   0  0  2  0  0  0  0  0  0  0  0  0
    6.9440    0.2550   18.0100 N   0  0  0  0  0  0  0  0  0  0  0  0
    7.6830   -0.5170   18.7600 N   0  0  0  0  0  0  0  0  0  0  0  0
    6.1600    0.3870   20.1140 N   0  0  0  0  0  0  0  0  0  0  0  0
    9.2624   -4.9267   25.8634 N   0  0  0  0  0  0  0  0  0  0  0  0
    8.0810   -0.9750   21.0820 N   0  0  0  0  0  0  0  0  0  0  0  0
    6.9247   -5.0497   26.1749 O   0  0  0  0  0  0  0  0  0  0  0  0
    9.1870    1.1500   21.0630 O   0  0  0  0  0  0  0  0  0  0  0  0
   13.8895    4.6494   22.0393 Cl  0  0  0  0  0  0  0  0  0  0  0  0
    9.4721    4.7689   24.0559 H   0  0  0  0  0  0  0  0  0  0  0  0
    9.2068    2.3107   24.0232 H   0  0  0  0  0  0  0  0  0  0  0  0
    7.5948   -0.7783   24.7966 H   0  0  0  0  0  0  0  0  0  0  0  0
   11.0389   -2.1844   22.6342 H   0  0  0  0  0  0  0  0  0  0  0  0
    7.5642   -2.8624   26.1050 H   0  0  0  0  0  0  0  0  0  0  0  0
   11.0137   -4.2649   23.9418 H   0  0  0  0  0  0  0  0  0  0  0  0
   11.5327    5.8118   23.1834 H   0  0  0  0  0  0  0  0  0  0  0  0
   13.0951    1.9106   22.2282 H   0  0  0  0  0  0  0  0  0  0  0  0
    4.7733    2.0700   17.5071 H   0  0  0  0  0  0  0  0  0  0  0  0
    3.2813    2.7836   19.2995 H   0  0  0  0  0  0  0  0  0  0  0  0
    3.6335    1.9977   21.6542 H   0  0  0  0  0  0  0  0  0  0  0  0
    5.5067    0.4537   22.1474 H   0  0  0  0  0  0  0  0  0  0  0  0
    7.3543   -6.9829   27.6818 H   0  0  0  0  0  0  0  0  0  0  0  0
    8.4783   -7.5436   26.4372 H   0  0  0  0  0  0  0  0  0  0  0  0
    9.1257   -5.9021   28.9399 H   0  0  0  0  0  0  0  0  0  0  0  0
    9.5814   -7.5840   28.6486 H   0  0  0  0  0  0  0  0  0  0  0  0
   11.1319   -5.3094   28.0513 H   0  0  0  0  0  0  0  0  0  0  0  0
   11.4591   -6.9570   27.5118 H   0  0  0  0  0  0  0  0  0  0  0  0
   11.3214   -5.0711   25.7158 H   0  0  0  0  0  0  0  0  0  0  0  0
   10.4496   -6.5786   25.3788 H   0  0  0  0  0  0  0  0  0  0  0  0
   11.5374    0.0399   22.2527 H   0  0  0  0  0  0  0  0  0  0  0  0
   11.4700    0.0494   23.9985 H   0  0  0  0  0  0  0  0  0  0  0  0
    8.9187    0.7273   23.6745 H   0  0  0  0  0  0  0  0  0  0  0  0
    8.1354   -1.7990   21.3694 H   0  0  0  0  0  0  0  0  0  0  0  0
  1  2  2  0  0  0  0
  1  7  1  0  0  0  0
  2 10  1  0  0  0  0
  3  5  2  0  0  0  0
  3  9  1  0  0  0  0
  4  6  1  0  0  0  0
  4  9  2  0  0  0  0
  5 11  1  0  0  0  0
  6 11  2  0  0  0  0
  7 12  2  0  0  0  0
  8 10  2  0  0  0  0
  8 12  1  0  0  0  0
  9 26  1  0  0  0  0
 10 25  1  0  0  0  0
 11 30  1  0  0  0  0
 12 34  1  0  0  0  0
 13 15  1  0  0  0  0
 13 27  2  0  0  0  0
 13 29  1  0  0  0  0
 14 28  2  0  0  0  0
 14 29  1  0  0  0  0
 14 31  1  0  0  0  0
 15 16  2  0  0  0  0
 16 17  1  0  0  0  0
 17 18  2  0  0  0  0
 18 29  1  0  0  0  0
 19 21  1  0  0  0  0
 19 30  1  0  0  0  0
 19 32  2  0  0  0  0
 20 26  1  6  0  0  0
 20 31  1  0  0  0  0
 20 33  2  0  0  0  0
 21 22  1  0  0  0  0
 22 23  1  0  0  0  0
 23 24  1  0  0  0  0
 24 30  1  0  0  0  0
 25 26  1  0  0  0  0
 27 28  1  0  0  0  0
  1 35  1  0  0  0  0
  2 36  1  0  0  0  0
  3 37  1  0  0  0  0
  4 38  1  0  0  0  0
  5 39  1  0  0  0  0
  6 40  1  0  0  0  0
  7 41  1  0  0  0  0
  8 42  1  0  0  0  0
 15 43  1  0  0  0  0
 16 44  1  0  0  0  0
 17 45  1  0  0  0  0
 18 46  1  0  0  0  0
 21 47  1  0  0  0  0
 21 48  1  0  0  0  0
 22 49  1  0  0  0  0
 22 50  1  0  0  0  0
 23 51  1  0  0  0  0
 23 52  1  0  0  0  0
 24 53  1  0  0  0  0
 24 54  1  0  0  0  0
 25 55  1  0  0  0  0
 25 56  1  0  0  0  0
 26 57  1  0  0  0  0
 31 58  1  0  0  0  0
M  END
> <clash_score>
1.2728248649063287

> <docking_score>
-10.185986518859863

> <overlap_score>
0.946629524230957

$$$$
BENZO_331_1
  -OEChem-08232013503D

 58 62  0     1  0  0  0  0  0999 V2000
    8.3510   -1.5420   24.6110 C   0  0  0  0  0  0  0  0  0  0  0  0
   10.2760   -2.3270   23.4020 C   0  0  0  0  0  0  0  0  0  0  0  0
    8.3310   -2.7170   25.3430 C   0  0  0  0  0  0  0  0  0  0  0  0
   10.2570   -3.5000   24.1350 C   0  0  0  0  0  0  0  0  0  0  0  0
   10.2246    2.9150   23.5994 C   0  0  0  0  0  0  0  0  0  0  0  0
   12.2096    2.6918   22.6803 C   0  0  0  0  0  0  0  0  0  0  0  0
    9.3300   -1.3350   23.6390 C   0  0  0  0  0  0  0  0  0  0  0  0
   11.1377    1.9556   23.1223 C   0  0  0  0  0  0  0  0  0  0  0  0
    9.2850   -3.7090   25.1090 C   0  0  0  0  0  0  0  0  0  0  0  0
    5.9810    0.8330   18.8060 C   0  0  0  0  0  0  0  0  0  0  0  0
    7.2210   -0.4620   20.0350 C   0  0  0  0  0  0  0  0  0  0  0  0
    4.9400    1.7060   18.5060 C   0  0  0  0  0  0  0  0  0  0  0  0
    4.0980    2.1130   19.5350 C   0  0  0  0  0  0  0  0  0  0  0  0
    4.2970    1.6690   20.8430 C   0  0  0  0  0  0  0  0  0  0  0  0
    5.3360    0.8000   21.1530 C   0  0  0  0  0  0  0  0  0  0  0  0
    8.0643   -5.4721   26.3672 C   0  0  0  0  0  0  0  0  0  0  0  0
    8.9510    0.1280   21.6880 C   0  0  0  0  0  0  0  0  0  0  0  0
    8.2649   -6.7591   27.1477 C   0  0  0  0  0  0  0  0  0  0  0  0
    9.4073   -6.6157   28.1377 C   0  0  0  0  0  0  0  0  0  0  0  0
   10.6967   -6.1489   27.4694 C   0  0  0  0  0  0  0  0  0  0  0  0
   10.4950   -5.7059   26.0212 C   0  0  0  0  0  0  0  0  0  0  0  0
   12.7040    5.1473   22.6111 C   0  0  0  0  0  0  0  0  0  0  0  0
   10.9782    0.4527   23.1025 C   0  0  0  0  0  0  0  0  0  0  0  0
    9.4200   -0.0840   22.9530 C   0  0  1  0  0  0  0  0  0  0  0  0
   10.6770    4.1653   23.4725 N   0  0  0  0  0  0  0  0  0  0  0  0
    6.9440    0.2550   18.0100 N   0  0  0  0  0  0  0  0  0  0  0  0
    7.6830   -0.5170   18.7600 N   0  0  0  0  0  0  0  0  0  0  0  0
   11.8861    3.9966   22.9108 N   0  0  0  0  0  0  0  0  0  0  0  0
    6.1600    0.3870   20.1140 N   0  0  0  0  0  0  0  0  0  0  0  0
    9.2624   -4.9267   25.8634 N   0  0  0  0  0  0  0  0  0  0  0  0
    8.0810   -0.9750   21.0820 N   0  0  0  0  0  0  0  0  0  0  0  0
    6.9247   -5.0497   26.1749 O   0  0  0  0  0  0  0  0  0  0  0  0
    9.1870    1.1500   21.0630 O   0  0  0  0  0  0  0  0  0  0  0  0
    7.5948   -0.7783   24.7966 H   0  0  0  0  0  0  0  0  0  0  0  0
   11.0389   -2.1844   22.6342 H   0  0  0  0  0  0  0  0  0  0  0  0
    7.5642   -2.8624   26.1050 H   0  0  0  0  0  0  0  0  0  0  0  0
   11.0137   -4.2649   23.9418 H   0  0  0  0  0  0  0  0  0  0  0  0
    9.2482    2.7575   24.0354 H   0  0  0  0  0  0  0  0  0  0  0  0
   13.1522    2.4055   22.2336 H   0  0  0  0  0  0  0  0  0  0  0  0
    4.7733    2.0700   17.5071 H   0  0  0  0  0  0  0  0  0  0  0  0
    3.2813    2.7836   19.2995 H   0  0  0  0  0  0  0  0  0  0  0  0
    3.6335    1.9977   21.6542 H   0  0  0  0  0  0  0  0  0  0  0  0
    5.5067    0.4537   22.1474 H   0  0  0  0  0  0  0  0  0  0  0  0
    7.3543   -6.9829   27.6818 H   0  0  0  0  0  0  0  0  0  0  0  0
    8.4783   -7.5436   26.4372 H   0  0  0  0  0  0  0  0  0  0  0  0
    9.1257   -5.9021   28.9399 H   0  0  0  0  0  0  0  0  0  0  0  0
    9.5814   -7.5840   28.6486 H   0  0  0  0  0  0  0  0  0  0  0  0
   11.1319   -5.3094   28.0513 H   0  0  0  0  0  0  0  0  0  0  0  0
   11.4591   -6.9570   27.5118 H   0  0  0  0  0  0  0  0  0  0  0  0
   11.3214   -5.0711   25.7158 H   0  0  0  0  0  0  0  0  0  0  0  0
   10.4496   -6.5786   25.3788 H   0  0  0  0  0  0  0  0  0  0  0  0
   12.4645    5.4764   21.5965 H   0  0  0  0  0  0  0  0  0  0  0  0
   12.4916    5.9425   23.3310 H   0  0  0  0  0  0  0  0  0  0  0  0
   13.7592    4.8698   22.6850 H   0  0  0  0  0  0  0  0  0  0  0  0
   11.5374    0.0399   22.2527 H   0  0  0  0  0  0  0  0  0  0  0  0
   11.4700    0.0494   23.9985 H   0  0  0  0  0  0  0  0  0  0  0  0
    8.9187    0.7273   23.6745 H   0  0  0  0  0  0  0  0  0  0  0  0
    8.1354   -1.7990   21.3694 H   0  0  0  0  0  0  0  0  0  0  0  0
  1  3  2  0  0  0  0
  1  7  1  0  0  0  0
  2  4  1  0  0  0  0
  2  7  2  0  0  0  0
  3  9  1  0  0  0  0
  4  9  2  0  0  0  0
  5  8  1  0  0  0  0
  5 25  2  0  0  0  0
  6  8  2  0  0  0  0
  6 28  1  0  0  0  0
  7 24  1  0  0  0  0
  8 23  1  0  0  0  0
  9 30  1  0  0  0  0
 10 12  1  0  0  0  0
 10 26  2  0  0  0  0
 10 29  1  0  0  0  0
 11 27  2  0  0  0  0
 11 29  1  0  0  0  0
 11 31  1  0  0  0  0
 12 13  2  0  0  0  0
 13 14  1  0  0  0  0
 14 15  2  0  0  0  0
 15 29  1  0  0  0  0
 16 18  1  0  0  0  0
 16 30  1  0  0  0  0
 16 32  2  0  0  0  0
 17 24  1  0  0  0  0
 17 31  1  0  0  0  0
 17 33  2  0  0  0  0
 18 19  1  0  0  0  0
 19 20  1  0  0  0  0
 20 21  1  0  0  0  0
 21 30  1  0  0  0  0
 22 28  1  0  0  0  0
 23 24  1  1  0  0  0
 25 28  1  0  0  0  0
 26 27  1  0  0  0  0
  1 34  1  0  0  0  0
  2 35  1  0  0  0  0
  3 36  1  0  0  0  0
  4 37  1  0  0  0  0
  5 38  1  0  0  0  0
  6 39  1  0  0  0  0
 12 40  1  0  0  0  0
 13 41  1  0  0  0  0
 14 42  1  0  0  0  0
 15 43  1  0  0  0  0
 18 44  1  0  0  0  0
 18 45  1  0  0  0  0
 19 46  1  0  0  0  0
 19 47  1  0  0  0  0
 20 48  1  0  0  0  0
 20 49  1  0  0  0  0
 21 50  1  0  0  0  0
 21 51  1  0  0  0  0
 22 52  1  0  0  0  0
 22 53  1  0  0  0  0
 22 54  1  0  0  0  0
 23 55  1  0  0  0  0
 23 56  1  0  0  0  0
 24 57  1  0  0  0  0
 31 58  1  0  0  0  0
M  END
> <clash_score>
1.2728248649063287

> <docking_score>
-9.712852478027344

> <overlap_score>
0.9406476020812988

$$$$
BENZO_330_1
  -OEChem-08232013503D

 58 62  0     1  0  0  0  0  0999 V2000
    9.2914    4.8680   24.0266 C   0  0  0  0  0  0  0  0  0  0  0  0
    8.7312    3.5975   24.1588 C   0  0  0  0  0  0  0  0  0  0  0  0
    8.3510   -1.5420   24.6110 C   0  0  0  0  0  0  0  0  0  0  0  0
   10.2760   -2.3270   23.4020 C   0  0  0  0  0  0  0  0  0  0  0  0
    8.3310   -2.7170   25.3430 C   0  0  0  0  0  0  0  0  0  0  0  0
   10.2570   -3.5000   24.1350 C   0  0  0  0  0  0  0  0  0  0  0  0
   10.6034    5.0082   23.5739 C   0  0  0  0  0  0  0  0  0  0  0  0
   10.7949    2.6071   23.3859 C   0  0  0  0  0  0  0  0  0  0  0  0
    9.3300   -1.3350   23.6390 C   0  0  0  0  0  0  0  0  0  0  0  0
    9.4830    2.4670   23.8385 C   0  0  0  0  0  0  0  0  0  0  0  0
    9.2850   -3.7090   25.1090 C   0  0  0  0  0  0  0  0  0  0  0  0
   11.3551    3.8777   23.2536 C   0  0  0  0  0  0  0  0  0  0  0  0
    5.9810    0.8330   18.8060 C   0  0  0  0  0  0  0  0  0  0  0  0
    7.2210   -0.4620   20.0350 C   0  0  0  0  0  0  0  0  0  0  0  0
    4.9400    1.7060   18.5060 C   0  0  0  0  0  0  0  0  0  0  0  0
    4.0980    2.1130   19.5350 C   0  0  0  0  0  0  0  0  0  0  0  0
    4.2970    1.6690   20.8430 C   0  0  0  0  0  0  0  0  0  0  0  0
    5.3360    0.8000   21.1530 C   0  0  0  0  0  0  0  0  0  0  0  0
    8.0643   -5.4721   26.3672 C   0  0  0  0  0  0  0  0  0  0  0  0
    8.9510    0.1280   21.6880 C   0  0  0  0  0  0  0  0  0  0  0  0
    8.2649   -6.7591   27.1477 C   0  0  0  0  0  0  0  0  0  0  0  0
    9.4073   -6.6157   28.1377 C   0  0  0  0  0  0  0  0  0  0  0  0
   10.6967   -6.1489   27.4694 C   0  0  0  0  0  0  0  0  0  0  0  0
   10.4950   -5.7059   26.0212 C   0  0  0  0  0  0  0  0  0  0  0  0
    8.8757    1.0906   23.9832 C   0  0  0  0  0  0  0  0  0  0  0  0
    9.4200   -0.0840   22.9530 C   0  0  1  0  0  0  0  0  0  0  0  0
    6.9440    0.2550   18.0100 N   0  0  0  0  0  0  0  0  0  0  0  0
    7.6830   -0.5170   18.7600 N   0  0  0  0  0  0  0  0  0  0  0  0
    6.1600    0.3870   20.1140 N   0  0  0  0  0  0  0  0  0  0  0  0
    9.2624   -4.9267   25.8634 N   0  0  0  0  0  0  0  0  0  0  0  0
    8.0810   -0.9750   21.0820 N   0  0  0  0  0  0  0  0  0  0  0  0
    6.9247   -5.0497   26.1749 O   0  0  0  0  0  0  0  0  0  0  0  0
    9.1870    1.1500   21.0630 O   0  0  0  0  0  0  0  0  0  0  0  0
   12.9741    4.0512   22.6963 Cl  0  0  0  0  0  0  0  0  0  0  0  0
    8.7057    5.7480   24.2763 H   0  0  0  0  0  0  0  0  0  0  0  0
    7.7083    3.4977   24.5123 H   0  0  0  0  0  0  0  0  0  0  0  0
    7.5948   -0.7783   24.7966 H   0  0  0  0  0  0  0  0  0  0  0  0
   11.0389   -2.1844   22.6342 H   0  0  0  0  0  0  0  0  0  0  0  0
    7.5642   -2.8624   26.1050 H   0  0  0  0  0  0  0  0  0  0  0  0
   11.0137   -4.2649   23.9418 H   0  0  0  0  0  0  0  0  0  0  0  0
   11.0271    6.0046   23.4760 H   0  0  0  0  0  0  0  0  0  0  0  0
   11.3767    1.7227   23.1369 H   0  0  0  0  0  0  0  0  0  0  0  0
    4.7733    2.0700   17.5071 H   0  0  0  0  0  0  0  0  0  0  0  0
    3.2813    2.7836   19.2995 H   0  0  0  0  0  0  0  0  0  0  0  0
    3.6335    1.9977   21.6542 H   0  0  0  0  0  0  0  0  0  0  0  0
    5.5067    0.4537   22.1474 H   0  0  0  0  0  0  0  0  0  0  0  0
    7.3543   -6.9829   27.6818 H   0  0  0  0  0  0  0  0  0  0  0  0
    8.4783   -7.5436   26.4372 H   0  0  0  0  0  0  0  0  0  0  0  0
    9.1257   -5.9021   28.9399 H   0  0  0  0  0  0  0  0  0  0  0  0
    9.5814   -7.5840   28.6486 H   0  0  0  0  0  0  0  0  0  0  0  0
   11.1319   -5.3094   28.0513 H   0  0  0  0  0  0  0  0  0  0  0  0
   11.4591   -6.9570   27.5118 H   0  0  0  0  0  0  0  0  0  0  0  0
   11.3214   -5.0711   25.7158 H   0  0  0  0  0  0  0  0  0  0  0  0
   10.4496   -6.5786   25.3788 H   0  0  0  0  0  0  0  0  0  0  0  0
    8.9639    0.7632   25.0273 H   0  0  0  0  0  0  0  0  0  0  0  0
    7.7964    1.1765   23.7950 H   0  0  0  0  0  0  0  0  0  0  0  0
   10.5749    0.2253   22.9765 H   0  0  0  0  0  0  0  0  0  0  0  0
    8.1354   -1.7990   21.3694 H   0  0  0  0  0  0  0  0  0  0  0  0
  1  2  2  0  0  0  0
  1  7  1  0  0  0  0
  2 10  1  0  0  0  0
  3  5  2  0  0  0  0
  3  9  1  0  0  0  0
  4  6  1  0  0  0  0
  4  9  2  0  0  0  0
  5 11  1  0  0  0  0
  6 11  2  0  0  0  0
  7 12  2  0  0  0  0
  8 10  2  0  0  0  0
  8 12  1  0  0  0  0
  9 26  1  0  0  0  0
 10 25  1  0  0  0  0
 11 30  1  0  0  0  0
 12 34  1  0  0  0  0
 13 15  1  0  0  0  0
 13 27  2  0  0  0  0
 13 29  1  0  0  0  0
 14 28  2  0  0  0  0
 14 29  1  0  0  0  0
 14 31  1  0  0  0  0
 15 16  2  0  0  0  0
 16 17  1  0  0  0  0
 17 18  2  0  0  0  0
 18 29  1  0  0  0  0
 19 21  1  0  0  0  0
 19 30  1  0  0  0  0
 19 32  2  0  0  0  0
 20 26  1  1  0  0  0
 20 31  1  0  0  0  0
 20 33  2  0  0  0  0
 21 22  1  0  0  0  0
 22 23  1  0  0  0  0
 23 24  1  0  0  0  0
 24 30  1  0  0  0  0
 25 26  1  0  0  0  0
 27 28  1  0  0  0  0
  1 35  1  0  0  0  0
  2 36  1  0  0  0  0
  3 37  1  0  0  0  0
  4 38  1  0  0  0  0
  5 39  1  0  0  0  0
  6 40  1  0  0  0  0
  7 41  1  0  0  0  0
  8 42  1  0  0  0  0
 15 43  1  0  0  0  0
 16 44  1  0  0  0  0
 17 45  1  0  0  0  0
 18 46  1  0  0  0  0
 21 47  1  0  0  0  0
 21 48  1  0  0  0  0
 22 49  1  0  0  0  0
 22 50  1  0  0  0  0
 23 51  1  0  0  0  0
 23 52  1  0  0  0  0
 24 53  1  0  0  0  0
 24 54  1  0  0  0  0
 25 55  1  0  0  0  0
 25 56  1  0  0  0  0
 26 57  1  0  0  0  0
 31 58  1  0  0  0  0
M  END
> <clash_score>
1.2728248649063287

> <docking_score>
-9.204421997070312

> <overlap_score>
0.8818500638008118

$$$$
BENZO_331_2
  -OEChem-08232013503D

 58 62  0     1  0  0  0  0  0999 V2000
    8.3510   -1.5420   24.6110 C   0  0  0  0  0  0  0  0  0  0  0  0
   10.2760   -2.3270   23.4020 C   0  0  0  0  0  0  0  0  0  0  0  0
    8.3310   -2.7170   25.3430 C   0  0  0  0  0  0  0  0  0  0  0  0
   10.2570   -3.5000   24.1350 C   0  0  0  0  0  0  0  0  0  0  0  0
   10.7785    2.7976   23.3981 C   0  0  0  0  0  0  0  0  0  0  0  0
    8.8917    3.6777   24.1054 C   0  0  0  0  0  0  0  0  0  0  0  0
    9.3300   -1.3350   23.6390 C   0  0  0  0  0  0  0  0  0  0  0  0
    9.4830    2.4670   23.8385 C   0  0  0  0  0  0  0  0  0  0  0  0
    9.2850   -3.7090   25.1090 C   0  0  0  0  0  0  0  0  0  0  0  0
    5.9810    0.8330   18.8060 C   0  0  0  0  0  0  0  0  0  0  0  0
    7.2210   -0.4620   20.0350 C   0  0  0  0  0  0  0  0  0  0  0  0
    4.9400    1.7060   18.5060 C   0  0  0  0  0  0  0  0  0  0  0  0
    4.0980    2.1130   19.5350 C   0  0  0  0  0  0  0  0  0  0  0  0
    4.2970    1.6690   20.8430 C   0  0  0  0  0  0  0  0  0  0  0  0
    5.3360    0.8000   21.1530 C   0  0  0  0  0  0  0  0  0  0  0  0
    8.0643   -5.4721   26.3672 C   0  0  0  0  0  0  0  0  0  0  0  0
    8.9510    0.1280   21.6880 C   0  0  0  0  0  0  0  0  0  0  0  0
    8.2649   -6.7591   27.1477 C   0  0  0  0  0  0  0  0  0  0  0  0
    9.4073   -6.6157   28.1377 C   0  0  0  0  0  0  0  0  0  0  0  0
   10.6967   -6.1489   27.4694 C   0  0  0  0  0  0  0  0  0  0  0  0
   10.4950   -5.7059   26.0212 C   0  0  0  0  0  0  0  0  0  0  0  0
    9.6751    6.0523   23.9438 C   0  0  0  0  0  0  0  0  0  0  0  0
    8.8757    1.0906   23.9832 C   0  0  0  0  0  0  0  0  0  0  0  0
    9.4200   -0.0840   22.9530 C   0  0  2  0  0  0  0  0  0  0  0  0
   10.9980    4.1151   23.3844 N   0  0  0  0  0  0  0  0  0  0  0  0
    6.9440    0.2550   18.0100 N   0  0  0  0  0  0  0  0  0  0  0  0
    7.6830   -0.5170   18.7600 N   0  0  0  0  0  0  0  0  0  0  0  0
    9.8323    4.6230   23.8195 N   0  0  0  0  0  0  0  0  0  0  0  0
    6.1600    0.3870   20.1140 N   0  0  0  0  0  0  0  0  0  0  0  0
    9.2624   -4.9267   25.8634 N   0  0  0  0  0  0  0  0  0  0  0  0
    8.0810   -0.9750   21.0820 N   0  0  0  0  0  0  0  0  0  0  0  0
    6.9247   -5.0497   26.1749 O   0  0  0  0  0  0  0  0  0  0  0  0
    9.1870    1.1500   21.0630 O   0  0  0  0  0  0  0  0  0  0  0  0
    7.5948   -0.7783   24.7966 H   0  0  0  0  0  0  0  0  0  0  0  0
   11.0389   -2.1844   22.6342 H   0  0  0  0  0  0  0  0  0  0  0  0
    7.5642   -2.8624   26.1050 H   0  0  0  0  0  0  0  0  0  0  0  0
   11.0137   -4.2649   23.9418 H   0  0  0  0  0  0  0  0  0  0  0  0
   11.5733    2.1353   23.0852 H   0  0  0  0  0  0  0  0  0  0  0  0
    7.9058    3.9405   24.4643 H   0  0  0  0  0  0  0  0  0  0  0  0
    4.7733    2.0700   17.5071 H   0  0  0  0  0  0  0  0  0  0  0  0
    3.2813    2.7836   19.2995 H   0  0  0  0  0  0  0  0  0  0  0  0
    3.6335    1.9977   21.6542 H   0  0  0  0  0  0  0  0  0  0  0  0
    5.5067    0.4537   22.1474 H   0  0  0  0  0  0  0  0  0  0  0  0
    7.3543   -6.9829   27.6818 H   0  0  0  0  0  0  0  0  0  0  0  0
    8.4783   -7.5436   26.4372 H   0  0  0  0  0  0  0  0  0  0  0  0
    9.1257   -5.9021   28.9399 H   0  0  0  0  0  0  0  0  0  0  0  0
    9.5814   -7.5840   28.6486 H   0  0  0  0  0  0  0  0  0  0  0  0
   11.1319   -5.3094   28.0513 H   0  0  0  0  0  0  0  0  0  0  0  0
   11.4591   -6.9570   27.5118 H   0  0  0  0  0  0  0  0  0  0  0  0
   11.3214   -5.0711   25.7158 H   0  0  0  0  0  0  0  0  0  0  0  0
   10.4496   -6.5786   25.3788 H   0  0  0  0  0  0  0  0  0  0  0  0
    9.9837    6.3390   24.9526 H   0  0  0  0  0  0  0  0  0  0  0  0
   10.2971    6.5534   23.1968 H   0  0  0  0  0  0  0  0  0  0  0  0
    8.6278    6.3169   23.7735 H   0  0  0  0  0  0  0  0  0  0  0  0
    8.9639    0.7632   25.0273 H   0  0  0  0  0  0  0  0  0  0  0  0
    7.7964    1.1765   23.7950 H   0  0  0  0  0  0  0  0  0  0  0  0
   10.5749    0.2253   22.9765 H   0  0  0  0  0  0  0  0  0  0  0  0
    8.1354   -1.7990   21.3694 H   0  0  0  0  0  0  0  0  0  0  0  0
  1  3  2  0  0  0  0
  1  7  1  0  0  0  0
  2  4  1  0  0  0  0
  2  7  2  0  0  0  0
  3  9  1  0  0  0  0
  4  9  2  0  0  0  0
  5  8  1  0  0  0  0
  5 25  2  0  0  0  0
  6  8  2  0  0  0  0
  6 28  1  0  0  0  0
  7 24  1  0  0  0  0
  8 23  1  0  0  0  0
  9 30  1  0  0  0  0
 10 12  1  0  0  0  0
 10 26  2  0  0  0  0
 10 29  1  0  0  0  0
 11 27  2  0  0  0  0
 11 29  1  0  0  0  0
 11 31  1  0  0  0  0
 12 13  2  0  0  0  0
 13 14  1  0  0  0  0
 14 15  2  0  0  0  0
 15 29  1  0  0  0  0
 16 18  1  0  0  0  0
 16 30  1  0  0  0  0
 16 32  2  0  0  0  0
 17 24  1  0  0  0  0
 17 31  1  0  0  0  0
 17 33  2  0  0  0  0
 18 19  1  0  0  0  0
 19 20  1  0  0  0  0
 20 21  1  0  0  0  0
 21 30  1  0  0  0  0
 22 28  1  0  0  0  0
 23 24  1  6  0  0  0
 25 28  1  0  0  0  0
 26 27  1  0  0  0  0
  1 34  1  0  0  0  0
  2 35  1  0  0  0  0
  3 36  1  0  0  0  0
  4 37  1  0  0  0  0
  5 38  1  0  0  0  0
  6 39  1  0  0  0  0
 12 40  1  0  0  0  0
 13 41  1  0  0  0  0
 14 42  1  0  0  0  0
 15 43  1  0  0  0  0
 18 44  1  0  0  0  0
 18 45  1  0  0  0  0
 19 46  1  0  0  0  0
 19 47  1  0  0  0  0
 20 48  1  0  0  0  0
 20 49  1  0  0  0  0
 21 50  1  0  0  0  0
 21 51  1  0  0  0  0
 22 52  1  0  0  0  0
 22 53  1  0  0  0  0
 22 54  1  0  0  0  0
 23 55  1  0  0  0  0
 23 56  1  0  0  0  0
 24 57  1  0  0  0  0
 31 58  1  0  0  0  0
M  END
> <clash_score>
1.2728248649063287

> <docking_score>
-8.508063316345215

> <overlap_score>
0.8674866557121277

$$$$
BENZO_333_1
  -OEChem-08232013503D

 57 61  0     1  0  0  0  0  0999 V2000
   10.6051    5.0072   23.5714 C   0  0  0  0  0  0  0  0  0  0  0  0
    9.2931    4.8685   24.0240 C   0  0  0  0  0  0  0  0  0  0  0  0
   11.3561    3.8759   23.2522 C   0  0  0  0  0  0  0  0  0  0  0  0
    8.7320    3.5984   24.1576 C   0  0  0  0  0  0  0  0  0  0  0  0
   10.7950    2.6058   23.3857 C   0  0  0  0  0  0  0  0  0  0  0  0
    8.3510   -1.5420   24.6110 C   0  0  0  0  0  0  0  0  0  0  0  0
   10.2760   -2.3270   23.4020 C   0  0  0  0  0  0  0  0  0  0  0  0
    8.3310   -2.7170   25.3430 C   0  0  0  0  0  0  0  0  0  0  0  0
   10.2570   -3.5000   24.1350 C   0  0  0  0  0  0  0  0  0  0  0  0
    9.4829    2.4671   23.8384 C   0  0  0  0  0  0  0  0  0  0  0  0
    9.3300   -1.3350   23.6390 C   0  0  0  0  0  0  0  0  0  0  0  0
    9.2850   -3.7090   25.1090 C   0  0  0  0  0  0  0  0  0  0  0  0
    5.9810    0.8330   18.8060 C   0  0  0  0  0  0  0  0  0  0  0  0
    7.2210   -0.4620   20.0350 C   0  0  0  0  0  0  0  0  0  0  0  0
    4.9400    1.7060   18.5060 C   0  0  0  0  0  0  0  0  0  0  0  0
    4.0980    2.1130   19.5350 C   0  0  0  0  0  0  0  0  0  0  0  0
    4.2970    1.6690   20.8430 C   0  0  0  0  0  0  0  0  0  0  0  0
    5.3360    0.8000   21.1530 C   0  0  0  0  0  0  0  0  0  0  0  0
    8.9510    0.1280   21.6880 C   0  0  0  0  0  0  0  0  0  0  0  0
    8.7671   -4.9535   27.2147 C   0  0  0  0  0  0  0  0  0  0  0  0
    9.3066   -6.1865   25.1649 C   0  0  0  0  0  0  0  0  0  0  0  0
    7.3847   -5.5970   27.2000 C   0  0  0  0  0  0  0  0  0  0  0  0
    7.9070   -6.7999   25.2264 C   0  0  0  0  0  0  0  0  0  0  0  0
    8.8757    1.0906   23.9831 C   0  0  0  0  0  0  0  0  0  0  0  0
    9.4200   -0.0840   22.9530 C   0  0  1  0  0  0  0  0  0  0  0  0
    6.9440    0.2550   18.0100 N   0  0  0  0  0  0  0  0  0  0  0  0
    7.6830   -0.5170   18.7600 N   0  0  0  0  0  0  0  0  0  0  0  0
    6.1600    0.3870   20.1140 N   0  0  0  0  0  0  0  0  0  0  0  0
    9.2641   -4.8845   25.8388 N   0  0  0  0  0  0  0  0  0  0  0  0
    8.0810   -0.9750   21.0820 N   0  0  0  0  0  0  0  0  0  0  0  0
    9.1870    1.1500   21.0630 O   0  0  0  0  0  0  0  0  0  0  0  0
    7.4533   -6.8877   26.5818 O   0  0  0  0  0  0  0  0  0  0  0  0
   11.0414    5.9962   23.4662 H   0  0  0  0  0  0  0  0  0  0  0  0
    8.7078    5.7493   24.2716 H   0  0  0  0  0  0  0  0  0  0  0  0
   12.3772    3.9835   22.8987 H   0  0  0  0  0  0  0  0  0  0  0  0
    7.7090    3.4999   24.5112 H   0  0  0  0  0  0  0  0  0  0  0  0
   11.3876    1.7301   23.1348 H   0  0  0  0  0  0  0  0  0  0  0  0
    7.5957   -0.7779   24.7973 H   0  0  0  0  0  0  0  0  0  0  0  0
   11.0384   -2.1852   22.6338 H   0  0  0  0  0  0  0  0  0  0  0  0
    7.5634   -2.8637   26.1037 H   0  0  0  0  0  0  0  0  0  0  0  0
   11.0139   -4.2645   23.9419 H   0  0  0  0  0  0  0  0  0  0  0  0
    4.7733    2.0700   17.5071 H   0  0  0  0  0  0  0  0  0  0  0  0
    3.2813    2.7836   19.2995 H   0  0  0  0  0  0  0  0  0  0  0  0
    3.6335    1.9977   21.6542 H   0  0  0  0  0  0  0  0  0  0  0  0
    5.5067    0.4537   22.1474 H   0  0  0  0  0  0  0  0  0  0  0  0
    8.7013   -3.9575   27.6574 H   0  0  0  0  0  0  0  0  0  0  0  0
    9.4480   -5.5636   27.8142 H   0  0  0  0  0  0  0  0  0  0  0  0
   10.0131   -6.8375   25.6814 H   0  0  0  0  0  0  0  0  0  0  0  0
    9.6116   -6.0794   24.1250 H   0  0  0  0  0  0  0  0  0  0  0  0
    7.0306   -5.7388   28.2232 H   0  0  0  0  0  0  0  0  0  0  0  0
    6.6546   -4.9740   26.6757 H   0  0  0  0  0  0  0  0  0  0  0  0
    7.1892   -6.2226   24.6319 H   0  0  0  0  0  0  0  0  0  0  0  0
    7.9315   -7.8151   24.8187 H   0  0  0  0  0  0  0  0  0  0  0  0
    8.9639    0.7632   25.0273 H   0  0  0  0  0  0  0  0  0  0  0  0
    7.7964    1.1765   23.7949 H   0  0  0  0  0  0  0  0  0  0  0  0
   10.5749    0.2253   22.9765 H   0  0  0  0  0  0  0  0  0  0  0  0
    8.1354   -1.7990   21.3694 H   0  0  0  0  0  0  0  0  0  0  0  0
  1  2  1  0  0  0  0
  1  3  2  0  0  0  0
  2  4  2  0  0  0  0
  3  5  1  0  0  0  0
  4 10  1  0  0  0  0
  5 10  2  0  0  0  0
  6  8  2  0  0  0  0
  6 11  1  0  0  0  0
  7  9  1  0  0  0  0
  7 11  2  0  0  0  0
  8 12  1  0  0  0  0
  9 12  2  0  0  0  0
 10 24  1  0  0  0  0
 11 25  1  0  0  0  0
 12 29  1  0  0  0  0
 13 15  1  0  0  0  0
 13 26  2  0  0  0  0
 13 28  1  0  0  0  0
 14 27  2  0  0  0  0
 14 28  1  0  0  0  0
 14 30  1  0  0  0  0
 15 16  2  0  0  0  0
 16 17  1  0  0  0  0
 17 18  2  0  0  0  0
 18 28  1  0  0  0  0
 19 25  1  1  0  0  0
 19 30  1  0  0  0  0
 19 31  2  0  0  0  0
 20 22  1  0  0  0  0
 20 29  1  0  0  0  0
 21 23  1  0  0  0  0
 21 29  1  0  0  0  0
 22 32  1  0  0  0  0
 23 32  1  0  0  0  0
 24 25  1  0  0  0  0
 26 27  1  0  0  0  0
  1 33  1  0  0  0  0
  2 34  1  0  0  0  0
  3 35  1  0  0  0  0
  4 36  1  0  0  0  0
  5 37  1  0  0  0  0
  6 38  1  0  0  0  0
  7 39  1  0  0  0  0
  8 40  1  0  0  0  0
  9 41  1  0  0  0  0
 15 42  1  0  0  0  0
 16 43  1  0  0  0  0
 17 44  1  0  0  0  0
 18 45  1  0  0  0  0
 20 46  1  0  0  0  0
 20 47  1  0  0  0  0
 21 48  1  0  0  0  0
 21 49  1  0  0  0  0
 22 50  1  0  0  0  0
 22 51  1  0  0  0  0
 23 52  1  0  0  0  0
 23 53  1  0  0  0  0
 24 54  1  0  0  0  0
 24 55  1  0  0  0  0
 25 56  1  0  0  0  0
 30 57  1  0  0  0  0
M  END
> <clash_score>
0

> <docking_score>
-9.893381118774414

> <overlap_score>
0.8748704791069031

$$$$
BENZO_333_2
  -OEChem-08232013503D

 57 61  0     1  0  0  0  0  0999 V2000
   11.4307    4.7297   23.1589 C   0  0  0  0  0  0  0  0  0  0  0  0
   12.4501    3.9274   22.6463 C   0  0  0  0  0  0  0  0  0  0  0  0
   10.2648    4.1449   23.6533 C   0  0  0  0  0  0  0  0  0  0  0  0
   12.3036    2.5404   22.6279 C   0  0  0  0  0  0  0  0  0  0  0  0
   10.1183    2.7579   23.6349 C   0  0  0  0  0  0  0  0  0  0  0  0
    8.3510   -1.5420   24.6110 C   0  0  0  0  0  0  0  0  0  0  0  0
   10.2760   -2.3270   23.4020 C   0  0  0  0  0  0  0  0  0  0  0  0
    8.3310   -2.7170   25.3430 C   0  0  0  0  0  0  0  0  0  0  0  0
   10.2570   -3.5000   24.1350 C   0  0  0  0  0  0  0  0  0  0  0  0
   11.1377    1.9556   23.1223 C   0  0  0  0  0  0  0  0  0  0  0  0
    9.3300   -1.3350   23.6390 C   0  0  0  0  0  0  0  0  0  0  0  0
    9.2850   -3.7090   25.1090 C   0  0  0  0  0  0  0  0  0  0  0  0
    5.9810    0.8330   18.8060 C   0  0  0  0  0  0  0  0  0  0  0  0
    7.2210   -0.4620   20.0350 C   0  0  0  0  0  0  0  0  0  0  0  0
    4.9400    1.7060   18.5060 C   0  0  0  0  0  0  0  0  0  0  0  0
    4.0980    2.1130   19.5350 C   0  0  0  0  0  0  0  0  0  0  0  0
    4.2970    1.6690   20.8430 C   0  0  0  0  0  0  0  0  0  0  0  0
    5.3360    0.8000   21.1530 C   0  0  0  0  0  0  0  0  0  0  0  0
    8.9510    0.1280   21.6880 C   0  0  0  0  0  0  0  0  0  0  0  0
    8.7671   -4.9535   27.2147 C   0  0  0  0  0  0  0  0  0  0  0  0
    9.3066   -6.1865   25.1649 C   0  0  0  0  0  0  0  0  0  0  0  0
    7.3847   -5.5970   27.2000 C   0  0  0  0  0  0  0  0  0  0  0  0
    7.9070   -6.7999   25.2264 C   0  0  0  0  0  0  0  0  0  0  0  0
   10.9782    0.4528   23.1025 C   0  0  0  0  0  0  0  0  0  0  0  0
    9.4200   -0.0840   22.9530 C   0  0  2  0  0  0  0  0  0  0  0  0
    6.9440    0.2550   18.0100 N   0  0  0  0  0  0  0  0  0  0  0  0
    7.6830   -0.5170   18.7600 N   0  0  0  0  0  0  0  0  0  0  0  0
    6.1600    0.3870   20.1140 N   0  0  0  0  0  0  0  0  0  0  0  0
    9.2641   -4.8845   25.8388 N   0  0  0  0  0  0  0  0  0  0  0  0
    8.0810   -0.9750   21.0820 N   0  0  0  0  0  0  0  0  0  0  0  0
    9.1870    1.1500   21.0630 O   0  0  0  0  0  0  0  0  0  0  0  0
    7.4533   -6.8877   26.5818 O   0  0  0  0  0  0  0  0  0  0  0  0
   11.5455    5.8096   23.1743 H   0  0  0  0  0  0  0  0  0  0  0  0
   13.3585    4.3825   22.2623 H   0  0  0  0  0  0  0  0  0  0  0  0
    9.4714    4.7691   24.0535 H   0  0  0  0  0  0  0  0  0  0  0  0
   13.1030    1.9232   22.2264 H   0  0  0  0  0  0  0  0  0  0  0  0
    9.2064    2.3111   24.0221 H   0  0  0  0  0  0  0  0  0  0  0  0
    7.5957   -0.7779   24.7973 H   0  0  0  0  0  0  0  0  0  0  0  0
   11.0384   -2.1852   22.6338 H   0  0  0  0  0  0  0  0  0  0  0  0
    7.5634   -2.8637   26.1037 H   0  0  0  0  0  0  0  0  0  0  0  0
   11.0139   -4.2645   23.9419 H   0  0  0  0  0  0  0  0  0  0  0  0
    4.7733    2.0700   17.5071 H   0  0  0  0  0  0  0  0  0  0  0  0
    3.2813    2.7836   19.2995 H   0  0  0  0  0  0  0  0  0  0  0  0
    3.6335    1.9977   21.6542 H   0  0  0  0  0  0  0  0  0  0  0  0
    5.5067    0.4537   22.1474 H   0  0  0  0  0  0  0  0  0  0  0  0
    8.7013   -3.9575   27.6574 H   0  0  0  0  0  0  0  0  0  0  0  0
    9.4480   -5.5636   27.8142 H   0  0  0  0  0  0  0  0  0  0  0  0
   10.0131   -6.8375   25.6814 H   0  0  0  0  0  0  0  0  0  0  0  0
    9.6116   -6.0794   24.1250 H   0  0  0  0  0  0  0  0  0  0  0  0
    7.0306   -5.7388   28.2232 H   0  0  0  0  0  0  0  0  0  0  0  0
    6.6546   -4.9740   26.6757 H   0  0  0  0  0  0  0  0  0  0  0  0
    7.1892   -6.2226   24.6319 H   0  0  0  0  0  0  0  0  0  0  0  0
    7.9315   -7.8151   24.8187 H   0  0  0  0  0  0  0  0  0  0  0  0
   11.5374    0.0399   22.2527 H   0  0  0  0  0  0  0  0  0  0  0  0
   11.4700    0.0494   23.9985 H   0  0  0  0  0  0  0  0  0  0  0  0
    8.9187    0.7273   23.6745 H   0  0  0  0  0  0  0  0  0  0  0  0
    8.1354   -1.7990   21.3694 H   0  0  0  0  0  0  0  0  0  0  0  0
  1  2  1  0  0  0  0
  1  3  2  0  0  0  0
  2  4  2  0  0  0  0
  3  5  1  0  0  0  0
  4 10  1  0  0  0  0
  5 10  2  0  0  0  0
  6  8  2  0  0  0  0
  6 11  1  0  0  0  0
  7  9  1  0  0  0  0
  7 11  2  0  0  0  0
  8 12  1  0  0  0  0
  9 12  2  0  0  0  0
 10 24  1  0  0  0  0
 11 25  1  0  0  0  0
 12 29  1  0  0  0  0
 13 15  1  0  0  0  0
 13 26  2  0  0  0  0
 13 28  1  0  0  0  0
 14 27  2  0  0  0  0
 14 28  1  0  0  0  0
 14 30  1  0  0  0  0
 15 16  2  0  0  0  0
 16 17  1  0  0  0  0
 17 18  2  0  0  0  0
 18 28  1  0  0  0  0
 19 25  1  6  0  0  0
 19 30  1  0  0  0  0
 19 31  2  0  0  0  0
 20 22  1  0  0  0  0
 20 29  1  0  0  0  0
 21 23  1  0  0  0  0
 21 29  1  0  0  0  0
 22 32  1  0  0  0  0
 23 32  1  0  0  0  0
 24 25  1  0  0  0  0
 26 27  1  0  0  0  0
  1 33  1  0  0  0  0
  2 34  1  0  0  0  0
  3 35  1  0  0  0  0
  4 36  1  0  0  0  0
  5 37  1  0  0  0  0
  6 38  1  0  0  0  0
  7 39  1  0  0  0  0
  8 40  1  0  0  0  0
  9 41  1  0  0  0  0
 15 42  1  0  0  0  0
 16 43  1  0  0  0  0
 17 44  1  0  0  0  0
 18 45  1  0  0  0  0
 20 46  1  0  0  0  0
 20 47  1  0  0  0  0
 21 48  1  0  0  0  0
 21 49  1  0  0  0  0
 22 50  1  0  0  0  0
 22 51  1  0  0  0  0
 23 52  1  0  0  0  0
 23 53  1  0  0  0  0
 24 54  1  0  0  0  0
 24 55  1  0  0  0  0
 25 56  1  0  0  0  0
 30 57  1  0  0  0  0
M  END
> <clash_score>
0

> <docking_score>
-10.999303817749023

> <overlap_score>
0.9464921355247498

$$$$
BENZO_332_1
  -OEChem-08232013503D

 54 58  0     1  0  0  0  0  0999 V2000
    8.3510   -1.5420   24.6110 C   0  0  0  0  0  0  0  0  0  0  0  0
   10.2760   -2.3270   23.4020 C   0  0  0  0  0  0  0  0  0  0  0  0
    8.3310   -2.7170   25.3430 C   0  0  0  0  0  0  0  0  0  0  0  0
   10.2570   -3.5000   24.1350 C   0  0  0  0  0  0  0  0  0  0  0  0
   10.8518    2.7022   23.5205 C   0  0  0  0  0  0  0  0  0  0  0  0
   11.1431    4.0467   23.4499 C   0  0  0  0  0  0  0  0  0  0  0  0
    8.7801    3.6410   23.9989 C   0  0  0  0  0  0  0  0  0  0  0  0
    9.3300   -1.3350   23.6390 C   0  0  0  0  0  0  0  0  0  0  0  0
    9.4829    2.4671   23.8384 C   0  0  0  0  0  0  0  0  0  0  0  0
    9.2850   -3.7090   25.1090 C   0  0  0  0  0  0  0  0  0  0  0  0
    5.9810    0.8330   18.8060 C   0  0  0  0  0  0  0  0  0  0  0  0
    7.2210   -0.4620   20.0350 C   0  0  0  0  0  0  0  0  0  0  0  0
    4.9400    1.7060   18.5060 C   0  0  0  0  0  0  0  0  0  0  0  0
    4.0980    2.1130   19.5350 C   0  0  0  0  0  0  0  0  0  0  0  0
    4.2970    1.6690   20.8430 C   0  0  0  0  0  0  0  0  0  0  0  0
    5.3360    0.8000   21.1530 C   0  0  0  0  0  0  0  0  0  0  0  0
    8.9510    0.1280   21.6880 C   0  0  0  0  0  0  0  0  0  0  0  0
    8.7671   -4.9535   27.2147 C   0  0  0  0  0  0  0  0  0  0  0  0
    9.3066   -6.1865   25.1649 C   0  0  0  0  0  0  0  0  0  0  0  0
    7.3847   -5.5970   27.2000 C   0  0  0  0  0  0  0  0  0  0  0  0
    7.9070   -6.7999   25.2264 C   0  0  0  0  0  0  0  0  0  0  0  0
    8.8757    1.0906   23.9831 C   0  0  0  0  0  0  0  0  0  0  0  0
    9.4200   -0.0840   22.9530 C   0  0  1  0  0  0  0  0  0  0  0  0
    6.9440    0.2550   18.0100 N   0  0  0  0  0  0  0  0  0  0  0  0
    7.6830   -0.5170   18.7600 N   0  0  0  0  0  0  0  0  0  0  0  0
    6.1600    0.3870   20.1140 N   0  0  0  0  0  0  0  0  0  0  0  0
    9.2641   -4.8845   25.8388 N   0  0  0  0  0  0  0  0  0  0  0  0
    8.0810   -0.9750   21.0820 N   0  0  0  0  0  0  0  0  0  0  0  0
    9.1870    1.1500   21.0630 O   0  0  0  0  0  0  0  0  0  0  0  0
    7.4533   -6.8877   26.5818 O   0  0  0  0  0  0  0  0  0  0  0  0
    9.7695    5.0191   23.7662 S   0  0  0  0  0  0  0  0  0  0  0  0
    7.5957   -0.7779   24.7973 H   0  0  0  0  0  0  0  0  0  0  0  0
   11.0384   -2.1852   22.6338 H   0  0  0  0  0  0  0  0  0  0  0  0
    7.5634   -2.8637   26.1037 H   0  0  0  0  0  0  0  0  0  0  0  0
   11.0139   -4.2645   23.9419 H   0  0  0  0  0  0  0  0  0  0  0  0
   11.5890    1.9274   23.3518 H   0  0  0  0  0  0  0  0  0  0  0  0
   12.0968    4.5045   23.2284 H   0  0  0  0  0  0  0  0  0  0  0  0
    7.7334    3.7598   24.2427 H   0  0  0  0  0  0  0  0  0  0  0  0
    4.7733    2.0700   17.5071 H   0  0  0  0  0  0  0  0  0  0  0  0
    3.2813    2.7836   19.2995 H   0  0  0  0  0  0  0  0  0  0  0  0
    3.6335    1.9977   21.6542 H   0  0  0  0  0  0  0  0  0  0  0  0
    5.5067    0.4537   22.1474 H   0  0  0  0  0  0  0  0  0  0  0  0
    8.7013   -3.9575   27.6574 H   0  0  0  0  0  0  0  0  0  0  0  0
    9.4480   -5.5636   27.8142 H   0  0  0  0  0  0  0  0  0  0  0  0
   10.0131   -6.8375   25.6814 H   0  0  0  0  0  0  0  0  0  0  0  0
    9.6116   -6.0794   24.1250 H   0  0  0  0  0  0  0  0  0  0  0  0
    7.0306   -5.7388   28.2232 H   0  0  0  0  0  0  0  0  0  0  0  0
    6.6546   -4.9740   26.6757 H   0  0  0  0  0  0  0  0  0  0  0  0
    7.1892   -6.2226   24.6319 H   0  0  0  0  0  0  0  0  0  0  0  0
    7.9315   -7.8151   24.8187 H   0  0  0  0  0  0  0  0  0  0  0  0
    8.9639    0.7632   25.0273 H   0  0  0  0  0  0  0  0  0  0  0  0
    7.7964    1.1765   23.7949 H   0  0  0  0  0  0  0  0  0  0  0  0
   10.5749    0.2253   22.9765 H   0  0  0  0  0  0  0  0  0  0  0  0
    8.1354   -1.7990   21.3694 H   0  0  0  0  0  0  0  0  0  0  0  0
  1  3  2  0  0  0  0
  1  8  1  0  0  0  0
  2  4  1  0  0  0  0
  2  8  2  0  0  0  0
  3 10  1  0  0  0  0
  4 10  2  0  0  0  0
  5  6  2  0  0  0  0
  5  9  1  0  0  0  0
  6 31  1  0  0  0  0
  7  9  2  0  0  0  0
  7 31  1  0  0  0  0
  8 23  1  0  0  0  0
  9 22  1  0  0  0  0
 10 27  1  0  0  0  0
 11 13  1  0  0  0  0
 11 24  2  0  0  0  0
 11 26  1  0  0  0  0
 12 25  2  0  0  0  0
 12 26  1  0  0  0  0
 12 28  1  0  0  0  0
 13 14  2  0  0  0  0
 14 15  1  0  0  0  0
 15 16  2  0  0  0  0
 16 26  1  0  0  0  0
 17 23  1  1  0  0  0
 17 28  1  0  0  0  0
 17 29  2  0  0  0  0
 18 20  1  0  0  0  0
 18 27  1  0  0  0  0
 19 21  1  0  0  0  0
 19 27  1  0  0  0  0
 20 30  1  0  0  0  0
 21 30  1  0  0  0  0
 22 23  1  0  0  0  0
 24 25  1  0  0  0  0
  1 32  1  0  0  0  0
  2 33  1  0  0  0  0
  3 34  1  0  0  0  0
  4 35  1  0  0  0  0
  5 36  1  0  0  0  0
  6 37  1  0  0  0  0
  7 38  1  0  0  0  0
 13 39  1  0  0  0  0
 14 40  1  0  0  0  0
 15 41  1  0  0  0  0
 16 42  1  0  0  0  0
 18 43  1  0  0  0  0
 18 44  1  0  0  0  0
 19 45  1  0  0  0  0
 19 46  1  0  0  0  0
 20 47  1  0  0  0  0
 20 48  1  0  0  0  0
 21 49  1  0  0  0  0
 21 50  1  0  0  0  0
 22 51  1  0  0  0  0
 22 52  1  0  0  0  0
 23 53  1  0  0  0  0
 28 54  1  0  0  0  0
M  END
> <clash_score>
0

> <docking_score>
-9.612833023071289

> <overlap_score>
0.8722468018531799

$$$$
BENZO_332_2
  -OEChem-08232013503D

 54 58  0     1  0  0  0  0  0999 V2000
    8.3510   -1.5420   24.6110 C   0  0  0  0  0  0  0  0  0  0  0  0
   10.2760   -2.3270   23.4020 C   0  0  0  0  0  0  0  0  0  0  0  0
    8.3310   -2.7170   25.3430 C   0  0  0  0  0  0  0  0  0  0  0  0
   10.2570   -3.5000   24.1350 C   0  0  0  0  0  0  0  0  0  0  0  0
   11.9035    2.6860   22.1682 C   0  0  0  0  0  0  0  0  0  0  0  0
   11.8836    4.0408   22.4165 C   0  0  0  0  0  0  0  0  0  0  0  0
   10.5617    2.7801   24.0637 C   0  0  0  0  0  0  0  0  0  0  0  0
    9.3300   -1.3350   23.6390 C   0  0  0  0  0  0  0  0  0  0  0  0
   11.1377    1.9556   23.1223 C   0  0  0  0  0  0  0  0  0  0  0  0
    9.2850   -3.7090   25.1090 C   0  0  0  0  0  0  0  0  0  0  0  0
    5.9810    0.8330   18.8060 C   0  0  0  0  0  0  0  0  0  0  0  0
    7.2210   -0.4620   20.0350 C   0  0  0  0  0  0  0  0  0  0  0  0
    4.9400    1.7060   18.5060 C   0  0  0  0  0  0  0  0  0  0  0  0
    4.0980    2.1130   19.5350 C   0  0  0  0  0  0  0  0  0  0  0  0
    4.2970    1.6690   20.8430 C   0  0  0  0  0  0  0  0  0  0  0  0
    5.3360    0.8000   21.1530 C   0  0  0  0  0  0  0  0  0  0  0  0
    8.9510    0.1280   21.6880 C   0  0  0  0  0  0  0  0  0  0  0  0
    8.7671   -4.9535   27.2147 C   0  0  0  0  0  0  0  0  0  0  0  0
    9.3066   -6.1865   25.1649 C   0  0  0  0  0  0  0  0  0  0  0  0
    7.3847   -5.5970   27.2000 C   0  0  0  0  0  0  0  0  0  0  0  0
    7.9070   -6.7999   25.2264 C   0  0  0  0  0  0  0  0  0  0  0  0
   10.9782    0.4528   23.1025 C   0  0  0  0  0  0  0  0  0  0  0  0
    9.4200   -0.0840   22.9530 C   0  0  2  0  0  0  0  0  0  0  0  0
    6.9440    0.2550   18.0100 N   0  0  0  0  0  0  0  0  0  0  0  0
    7.6830   -0.5170   18.7600 N   0  0  0  0  0  0  0  0  0  0  0  0
    6.1600    0.3870   20.1140 N   0  0  0  0  0  0  0  0  0  0  0  0
    9.2641   -4.8845   25.8388 N   0  0  0  0  0  0  0  0  0  0  0  0
    8.0810   -0.9750   21.0820 N   0  0  0  0  0  0  0  0  0  0  0  0
    9.1870    1.1500   21.0630 O   0  0  0  0  0  0  0  0  0  0  0  0
    7.4533   -6.8877   26.5818 O   0  0  0  0  0  0  0  0  0  0  0  0
   10.9445    4.4275   23.7953 S   0  0  0  0  0  0  0  0  0  0  0  0
    7.5957   -0.7779   24.7973 H   0  0  0  0  0  0  0  0  0  0  0  0
   11.0384   -2.1852   22.6338 H   0  0  0  0  0  0  0  0  0  0  0  0
    7.5634   -2.8637   26.1037 H   0  0  0  0  0  0  0  0  0  0  0  0
   11.0139   -4.2645   23.9419 H   0  0  0  0  0  0  0  0  0  0  0  0
   12.4436    2.2440   21.3404 H   0  0  0  0  0  0  0  0  0  0  0  0
   12.3760    4.8219   21.8548 H   0  0  0  0  0  0  0  0  0  0  0  0
    9.9349    2.4981   24.8983 H   0  0  0  0  0  0  0  0  0  0  0  0
    4.7733    2.0700   17.5071 H   0  0  0  0  0  0  0  0  0  0  0  0
    3.2813    2.7836   19.2995 H   0  0  0  0  0  0  0  0  0  0  0  0
    3.6335    1.9977   21.6542 H   0  0  0  0  0  0  0  0  0  0  0  0
    5.5067    0.4537   22.1474 H   0  0  0  0  0  0  0  0  0  0  0  0
    8.7013   -3.9575   27.6574 H   0  0  0  0  0  0  0  0  0  0  0  0
    9.4480   -5.5636   27.8142 H   0  0  0  0  0  0  0  0  0  0  0  0
   10.0131   -6.8375   25.6814 H   0  0  0  0  0  0  0  0  0  0  0  0
    9.6116   -6.0794   24.1250 H   0  0  0  0  0  0  0  0  0  0  0  0
    7.0306   -5.7388   28.2232 H   0  0  0  0  0  0  0  0  0  0  0  0
    6.6546   -4.9740   26.6757 H   0  0  0  0  0  0  0  0  0  0  0  0
    7.1892   -6.2226   24.6319 H   0  0  0  0  0  0  0  0  0  0  0  0
    7.9315   -7.8151   24.8187 H   0  0  0  0  0  0  0  0  0  0  0  0
   11.5374    0.0399   22.2527 H   0  0  0  0  0  0  0  0  0  0  0  0
   11.4700    0.0494   23.9985 H   0  0  0  0  0  0  0  0  0  0  0  0
    8.9187    0.7273   23.6745 H   0  0  0  0  0  0  0  0  0  0  0  0
    8.1354   -1.7990   21.3694 H   0  0  0  0  0  0  0  0  0  0  0  0
  1  3  2  0  0  0  0
  1  8  1  0  0  0  0
  2  4  1  0  0  0  0
  2  8  2  0  0  0  0
  3 10  1  0  0  0  0
  4 10  2  0  0  0  0
  5  6  2  0  0  0  0
  5  9  1  0  0  0  0
  6 31  1  0  0  0  0
  7  9  2  0  0  0  0
  7 31  1  0  0  0  0
  8 23  1  0  0  0  0
  9 22  1  0  0  0  0
 10 27  1  0  0  0  0
 11 13  1  0  0  0  0
 11 24  2  0  0  0  0
 11 26  1  0  0  0  0
 12 25  2  0  0  0  0
 12 26  1  0  0  0  0
 12 28  1  0  0  0  0
 13 14  2  0  0  0  0
 14 15  1  0  0  0  0
 15 16  2  0  0  0  0
 16 26  1  0  0  0  0
 17 23  1  6  0  0  0
 17 28  1  0  0  0  0
 17 29  2  0  0  0  0
 18 20  1  0  0  0  0
 18 27  1  0  0  0  0
 19 21  1  0  0  0  0
 19 27  1  0  0  0  0
 20 30  1  0  0  0  0
 21 30  1  0  0  0  0
 22 23  1  0  0  0  0
 24 25  1  0  0  0  0
  1 32  1  0  0  0  0
  2 33  1  0  0  0  0
  3 34  1  0  0  0  0
  4 35  1  0  0  0  0
  5 36  1  0  0  0  0
  6 37  1  0  0  0  0
  7 38  1  0  0  0  0
 13 39  1  0  0  0  0
 14 40  1  0  0  0  0
 15 41  1  0  0  0  0
 16 42  1  0  0  0  0
 18 43  1  0  0  0  0
 18 44  1  0  0  0  0
 19 45  1  0  0  0  0
 19 46  1  0  0  0  0
 20 47  1  0  0  0  0
 20 48  1  0  0  0  0
 21 49  1  0  0  0  0
 21 50  1  0  0  0  0
 22 51  1  0  0  0  0
 22 52  1  0  0  0  0
 23 53  1  0  0  0  0
 28 54  1  0  0  0  0
M  END
> <clash_score>
0

> <docking_score>
-9.562034606933594

> <overlap_score>
0.9356263279914856

$$$$
BENZO_337_1
  -OEChem-08232013503D

 52 55  0     0  0  0  0  0  0999 V2000
   14.2757    0.9455   23.8498 C   0  0  0  0  0  0  0  0  0  0  0  0
   13.5453    0.2614   24.8215 C   0  0  0  0  0  0  0  0  0  0  0  0
   13.6117    1.6606   22.8530 C   0  0  0  0  0  0  0  0  0  0  0  0
    4.0980    2.1130   19.5350 C   0  0  0  0  0  0  0  0  0  0  0  0
    4.2970    1.6690   20.8430 C   0  0  0  0  0  0  0  0  0  0  0  0
   12.1510    0.2924   24.7964 C   0  0  0  0  0  0  0  0  0  0  0  0
   12.2174    1.6915   22.8279 C   0  0  0  0  0  0  0  0  0  0  0  0
    4.9400    1.7060   18.5060 C   0  0  0  0  0  0  0  0  0  0  0  0
    5.3360    0.8000   21.1530 C   0  0  0  0  0  0  0  0  0  0  0  0
    8.3510   -1.5420   24.6110 C   0  0  0  0  0  0  0  0  0  0  0  0
   10.2760   -2.3270   23.4020 C   0  0  0  0  0  0  0  0  0  0  0  0
    8.3310   -2.7170   25.3430 C   0  0  0  0  0  0  0  0  0  0  0  0
   10.2570   -3.5000   24.1350 C   0  0  0  0  0  0  0  0  0  0  0  0
   11.4870    1.0074   23.7996 C   0  0  0  0  0  0  0  0  0  0  0  0
    5.9810    0.8330   18.8060 C   0  0  0  0  0  0  0  0  0  0  0  0
    6.1600    0.3870   20.1140 C   0  0  0  0  0  0  0  0  0  0  0  0
    9.3300   -1.3350   23.6390 C   0  0  0  0  0  0  0  0  0  0  0  0
    9.2850   -3.7090   25.1090 C   0  0  0  0  0  0  0  0  0  0  0  0
    8.9510    0.1280   21.6880 C   0  0  0  0  0  0  0  0  0  0  0  0
    8.2496   -5.1174   26.8641 C   0  0  0  0  0  0  0  0  0  0  0  0
   10.2420   -5.9413   25.5990 C   0  0  0  0  0  0  0  0  0  0  0  0
    9.9863    1.0409   23.7719 C   0  0  0  0  0  0  0  0  0  0  0  0
    8.0810   -0.9750   21.0820 C   0  0  0  0  0  0  0  0  0  0  0  0
    6.9440    0.2550   18.0100 N   0  0  0  0  0  0  0  0  0  0  0  0
    7.6830   -0.5170   18.7600 N   0  0  0  0  0  0  0  0  0  0  0  0
    7.2210   -0.4620   20.0350 N   0  0  0  0  0  0  0  0  0  0  0  0
    9.4200   -0.0840   22.9530 N   0  0  0  0  0  0  0  0  0  0  0  0
    9.2624   -4.9028   25.8498 N   0  0  0  0  0  0  0  0  0  0  0  0
    9.1870    1.1500   21.0630 O   0  0  0  0  0  0  0  0  0  0  0  0
   15.3613    0.9224   23.8703 H   0  0  0  0  0  0  0  0  0  0  0  0
   14.0621   -0.2945   25.5983 H   0  0  0  0  0  0  0  0  0  0  0  0
   14.1800    2.1942   22.0970 H   0  0  0  0  0  0  0  0  0  0  0  0
    3.2714    2.7873   19.3199 H   0  0  0  0  0  0  0  0  0  0  0  0
    3.6281    2.0093   21.6291 H   0  0  0  0  0  0  0  0  0  0  0  0
   11.5902   -0.2438   25.5575 H   0  0  0  0  0  0  0  0  0  0  0  0
   11.7087    2.2512   22.0475 H   0  0  0  0  0  0  0  0  0  0  0  0
    4.7823    2.0669   17.4883 H   0  0  0  0  0  0  0  0  0  0  0  0
    5.4954    0.4562   22.1797 H   0  0  0  0  0  0  0  0  0  0  0  0
    7.5947   -0.7787   24.7997 H   0  0  0  0  0  0  0  0  0  0  0  0
   11.0404   -2.1861   22.6352 H   0  0  0  0  0  0  0  0  0  0  0  0
    7.5641   -2.8632   26.1047 H   0  0  0  0  0  0  0  0  0  0  0  0
   11.0135   -4.2647   23.9425 H   0  0  0  0  0  0  0  0  0  0  0  0
    8.3981   -6.1035   27.3284 H   0  0  0  0  0  0  0  0  0  0  0  0
    8.3290   -4.3346   27.6328 H   0  0  0  0  0  0  0  0  0  0  0  0
    7.2527   -5.0767   26.4009 H   0  0  0  0  0  0  0  0  0  0  0  0
   10.0583   -6.7900   26.2743 H   0  0  0  0  0  0  0  0  0  0  0  0
   10.1594   -6.2787   24.5553 H   0  0  0  0  0  0  0  0  0  0  0  0
   11.2519   -5.5433   25.7769 H   0  0  0  0  0  0  0  0  0  0  0  0
    9.5794    0.9574   24.7855 H   0  0  0  0  0  0  0  0  0  0  0  0
    9.6220    1.9844   23.3519 H   0  0  0  0  0  0  0  0  0  0  0  0
    8.7066   -1.7479   20.6383 H   0  0  0  0  0  0  0  0  0  0  0  0
    7.4345   -1.4041   21.8461 H   0  0  0  0  0  0  0  0  0  0  0  0
  1  2  1  0  0  0  0
  1  3  2  0  0  0  0
  2  6  2  0  0  0  0
  3  7  1  0  0  0  0
  4  5  1  0  0  0  0
  4  8  2  0  0  0  0
  5  9  2  0  0  0  0
  6 14  1  0  0  0  0
  7 14  2  0  0  0  0
  8 15  1  0  0  0  0
  9 16  1  0  0  0  0
 10 12  2  0  0  0  0
 10 17  1  0  0  0  0
 11 13  1  0  0  0  0
 11 17  2  0  0  0  0
 12 18  1  0  0  0  0
 13 18  2  0  0  0  0
 14 22  1  0  0  0  0
 15 16  2  0  0  0  0
 15 24  1  0  0  0  0
 16 26  1  0  0  0  0
 17 27  1  0  0  0  0
 18 28  1  0  0  0  0
 19 23  1  0  0  0  0
 19 27  1  0  0  0  0
 19 29  2  0  0  0  0
 20 28  1  0  0  0  0
 21 28  1  0  0  0  0
 22 27  1  0  0  0  0
 23 26  1  0  0  0  0
 24 25  2  0  0  0  0
 25 26  1  0  0  0  0
  1 30  1  0  0  0  0
  2 31  1  0  0  0  0
  3 32  1  0  0  0  0
  4 33  1  0  0  0  0
  5 34  1  0  0  0  0
  6 35  1  0  0  0  0
  7 36  1  0  0  0  0
  8 37  1  0  0  0  0
  9 38  1  0  0  0  0
 10 39  1  0  0  0  0
 11 40  1  0  0  0  0
 12 41  1  0  0  0  0
 13 42  1  0  0  0  0
 20 43  1  0  0  0  0
 20 44  1  0  0  0  0
 20 45  1  0  0  0  0
 21 46  1  0  0  0  0
 21 47  1  0  0  0  0
 21 48  1  0  0  0  0
 22 49  1  0  0  0  0
 22 50  1  0  0  0  0
 23 51  1  0  0  0  0
 23 52  1  0  0  0  0
M  END
> <clash_score>
0

> <docking_score>
-10.228657722473145

> <overlap_score>
0.9937631487846375

$$$$
BENZO_336_1
  -OEChem-08232013503D

 49 52  0     0  0  0  0  0  0999 V2000
    4.0980    2.1130   19.5350 C   0  0  0  0  0  0  0  0  0  0  0  0
    4.2970    1.6690   20.8430 C   0  0  0  0  0  0  0  0  0  0  0  0
    4.9400    1.7060   18.5060 C   0  0  0  0  0  0  0  0  0  0  0  0
    5.3360    0.8000   21.1530 C   0  0  0  0  0  0  0  0  0  0  0  0
    8.3510   -1.5420   24.6110 C   0  0  0  0  0  0  0  0  0  0  0  0
   10.2760   -2.3270   23.4020 C   0  0  0  0  0  0  0  0  0  0  0  0
    8.3310   -2.7170   25.3430 C   0  0  0  0  0  0  0  0  0  0  0  0
   10.2570   -3.5000   24.1350 C   0  0  0  0  0  0  0  0  0  0  0  0
   12.3054    1.0960   22.6366 C   0  0  0  0  0  0  0  0  0  0  0  0
   13.6473    1.0398   22.9426 C   0  0  0  0  0  0  0  0  0  0  0  0
   12.2348    0.8867   24.9504 C   0  0  0  0  0  0  0  0  0  0  0  0
   11.4871    1.0074   23.7996 C   0  0  0  0  0  0  0  0  0  0  0  0
    5.9810    0.8330   18.8060 C   0  0  0  0  0  0  0  0  0  0  0  0
    6.1600    0.3870   20.1140 C   0  0  0  0  0  0  0  0  0  0  0  0
    9.3300   -1.3350   23.6390 C   0  0  0  0  0  0  0  0  0  0  0  0
    9.2850   -3.7090   25.1090 C   0  0  0  0  0  0  0  0  0  0  0  0
    8.9510    0.1280   21.6880 C   0  0  0  0  0  0  0  0  0  0  0  0
    8.2496   -5.1174   26.8641 C   0  0  0  0  0  0  0  0  0  0  0  0
   10.2420   -5.9413   25.5990 C   0  0  0  0  0  0  0  0  0  0  0  0
    9.9863    1.0409   23.7719 C   0  0  0  0  0  0  0  0  0  0  0  0
    8.0810   -0.9750   21.0820 C   0  0  0  0  0  0  0  0  0  0  0  0
    6.9440    0.2550   18.0100 N   0  0  0  0  0  0  0  0  0  0  0  0
    7.6830   -0.5170   18.7600 N   0  0  0  0  0  0  0  0  0  0  0  0
    7.2210   -0.4620   20.0350 N   0  0  0  0  0  0  0  0  0  0  0  0
    9.4200   -0.0840   22.9530 N   0  0  0  0  0  0  0  0  0  0  0  0
    9.2624   -4.9028   25.8498 N   0  0  0  0  0  0  0  0  0  0  0  0
    9.1870    1.1500   21.0630 O   0  0  0  0  0  0  0  0  0  0  0  0
   13.9162    0.8808   24.6263 S   0  0  0  0  0  0  0  0  0  0  0  0
    3.2714    2.7873   19.3199 H   0  0  0  0  0  0  0  0  0  0  0  0
    3.6281    2.0093   21.6291 H   0  0  0  0  0  0  0  0  0  0  0  0
    4.7823    2.0669   17.4883 H   0  0  0  0  0  0  0  0  0  0  0  0
    5.4954    0.4562   22.1797 H   0  0  0  0  0  0  0  0  0  0  0  0
    7.5947   -0.7787   24.7997 H   0  0  0  0  0  0  0  0  0  0  0  0
   11.0404   -2.1861   22.6352 H   0  0  0  0  0  0  0  0  0  0  0  0
    7.5641   -2.8632   26.1047 H   0  0  0  0  0  0  0  0  0  0  0  0
   11.0135   -4.2647   23.9425 H   0  0  0  0  0  0  0  0  0  0  0  0
   11.9329    1.1955   21.6249 H   0  0  0  0  0  0  0  0  0  0  0  0
   14.4826    1.0838   22.2581 H   0  0  0  0  0  0  0  0  0  0  0  0
   11.8782    0.8002   25.9674 H   0  0  0  0  0  0  0  0  0  0  0  0
    8.3981   -6.1035   27.3284 H   0  0  0  0  0  0  0  0  0  0  0  0
    8.3290   -4.3346   27.6328 H   0  0  0  0  0  0  0  0  0  0  0  0
    7.2527   -5.0767   26.4009 H   0  0  0  0  0  0  0  0  0  0  0  0
   10.0583   -6.7900   26.2743 H   0  0  0  0  0  0  0  0  0  0  0  0
   10.1594   -6.2787   24.5553 H   0  0  0  0  0  0  0  0  0  0  0  0
   11.2519   -5.5433   25.7769 H   0  0  0  0  0  0  0  0  0  0  0  0
    9.5794    0.9574   24.7855 H   0  0  0  0  0  0  0  0  0  0  0  0
    9.6220    1.9844   23.3519 H   0  0  0  0  0  0  0  0  0  0  0  0
    8.7066   -1.7479   20.6383 H   0  0  0  0  0  0  0  0  0  0  0  0
    7.4345   -1.4041   21.8461 H   0  0  0  0  0  0  0  0  0  0  0  0
  1  2  1  0  0  0  0
  1  3  2  0  0  0  0
  2  4  2  0  0  0  0
  3 13  1  0  0  0  0
  4 14  1  0  0  0  0
  5  7  2  0  0  0  0
  5 15  1  0  0  0  0
  6  8  1  0  0  0  0
  6 15  2  0  0  0  0
  7 16  1  0  0  0  0
  8 16  2  0  0  0  0
  9 10  2  0  0  0  0
  9 12  1  0  0  0  0
 10 28  1  0  0  0  0
 11 12  2  0  0  0  0
 11 28  1  0  0  0  0
 12 20  1  0  0  0  0
 13 14  2  0  0  0  0
 13 22  1  0  0  0  0
 14 24  1  0  0  0  0
 15 25  1  0  0  0  0
 16 26  1  0  0  0  0
 17 21  1  0  0  0  0
 17 25  1  0  0  0  0
 17 27  2  0  0  0  0
 18 26  1  0  0  0  0
 19 26  1  0  0  0  0
 20 25  1  0  0  0  0
 21 24  1  0  0  0  0
 22 23  2  0  0  0  0
 23 24  1  0  0  0  0
  1 29  1  0  0  0  0
  2 30  1  0  0  0  0
  3 31  1  0  0  0  0
  4 32  1  0  0  0  0
  5 33  1  0  0  0  0
  6 34  1  0  0  0  0
  7 35  1  0  0  0  0
  8 36  1  0  0  0  0
  9 37  1  0  0  0  0
 10 38  1  0  0  0  0
 11 39  1  0  0  0  0
 18 40  1  0  0  0  0
 18 41  1  0  0  0  0
 18 42  1  0  0  0  0
 19 43  1  0  0  0  0
 19 44  1  0  0  0  0
 19 45  1  0  0  0  0
 20 46  1  0  0  0  0
 20 47  1  0  0  0  0
 21 48  1  0  0  0  0
 21 49  1  0  0  0  0
M  END
> <clash_score>
0

> <docking_score>
-10.60410213470459

> <overlap_score>
0.9720481634140015

$$$$
BENZO_339_1
  -OEChem-08232013503D

 52 55  0     0  0  0  0  0  0999 V2000
    4.0980    2.1130   19.5350 C   0  0  0  0  0  0  0  0  0  0  0  0
    4.2970    1.6690   20.8430 C   0  0  0  0  0  0  0  0  0  0  0  0
    4.9400    1.7060   18.5060 C   0  0  0  0  0  0  0  0  0  0  0  0
    5.3360    0.8000   21.1530 C   0  0  0  0  0  0  0  0  0  0  0  0
    8.3510   -1.5420   24.6110 C   0  0  0  0  0  0  0  0  0  0  0  0
   10.2760   -2.3270   23.4020 C   0  0  0  0  0  0  0  0  0  0  0  0
    8.3310   -2.7170   25.3430 C   0  0  0  0  0  0  0  0  0  0  0  0
   10.2570   -3.5000   24.1350 C   0  0  0  0  0  0  0  0  0  0  0  0
   12.3278    0.8882   24.9224 C   0  0  0  0  0  0  0  0  0  0  0  0
   12.3482    1.0837   22.7324 C   0  0  0  0  0  0  0  0  0  0  0  0
   11.4870    1.0074   23.7996 C   0  0  0  0  0  0  0  0  0  0  0  0
    5.9810    0.8330   18.8060 C   0  0  0  0  0  0  0  0  0  0  0  0
    6.1600    0.3870   20.1140 C   0  0  0  0  0  0  0  0  0  0  0  0
    9.3300   -1.3350   23.6390 C   0  0  0  0  0  0  0  0  0  0  0  0
    9.2850   -3.7090   25.1090 C   0  0  0  0  0  0  0  0  0  0  0  0
    8.9510    0.1280   21.6880 C   0  0  0  0  0  0  0  0  0  0  0  0
   14.8451    1.0460   22.5253 C   0  0  0  0  0  0  0  0  0  0  0  0
    8.2496   -5.1174   26.8641 C   0  0  0  0  0  0  0  0  0  0  0  0
   10.2420   -5.9413   25.5990 C   0  0  0  0  0  0  0  0  0  0  0  0
    9.9863    1.0409   23.7719 C   0  0  0  0  0  0  0  0  0  0  0  0
    8.0810   -0.9750   21.0820 C   0  0  0  0  0  0  0  0  0  0  0  0
   13.6236    0.8881   24.5986 N   0  0  0  0  0  0  0  0  0  0  0  0
    6.9440    0.2550   18.0100 N   0  0  0  0  0  0  0  0  0  0  0  0
    7.6830   -0.5170   18.7600 N   0  0  0  0  0  0  0  0  0  0  0  0
   13.6036    1.0081   23.2602 N   0  0  0  0  0  0  0  0  0  0  0  0
    7.2210   -0.4620   20.0350 N   0  0  0  0  0  0  0  0  0  0  0  0
    9.4200   -0.0840   22.9530 N   0  0  0  0  0  0  0  0  0  0  0  0
    9.2624   -4.9028   25.8498 N   0  0  0  0  0  0  0  0  0  0  0  0
    9.1870    1.1500   21.0630 O   0  0  0  0  0  0  0  0  0  0  0  0
    3.2714    2.7873   19.3199 H   0  0  0  0  0  0  0  0  0  0  0  0
    3.6281    2.0093   21.6291 H   0  0  0  0  0  0  0  0  0  0  0  0
    4.7823    2.0669   17.4883 H   0  0  0  0  0  0  0  0  0  0  0  0
    5.4954    0.4562   22.1797 H   0  0  0  0  0  0  0  0  0  0  0  0
    7.5947   -0.7787   24.7997 H   0  0  0  0  0  0  0  0  0  0  0  0
   11.0404   -2.1861   22.6352 H   0  0  0  0  0  0  0  0  0  0  0  0
    7.5641   -2.8632   26.1047 H   0  0  0  0  0  0  0  0  0  0  0  0
   11.0135   -4.2647   23.9425 H   0  0  0  0  0  0  0  0  0  0  0  0
   12.0526    0.8004   25.9640 H   0  0  0  0  0  0  0  0  0  0  0  0
   12.1789    1.1815   21.6686 H   0  0  0  0  0  0  0  0  0  0  0  0
   15.1586    2.0903   22.4463 H   0  0  0  0  0  0  0  0  0  0  0  0
   15.6003    0.4592   23.0557 H   0  0  0  0  0  0  0  0  0  0  0  0
   14.6902    0.6160   21.5318 H   0  0  0  0  0  0  0  0  0  0  0  0
    8.3981   -6.1035   27.3284 H   0  0  0  0  0  0  0  0  0  0  0  0
    8.3290   -4.3346   27.6328 H   0  0  0  0  0  0  0  0  0  0  0  0
    7.2527   -5.0767   26.4009 H   0  0  0  0  0  0  0  0  0  0  0  0
   10.0583   -6.7900   26.2743 H   0  0  0  0  0  0  0  0  0  0  0  0
   10.1594   -6.2787   24.5553 H   0  0  0  0  0  0  0  0  0  0  0  0
   11.2519   -5.5433   25.7769 H   0  0  0  0  0  0  0  0  0  0  0  0
    9.5794    0.9574   24.7855 H   0  0  0  0  0  0  0  0  0  0  0  0
    9.6220    1.9844   23.3519 H   0  0  0  0  0  0  0  0  0  0  0  0
    8.7066   -1.7479   20.6383 H   0  0  0  0  0  0  0  0  0  0  0  0
    7.4345   -1.4041   21.8461 H   0  0  0  0  0  0  0  0  0  0  0  0
  1  2  1  0  0  0  0
  1  3  2  0  0  0  0
  2  4  2  0  0  0  0
  3 12  1  0  0  0  0
  4 13  1  0  0  0  0
  5  7  2  0  0  0  0
  5 14  1  0  0  0  0
  6  8  1  0  0  0  0
  6 14  2  0  0  0  0
  7 15  1  0  0  0  0
  8 15  2  0  0  0  0
  9 11  1  0  0  0  0
  9 22  2  0  0  0  0
 10 11  2  0  0  0  0
 10 25  1  0  0  0  0
 11 20  1  0  0  0  0
 12 13  2  0  0  0  0
 12 23  1  0  0  0  0
 13 26  1  0  0  0  0
 14 27  1  0  0  0  0
 15 28  1  0  0  0  0
 16 21  1  0  0  0  0
 16 27  1  0  0  0  0
 16 29  2  0  0  0  0
 17 25  1  0  0  0  0
 18 28  1  0  0  0  0
 19 28  1  0  0  0  0
 20 27  1  0  0  0  0
 21 26  1  0  0  0  0
 22 25  1  0  0  0  0
 23 24  2  0  0  0  0
 24 26  1  0  0  0  0
  1 30  1  0  0  0  0
  2 31  1  0  0  0  0
  3 32  1  0  0  0  0
  4 33  1  0  0  0  0
  5 34  1  0  0  0  0
  6 35  1  0  0  0  0
  7 36  1  0  0  0  0
  8 37  1  0  0  0  0
  9 38  1  0  0  0  0
 10 39  1  0  0  0  0
 17 40  1  0  0  0  0
 17 41  1  0  0  0  0
 17 42  1  0  0  0  0
 18 43  1  0  0  0  0
 18 44  1  0  0  0  0
 18 45  1  0  0  0  0
 19 46  1  0  0  0  0
 19 47  1  0  0  0  0
 19 48  1  0  0  0  0
 20 49  1  0  0  0  0
 20 50  1  0  0  0  0
 21 51  1  0  0  0  0
 21 52  1  0  0  0  0
M  END
> <clash_score>
0

> <docking_score>
-9.729084014892578

> <overlap_score>
0.9879130125045776

$$$$
BENZO_338_1
  -OEChem-08232013503D

 52 55  0     0  0  0  0  0  0999 V2000
    4.0980    2.1130   19.5350 C   0  0  0  0  0  0  0  0  0  0  0  0
    4.2970    1.6690   20.8430 C   0  0  0  0  0  0  0  0  0  0  0  0
   13.6128    1.8896   23.0651 C   0  0  0  0  0  0  0  0  0  0  0  0
   12.2186    1.9194   23.0389 C   0  0  0  0  0  0  0  0  0  0  0  0
    4.9400    1.7060   18.5060 C   0  0  0  0  0  0  0  0  0  0  0  0
    5.3360    0.8000   21.1530 C   0  0  0  0  0  0  0  0  0  0  0  0
    8.3510   -1.5420   24.6110 C   0  0  0  0  0  0  0  0  0  0  0  0
   10.2760   -2.3270   23.4020 C   0  0  0  0  0  0  0  0  0  0  0  0
    8.3310   -2.7170   25.3430 C   0  0  0  0  0  0  0  0  0  0  0  0
   10.2570   -3.5000   24.1350 C   0  0  0  0  0  0  0  0  0  0  0  0
   14.2756    0.9477   23.8519 C   0  0  0  0  0  0  0  0  0  0  0  0
   12.1498    0.0655   24.5866 C   0  0  0  0  0  0  0  0  0  0  0  0
   11.4870    1.0074   23.7996 C   0  0  0  0  0  0  0  0  0  0  0  0
    5.9810    0.8330   18.8060 C   0  0  0  0  0  0  0  0  0  0  0  0
    6.1600    0.3870   20.1140 C   0  0  0  0  0  0  0  0  0  0  0  0
    9.3300   -1.3350   23.6390 C   0  0  0  0  0  0  0  0  0  0  0  0
    9.2850   -3.7090   25.1090 C   0  0  0  0  0  0  0  0  0  0  0  0
   13.5441    0.0357   24.6127 C   0  0  0  0  0  0  0  0  0  0  0  0
    8.9510    0.1280   21.6880 C   0  0  0  0  0  0  0  0  0  0  0  0
    8.2496   -5.1174   26.8641 C   0  0  0  0  0  0  0  0  0  0  0  0
   10.2420   -5.9413   25.5990 C   0  0  0  0  0  0  0  0  0  0  0  0
    9.9863    1.0409   23.7719 C   0  0  0  0  0  0  0  0  0  0  0  0
    8.0810   -0.9750   21.0820 C   0  0  0  0  0  0  0  0  0  0  0  0
    6.9440    0.2550   18.0100 N   0  0  0  0  0  0  0  0  0  0  0  0
    7.6830   -0.5170   18.7600 N   0  0  0  0  0  0  0  0  0  0  0  0
    7.2210   -0.4620   20.0350 N   0  0  0  0  0  0  0  0  0  0  0  0
    9.4200   -0.0840   22.9530 N   0  0  0  0  0  0  0  0  0  0  0  0
    9.2624   -4.9028   25.8498 N   0  0  0  0  0  0  0  0  0  0  0  0
    9.1870    1.1500   21.0630 O   0  0  0  0  0  0  0  0  0  0  0  0
   14.3624   -1.1255   25.5843 Cl  0  0  0  0  0  0  0  0  0  0  0  0
    3.2714    2.7873   19.3199 H   0  0  0  0  0  0  0  0  0  0  0  0
    3.6281    2.0093   21.6291 H   0  0  0  0  0  0  0  0  0  0  0  0
   14.1821    2.6000   22.4726 H   0  0  0  0  0  0  0  0  0  0  0  0
   11.7105    2.6569   22.4229 H   0  0  0  0  0  0  0  0  0  0  0  0
    4.7823    2.0669   17.4883 H   0  0  0  0  0  0  0  0  0  0  0  0
    5.4954    0.4562   22.1797 H   0  0  0  0  0  0  0  0  0  0  0  0
    7.5947   -0.7787   24.7997 H   0  0  0  0  0  0  0  0  0  0  0  0
   11.0404   -2.1861   22.6352 H   0  0  0  0  0  0  0  0  0  0  0  0
    7.5641   -2.8632   26.1047 H   0  0  0  0  0  0  0  0  0  0  0  0
   11.0135   -4.2647   23.9425 H   0  0  0  0  0  0  0  0  0  0  0  0
   15.3628    0.9363   23.8628 H   0  0  0  0  0  0  0  0  0  0  0  0
   11.5749   -0.6438   25.1775 H   0  0  0  0  0  0  0  0  0  0  0  0
    8.3981   -6.1035   27.3284 H   0  0  0  0  0  0  0  0  0  0  0  0
    8.3290   -4.3346   27.6328 H   0  0  0  0  0  0  0  0  0  0  0  0
    7.2527   -5.0767   26.4009 H   0  0  0  0  0  0  0  0  0  0  0  0
   10.0583   -6.7900   26.2743 H   0  0  0  0  0  0  0  0  0  0  0  0
   10.1594   -6.2787   24.5553 H   0  0  0  0  0  0  0  0  0  0  0  0
   11.2519   -5.5433   25.7769 H   0  0  0  0  0  0  0  0  0  0  0  0
    9.5794    0.9574   24.7855 H   0  0  0  0  0  0  0  0  0  0  0  0
    9.6220    1.9844   23.3519 H   0  0  0  0  0  0  0  0  0  0  0  0
    8.7066   -1.7479   20.6383 H   0  0  0  0  0  0  0  0  0  0  0  0
    7.4345   -1.4041   21.8461 H   0  0  0  0  0  0  0  0  0  0  0  0
  1  2  1  0  0  0  0
  1  5  2  0  0  0  0
  2  6  2  0  0  0  0
  3  4  2  0  0  0  0
  3 11  1  0  0  0  0
  4 13  1  0  0  0  0
  5 14  1  0  0  0  0
  6 15  1  0  0  0  0
  7  9  2  0  0  0  0
  7 16  1  0  0  0  0
  8 10  1  0  0  0  0
  8 16  2  0  0  0  0
  9 17  1  0  0  0  0
 10 17  2  0  0  0  0
 11 18  2  0  0  0  0
 12 13  2  0  0  0  0
 12 18  1  0  0  0  0
 13 22  1  0  0  0  0
 14 15  2  0  0  0  0
 14 24  1  0  0  0  0
 15 26  1  0  0  0  0
 16 27  1  0  0  0  0
 17 28  1  0  0  0  0
 18 30  1  0  0  0  0
 19 23  1  0  0  0  0
 19 27  1  0  0  0  0
 19 29  2  0  0  0  0
 20 28  1  0  0  0  0
 21 28  1  0  0  0  0
 22 27  1  0  0  0  0
 23 26  1  0  0  0  0
 24 25  2  0  0  0  0
 25 26  1  0  0  0  0
  1 31  1  0  0  0  0
  2 32  1  0  0  0  0
  3 33  1  0  0  0  0
  4 34  1  0  0  0  0
  5 35  1  0  0  0  0
  6 36  1  0  0  0  0
  7 37  1  0  0  0  0
  8 38  1  0  0  0  0
  9 39  1  0  0  0  0
 10 40  1  0  0  0  0
 11 41  1  0  0  0  0
 12 42  1  0  0  0  0
 20 43  1  0  0  0  0
 20 44  1  0  0  0  0
 20 45  1  0  0  0  0
 21 46  1  0  0  0  0
 21 47  1  0  0  0  0
 21 48  1  0  0  0  0
 22 49  1  0  0  0  0
 22 50  1  0  0  0  0
 23 51  1  0  0  0  0
 23 52  1  0  0  0  0
M  END
> <clash_score>
0.7592402605425311

> <docking_score>
-8.99182415008545

> <overlap_score>
0.9948900938034058

$$$$
BENZO_334_2
  -OEChem-08232013503D

 57 61  0     1  0  0  0  0  0999 V2000
   10.2658    4.1447   23.6556 C   0  0  0  0  0  0  0  0  0  0  0  0
   10.1187    2.7578   23.6359 C   0  0  0  0  0  0  0  0  0  0  0  0
    8.3510   -1.5420   24.6110 C   0  0  0  0  0  0  0  0  0  0  0  0
   10.2760   -2.3270   23.4020 C   0  0  0  0  0  0  0  0  0  0  0  0
    8.3310   -2.7170   25.3430 C   0  0  0  0  0  0  0  0  0  0  0  0
   10.2570   -3.5000   24.1350 C   0  0  0  0  0  0  0  0  0  0  0  0
   11.4317    4.7295   23.1614 C   0  0  0  0  0  0  0  0  0  0  0  0
   12.3037    2.5404   22.6281 C   0  0  0  0  0  0  0  0  0  0  0  0
    9.3300   -1.3350   23.6390 C   0  0  0  0  0  0  0  0  0  0  0  0
   11.1377    1.9556   23.1223 C   0  0  0  0  0  0  0  0  0  0  0  0
    9.2850   -3.7090   25.1090 C   0  0  0  0  0  0  0  0  0  0  0  0
   12.4507    3.9274   22.6477 C   0  0  0  0  0  0  0  0  0  0  0  0
    5.9810    0.8330   18.8060 C   0  0  0  0  0  0  0  0  0  0  0  0
    7.2210   -0.4620   20.0350 C   0  0  0  0  0  0  0  0  0  0  0  0
    4.9400    1.7060   18.5060 C   0  0  0  0  0  0  0  0  0  0  0  0
    4.0980    2.1130   19.5350 C   0  0  0  0  0  0  0  0  0  0  0  0
    4.2970    1.6690   20.8430 C   0  0  0  0  0  0  0  0  0  0  0  0
    5.3360    0.8000   21.1530 C   0  0  0  0  0  0  0  0  0  0  0  0
    8.9510    0.1280   21.6880 C   0  0  0  0  0  0  0  0  0  0  0  0
    8.7671   -4.9535   27.2147 C   0  0  0  0  0  0  0  0  0  0  0  0
    9.3066   -6.1865   25.1649 C   0  0  0  0  0  0  0  0  0  0  0  0
    7.3847   -5.5970   27.2000 C   0  0  0  0  0  0  0  0  0  0  0  0
    7.9070   -6.7999   25.2264 C   0  0  0  0  0  0  0  0  0  0  0  0
   10.9782    0.4528   23.1025 C   0  0  0  0  0  0  0  0  0  0  0  0
    9.4200   -0.0840   22.9530 C   0  0  2  0  0  0  0  0  0  0  0  0
    6.9440    0.2550   18.0100 N   0  0  0  0  0  0  0  0  0  0  0  0
    7.6830   -0.5170   18.7600 N   0  0  0  0  0  0  0  0  0  0  0  0
    6.1600    0.3870   20.1140 N   0  0  0  0  0  0  0  0  0  0  0  0
    9.2641   -4.8845   25.8388 N   0  0  0  0  0  0  0  0  0  0  0  0
    8.0810   -0.9750   21.0820 N   0  0  0  0  0  0  0  0  0  0  0  0
    9.1870    1.1500   21.0630 O   0  0  0  0  0  0  0  0  0  0  0  0
    7.4533   -6.8877   26.5818 O   0  0  0  0  0  0  0  0  0  0  0  0
   13.8895    4.6494   22.0392 Cl  0  0  0  0  0  0  0  0  0  0  0  0
    9.4721    4.7690   24.0558 H   0  0  0  0  0  0  0  0  0  0  0  0
    9.2068    2.3107   24.0232 H   0  0  0  0  0  0  0  0  0  0  0  0
    7.5957   -0.7779   24.7973 H   0  0  0  0  0  0  0  0  0  0  0  0
   11.0384   -2.1852   22.6338 H   0  0  0  0  0  0  0  0  0  0  0  0
    7.5634   -2.8637   26.1037 H   0  0  0  0  0  0  0  0  0  0  0  0
   11.0139   -4.2645   23.9419 H   0  0  0  0  0  0  0  0  0  0  0  0
   11.5327    5.8118   23.1833 H   0  0  0  0  0  0  0  0  0  0  0  0
   13.0951    1.9106   22.2282 H   0  0  0  0  0  0  0  0  0  0  0  0
    4.7733    2.0700   17.5071 H   0  0  0  0  0  0  0  0  0  0  0  0
    3.2813    2.7836   19.2995 H   0  0  0  0  0  0  0  0  0  0  0  0
    3.6335    1.9977   21.6542 H   0  0  0  0  0  0  0  0  0  0  0  0
    5.5067    0.4537   22.1474 H   0  0  0  0  0  0  0  0  0  0  0  0
    8.7013   -3.9575   27.6574 H   0  0  0  0  0  0  0  0  0  0  0  0
    9.4480   -5.5636   27.8142 H   0  0  0  0  0  0  0  0  0  0  0  0
   10.0131   -6.8375   25.6814 H   0  0  0  0  0  0  0  0  0  0  0  0
    9.6116   -6.0794   24.1250 H   0  0  0  0  0  0  0  0  0  0  0  0
    7.0306   -5.7388   28.2232 H   0  0  0  0  0  0  0  0  0  0  0  0
    6.6546   -4.9740   26.6757 H   0  0  0  0  0  0  0  0  0  0  0  0
    7.1892   -6.2226   24.6319 H   0  0  0  0  0  0  0  0  0  0  0  0
    7.9315   -7.8151   24.8187 H   0  0  0  0  0  0  0  0  0  0  0  0
   11.5374    0.0399   22.2527 H   0  0  0  0  0  0  0  0  0  0  0  0
   11.4700    0.0494   23.9985 H   0  0  0  0  0  0  0  0  0  0  0  0
    8.9187    0.7273   23.6745 H   0  0  0  0  0  0  0  0  0  0  0  0
    8.1354   -1.7990   21.3694 H   0  0  0  0  0  0  0  0  0  0  0  0
  1  2  2  0  0  0  0
  1  7  1  0  0  0  0
  2 10  1  0  0  0  0
  3  5  2  0  0  0  0
  3  9  1  0  0  0  0
  4  6  1  0  0  0  0
  4  9  2  0  0  0  0
  5 11  1  0  0  0  0
  6 11  2  0  0  0  0
  7 12  2  0  0  0  0
  8 10  2  0  0  0  0
  8 12  1  0  0  0  0
  9 25  1  0  0  0  0
 10 24  1  0  0  0  0
 11 29  1  0  0  0  0
 12 33  1  0  0  0  0
 13 15  1  0  0  0  0
 13 26  2  0  0  0  0
 13 28  1  0  0  0  0
 14 27  2  0  0  0  0
 14 28  1  0  0  0  0
 14 30  1  0  0  0  0
 15 16  2  0  0  0  0
 16 17  1  0  0  0  0
 17 18  2  0  0  0  0
 18 28  1  0  0  0  0
 19 25  1  6  0  0  0
 19 30  1  0  0  0  0
 19 31  2  0  0  0  0
 20 22  1  0  0  0  0
 20 29  1  0  0  0  0
 21 23  1  0  0  0  0
 21 29  1  0  0  0  0
 22 32  1  0  0  0  0
 23 32  1  0  0  0  0
 24 25  1  0  0  0  0
 26 27  1  0  0  0  0
  1 34  1  0  0  0  0
  2 35  1  0  0  0  0
  3 36  1  0  0  0  0
  4 37  1  0  0  0  0
  5 38  1  0  0  0  0
  6 39  1  0  0  0  0
  7 40  1  0  0  0  0
  8 41  1  0  0  0  0
 15 42  1  0  0  0  0
 16 43  1  0  0  0  0
 17 44  1  0  0  0  0
 18 45  1  0  0  0  0
 20 46  1  0  0  0  0
 20 47  1  0  0  0  0
 21 48  1  0  0  0  0
 21 49  1  0  0  0  0
 22 50  1  0  0  0  0
 22 51  1  0  0  0  0
 23 52  1  0  0  0  0
 23 53  1  0  0  0  0
 24 54  1  0  0  0  0
 24 55  1  0  0  0  0
 25 56  1  0  0  0  0
 30 57  1  0  0  0  0
M  END
> <clash_score>
0

> <docking_score>
-11.421924591064453

> <overlap_score>
0.9470763206481934

$$$$
BENZO_335_1
  -OEChem-08232013503D

 57 61  0     1  0  0  0  0  0999 V2000
    8.3510   -1.5420   24.6110 C   0  0  0  0  0  0  0  0  0  0  0  0
   10.2760   -2.3270   23.4020 C   0  0  0  0  0  0  0  0  0  0  0  0
    8.3310   -2.7170   25.3430 C   0  0  0  0  0  0  0  0  0  0  0  0
   10.2570   -3.5000   24.1350 C   0  0  0  0  0  0  0  0  0  0  0  0
   10.2246    2.9150   23.5993 C   0  0  0  0  0  0  0  0  0  0  0  0
   12.2096    2.6918   22.6802 C   0  0  0  0  0  0  0  0  0  0  0  0
    9.3300   -1.3350   23.6390 C   0  0  0  0  0  0  0  0  0  0  0  0
   11.1377    1.9556   23.1223 C   0  0  0  0  0  0  0  0  0  0  0  0
    9.2850   -3.7090   25.1090 C   0  0  0  0  0  0  0  0  0  0  0  0
    5.9810    0.8330   18.8060 C   0  0  0  0  0  0  0  0  0  0  0  0
    7.2210   -0.4620   20.0350 C   0  0  0  0  0  0  0  0  0  0  0  0
    4.9400    1.7060   18.5060 C   0  0  0  0  0  0  0  0  0  0  0  0
    4.0980    2.1130   19.5350 C   0  0  0  0  0  0  0  0  0  0  0  0
    4.2970    1.6690   20.8430 C   0  0  0  0  0  0  0  0  0  0  0  0
    5.3360    0.8000   21.1530 C   0  0  0  0  0  0  0  0  0  0  0  0
    8.9510    0.1280   21.6880 C   0  0  0  0  0  0  0  0  0  0  0  0
    8.7671   -4.9535   27.2147 C   0  0  0  0  0  0  0  0  0  0  0  0
    9.3066   -6.1865   25.1649 C   0  0  0  0  0  0  0  0  0  0  0  0
    7.3847   -5.5970   27.2000 C   0  0  0  0  0  0  0  0  0  0  0  0
    7.9070   -6.7999   25.2264 C   0  0  0  0  0  0  0  0  0  0  0  0
   12.7040    5.1473   22.6110 C   0  0  0  0  0  0  0  0  0  0  0  0
   10.9782    0.4528   23.1025 C   0  0  0  0  0  0  0  0  0  0  0  0
    9.4200   -0.0840   22.9530 C   0  0  1  0  0  0  0  0  0  0  0  0
   10.6770    4.1653   23.4725 N   0  0  0  0  0  0  0  0  0  0  0  0
    6.9440    0.2550   18.0100 N   0  0  0  0  0  0  0  0  0  0  0  0
    7.6830   -0.5170   18.7600 N   0  0  0  0  0  0  0  0  0  0  0  0
   11.8861    3.9966   22.9107 N   0  0  0  0  0  0  0  0  0  0  0  0
    6.1600    0.3870   20.1140 N   0  0  0  0  0  0  0  0  0  0  0  0
    9.2641   -4.8845   25.8388 N   0  0  0  0  0  0  0  0  0  0  0  0
    8.0810   -0.9750   21.0820 N   0  0  0  0  0  0  0  0  0  0  0  0
    9.1870    1.1500   21.0630 O   0  0  0  0  0  0  0  0  0  0  0  0
    7.4533   -6.8877   26.5818 O   0  0  0  0  0  0  0  0  0  0  0  0
    7.5957   -0.7779   24.7973 H   0  0  0  0  0  0  0  0  0  0  0  0
   11.0384   -2.1852   22.6338 H   0  0  0  0  0  0  0  0  0  0  0  0
    7.5634   -2.8637   26.1037 H   0  0  0  0  0  0  0  0  0  0  0  0
   11.0139   -4.2645   23.9419 H   0  0  0  0  0  0  0  0  0  0  0  0
    9.2482    2.7576   24.0354 H   0  0  0  0  0  0  0  0  0  0  0  0
   13.1522    2.4055   22.2336 H   0  0  0  0  0  0  0  0  0  0  0  0
    4.7733    2.0700   17.5071 H   0  0  0  0  0  0  0  0  0  0  0  0
    3.2813    2.7836   19.2995 H   0  0  0  0  0  0  0  0  0  0  0  0
    3.6335    1.9977   21.6542 H   0  0  0  0  0  0  0  0  0  0  0  0
    5.5067    0.4537   22.1474 H   0  0  0  0  0  0  0  0  0  0  0  0
    8.7013   -3.9575   27.6574 H   0  0  0  0  0  0  0  0  0  0  0  0
    9.4480   -5.5636   27.8142 H   0  0  0  0  0  0  0  0  0  0  0  0
   10.0131   -6.8375   25.6814 H   0  0  0  0  0  0  0  0  0  0  0  0
    9.6116   -6.0794   24.1250 H   0  0  0  0  0  0  0  0  0  0  0  0
    7.0306   -5.7388   28.2232 H   0  0  0  0  0  0  0  0  0  0  0  0
    6.6546   -4.9740   26.6757 H   0  0  0  0  0  0  0  0  0  0  0  0
    7.1892   -6.2226   24.6319 H   0  0  0  0  0  0  0  0  0  0  0  0
    7.9315   -7.8151   24.8187 H   0  0  0  0  0  0  0  0  0  0  0  0
   12.4645    5.4764   21.5964 H   0  0  0  0  0  0  0  0  0  0  0  0
   12.4916    5.9426   23.3309 H   0  0  0  0  0  0  0  0  0  0  0  0
   13.7592    4.8699   22.6849 H   0  0  0  0  0  0  0  0  0  0  0  0
   11.5374    0.0399   22.2527 H   0  0  0  0  0  0  0  0  0  0  0  0
   11.4700    0.0494   23.9985 H   0  0  0  0  0  0  0  0  0  0  0  0
    8.9187    0.7273   23.6745 H   0  0  0  0  0  0  0  0  0  0  0  0
    8.1354   -1.7990   21.3694 H   0  0  0  0  0  0  0  0  0  0  0  0
  1  3  2  0  0  0  0
  1  7  1  0  0  0  0
  2  4  1  0  0  0  0
  2  7  2  0  0  0  0
  3  9  1  0  0  0  0
  4  9  2  0  0  0  0
  5  8  1  0  0  0  0
  5 24  2  0  0  0  0
  6  8  2  0  0  0  0
  6 27  1  0  0  0  0
  7 23  1  0  0  0  0
  8 22  1  0  0  0  0
  9 29  1  0  0  0  0
 10 12  1  0  0  0  0
 10 25  2  0  0  0  0
 10 28  1  0  0  0  0
 11 26  2  0  0  0  0
 11 28  1  0  0  0  0
 11 30  1  0  0  0  0
 12 13  2  0  0  0  0
 13 14  1  0  0  0  0
 14 15  2  0  0  0  0
 15 28  1  0  0  0  0
 16 23  1  0  0  0  0
 16 30  1  0  0  0  0
 16 31  2  0  0  0  0
 17 19  1  0  0  0  0
 17 29  1  0  0  0  0
 18 20  1  0  0  0  0
 18 29  1  0  0  0  0
 19 32  1  0  0  0  0
 20 32  1  0  0  0  0
 21 27  1  0  0  0  0
 22 23  1  1  0  0  0
 24 27  1  0  0  0  0
 25 26  1  0  0  0  0
  1 33  1  0  0  0  0
  2 34  1  0  0  0  0
  3 35  1  0  0  0  0
  4 36  1  0  0  0  0
  5 37  1  0  0  0  0
  6 38  1  0  0  0  0
 12 39  1  0  0  0  0
 13 40  1  0  0  0  0
 14 41  1  0  0  0  0
 15 42  1  0  0  0  0
 17 43  1  0  0  0  0
 17 44  1  0  0  0  0
 18 45  1  0  0  0  0
 18 46  1  0  0  0  0
 19 47  1  0  0  0  0
 19 48  1  0  0  0  0
 20 49  1  0  0  0  0
 20 50  1  0  0  0  0
 21 51  1  0  0  0  0
 21 52  1  0  0  0  0
 21 53  1  0  0  0  0
 22 54  1  0  0  0  0
 22 55  1  0  0  0  0
 23 56  1  0  0  0  0
 30 57  1  0  0  0  0
M  END
> <clash_score>
0

> <docking_score>
-10.94881820678711

> <overlap_score>
0.9410843849182129

$$$$
BENZO_334_1
  -OEChem-08232013503D

 57 61  0     1  0  0  0  0  0999 V2000
    9.2913    4.8680   24.0265 C   0  0  0  0  0  0  0  0  0  0  0  0
    8.7312    3.5975   24.1588 C   0  0  0  0  0  0  0  0  0  0  0  0
    8.3510   -1.5420   24.6110 C   0  0  0  0  0  0  0  0  0  0  0  0
   10.2760   -2.3270   23.4020 C   0  0  0  0  0  0  0  0  0  0  0  0
    8.3310   -2.7170   25.3430 C   0  0  0  0  0  0  0  0  0  0  0  0
   10.2570   -3.5000   24.1350 C   0  0  0  0  0  0  0  0  0  0  0  0
   10.6033    5.0082   23.5739 C   0  0  0  0  0  0  0  0  0  0  0  0
   10.7949    2.6072   23.3858 C   0  0  0  0  0  0  0  0  0  0  0  0
    9.3300   -1.3350   23.6390 C   0  0  0  0  0  0  0  0  0  0  0  0
    9.4829    2.4671   23.8384 C   0  0  0  0  0  0  0  0  0  0  0  0
    9.2850   -3.7090   25.1090 C   0  0  0  0  0  0  0  0  0  0  0  0
   11.3551    3.8778   23.2536 C   0  0  0  0  0  0  0  0  0  0  0  0
    5.9810    0.8330   18.8060 C   0  0  0  0  0  0  0  0  0  0  0  0
    7.2210   -0.4620   20.0350 C   0  0  0  0  0  0  0  0  0  0  0  0
    4.9400    1.7060   18.5060 C   0  0  0  0  0  0  0  0  0  0  0  0
    4.0980    2.1130   19.5350 C   0  0  0  0  0  0  0  0  0  0  0  0
    4.2970    1.6690   20.8430 C   0  0  0  0  0  0  0  0  0  0  0  0
    5.3360    0.8000   21.1530 C   0  0  0  0  0  0  0  0  0  0  0  0
    8.9510    0.1280   21.6880 C   0  0  0  0  0  0  0  0  0  0  0  0
    8.7671   -4.9535   27.2147 C   0  0  0  0  0  0  0  0  0  0  0  0
    9.3066   -6.1865   25.1649 C   0  0  0  0  0  0  0  0  0  0  0  0
    7.3847   -5.5970   27.2000 C   0  0  0  0  0  0  0  0  0  0  0  0
    7.9070   -6.7999   25.2264 C   0  0  0  0  0  0  0  0  0  0  0  0
    8.8757    1.0906   23.9831 C   0  0  0  0  0  0  0  0  0  0  0  0
    9.4200   -0.0840   22.9530 C   0  0  1  0  0  0  0  0  0  0  0  0
    6.9440    0.2550   18.0100 N   0  0  0  0  0  0  0  0  0  0  0  0
    7.6830   -0.5170   18.7600 N   0  0  0  0  0  0  0  0  0  0  0  0
    6.1600    0.3870   20.1140 N   0  0  0  0  0  0  0  0  0  0  0  0
    9.2641   -4.8845   25.8388 N   0  0  0  0  0  0  0  0  0  0  0  0
    8.0810   -0.9750   21.0820 N   0  0  0  0  0  0  0  0  0  0  0  0
    9.1870    1.1500   21.0630 O   0  0  0  0  0  0  0  0  0  0  0  0
    7.4533   -6.8877   26.5818 O   0  0  0  0  0  0  0  0  0  0  0  0
   12.9740    4.0513   22.6963 Cl  0  0  0  0  0  0  0  0  0  0  0  0
    8.7057    5.7481   24.2762 H   0  0  0  0  0  0  0  0  0  0  0  0
    7.7082    3.4977   24.5123 H   0  0  0  0  0  0  0  0  0  0  0  0
    7.5957   -0.7779   24.7973 H   0  0  0  0  0  0  0  0  0  0  0  0
   11.0384   -2.1852   22.6338 H   0  0  0  0  0  0  0  0  0  0  0  0
    7.5634   -2.8637   26.1037 H   0  0  0  0  0  0  0  0  0  0  0  0
   11.0139   -4.2645   23.9419 H   0  0  0  0  0  0  0  0  0  0  0  0
   11.0270    6.0047   23.4760 H   0  0  0  0  0  0  0  0  0  0  0  0
   11.3767    1.7227   23.1369 H   0  0  0  0  0  0  0  0  0  0  0  0
    4.7733    2.0700   17.5071 H   0  0  0  0  0  0  0  0  0  0  0  0
    3.2813    2.7836   19.2995 H   0  0  0  0  0  0  0  0  0  0  0  0
    3.6335    1.9977   21.6542 H   0  0  0  0  0  0  0  0  0  0  0  0
    5.5067    0.4537   22.1474 H   0  0  0  0  0  0  0  0  0  0  0  0
    8.7013   -3.9575   27.6574 H   0  0  0  0  0  0  0  0  0  0  0  0
    9.4480   -5.5636   27.8142 H   0  0  0  0  0  0  0  0  0  0  0  0
   10.0131   -6.8375   25.6814 H   0  0  0  0  0  0  0  0  0  0  0  0
    9.6116   -6.0794   24.1250 H   0  0  0  0  0  0  0  0  0  0  0  0
    7.0306   -5.7388   28.2232 H   0  0  0  0  0  0  0  0  0  0  0  0
    6.6546   -4.9740   26.6757 H   0  0  0  0  0  0  0  0  0  0  0  0
    7.1892   -6.2226   24.6319 H   0  0  0  0  0  0  0  0  0  0  0  0
    7.9315   -7.8151   24.8187 H   0  0  0  0  0  0  0  0  0  0  0  0
    8.9639    0.7632   25.0273 H   0  0  0  0  0  0  0  0  0  0  0  0
    7.7964    1.1765   23.7949 H   0  0  0  0  0  0  0  0  0  0  0  0
   10.5749    0.2253   22.9765 H   0  0  0  0  0  0  0  0  0  0  0  0
    8.1354   -1.7990   21.3694 H   0  0  0  0  0  0  0  0  0  0  0  0
  1  2  2  0  0  0  0
  1  7  1  0  0  0  0
  2 10  1  0  0  0  0
  3  5  2  0  0  0  0
  3  9  1  0  0  0  0
  4  6  1  0  0  0  0
  4  9  2  0  0  0  0
  5 11  1  0  0  0  0
  6 11  2  0  0  0  0
  7 12  2  0  0  0  0
  8 10  2  0  0  0  0
  8 12  1  0  0  0  0
  9 25  1  0  0  0  0
 10 24  1  0  0  0  0
 11 29  1  0  0  0  0
 12 33  1  0  0  0  0
 13 15  1  0  0  0  0
 13 26  2  0  0  0  0
 13 28  1  0  0  0  0
 14 27  2  0  0  0  0
 14 28  1  0  0  0  0
 14 30  1  0  0  0  0
 15 16  2  0  0  0  0
 16 17  1  0  0  0  0
 17 18  2  0  0  0  0
 18 28  1  0  0  0  0
 19 25  1  1  0  0  0
 19 30  1  0  0  0  0
 19 31  2  0  0  0  0
 20 22  1  0  0  0  0
 20 29  1  0  0  0  0
 21 23  1  0  0  0  0
 21 29  1  0  0  0  0
 22 32  1  0  0  0  0
 23 32  1  0  0  0  0
 24 25  1  0  0  0  0
 26 27  1  0  0  0  0
  1 34  1  0  0  0  0
  2 35  1  0  0  0  0
  3 36  1  0  0  0  0
  4 37  1  0  0  0  0
  5 38  1  0  0  0  0
  6 39  1  0  0  0  0
  7 40  1  0  0  0  0
  8 41  1  0  0  0  0
 15 42  1  0  0  0  0
 16 43  1  0  0  0  0
 17 44  1  0  0  0  0
 18 45  1  0  0  0  0
 20 46  1  0  0  0  0
 20 47  1  0  0  0  0
 21 48  1  0  0  0  0
 21 49  1  0  0  0  0
 22 50  1  0  0  0  0
 22 51  1  0  0  0  0
 23 52  1  0  0  0  0
 23 53  1  0  0  0  0
 24 54  1  0  0  0  0
 24 55  1  0  0  0  0
 25 56  1  0  0  0  0
 30 57  1  0  0  0  0
M  END
> <clash_score>
0

> <docking_score>
-10.440433502197266

> <overlap_score>
0.8821789622306824

$$$$
BENZO_335_2
  -OEChem-08232013503D

 57 61  0     1  0  0  0  0  0999 V2000
    8.3510   -1.5420   24.6110 C   0  0  0  0  0  0  0  0  0  0  0  0
   10.2760   -2.3270   23.4020 C   0  0  0  0  0  0  0  0  0  0  0  0
    8.3310   -2.7170   25.3430 C   0  0  0  0  0  0  0  0  0  0  0  0
   10.2570   -3.5000   24.1350 C   0  0  0  0  0  0  0  0  0  0  0  0
   10.7785    2.7977   23.3980 C   0  0  0  0  0  0  0  0  0  0  0  0
    8.8916    3.6777   24.1053 C   0  0  0  0  0  0  0  0  0  0  0  0
    9.3300   -1.3350   23.6390 C   0  0  0  0  0  0  0  0  0  0  0  0
    9.4829    2.4671   23.8384 C   0  0  0  0  0  0  0  0  0  0  0  0
    9.2850   -3.7090   25.1090 C   0  0  0  0  0  0  0  0  0  0  0  0
    5.9810    0.8330   18.8060 C   0  0  0  0  0  0  0  0  0  0  0  0
    7.2210   -0.4620   20.0350 C   0  0  0  0  0  0  0  0  0  0  0  0
    4.9400    1.7060   18.5060 C   0  0  0  0  0  0  0  0  0  0  0  0
    4.0980    2.1130   19.5350 C   0  0  0  0  0  0  0  0  0  0  0  0
    4.2970    1.6690   20.8430 C   0  0  0  0  0  0  0  0  0  0  0  0
    5.3360    0.8000   21.1530 C   0  0  0  0  0  0  0  0  0  0  0  0
    8.9510    0.1280   21.6880 C   0  0  0  0  0  0  0  0  0  0  0  0
    8.7671   -4.9535   27.2147 C   0  0  0  0  0  0  0  0  0  0  0  0
    9.3066   -6.1865   25.1649 C   0  0  0  0  0  0  0  0  0  0  0  0
    7.3847   -5.5970   27.2000 C   0  0  0  0  0  0  0  0  0  0  0  0
    7.9070   -6.7999   25.2264 C   0  0  0  0  0  0  0  0  0  0  0  0
    9.6751    6.0523   23.9437 C   0  0  0  0  0  0  0  0  0  0  0  0
    8.8757    1.0906   23.9831 C   0  0  0  0  0  0  0  0  0  0  0  0
    9.4200   -0.0840   22.9530 C   0  0  2  0  0  0  0  0  0  0  0  0
   10.9979    4.1151   23.3843 N   0  0  0  0  0  0  0  0  0  0  0  0
    6.9440    0.2550   18.0100 N   0  0  0  0  0  0  0  0  0  0  0  0
    7.6830   -0.5170   18.7600 N   0  0  0  0  0  0  0  0  0  0  0  0
    9.8322    4.6230   23.8194 N   0  0  0  0  0  0  0  0  0  0  0  0
    6.1600    0.3870   20.1140 N   0  0  0  0  0  0  0  0  0  0  0  0
    9.2641   -4.8845   25.8388 N   0  0  0  0  0  0  0  0  0  0  0  0
    8.0810   -0.9750   21.0820 N   0  0  0  0  0  0  0  0  0  0  0  0
    9.1870    1.1500   21.0630 O   0  0  0  0  0  0  0  0  0  0  0  0
    7.4533   -6.8877   26.5818 O   0  0  0  0  0  0  0  0  0  0  0  0
    7.5957   -0.7779   24.7973 H   0  0  0  0  0  0  0  0  0  0  0  0
   11.0384   -2.1852   22.6338 H   0  0  0  0  0  0  0  0  0  0  0  0
    7.5634   -2.8637   26.1037 H   0  0  0  0  0  0  0  0  0  0  0  0
   11.0139   -4.2645   23.9419 H   0  0  0  0  0  0  0  0  0  0  0  0
   11.5733    2.1354   23.0851 H   0  0  0  0  0  0  0  0  0  0  0  0
    7.9057    3.9405   24.4642 H   0  0  0  0  0  0  0  0  0  0  0  0
    4.7733    2.0700   17.5071 H   0  0  0  0  0  0  0  0  0  0  0  0
    3.2813    2.7836   19.2995 H   0  0  0  0  0  0  0  0  0  0  0  0
    3.6335    1.9977   21.6542 H   0  0  0  0  0  0  0  0  0  0  0  0
    5.5067    0.4537   22.1474 H   0  0  0  0  0  0  0  0  0  0  0  0
    8.7013   -3.9575   27.6574 H   0  0  0  0  0  0  0  0  0  0  0  0
    9.4480   -5.5636   27.8142 H   0  0  0  0  0  0  0  0  0  0  0  0
   10.0131   -6.8375   25.6814 H   0  0  0  0  0  0  0  0  0  0  0  0
    9.6116   -6.0794   24.1250 H   0  0  0  0  0  0  0  0  0  0  0  0
    7.0306   -5.7388   28.2232 H   0  0  0  0  0  0  0  0  0  0  0  0
    6.6546   -4.9740   26.6757 H   0  0  0  0  0  0  0  0  0  0  0  0
    7.1892   -6.2226   24.6319 H   0  0  0  0  0  0  0  0  0  0  0  0
    7.9315   -7.8151   24.8187 H   0  0  0  0  0  0  0  0  0  0  0  0
    9.9837    6.3391   24.9525 H   0  0  0  0  0  0  0  0  0  0  0  0
   10.2970    6.5534   23.1967 H   0  0  0  0  0  0  0  0  0  0  0  0
    8.6277    6.3169   23.7734 H   0  0  0  0  0  0  0  0  0  0  0  0
    8.9639    0.7632   25.0273 H   0  0  0  0  0  0  0  0  0  0  0  0
    7.7964    1.1765   23.7949 H   0  0  0  0  0  0  0  0  0  0  0  0
   10.5749    0.2253   22.9765 H   0  0  0  0  0  0  0  0  0  0  0  0
    8.1354   -1.7990   21.3694 H   0  0  0  0  0  0  0  0  0  0  0  0
  1  3  2  0  0  0  0
  1  7  1  0  0  0  0
  2  4  1  0  0  0  0
  2  7  2  0  0  0  0
  3  9  1  0  0  0  0
  4  9  2  0  0  0  0
  5  8  1  0  0  0  0
  5 24  2  0  0  0  0
  6  8  2  0  0  0  0
  6 27  1  0  0  0  0
  7 23  1  0  0  0  0
  8 22  1  0  0  0  0
  9 29  1  0  0  0  0
 10 12  1  0  0  0  0
 10 25  2  0  0  0  0
 10 28  1  0  0  0  0
 11 26  2  0  0  0  0
 11 28  1  0  0  0  0
 11 30  1  0  0  0  0
 12 13  2  0  0  0  0
 13 14  1  0  0  0  0
 14 15  2  0  0  0  0
 15 28  1  0  0  0  0
 16 23  1  0  0  0  0
 16 30  1  0  0  0  0
 16 31  2  0  0  0  0
 17 19  1  0  0  0  0
 17 29  1  0  0  0  0
 18 20  1  0  0  0  0
 18 29  1  0  0  0  0
 19 32  1  0  0  0  0
 20 32  1  0  0  0  0
 21 27  1  0  0  0  0
 22 23  1  6  0  0  0
 24 27  1  0  0  0  0
 25 26  1  0  0  0  0
  1 33  1  0  0  0  0
  2 34  1  0  0  0  0
  3 35  1  0  0  0  0
  4 36  1  0  0  0  0
  5 37  1  0  0  0  0
  6 38  1  0  0  0  0
 12 39  1  0  0  0  0
 13 40  1  0  0  0  0
 14 41  1  0  0  0  0
 15 42  1  0  0  0  0
 17 43  1  0  0  0  0
 17 44  1  0  0  0  0
 18 45  1  0  0  0  0
 18 46  1  0  0  0  0
 19 47  1  0  0  0  0
 19 48  1  0  0  0  0
 20 49  1  0  0  0  0
 20 50  1  0  0  0  0
 21 51  1  0  0  0  0
 21 52  1  0  0  0  0
 21 53  1  0  0  0  0
 22 54  1  0  0  0  0
 22 55  1  0  0  0  0
 23 56  1  0  0  0  0
 30 57  1  0  0  0  0
M  END
> <clash_score>
0

> <docking_score>
-9.744009017944336

> <overlap_score>
0.8677912950515747

$$$$
BENZO_341_1
  -OEChem-08232013503D

 54 57  0     0  0  0  0  0  0999 V2000
   14.2757    0.9455   23.8498 C   0  0  0  0  0  0  0  0  0  0  0  0
   13.5453    0.2614   24.8215 C   0  0  0  0  0  0  0  0  0  0  0  0
   13.6117    1.6606   22.8530 C   0  0  0  0  0  0  0  0  0  0  0  0
    4.0980    2.1130   19.5350 C   0  0  0  0  0  0  0  0  0  0  0  0
    4.2970    1.6690   20.8430 C   0  0  0  0  0  0  0  0  0  0  0  0
   12.1510    0.2924   24.7964 C   0  0  0  0  0  0  0  0  0  0  0  0
   12.2174    1.6915   22.8279 C   0  0  0  0  0  0  0  0  0  0  0  0
    4.9400    1.7060   18.5060 C   0  0  0  0  0  0  0  0  0  0  0  0
    5.3360    0.8000   21.1530 C   0  0  0  0  0  0  0  0  0  0  0  0
    8.3310   -2.7170   25.3430 C   0  0  0  0  0  0  0  0  0  0  0  0
   10.2570   -3.5000   24.1350 C   0  0  0  0  0  0  0  0  0  0  0  0
    8.3510   -1.5420   24.6110 C   0  0  0  0  0  0  0  0  0  0  0  0
   10.2760   -2.3270   23.4020 C   0  0  0  0  0  0  0  0  0  0  0  0
   11.4870    1.0074   23.7996 C   0  0  0  0  0  0  0  0  0  0  0  0
    5.9810    0.8330   18.8060 C   0  0  0  0  0  0  0  0  0  0  0  0
    6.1600    0.3870   20.1140 C   0  0  0  0  0  0  0  0  0  0  0  0
    9.2850   -3.7090   25.1090 C   0  0  0  0  0  0  0  0  0  0  0  0
    9.3300   -1.3350   23.6390 C   0  0  0  0  0  0  0  0  0  0  0  0
    9.6843   -6.1680   25.4389 C   0  0  0  0  0  0  0  0  0  0  0  0
    8.9510    0.1280   21.6880 C   0  0  0  0  0  0  0  0  0  0  0  0
    8.0401   -7.2913   27.0012 C   0  0  0  0  0  0  0  0  0  0  0  0
    9.9863    1.0409   23.7719 C   0  0  0  0  0  0  0  0  0  0  0  0
    9.4863   -7.1875   26.5508 C   0  0  0  0  0  0  0  0  0  0  0  0
    8.0810   -0.9750   21.0820 C   0  0  0  0  0  0  0  0  0  0  0  0
    6.9440    0.2550   18.0100 N   0  0  0  0  0  0  0  0  0  0  0  0
    7.6830   -0.5170   18.7600 N   0  0  0  0  0  0  0  0  0  0  0  0
    7.2210   -0.4620   20.0350 N   0  0  0  0  0  0  0  0  0  0  0  0
    9.2630   -4.8902   25.8410 N   0  0  0  0  0  0  0  0  0  0  0  0
    9.4200   -0.0840   22.9530 N   0  0  0  0  0  0  0  0  0  0  0  0
   10.1565   -6.4769   24.3498 O   0  0  0  0  0  0  0  0  0  0  0  0
    9.1870    1.1500   21.0630 O   0  0  0  0  0  0  0  0  0  0  0  0
   15.3613    0.9224   23.8703 H   0  0  0  0  0  0  0  0  0  0  0  0
   14.0621   -0.2945   25.5983 H   0  0  0  0  0  0  0  0  0  0  0  0
   14.1800    2.1942   22.0970 H   0  0  0  0  0  0  0  0  0  0  0  0
    3.2714    2.7873   19.3199 H   0  0  0  0  0  0  0  0  0  0  0  0
    3.6281    2.0093   21.6291 H   0  0  0  0  0  0  0  0  0  0  0  0
   11.5902   -0.2438   25.5575 H   0  0  0  0  0  0  0  0  0  0  0  0
   11.7087    2.2512   22.0475 H   0  0  0  0  0  0  0  0  0  0  0  0
    4.7823    2.0669   17.4883 H   0  0  0  0  0  0  0  0  0  0  0  0
    5.4954    0.4562   22.1797 H   0  0  0  0  0  0  0  0  0  0  0  0
    7.5639   -2.8621   26.1045 H   0  0  0  0  0  0  0  0  0  0  0  0
   11.0141   -4.2644   23.9422 H   0  0  0  0  0  0  0  0  0  0  0  0
    7.5950   -0.7788   24.8007 H   0  0  0  0  0  0  0  0  0  0  0  0
   11.0408   -2.1861   22.6359 H   0  0  0  0  0  0  0  0  0  0  0  0
    7.6718   -6.3270   27.3663 H   0  0  0  0  0  0  0  0  0  0  0  0
    7.9444   -8.0224   27.8098 H   0  0  0  0  0  0  0  0  0  0  0  0
    7.3932   -7.6071   26.1761 H   0  0  0  0  0  0  0  0  0  0  0  0
    9.5794    0.9574   24.7855 H   0  0  0  0  0  0  0  0  0  0  0  0
    9.6220    1.9844   23.3519 H   0  0  0  0  0  0  0  0  0  0  0  0
    9.8280   -8.1648   26.1911 H   0  0  0  0  0  0  0  0  0  0  0  0
   10.1145   -6.9002   27.4018 H   0  0  0  0  0  0  0  0  0  0  0  0
    8.7066   -1.7479   20.6383 H   0  0  0  0  0  0  0  0  0  0  0  0
    7.4345   -1.4041   21.8461 H   0  0  0  0  0  0  0  0  0  0  0  0
    8.8930   -4.8275   26.7966 H   0  0  0  0  0  0  0  0  0  0  0  0
  1  2  1  0  0  0  0
  1  3  2  0  0  0  0
  2  6  2  0  0  0  0
  3  7  1  0  0  0  0
  4  5  1  0  0  0  0
  4  8  2  0  0  0  0
  5  9  2  0  0  0  0
  6 14  1  0  0  0  0
  7 14  2  0  0  0  0
  8 15  1  0  0  0  0
  9 16  1  0  0  0  0
 10 12  2  0  0  0  0
 10 17  1  0  0  0  0
 11 13  1  0  0  0  0
 11 17  2  0  0  0  0
 12 18  1  0  0  0  0
 13 18  2  0  0  0  0
 14 22  1  0  0  0  0
 15 16  2  0  0  0  0
 15 25  1  0  0  0  0
 16 27  1  0  0  0  0
 17 28  1  0  0  0  0
 18 29  1  0  0  0  0
 19 23  1  0  0  0  0
 19 28  1  0  0  0  0
 19 30  2  0  0  0  0
 20 24  1  0  0  0  0
 20 29  1  0  0  0  0
 20 31  2  0  0  0  0
 21 23  1  0  0  0  0
 22 29  1  0  0  0  0
 24 27  1  0  0  0  0
 25 26  2  0  0  0  0
 26 27  1  0  0  0  0
  1 32  1  0  0  0  0
  2 33  1  0  0  0  0
  3 34  1  0  0  0  0
  4 35  1  0  0  0  0
  5 36  1  0  0  0  0
  6 37  1  0  0  0  0
  7 38  1  0  0  0  0
  8 39  1  0  0  0  0
  9 40  1  0  0  0  0
 10 41  1  0  0  0  0
 11 42  1  0  0  0  0
 12 43  1  0  0  0  0
 13 44  1  0  0  0  0
 21 45  1  0  0  0  0
 21 46  1  0  0  0  0
 21 47  1  0  0  0  0
 22 48  1  0  0  0  0
 22 49  1  0  0  0  0
 23 50  1  0  0  0  0
 23 51  1  0  0  0  0
 24 52  1  0  0  0  0
 24 53  1  0  0  0  0
 28 54  1  0  0  0  0
M  END
> <clash_score>
1.3337221088695097

> <docking_score>
-6.708223819732666

> <overlap_score>
0.97784823179245

$$$$
BENZO_340_1
  -OEChem-08232013503D

 51 54  0     0  0  0  0  0  0999 V2000
    4.0980    2.1130   19.5350 C   0  0  0  0  0  0  0  0  0  0  0  0
    4.2970    1.6690   20.8430 C   0  0  0  0  0  0  0  0  0  0  0  0
    4.9400    1.7060   18.5060 C   0  0  0  0  0  0  0  0  0  0  0  0
    5.3360    0.8000   21.1530 C   0  0  0  0  0  0  0  0  0  0  0  0
    8.3310   -2.7170   25.3430 C   0  0  0  0  0  0  0  0  0  0  0  0
   10.2570   -3.5000   24.1350 C   0  0  0  0  0  0  0  0  0  0  0  0
    8.3510   -1.5420   24.6110 C   0  0  0  0  0  0  0  0  0  0  0  0
   10.2760   -2.3270   23.4020 C   0  0  0  0  0  0  0  0  0  0  0  0
   12.3054    1.0960   22.6366 C   0  0  0  0  0  0  0  0  0  0  0  0
   13.6473    1.0398   22.9426 C   0  0  0  0  0  0  0  0  0  0  0  0
   12.2348    0.8867   24.9504 C   0  0  0  0  0  0  0  0  0  0  0  0
   11.4871    1.0074   23.7996 C   0  0  0  0  0  0  0  0  0  0  0  0
    5.9810    0.8330   18.8060 C   0  0  0  0  0  0  0  0  0  0  0  0
    6.1600    0.3870   20.1140 C   0  0  0  0  0  0  0  0  0  0  0  0
    9.2850   -3.7090   25.1090 C   0  0  0  0  0  0  0  0  0  0  0  0
    9.3300   -1.3350   23.6390 C   0  0  0  0  0  0  0  0  0  0  0  0
    9.6843   -6.1680   25.4389 C   0  0  0  0  0  0  0  0  0  0  0  0
    8.9510    0.1280   21.6880 C   0  0  0  0  0  0  0  0  0  0  0  0
    8.0401   -7.2913   27.0012 C   0  0  0  0  0  0  0  0  0  0  0  0
    9.9863    1.0409   23.7719 C   0  0  0  0  0  0  0  0  0  0  0  0
    9.4863   -7.1875   26.5508 C   0  0  0  0  0  0  0  0  0  0  0  0
    8.0810   -0.9750   21.0820 C   0  0  0  0  0  0  0  0  0  0  0  0
    6.9440    0.2550   18.0100 N   0  0  0  0  0  0  0  0  0  0  0  0
    7.6830   -0.5170   18.7600 N   0  0  0  0  0  0  0  0  0  0  0  0
    7.2210   -0.4620   20.0350 N   0  0  0  0  0  0  0  0  0  0  0  0
    9.2630   -4.8902   25.8410 N   0  0  0  0  0  0  0  0  0  0  0  0
    9.4200   -0.0840   22.9530 N   0  0  0  0  0  0  0  0  0  0  0  0
   10.1565   -6.4769   24.3498 O   0  0  0  0  0  0  0  0  0  0  0  0
    9.1870    1.1500   21.0630 O   0  0  0  0  0  0  0  0  0  0  0  0
   13.9162    0.8808   24.6263 S   0  0  0  0  0  0  0  0  0  0  0  0
    3.2714    2.7873   19.3199 H   0  0  0  0  0  0  0  0  0  0  0  0
    3.6281    2.0093   21.6291 H   0  0  0  0  0  0  0  0  0  0  0  0
    4.7823    2.0669   17.4883 H   0  0  0  0  0  0  0  0  0  0  0  0
    5.4954    0.4562   22.1797 H   0  0  0  0  0  0  0  0  0  0  0  0
    7.5639   -2.8621   26.1045 H   0  0  0  0  0  0  0  0  0  0  0  0
   11.0141   -4.2644   23.9422 H   0  0  0  0  0  0  0  0  0  0  0  0
    7.5950   -0.7788   24.8007 H   0  0  0  0  0  0  0  0  0  0  0  0
   11.0408   -2.1861   22.6359 H   0  0  0  0  0  0  0  0  0  0  0  0
   11.9329    1.1955   21.6249 H   0  0  0  0  0  0  0  0  0  0  0  0
   14.4826    1.0838   22.2581 H   0  0  0  0  0  0  0  0  0  0  0  0
   11.8782    0.8002   25.9674 H   0  0  0  0  0  0  0  0  0  0  0  0
    7.6718   -6.3270   27.3663 H   0  0  0  0  0  0  0  0  0  0  0  0
    7.9444   -8.0224   27.8098 H   0  0  0  0  0  0  0  0  0  0  0  0
    7.3932   -7.6071   26.1761 H   0  0  0  0  0  0  0  0  0  0  0  0
    9.5794    0.9574   24.7855 H   0  0  0  0  0  0  0  0  0  0  0  0
    9.6220    1.9844   23.3519 H   0  0  0  0  0  0  0  0  0  0  0  0
    9.8280   -8.1648   26.1911 H   0  0  0  0  0  0  0  0  0  0  0  0
   10.1145   -6.9002   27.4018 H   0  0  0  0  0  0  0  0  0  0  0  0
    8.7066   -1.7479   20.6383 H   0  0  0  0  0  0  0  0  0  0  0  0
    7.4345   -1.4041   21.8461 H   0  0  0  0  0  0  0  0  0  0  0  0
    8.8930   -4.8275   26.7966 H   0  0  0  0  0  0  0  0  0  0  0  0
  1  2  1  0  0  0  0
  1  3  2  0  0  0  0
  2  4  2  0  0  0  0
  3 13  1  0  0  0  0
  4 14  1  0  0  0  0
  5  7  2  0  0  0  0
  5 15  1  0  0  0  0
  6  8  1  0  0  0  0
  6 15  2  0  0  0  0
  7 16  1  0  0  0  0
  8 16  2  0  0  0  0
  9 10  2  0  0  0  0
  9 12  1  0  0  0  0
 10 30  1  0  0  0  0
 11 12  2  0  0  0  0
 11 30  1  0  0  0  0
 12 20  1  0  0  0  0
 13 14  2  0  0  0  0
 13 23  1  0  0  0  0
 14 25  1  0  0  0  0
 15 26  1  0  0  0  0
 16 27  1  0  0  0  0
 17 21  1  0  0  0  0
 17 26  1  0  0  0  0
 17 28  2  0  0  0  0
 18 22  1  0  0  0  0
 18 27  1  0  0  0  0
 18 29  2  0  0  0  0
 19 21  1  0  0  0  0
 20 27  1  0  0  0  0
 22 25  1  0  0  0  0
 23 24  2  0  0  0  0
 24 25  1  0  0  0  0
  1 31  1  0  0  0  0
  2 32  1  0  0  0  0
  3 33  1  0  0  0  0
  4 34  1  0  0  0  0
  5 35  1  0  0  0  0
  6 36  1  0  0  0  0
  7 37  1  0  0  0  0
  8 38  1  0  0  0  0
  9 39  1  0  0  0  0
 10 40  1  0  0  0  0
 11 41  1  0  0  0  0
 19 42  1  0  0  0  0
 19 43  1  0  0  0  0
 19 44  1  0  0  0  0
 20 45  1  0  0  0  0
 20 46  1  0  0  0  0
 21 47  1  0  0  0  0
 21 48  1  0  0  0  0
 22 49  1  0  0  0  0
 22 50  1  0  0  0  0
 26 51  1  0  0  0  0
M  END
> <clash_score>
1.3337221088695097

> <docking_score>
-7.0836687088012695

> <overlap_score>
0.9561700224876404

$$$$
BENZO_345_1
  -OEChem-08232013503D

 59 63  0     0  0  0  0  0  0999 V2000
   14.2757    1.1262   23.8410 C   0  0  0  0  0  0  0  0  0  0  0  0
   13.5688    0.4278   24.8197 C   0  0  0  0  0  0  0  0  0  0  0  0
   13.5882    1.8044   22.8344 C   0  0  0  0  0  0  0  0  0  0  0  0
    4.0980    2.1130   19.5350 C   0  0  0  0  0  0  0  0  0  0  0  0
    4.2970    1.6690   20.8430 C   0  0  0  0  0  0  0  0  0  0  0  0
   12.1744    0.4073   24.7919 C   0  0  0  0  0  0  0  0  0  0  0  0
   12.1938    1.7840   22.8066 C   0  0  0  0  0  0  0  0  0  0  0  0
    4.9400    1.7060   18.5060 C   0  0  0  0  0  0  0  0  0  0  0  0
    5.3360    0.8000   21.1530 C   0  0  0  0  0  0  0  0  0  0  0  0
    8.3310   -2.7170   25.3430 C   0  0  0  0  0  0  0  0  0  0  0  0
   10.2570   -3.5000   24.1350 C   0  0  0  0  0  0  0  0  0  0  0  0
    8.3510   -1.5420   24.6110 C   0  0  0  0  0  0  0  0  0  0  0  0
   10.2760   -2.3270   23.4020 C   0  0  0  0  0  0  0  0  0  0  0  0
   11.4868    1.0855   23.7853 C   0  0  0  0  0  0  0  0  0  0  0  0
    5.9810    0.8330   18.8060 C   0  0  0  0  0  0  0  0  0  0  0  0
    6.1600    0.3870   20.1140 C   0  0  0  0  0  0  0  0  0  0  0  0
    9.2850   -3.7090   25.1090 C   0  0  0  0  0  0  0  0  0  0  0  0
    9.3300   -1.3350   23.6390 C   0  0  0  0  0  0  0  0  0  0  0  0
    8.9510    0.1280   21.6880 C   0  0  0  0  0  0  0  0  0  0  0  0
    7.3162   -6.8835   26.5210 C   0  0  0  0  0  0  0  0  0  0  0  0
    7.3507   -5.5245   27.2240 C   0  0  0  0  0  0  0  0  0  0  0  0
    7.9375   -6.8069   25.1245 C   0  0  0  0  0  0  0  0  0  0  0  0
    8.7638   -4.9418   27.2163 C   0  0  0  0  0  0  0  0  0  0  0  0
    9.3378   -6.1874   25.1659 C   0  0  0  0  0  0  0  0  0  0  0  0
    9.9859    1.0637   23.7546 C   0  0  0  0  0  0  0  0  0  0  0  0
    8.0810   -0.9750   21.0820 C   0  0  0  0  0  0  0  0  0  0  0  0
    6.9440    0.2550   18.0100 N   0  0  0  0  0  0  0  0  0  0  0  0
    7.6830   -0.5170   18.7600 N   0  0  0  0  0  0  0  0  0  0  0  0
    7.2210   -0.4620   20.0350 N   0  0  0  0  0  0  0  0  0  0  0  0
    9.2639   -4.8860   25.8399 N   0  0  0  0  0  0  0  0  0  0  0  0
    9.4200   -0.0840   22.9530 N   0  0  0  0  0  0  0  0  0  0  0  0
    9.1870    1.1500   21.0630 O   0  0  0  0  0  0  0  0  0  0  0  0
   15.3615    1.1431   23.8636 H   0  0  0  0  0  0  0  0  0  0  0  0
   14.1039   -0.0995   25.6042 H   0  0  0  0  0  0  0  0  0  0  0  0
   14.1383    2.3493   22.0729 H   0  0  0  0  0  0  0  0  0  0  0  0
    3.2714    2.7873   19.3199 H   0  0  0  0  0  0  0  0  0  0  0  0
    3.6281    2.0094   21.6291 H   0  0  0  0  0  0  0  0  0  0  0  0
   11.6319   -0.1397   25.5585 H   0  0  0  0  0  0  0  0  0  0  0  0
   11.6666    2.3152   22.0185 H   0  0  0  0  0  0  0  0  0  0  0  0
    4.7823    2.0669   17.4883 H   0  0  0  0  0  0  0  0  0  0  0  0
    5.4954    0.4562   22.1797 H   0  0  0  0  0  0  0  0  0  0  0  0
    7.5647   -2.8621   26.1053 H   0  0  0  0  0  0  0  0  0  0  0  0
   11.0144   -4.2642   23.9425 H   0  0  0  0  0  0  0  0  0  0  0  0
    7.5958   -0.7779   24.8006 H   0  0  0  0  0  0  0  0  0  0  0  0
   11.0406   -2.1848   22.6356 H   0  0  0  0  0  0  0  0  0  0  0  0
    7.8578   -7.6261   27.1266 H   0  0  0  0  0  0  0  0  0  0  0  0
    6.2773   -7.2358   26.4459 H   0  0  0  0  0  0  0  0  0  0  0  0
    6.6663   -4.8351   26.7223 H   0  0  0  0  0  0  0  0  0  0  0  0
    7.0044   -5.6368   28.2534 H   0  0  0  0  0  0  0  0  0  0  0  0
    7.9946   -7.8119   24.6937 H   0  0  0  0  0  0  0  0  0  0  0  0
    7.2929   -6.2123   24.4668 H   0  0  0  0  0  0  0  0  0  0  0  0
    8.7343   -3.9408   27.6542 H   0  0  0  0  0  0  0  0  0  0  0  0
    9.4243   -5.5632   27.8278 H   0  0  0  0  0  0  0  0  0  0  0  0
   10.0200   -6.8490   25.7011 H   0  0  0  0  0  0  0  0  0  0  0  0
    9.6984   -6.0694   24.1436 H   0  0  0  0  0  0  0  0  0  0  0  0
    9.5800    0.9891   24.7694 H   0  0  0  0  0  0  0  0  0  0  0  0
    9.5886    1.9832   23.3122 H   0  0  0  0  0  0  0  0  0  0  0  0
    8.7136   -1.7499   20.6462 H   0  0  0  0  0  0  0  0  0  0  0  0
    7.4415   -1.4060   21.8540 H   0  0  0  0  0  0  0  0  0  0  0  0
  1  2  1  0  0  0  0
  1  3  2  0  0  0  0
  2  6  2  0  0  0  0
  3  7  1  0  0  0  0
  4  5  1  0  0  0  0
  4  8  2  0  0  0  0
  5  9  2  0  0  0  0
  6 14  1  0  0  0  0
  7 14  2  0  0  0  0
  8 15  1  0  0  0  0
  9 16  1  0  0  0  0
 10 12  2  0  0  0  0
 10 17  1  0  0  0  0
 11 13  1  0  0  0  0
 11 17  2  0  0  0  0
 12 18  1  0  0  0  0
 13 18  2  0  0  0  0
 14 25  1  0  0  0  0
 15 16  2  0  0  0  0
 15 27  1  0  0  0  0
 16 29  1  0  0  0  0
 17 30  1  0  0  0  0
 18 31  1  0  0  0  0
 19 26  1  0  0  0  0
 19 31  1  0  0  0  0
 19 32  2  0  0  0  0
 20 21  1  0  0  0  0
 20 22  1  0  0  0  0
 21 23  1  0  0  0  0
 22 24  1  0  0  0  0
 23 30  1  0  0  0  0
 24 30  1  0  0  0  0
 25 31  1  0  0  0  0
 26 29  1  0  0  0  0
 27 28  2  0  0  0  0
 28 29  1  0  0  0  0
  1 33  1  0  0  0  0
  2 34  1  0  0  0  0
  3 35  1  0  0  0  0
  4 36  1  0  0  0  0
  5 37  1  0  0  0  0
  6 38  1  0  0  0  0
  7 39  1  0  0  0  0
  8 40  1  0  0  0  0
  9 41  1  0  0  0  0
 10 42  1  0  0  0  0
 11 43  1  0  0  0  0
 12 44  1  0  0  0  0
 13 45  1  0  0  0  0
 20 46  1  0  0  0  0
 20 47  1  0  0  0  0
 21 48  1  0  0  0  0
 21 49  1  0  0  0  0
 22 50  1  0  0  0  0
 22 51  1  0  0  0  0
 23 52  1  0  0  0  0
 23 53  1  0  0  0  0
 24 54  1  0  0  0  0
 24 55  1  0  0  0  0
 25 56  1  0  0  0  0
 25 57  1  0  0  0  0
 26 58  1  0  0  0  0
 26 59  1  0  0  0  0
M  END
> <clash_score>
0

> <docking_score>
-8.83994197845459

> <overlap_score>
1.0069940090179443

$$$$
BENZO_344_1
  -OEChem-08232013503D

 56 60  0     0  0  0  0  0  0999 V2000
    4.0980    2.1130   19.5350 C   0  0  0  0  0  0  0  0  0  0  0  0
    4.2970    1.6690   20.8430 C   0  0  0  0  0  0  0  0  0  0  0  0
    4.9400    1.7060   18.5060 C   0  0  0  0  0  0  0  0  0  0  0  0
    5.3360    0.8000   21.1530 C   0  0  0  0  0  0  0  0  0  0  0  0
    8.3310   -2.7170   25.3430 C   0  0  0  0  0  0  0  0  0  0  0  0
   10.2570   -3.5000   24.1350 C   0  0  0  0  0  0  0  0  0  0  0  0
    8.3510   -1.5420   24.6110 C   0  0  0  0  0  0  0  0  0  0  0  0
   10.2760   -2.3270   23.4020 C   0  0  0  0  0  0  0  0  0  0  0  0
   12.3041    1.1766   22.6217 C   0  0  0  0  0  0  0  0  0  0  0  0
   13.6465    1.1764   22.9309 C   0  0  0  0  0  0  0  0  0  0  0  0
   12.2358    1.0189   24.9397 C   0  0  0  0  0  0  0  0  0  0  0  0
   11.4868    1.0855   23.7853 C   0  0  0  0  0  0  0  0  0  0  0  0
    5.9810    0.8330   18.8060 C   0  0  0  0  0  0  0  0  0  0  0  0
    6.1600    0.3870   20.1140 C   0  0  0  0  0  0  0  0  0  0  0  0
    9.2850   -3.7090   25.1090 C   0  0  0  0  0  0  0  0  0  0  0  0
    9.3300   -1.3350   23.6390 C   0  0  0  0  0  0  0  0  0  0  0  0
    8.9510    0.1280   21.6880 C   0  0  0  0  0  0  0  0  0  0  0  0
    7.3162   -6.8835   26.5210 C   0  0  0  0  0  0  0  0  0  0  0  0
    7.3507   -5.5245   27.2240 C   0  0  0  0  0  0  0  0  0  0  0  0
    7.9375   -6.8069   25.1245 C   0  0  0  0  0  0  0  0  0  0  0  0
    8.7638   -4.9418   27.2163 C   0  0  0  0  0  0  0  0  0  0  0  0
    9.3378   -6.1874   25.1659 C   0  0  0  0  0  0  0  0  0  0  0  0
    9.9859    1.0637   23.7546 C   0  0  0  0  0  0  0  0  0  0  0  0
    8.0810   -0.9750   21.0820 C   0  0  0  0  0  0  0  0  0  0  0  0
    6.9440    0.2550   18.0100 N   0  0  0  0  0  0  0  0  0  0  0  0
    7.6830   -0.5170   18.7600 N   0  0  0  0  0  0  0  0  0  0  0  0
    7.2210   -0.4620   20.0350 N   0  0  0  0  0  0  0  0  0  0  0  0
    9.2639   -4.8860   25.8399 N   0  0  0  0  0  0  0  0  0  0  0  0
    9.4200   -0.0840   22.9530 N   0  0  0  0  0  0  0  0  0  0  0  0
    9.1870    1.1500   21.0630 O   0  0  0  0  0  0  0  0  0  0  0  0
   13.9171    1.0666   24.6183 S   0  0  0  0  0  0  0  0  0  0  0  0
    3.2714    2.7873   19.3199 H   0  0  0  0  0  0  0  0  0  0  0  0
    3.6281    2.0094   21.6291 H   0  0  0  0  0  0  0  0  0  0  0  0
    4.7823    2.0669   17.4883 H   0  0  0  0  0  0  0  0  0  0  0  0
    5.4954    0.4562   22.1797 H   0  0  0  0  0  0  0  0  0  0  0  0
    7.5647   -2.8621   26.1053 H   0  0  0  0  0  0  0  0  0  0  0  0
   11.0144   -4.2642   23.9425 H   0  0  0  0  0  0  0  0  0  0  0  0
    7.5958   -0.7779   24.8006 H   0  0  0  0  0  0  0  0  0  0  0  0
   11.0406   -2.1848   22.6356 H   0  0  0  0  0  0  0  0  0  0  0  0
   11.9305    1.2389   21.6074 H   0  0  0  0  0  0  0  0  0  0  0  0
   14.4812    1.2348   22.2468 H   0  0  0  0  0  0  0  0  0  0  0  0
   11.8803    0.9433   25.9580 H   0  0  0  0  0  0  0  0  0  0  0  0
    7.8578   -7.6261   27.1266 H   0  0  0  0  0  0  0  0  0  0  0  0
    6.2773   -7.2358   26.4459 H   0  0  0  0  0  0  0  0  0  0  0  0
    6.6663   -4.8351   26.7223 H   0  0  0  0  0  0  0  0  0  0  0  0
    7.0044   -5.6368   28.2534 H   0  0  0  0  0  0  0  0  0  0  0  0
    7.9946   -7.8119   24.6937 H   0  0  0  0  0  0  0  0  0  0  0  0
    7.2929   -6.2123   24.4668 H   0  0  0  0  0  0  0  0  0  0  0  0
    8.7343   -3.9408   27.6542 H   0  0  0  0  0  0  0  0  0  0  0  0
    9.4243   -5.5632   27.8278 H   0  0  0  0  0  0  0  0  0  0  0  0
   10.0200   -6.8490   25.7011 H   0  0  0  0  0  0  0  0  0  0  0  0
    9.6984   -6.0694   24.1436 H   0  0  0  0  0  0  0  0  0  0  0  0
    9.5800    0.9891   24.7694 H   0  0  0  0  0  0  0  0  0  0  0  0
    9.5886    1.9832   23.3122 H   0  0  0  0  0  0  0  0  0  0  0  0
    8.7136   -1.7499   20.6462 H   0  0  0  0  0  0  0  0  0  0  0  0
    7.4415   -1.4060   21.8540 H   0  0  0  0  0  0  0  0  0  0  0  0
  1  2  1  0  0  0  0
  1  3  2  0  0  0  0
  2  4  2  0  0  0  0
  3 13  1  0  0  0  0
  4 14  1  0  0  0  0
  5  7  2  0  0  0  0
  5 15  1  0  0  0  0
  6  8  1  0  0  0  0
  6 15  2  0  0  0  0
  7 16  1  0  0  0  0
  8 16  2  0  0  0  0
  9 10  2  0  0  0  0
  9 12  1  0  0  0  0
 10 31  1  0  0  0  0
 11 12  2  0  0  0  0
 11 31  1  0  0  0  0
 12 23  1  0  0  0  0
 13 14  2  0  0  0  0
 13 25  1  0  0  0  0
 14 27  1  0  0  0  0
 15 28  1  0  0  0  0
 16 29  1  0  0  0  0
 17 24  1  0  0  0  0
 17 29  1  0  0  0  0
 17 30  2  0  0  0  0
 18 19  1  0  0  0  0
 18 20  1  0  0  0  0
 19 21  1  0  0  0  0
 20 22  1  0  0  0  0
 21 28  1  0  0  0  0
 22 28  1  0  0  0  0
 23 29  1  0  0  0  0
 24 27  1  0  0  0  0
 25 26  2  0  0  0  0
 26 27  1  0  0  0  0
  1 32  1  0  0  0  0
  2 33  1  0  0  0  0
  3 34  1  0  0  0  0
  4 35  1  0  0  0  0
  5 36  1  0  0  0  0
  6 37  1  0  0  0  0
  7 38  1  0  0  0  0
  8 39  1  0  0  0  0
  9 40  1  0  0  0  0
 10 41  1  0  0  0  0
 11 42  1  0  0  0  0
 18 43  1  0  0  0  0
 18 44  1  0  0  0  0
 19 45  1  0  0  0  0
 19 46  1  0  0  0  0
 20 47  1  0  0  0  0
 20 48  1  0  0  0  0
 21 49  1  0  0  0  0
 21 50  1  0  0  0  0
 22 51  1  0  0  0  0
 22 52  1  0  0  0  0
 23 53  1  0  0  0  0
 23 54  1  0  0  0  0
 24 55  1  0  0  0  0
 24 56  1  0  0  0  0
M  END
> <clash_score>
0

> <docking_score>
-9.212311744689941

> <overlap_score>
0.9859148263931274

$$$$
BENZO_342_1
  -OEChem-08232013503D

 54 57  0     0  0  0  0  0  0999 V2000
    4.0980    2.1130   19.5350 C   0  0  0  0  0  0  0  0  0  0  0  0
    4.2970    1.6690   20.8430 C   0  0  0  0  0  0  0  0  0  0  0  0
   13.6128    1.8896   23.0651 C   0  0  0  0  0  0  0  0  0  0  0  0
   12.2186    1.9194   23.0389 C   0  0  0  0  0  0  0  0  0  0  0  0
    4.9400    1.7060   18.5060 C   0  0  0  0  0  0  0  0  0  0  0  0
    5.3360    0.8000   21.1530 C   0  0  0  0  0  0  0  0  0  0  0  0
    8.3310   -2.7170   25.3430 C   0  0  0  0  0  0  0  0  0  0  0  0
   10.2570   -3.5000   24.1350 C   0  0  0  0  0  0  0  0  0  0  0  0
    8.3510   -1.5420   24.6110 C   0  0  0  0  0  0  0  0  0  0  0  0
   10.2760   -2.3270   23.4020 C   0  0  0  0  0  0  0  0  0  0  0  0
   14.2756    0.9477   23.8519 C   0  0  0  0  0  0  0  0  0  0  0  0
   12.1498    0.0655   24.5866 C   0  0  0  0  0  0  0  0  0  0  0  0
   11.4870    1.0074   23.7996 C   0  0  0  0  0  0  0  0  0  0  0  0
    5.9810    0.8330   18.8060 C   0  0  0  0  0  0  0  0  0  0  0  0
    6.1600    0.3870   20.1140 C   0  0  0  0  0  0  0  0  0  0  0  0
    9.2850   -3.7090   25.1090 C   0  0  0  0  0  0  0  0  0  0  0  0
    9.3300   -1.3350   23.6390 C   0  0  0  0  0  0  0  0  0  0  0  0
   13.5441    0.0357   24.6127 C   0  0  0  0  0  0  0  0  0  0  0  0
    9.6843   -6.1680   25.4389 C   0  0  0  0  0  0  0  0  0  0  0  0
    8.9510    0.1280   21.6880 C   0  0  0  0  0  0  0  0  0  0  0  0
    8.0401   -7.2913   27.0012 C   0  0  0  0  0  0  0  0  0  0  0  0
    9.9863    1.0409   23.7719 C   0  0  0  0  0  0  0  0  0  0  0  0
    9.4863   -7.1875   26.5508 C   0  0  0  0  0  0  0  0  0  0  0  0
    8.0810   -0.9750   21.0820 C   0  0  0  0  0  0  0  0  0  0  0  0
    6.9440    0.2550   18.0100 N   0  0  0  0  0  0  0  0  0  0  0  0
    7.6830   -0.5170   18.7600 N   0  0  0  0  0  0  0  0  0  0  0  0
    7.2210   -0.4620   20.0350 N   0  0  0  0  0  0  0  0  0  0  0  0
    9.2630   -4.8902   25.8410 N   0  0  0  0  0  0  0  0  0  0  0  0
    9.4200   -0.0840   22.9530 N   0  0  0  0  0  0  0  0  0  0  0  0
   10.1565   -6.4769   24.3498 O   0  0  0  0  0  0  0  0  0  0  0  0
    9.1870    1.1500   21.0630 O   0  0  0  0  0  0  0  0  0  0  0  0
   14.3624   -1.1255   25.5843 Cl  0  0  0  0  0  0  0  0  0  0  0  0
    3.2714    2.7873   19.3199 H   0  0  0  0  0  0  0  0  0  0  0  0
    3.6281    2.0093   21.6291 H   0  0  0  0  0  0  0  0  0  0  0  0
   14.1821    2.6000   22.4726 H   0  0  0  0  0  0  0  0  0  0  0  0
   11.7105    2.6569   22.4229 H   0  0  0  0  0  0  0  0  0  0  0  0
    4.7823    2.0669   17.4883 H   0  0  0  0  0  0  0  0  0  0  0  0
    5.4954    0.4562   22.1797 H   0  0  0  0  0  0  0  0  0  0  0  0
    7.5639   -2.8621   26.1045 H   0  0  0  0  0  0  0  0  0  0  0  0
   11.0141   -4.2644   23.9422 H   0  0  0  0  0  0  0  0  0  0  0  0
    7.5950   -0.7788   24.8007 H   0  0  0  0  0  0  0  0  0  0  0  0
   11.0408   -2.1861   22.6359 H   0  0  0  0  0  0  0  0  0  0  0  0
   15.3628    0.9363   23.8628 H   0  0  0  0  0  0  0  0  0  0  0  0
   11.5749   -0.6438   25.1775 H   0  0  0  0  0  0  0  0  0  0  0  0
    7.6718   -6.3270   27.3663 H   0  0  0  0  0  0  0  0  0  0  0  0
    7.9444   -8.0224   27.8098 H   0  0  0  0  0  0  0  0  0  0  0  0
    7.3932   -7.6071   26.1761 H   0  0  0  0  0  0  0  0  0  0  0  0
    9.5794    0.9574   24.7855 H   0  0  0  0  0  0  0  0  0  0  0  0
    9.6220    1.9844   23.3519 H   0  0  0  0  0  0  0  0  0  0  0  0
    9.8280   -8.1648   26.1911 H   0  0  0  0  0  0  0  0  0  0  0  0
   10.1145   -6.9002   27.4018 H   0  0  0  0  0  0  0  0  0  0  0  0
    8.7066   -1.7479   20.6383 H   0  0  0  0  0  0  0  0  0  0  0  0
    7.4345   -1.4041   21.8461 H   0  0  0  0  0  0  0  0  0  0  0  0
    8.8930   -4.8275   26.7966 H   0  0  0  0  0  0  0  0  0  0  0  0
  1  2  1  0  0  0  0
  1  5  2  0  0  0  0
  2  6  2  0  0  0  0
  3  4  2  0  0  0  0
  3 11  1  0  0  0  0
  4 13  1  0  0  0  0
  5 14  1  0  0  0  0
  6 15  1  0  0  0  0
  7  9  2  0  0  0  0
  7 16  1  0  0  0  0
  8 10  1  0  0  0  0
  8 16  2  0  0  0  0
  9 17  1  0  0  0  0
 10 17  2  0  0  0  0
 11 18  2  0  0  0  0
 12 13  2  0  0  0  0
 12 18  1  0  0  0  0
 13 22  1  0  0  0  0
 14 15  2  0  0  0  0
 14 25  1  0  0  0  0
 15 27  1  0  0  0  0
 16 28  1  0  0  0  0
 17 29  1  0  0  0  0
 18 32  1  0  0  0  0
 19 23  1  0  0  0  0
 19 28  1  0  0  0  0
 19 30  2  0  0  0  0
 20 24  1  0  0  0  0
 20 29  1  0  0  0  0
 20 31  2  0  0  0  0
 21 23  1  0  0  0  0
 22 29  1  0  0  0  0
 24 27  1  0  0  0  0
 25 26  2  0  0  0  0
 26 27  1  0  0  0  0
  1 33  1  0  0  0  0
  2 34  1  0  0  0  0
  3 35  1  0  0  0  0
  4 36  1  0  0  0  0
  5 37  1  0  0  0  0
  6 38  1  0  0  0  0
  7 39  1  0  0  0  0
  8 40  1  0  0  0  0
  9 41  1  0  0  0  0
 10 42  1  0  0  0  0
 11 43  1  0  0  0  0
 12 44  1  0  0  0  0
 21 45  1  0  0  0  0
 21 46  1  0  0  0  0
 21 47  1  0  0  0  0
 22 48  1  0  0  0  0
 22 49  1  0  0  0  0
 23 50  1  0  0  0  0
 23 51  1  0  0  0  0
 24 52  1  0  0  0  0
 24 53  1  0  0  0  0
 28 54  1  0  0  0  0
M  END
> <clash_score>
2.092962369412041

> <docking_score>
-5.471390724182129

> <overlap_score>
0.9789943695068359

$$$$
BENZO_343_1
  -OEChem-08232013503D

 54 57  0     0  0  0  0  0  0999 V2000
    4.0980    2.1130   19.5350 C   0  0  0  0  0  0  0  0  0  0  0  0
    4.2970    1.6690   20.8430 C   0  0  0  0  0  0  0  0  0  0  0  0
    4.9400    1.7060   18.5060 C   0  0  0  0  0  0  0  0  0  0  0  0
    5.3360    0.8000   21.1530 C   0  0  0  0  0  0  0  0  0  0  0  0
    8.3310   -2.7170   25.3430 C   0  0  0  0  0  0  0  0  0  0  0  0
   10.2570   -3.5000   24.1350 C   0  0  0  0  0  0  0  0  0  0  0  0
    8.3510   -1.5420   24.6110 C   0  0  0  0  0  0  0  0  0  0  0  0
   10.2760   -2.3270   23.4020 C   0  0  0  0  0  0  0  0  0  0  0  0
   12.3278    0.8882   24.9224 C   0  0  0  0  0  0  0  0  0  0  0  0
   12.3482    1.0837   22.7324 C   0  0  0  0  0  0  0  0  0  0  0  0
   11.4870    1.0074   23.7996 C   0  0  0  0  0  0  0  0  0  0  0  0
    5.9810    0.8330   18.8060 C   0  0  0  0  0  0  0  0  0  0  0  0
    6.1600    0.3870   20.1140 C   0  0  0  0  0  0  0  0  0  0  0  0
    9.2850   -3.7090   25.1090 C   0  0  0  0  0  0  0  0  0  0  0  0
    9.3300   -1.3350   23.6390 C   0  0  0  0  0  0  0  0  0  0  0  0
    9.6843   -6.1680   25.4389 C   0  0  0  0  0  0  0  0  0  0  0  0
    8.9510    0.1280   21.6880 C   0  0  0  0  0  0  0  0  0  0  0  0
    8.0401   -7.2913   27.0012 C   0  0  0  0  0  0  0  0  0  0  0  0
   14.8451    1.0460   22.5253 C   0  0  0  0  0  0  0  0  0  0  0  0
    9.9863    1.0409   23.7719 C   0  0  0  0  0  0  0  0  0  0  0  0
    9.4863   -7.1875   26.5508 C   0  0  0  0  0  0  0  0  0  0  0  0
    8.0810   -0.9750   21.0820 C   0  0  0  0  0  0  0  0  0  0  0  0
   13.6236    0.8881   24.5986 N   0  0  0  0  0  0  0  0  0  0  0  0
    6.9440    0.2550   18.0100 N   0  0  0  0  0  0  0  0  0  0  0  0
    7.6830   -0.5170   18.7600 N   0  0  0  0  0  0  0  0  0  0  0  0
   13.6036    1.0081   23.2602 N   0  0  0  0  0  0  0  0  0  0  0  0
    7.2210   -0.4620   20.0350 N   0  0  0  0  0  0  0  0  0  0  0  0
    9.2630   -4.8902   25.8410 N   0  0  0  0  0  0  0  0  0  0  0  0
    9.4200   -0.0840   22.9530 N   0  0  0  0  0  0  0  0  0  0  0  0
   10.1565   -6.4769   24.3498 O   0  0  0  0  0  0  0  0  0  0  0  0
    9.1870    1.1500   21.0630 O   0  0  0  0  0  0  0  0  0  0  0  0
    3.2714    2.7873   19.3199 H   0  0  0  0  0  0  0  0  0  0  0  0
    3.6281    2.0093   21.6291 H   0  0  0  0  0  0  0  0  0  0  0  0
    4.7823    2.0669   17.4883 H   0  0  0  0  0  0  0  0  0  0  0  0
    5.4954    0.4562   22.1797 H   0  0  0  0  0  0  0  0  0  0  0  0
    7.5639   -2.8621   26.1045 H   0  0  0  0  0  0  0  0  0  0  0  0
   11.0141   -4.2644   23.9422 H   0  0  0  0  0  0  0  0  0  0  0  0
    7.5950   -0.7788   24.8007 H   0  0  0  0  0  0  0  0  0  0  0  0
   11.0408   -2.1861   22.6359 H   0  0  0  0  0  0  0  0  0  0  0  0
   12.0526    0.8004   25.9640 H   0  0  0  0  0  0  0  0  0  0  0  0
   12.1789    1.1815   21.6686 H   0  0  0  0  0  0  0  0  0  0  0  0
    7.6718   -6.3270   27.3663 H   0  0  0  0  0  0  0  0  0  0  0  0
    7.9444   -8.0224   27.8098 H   0  0  0  0  0  0  0  0  0  0  0  0
    7.3932   -7.6071   26.1761 H   0  0  0  0  0  0  0  0  0  0  0  0
   15.1586    2.0903   22.4463 H   0  0  0  0  0  0  0  0  0  0  0  0
   15.6003    0.4592   23.0557 H   0  0  0  0  0  0  0  0  0  0  0  0
   14.6902    0.6160   21.5318 H   0  0  0  0  0  0  0  0  0  0  0  0
    9.5794    0.9574   24.7855 H   0  0  0  0  0  0  0  0  0  0  0  0
    9.6220    1.9844   23.3519 H   0  0  0  0  0  0  0  0  0  0  0  0
    9.8280   -8.1648   26.1911 H   0  0  0  0  0  0  0  0  0  0  0  0
   10.1145   -6.9002   27.4018 H   0  0  0  0  0  0  0  0  0  0  0  0
    8.7066   -1.7479   20.6383 H   0  0  0  0  0  0  0  0  0  0  0  0
    7.4345   -1.4041   21.8461 H   0  0  0  0  0  0  0  0  0  0  0  0
    8.8930   -4.8275   26.7966 H   0  0  0  0  0  0  0  0  0  0  0  0
  1  2  1  0  0  0  0
  1  3  2  0  0  0  0
  2  4  2  0  0  0  0
  3 12  1  0  0  0  0
  4 13  1  0  0  0  0
  5  7  2  0  0  0  0
  5 14  1  0  0  0  0
  6  8  1  0  0  0  0
  6 14  2  0  0  0  0
  7 15  1  0  0  0  0
  8 15  2  0  0  0  0
  9 11  1  0  0  0  0
  9 23  2  0  0  0  0
 10 11  2  0  0  0  0
 10 26  1  0  0  0  0
 11 20  1  0  0  0  0
 12 13  2  0  0  0  0
 12 24  1  0  0  0  0
 13 27  1  0  0  0  0
 14 28  1  0  0  0  0
 15 29  1  0  0  0  0
 16 21  1  0  0  0  0
 16 28  1  0  0  0  0
 16 30  2  0  0  0  0
 17 22  1  0  0  0  0
 17 29  1  0  0  0  0
 17 31  2  0  0  0  0
 18 21  1  0  0  0  0
 19 26  1  0  0  0  0
 20 29  1  0  0  0  0
 22 27  1  0  0  0  0
 23 26  1  0  0  0  0
 24 25  2  0  0  0  0
 25 27  1  0  0  0  0
  1 32  1  0  0  0  0
  2 33  1  0  0  0  0
  3 34  1  0  0  0  0
  4 35  1  0  0  0  0
  5 36  1  0  0  0  0
  6 37  1  0  0  0  0
  7 38  1  0  0  0  0
  8 39  1  0  0  0  0
  9 40  1  0  0  0  0
 10 41  1  0  0  0  0
 18 42  1  0  0  0  0
 18 43  1  0  0  0  0
 18 44  1  0  0  0  0
 19 45  1  0  0  0  0
 19 46  1  0  0  0  0
 19 47  1  0  0  0  0
 20 48  1  0  0  0  0
 20 49  1  0  0  0  0
 21 50  1  0  0  0  0
 21 51  1  0  0  0  0
 22 52  1  0  0  0  0
 22 53  1  0  0  0  0
 28 54  1  0  0  0  0
M  END
> <clash_score>
1.3337221088695097

> <docking_score>
-6.208650588989258

> <overlap_score>
0.9720236659049988

$$$$
BENZO_346_1
  -OEChem-08232013503D

 59 63  0     0  0  0  0  0  0999 V2000
    4.0980    2.1130   19.5350 C   0  0  0  0  0  0  0  0  0  0  0  0
    4.2970    1.6690   20.8430 C   0  0  0  0  0  0  0  0  0  0  0  0
   13.5809    2.0270   23.0334 C   0  0  0  0  0  0  0  0  0  0  0  0
   12.1865    2.0055   23.0045 C   0  0  0  0  0  0  0  0  0  0  0  0
    4.9400    1.7060   18.5060 C   0  0  0  0  0  0  0  0  0  0  0  0
    5.3360    0.8000   21.1530 C   0  0  0  0  0  0  0  0  0  0  0  0
    8.3310   -2.7170   25.3430 C   0  0  0  0  0  0  0  0  0  0  0  0
   10.2570   -3.5000   24.1350 C   0  0  0  0  0  0  0  0  0  0  0  0
    8.3510   -1.5420   24.6110 C   0  0  0  0  0  0  0  0  0  0  0  0
   10.2760   -2.3270   23.4020 C   0  0  0  0  0  0  0  0  0  0  0  0
   14.2756    1.1284   23.8431 C   0  0  0  0  0  0  0  0  0  0  0  0
   12.1816    0.1869   24.5950 C   0  0  0  0  0  0  0  0  0  0  0  0
   11.4868    1.0855   23.7853 C   0  0  0  0  0  0  0  0  0  0  0  0
    5.9810    0.8330   18.8060 C   0  0  0  0  0  0  0  0  0  0  0  0
    6.1600    0.3870   20.1140 C   0  0  0  0  0  0  0  0  0  0  0  0
    9.2850   -3.7090   25.1090 C   0  0  0  0  0  0  0  0  0  0  0  0
    9.3300   -1.3350   23.6390 C   0  0  0  0  0  0  0  0  0  0  0  0
   13.5760    0.2084   24.6239 C   0  0  0  0  0  0  0  0  0  0  0  0
    8.9510    0.1280   21.6880 C   0  0  0  0  0  0  0  0  0  0  0  0
    7.3162   -6.8835   26.5210 C   0  0  0  0  0  0  0  0  0  0  0  0
    7.3507   -5.5245   27.2240 C   0  0  0  0  0  0  0  0  0  0  0  0
    7.9375   -6.8069   25.1245 C   0  0  0  0  0  0  0  0  0  0  0  0
    8.7638   -4.9418   27.2163 C   0  0  0  0  0  0  0  0  0  0  0  0
    9.3378   -6.1874   25.1659 C   0  0  0  0  0  0  0  0  0  0  0  0
    9.9859    1.0637   23.7546 C   0  0  0  0  0  0  0  0  0  0  0  0
    8.0810   -0.9750   21.0820 C   0  0  0  0  0  0  0  0  0  0  0  0
    6.9440    0.2550   18.0100 N   0  0  0  0  0  0  0  0  0  0  0  0
    7.6830   -0.5170   18.7600 N   0  0  0  0  0  0  0  0  0  0  0  0
    7.2210   -0.4620   20.0350 N   0  0  0  0  0  0  0  0  0  0  0  0
    9.2639   -4.8860   25.8399 N   0  0  0  0  0  0  0  0  0  0  0  0
    9.4200   -0.0840   22.9530 N   0  0  0  0  0  0  0  0  0  0  0  0
    9.1870    1.1500   21.0630 O   0  0  0  0  0  0  0  0  0  0  0  0
   14.4337   -0.8992   25.6236 Cl  0  0  0  0  0  0  0  0  0  0  0  0
    3.2714    2.7873   19.3199 H   0  0  0  0  0  0  0  0  0  0  0  0
    3.6281    2.0094   21.6291 H   0  0  0  0  0  0  0  0  0  0  0  0
   14.1253    2.7437   22.4253 H   0  0  0  0  0  0  0  0  0  0  0  0
   11.6534    2.7094   22.3707 H   0  0  0  0  0  0  0  0  0  0  0  0
    4.7823    2.0669   17.4883 H   0  0  0  0  0  0  0  0  0  0  0  0
    5.4954    0.4562   22.1797 H   0  0  0  0  0  0  0  0  0  0  0  0
    7.5647   -2.8621   26.1053 H   0  0  0  0  0  0  0  0  0  0  0  0
   11.0144   -4.2642   23.9425 H   0  0  0  0  0  0  0  0  0  0  0  0
    7.5958   -0.7779   24.8006 H   0  0  0  0  0  0  0  0  0  0  0  0
   11.0406   -2.1848   22.6356 H   0  0  0  0  0  0  0  0  0  0  0  0
   15.3624    1.1568   23.8558 H   0  0  0  0  0  0  0  0  0  0  0  0
   11.6315   -0.5288   25.2016 H   0  0  0  0  0  0  0  0  0  0  0  0
    7.8578   -7.6261   27.1266 H   0  0  0  0  0  0  0  0  0  0  0  0
    6.2773   -7.2358   26.4459 H   0  0  0  0  0  0  0  0  0  0  0  0
    6.6663   -4.8351   26.7223 H   0  0  0  0  0  0  0  0  0  0  0  0
    7.0044   -5.6368   28.2534 H   0  0  0  0  0  0  0  0  0  0  0  0
    7.9946   -7.8119   24.6937 H   0  0  0  0  0  0  0  0  0  0  0  0
    7.2929   -6.2123   24.4668 H   0  0  0  0  0  0  0  0  0  0  0  0
    8.7343   -3.9408   27.6542 H   0  0  0  0  0  0  0  0  0  0  0  0
    9.4243   -5.5632   27.8278 H   0  0  0  0  0  0  0  0  0  0  0  0
   10.0200   -6.8490   25.7011 H   0  0  0  0  0  0  0  0  0  0  0  0
    9.6984   -6.0694   24.1436 H   0  0  0  0  0  0  0  0  0  0  0  0
    9.5800    0.9891   24.7694 H   0  0  0  0  0  0  0  0  0  0  0  0
    9.5886    1.9832   23.3122 H   0  0  0  0  0  0  0  0  0  0  0  0
    8.7136   -1.7499   20.6462 H   0  0  0  0  0  0  0  0  0  0  0  0
    7.4415   -1.4060   21.8540 H   0  0  0  0  0  0  0  0  0  0  0  0
  1  2  1  0  0  0  0
  1  5  2  0  0  0  0
  2  6  2  0  0  0  0
  3  4  2  0  0  0  0
  3 11  1  0  0  0  0
  4 13  1  0  0  0  0
  5 14  1  0  0  0  0
  6 15  1  0  0  0  0
  7  9  2  0  0  0  0
  7 16  1  0  0  0  0
  8 10  1  0  0  0  0
  8 16  2  0  0  0  0
  9 17  1  0  0  0  0
 10 17  2  0  0  0  0
 11 18  2  0  0  0  0
 12 13  2  0  0  0  0
 12 18  1  0  0  0  0
 13 25  1  0  0  0  0
 14 15  2  0  0  0  0
 14 27  1  0  0  0  0
 15 29  1  0  0  0  0
 16 30  1  0  0  0  0
 17 31  1  0  0  0  0
 18 33  1  0  0  0  0
 19 26  1  0  0  0  0
 19 31  1  0  0  0  0
 19 32  2  0  0  0  0
 20 21  1  0  0  0  0
 20 22  1  0  0  0  0
 21 23  1  0  0  0  0
 22 24  1  0  0  0  0
 23 30  1  0  0  0  0
 24 30  1  0  0  0  0
 25 31  1  0  0  0  0
 26 29  1  0  0  0  0
 27 28  2  0  0  0  0
 28 29  1  0  0  0  0
  1 34  1  0  0  0  0
  2 35  1  0  0  0  0
  3 36  1  0  0  0  0
  4 37  1  0  0  0  0
  5 38  1  0  0  0  0
  6 39  1  0  0  0  0
  7 40  1  0  0  0  0
  8 41  1  0  0  0  0
  9 42  1  0  0  0  0
 10 43  1  0  0  0  0
 11 44  1  0  0  0  0
 12 45  1  0  0  0  0
 20 46  1  0  0  0  0
 20 47  1  0  0  0  0
 21 48  1  0  0  0  0
 21 49  1  0  0  0  0
 22 50  1  0  0  0  0
 22 51  1  0  0  0  0
 23 52  1  0  0  0  0
 23 53  1  0  0  0  0
 24 54  1  0  0  0  0
 24 55  1  0  0  0  0
 25 56  1  0  0  0  0
 25 57  1  0  0  0  0
 26 58  1  0  0  0  0
 26 59  1  0  0  0  0
M  END
> <clash_score>
0.6977852945342905

> <docking_score>
-7.672274589538574

> <overlap_score>
1.0080987215042114

$$$$
BENZO_347_1
  -OEChem-08232013503D

 59 63  0     0  0  0  0  0  0999 V2000
    4.0980    2.1130   19.5350 C   0  0  0  0  0  0  0  0  0  0  0  0
    4.2970    1.6690   20.8430 C   0  0  0  0  0  0  0  0  0  0  0  0
    4.9400    1.7060   18.5060 C   0  0  0  0  0  0  0  0  0  0  0  0
    5.3360    0.8000   21.1530 C   0  0  0  0  0  0  0  0  0  0  0  0
    8.3310   -2.7170   25.3430 C   0  0  0  0  0  0  0  0  0  0  0  0
   10.2570   -3.5000   24.1350 C   0  0  0  0  0  0  0  0  0  0  0  0
    8.3510   -1.5420   24.6110 C   0  0  0  0  0  0  0  0  0  0  0  0
   10.2760   -2.3270   23.4020 C   0  0  0  0  0  0  0  0  0  0  0  0
   12.3227    1.8292   24.6397 C   0  0  0  0  0  0  0  0  0  0  0  0
   12.3531    0.3804   22.9859 C   0  0  0  0  0  0  0  0  0  0  0  0
   11.4868    1.0855   23.7853 C   0  0  0  0  0  0  0  0  0  0  0  0
    5.9810    0.8330   18.8060 C   0  0  0  0  0  0  0  0  0  0  0  0
    6.1600    0.3870   20.1140 C   0  0  0  0  0  0  0  0  0  0  0  0
    9.2850   -3.7090   25.1090 C   0  0  0  0  0  0  0  0  0  0  0  0
    9.3300   -1.3350   23.6390 C   0  0  0  0  0  0  0  0  0  0  0  0
    8.9510    0.1280   21.6880 C   0  0  0  0  0  0  0  0  0  0  0  0
    7.3162   -6.8835   26.5210 C   0  0  0  0  0  0  0  0  0  0  0  0
    7.3507   -5.5245   27.2240 C   0  0  0  0  0  0  0  0  0  0  0  0
    7.9375   -6.8069   25.1245 C   0  0  0  0  0  0  0  0  0  0  0  0
    8.7638   -4.9418   27.2163 C   0  0  0  0  0  0  0  0  0  0  0  0
    9.3378   -6.1874   25.1659 C   0  0  0  0  0  0  0  0  0  0  0  0
   14.8515    0.2459   22.8491 C   0  0  0  0  0  0  0  0  0  0  0  0
    9.9859    1.0637   23.7546 C   0  0  0  0  0  0  0  0  0  0  0  0
    8.0810   -0.9750   21.0820 C   0  0  0  0  0  0  0  0  0  0  0  0
   13.6203    1.6164   24.4052 N   0  0  0  0  0  0  0  0  0  0  0  0
    6.9440    0.2550   18.0100 N   0  0  0  0  0  0  0  0  0  0  0  0
    7.6830   -0.5170   18.7600 N   0  0  0  0  0  0  0  0  0  0  0  0
   13.6063    0.7308   23.3944 N   0  0  0  0  0  0  0  0  0  0  0  0
    7.2210   -0.4620   20.0350 N   0  0  0  0  0  0  0  0  0  0  0  0
    9.2639   -4.8860   25.8399 N   0  0  0  0  0  0  0  0  0  0  0  0
    9.4200   -0.0840   22.9530 N   0  0  0  0  0  0  0  0  0  0  0  0
    9.1870    1.1500   21.0630 O   0  0  0  0  0  0  0  0  0  0  0  0
    3.2714    2.7873   19.3199 H   0  0  0  0  0  0  0  0  0  0  0  0
    3.6281    2.0094   21.6291 H   0  0  0  0  0  0  0  0  0  0  0  0
    4.7823    2.0669   17.4883 H   0  0  0  0  0  0  0  0  0  0  0  0
    5.4954    0.4562   22.1797 H   0  0  0  0  0  0  0  0  0  0  0  0
    7.5647   -2.8621   26.1053 H   0  0  0  0  0  0  0  0  0  0  0  0
   11.0144   -4.2642   23.9425 H   0  0  0  0  0  0  0  0  0  0  0  0
    7.5958   -0.7779   24.8006 H   0  0  0  0  0  0  0  0  0  0  0  0
   11.0406   -2.1848   22.6356 H   0  0  0  0  0  0  0  0  0  0  0  0
   12.0427    2.5174   25.4248 H   0  0  0  0  0  0  0  0  0  0  0  0
   12.1886   -0.3242   22.1820 H   0  0  0  0  0  0  0  0  0  0  0  0
    7.8578   -7.6261   27.1266 H   0  0  0  0  0  0  0  0  0  0  0  0
    6.2773   -7.2358   26.4459 H   0  0  0  0  0  0  0  0  0  0  0  0
    6.6663   -4.8351   26.7223 H   0  0  0  0  0  0  0  0  0  0  0  0
    7.0044   -5.6368   28.2534 H   0  0  0  0  0  0  0  0  0  0  0  0
    7.9946   -7.8119   24.6937 H   0  0  0  0  0  0  0  0  0  0  0  0
    7.2929   -6.2123   24.4668 H   0  0  0  0  0  0  0  0  0  0  0  0
    8.7343   -3.9408   27.6542 H   0  0  0  0  0  0  0  0  0  0  0  0
    9.4243   -5.5632   27.8278 H   0  0  0  0  0  0  0  0  0  0  0  0
   10.0200   -6.8490   25.7011 H   0  0  0  0  0  0  0  0  0  0  0  0
    9.6984   -6.0694   24.1436 H   0  0  0  0  0  0  0  0  0  0  0  0
   15.1471    0.9149   22.0366 H   0  0  0  0  0  0  0  0  0  0  0  0
   15.6135    0.2370   23.6333 H   0  0  0  0  0  0  0  0  0  0  0  0
   14.7102   -0.7721   22.4754 H   0  0  0  0  0  0  0  0  0  0  0  0
    9.5800    0.9891   24.7694 H   0  0  0  0  0  0  0  0  0  0  0  0
    9.5886    1.9832   23.3122 H   0  0  0  0  0  0  0  0  0  0  0  0
    8.7136   -1.7499   20.6462 H   0  0  0  0  0  0  0  0  0  0  0  0
    7.4415   -1.4060   21.8540 H   0  0  0  0  0  0  0  0  0  0  0  0
  1  2  1  0  0  0  0
  1  3  2  0  0  0  0
  2  4  2  0  0  0  0
  3 12  1  0  0  0  0
  4 13  1  0  0  0  0
  5  7  2  0  0  0  0
  5 14  1  0  0  0  0
  6  8  1  0  0  0  0
  6 14  2  0  0  0  0
  7 15  1  0  0  0  0
  8 15  2  0  0  0  0
  9 11  1  0  0  0  0
  9 25  2  0  0  0  0
 10 11  2  0  0  0  0
 10 28  1  0  0  0  0
 11 23  1  0  0  0  0
 12 13  2  0  0  0  0
 12 26  1  0  0  0  0
 13 29  1  0  0  0  0
 14 30  1  0  0  0  0
 15 31  1  0  0  0  0
 16 24  1  0  0  0  0
 16 31  1  0  0  0  0
 16 32  2  0  0  0  0
 17 18  1  0  0  0  0
 17 19  1  0  0  0  0
 18 20  1  0  0  0  0
 19 21  1  0  0  0  0
 20 30  1  0  0  0  0
 21 30  1  0  0  0  0
 22 28  1  0  0  0  0
 23 31  1  0  0  0  0
 24 29  1  0  0  0  0
 25 28  1  0  0  0  0
 26 27  2  0  0  0  0
 27 29  1  0  0  0  0
  1 33  1  0  0  0  0
  2 34  1  0  0  0  0
  3 35  1  0  0  0  0
  4 36  1  0  0  0  0
  5 37  1  0  0  0  0
  6 38  1  0  0  0  0
  7 39  1  0  0  0  0
  8 40  1  0  0  0  0
  9 41  1  0  0  0  0
 10 42  1  0  0  0  0
 17 43  1  0  0  0  0
 17 44  1  0  0  0  0
 18 45  1  0  0  0  0
 18 46  1  0  0  0  0
 19 47  1  0  0  0  0
 19 48  1  0  0  0  0
 20 49  1  0  0  0  0
 20 50  1  0  0  0  0
 21 51  1  0  0  0  0
 21 52  1  0  0  0  0
 22 53  1  0  0  0  0
 22 54  1  0  0  0  0
 22 55  1  0  0  0  0
 23 56  1  0  0  0  0
 23 57  1  0  0  0  0
 24 58  1  0  0  0  0
 24 59  1  0  0  0  0
M  END
> <clash_score>
0

> <docking_score>
-8.637435913085938

> <overlap_score>
0.9945988655090332

$$$$
BENZO_349_1
  -OEChem-08232013503D

 47 50  0     0  0  0  0  0  0999 V2000
   14.2757    0.9455   23.8498 C   0  0  0  0  0  0  0  0  0  0  0  0
   13.5453    0.2614   24.8215 C   0  0  0  0  0  0  0  0  0  0  0  0
   13.6117    1.6606   22.8530 C   0  0  0  0  0  0  0  0  0  0  0  0
    4.0980    2.1130   19.5350 C   0  0  0  0  0  0  0  0  0  0  0  0
    4.2970    1.6690   20.8430 C   0  0  0  0  0  0  0  0  0  0  0  0
   12.1510    0.2924   24.7964 C   0  0  0  0  0  0  0  0  0  0  0  0
   12.2174    1.6915   22.8279 C   0  0  0  0  0  0  0  0  0  0  0  0
    8.3310   -2.7170   25.3430 C   0  0  0  0  0  0  0  0  0  0  0  0
   10.2570   -3.5000   24.1350 C   0  0  0  0  0  0  0  0  0  0  0  0
    4.9400    1.7060   18.5060 C   0  0  0  0  0  0  0  0  0  0  0  0
    5.3360    0.8000   21.1530 C   0  0  0  0  0  0  0  0  0  0  0  0
    8.3510   -1.5420   24.6110 C   0  0  0  0  0  0  0  0  0  0  0  0
   10.2760   -2.3270   23.4020 C   0  0  0  0  0  0  0  0  0  0  0  0
    9.2850   -3.7090   25.1090 C   0  0  0  0  0  0  0  0  0  0  0  0
   11.4870    1.0074   23.7996 C   0  0  0  0  0  0  0  0  0  0  0  0
    5.9810    0.8330   18.8060 C   0  0  0  0  0  0  0  0  0  0  0  0
    6.1600    0.3870   20.1140 C   0  0  0  0  0  0  0  0  0  0  0  0
    9.3300   -1.3350   23.6390 C   0  0  0  0  0  0  0  0  0  0  0  0
    8.9510    0.1280   21.6880 C   0  0  0  0  0  0  0  0  0  0  0  0
    9.2610   -4.9721   25.8916 C   0  0  0  0  0  0  0  0  0  0  0  0
    9.9863    1.0409   23.7719 C   0  0  0  0  0  0  0  0  0  0  0  0
    8.0810   -0.9750   21.0820 C   0  0  0  0  0  0  0  0  0  0  0  0
    6.9440    0.2550   18.0100 N   0  0  0  0  0  0  0  0  0  0  0  0
    7.6830   -0.5170   18.7600 N   0  0  0  0  0  0  0  0  0  0  0  0
    7.2210   -0.4620   20.0350 N   0  0  0  0  0  0  0  0  0  0  0  0
    9.4200   -0.0840   22.9530 N   0  0  0  0  0  0  0  0  0  0  0  0
    9.1870    1.1500   21.0630 O   0  0  0  0  0  0  0  0  0  0  0  0
   15.3613    0.9224   23.8703 H   0  0  0  0  0  0  0  0  0  0  0  0
   14.0621   -0.2945   25.5983 H   0  0  0  0  0  0  0  0  0  0  0  0
   14.1800    2.1942   22.0970 H   0  0  0  0  0  0  0  0  0  0  0  0
    3.2714    2.7873   19.3199 H   0  0  0  0  0  0  0  0  0  0  0  0
    3.6281    2.0093   21.6291 H   0  0  0  0  0  0  0  0  0  0  0  0
   11.5902   -0.2438   25.5575 H   0  0  0  0  0  0  0  0  0  0  0  0
   11.7087    2.2512   22.0475 H   0  0  0  0  0  0  0  0  0  0  0  0
    7.5665   -2.8638   26.1066 H   0  0  0  0  0  0  0  0  0  0  0  0
   11.0137   -4.2652   23.9447 H   0  0  0  0  0  0  0  0  0  0  0  0
    4.7823    2.0669   17.4883 H   0  0  0  0  0  0  0  0  0  0  0  0
    5.4954    0.4562   22.1797 H   0  0  0  0  0  0  0  0  0  0  0  0
    7.5948   -0.7788   24.7997 H   0  0  0  0  0  0  0  0  0  0  0  0
   11.0411   -2.1856   22.6358 H   0  0  0  0  0  0  0  0  0  0  0  0
    8.6398   -5.7223   25.3871 H   0  0  0  0  0  0  0  0  0  0  0  0
   10.2715   -5.3829   26.0145 H   0  0  0  0  0  0  0  0  0  0  0  0
    8.8596   -4.8092   26.9004 H   0  0  0  0  0  0  0  0  0  0  0  0
    9.5794    0.9574   24.7855 H   0  0  0  0  0  0  0  0  0  0  0  0
    9.6220    1.9844   23.3519 H   0  0  0  0  0  0  0  0  0  0  0  0
    8.7066   -1.7479   20.6383 H   0  0  0  0  0  0  0  0  0  0  0  0
    7.4345   -1.4041   21.8461 H   0  0  0  0  0  0  0  0  0  0  0  0
  1  2  1  0  0  0  0
  1  3  2  0  0  0  0
  2  6  2  0  0  0  0
  3  7  1  0  0  0  0
  4  5  1  0  0  0  0
  4 10  2  0  0  0  0
  5 11  2  0  0  0  0
  6 15  1  0  0  0  0
  7 15  2  0  0  0  0
  8 12  2  0  0  0  0
  8 14  1  0  0  0  0
  9 13  1  0  0  0  0
  9 14  2  0  0  0  0
 10 16  1  0  0  0  0
 11 17  1  0  0  0  0
 12 18  1  0  0  0  0
 13 18  2  0  0  0  0
 14 20  1  0  0  0  0
 15 21  1  0  0  0  0
 16 17  2  0  0  0  0
 16 23  1  0  0  0  0
 17 25  1  0  0  0  0
 18 26  1  0  0  0  0
 19 22  1  0  0  0  0
 19 26  1  0  0  0  0
 19 27  2  0  0  0  0
 21 26  1  0  0  0  0
 22 25  1  0  0  0  0
 23 24  2  0  0  0  0
 24 25  1  0  0  0  0
  1 28  1  0  0  0  0
  2 29  1  0  0  0  0
  3 30  1  0  0  0  0
  4 31  1  0  0  0  0
  5 32  1  0  0  0  0
  6 33  1  0  0  0  0
  7 34  1  0  0  0  0
  8 35  1  0  0  0  0
  9 36  1  0  0  0  0
 10 37  1  0  0  0  0
 11 38  1  0  0  0  0
 12 39  1  0  0  0  0
 13 40  1  0  0  0  0
 20 41  1  0  0  0  0
 20 42  1  0  0  0  0
 20 43  1  0  0  0  0
 21 44  1  0  0  0  0
 21 45  1  0  0  0  0
 22 46  1  0  0  0  0
 22 47  1  0  0  0  0
M  END
> <clash_score>
0

> <docking_score>
-9.898174285888672

> <overlap_score>
0.9624119997024536

$$$$
BENZO_348_1
  -OEChem-08232013503D

 44 47  0     0  0  0  0  0  0999 V2000
    4.0980    2.1130   19.5350 C   0  0  0  0  0  0  0  0  0  0  0  0
    4.2970    1.6690   20.8430 C   0  0  0  0  0  0  0  0  0  0  0  0
    8.3310   -2.7170   25.3430 C   0  0  0  0  0  0  0  0  0  0  0  0
   10.2570   -3.5000   24.1350 C   0  0  0  0  0  0  0  0  0  0  0  0
    4.9400    1.7060   18.5060 C   0  0  0  0  0  0  0  0  0  0  0  0
    5.3360    0.8000   21.1530 C   0  0  0  0  0  0  0  0  0  0  0  0
    8.3510   -1.5420   24.6110 C   0  0  0  0  0  0  0  0  0  0  0  0
   10.2760   -2.3270   23.4020 C   0  0  0  0  0  0  0  0  0  0  0  0
   12.3054    1.0960   22.6366 C   0  0  0  0  0  0  0  0  0  0  0  0
   13.6473    1.0398   22.9426 C   0  0  0  0  0  0  0  0  0  0  0  0
   12.2348    0.8867   24.9504 C   0  0  0  0  0  0  0  0  0  0  0  0
    9.2850   -3.7090   25.1090 C   0  0  0  0  0  0  0  0  0  0  0  0
   11.4871    1.0074   23.7996 C   0  0  0  0  0  0  0  0  0  0  0  0
    5.9810    0.8330   18.8060 C   0  0  0  0  0  0  0  0  0  0  0  0
    6.1600    0.3870   20.1140 C   0  0  0  0  0  0  0  0  0  0  0  0
    9.3300   -1.3350   23.6390 C   0  0  0  0  0  0  0  0  0  0  0  0
    8.9510    0.1280   21.6880 C   0  0  0  0  0  0  0  0  0  0  0  0
    9.2610   -4.9721   25.8916 C   0  0  0  0  0  0  0  0  0  0  0  0
    9.9863    1.0409   23.7719 C   0  0  0  0  0  0  0  0  0  0  0  0
    8.0810   -0.9750   21.0820 C   0  0  0  0  0  0  0  0  0  0  0  0
    6.9440    0.2550   18.0100 N   0  0  0  0  0  0  0  0  0  0  0  0
    7.6830   -0.5170   18.7600 N   0  0  0  0  0  0  0  0  0  0  0  0
    7.2210   -0.4620   20.0350 N   0  0  0  0  0  0  0  0  0  0  0  0
    9.4200   -0.0840   22.9530 N   0  0  0  0  0  0  0  0  0  0  0  0
    9.1870    1.1500   21.0630 O   0  0  0  0  0  0  0  0  0  0  0  0
   13.9162    0.8808   24.6263 S   0  0  0  0  0  0  0  0  0  0  0  0
    3.2714    2.7873   19.3199 H   0  0  0  0  0  0  0  0  0  0  0  0
    3.6281    2.0093   21.6291 H   0  0  0  0  0  0  0  0  0  0  0  0
    7.5665   -2.8638   26.1066 H   0  0  0  0  0  0  0  0  0  0  0  0
   11.0137   -4.2652   23.9447 H   0  0  0  0  0  0  0  0  0  0  0  0
    4.7823    2.0669   17.4883 H   0  0  0  0  0  0  0  0  0  0  0  0
    5.4954    0.4562   22.1797 H   0  0  0  0  0  0  0  0  0  0  0  0
    7.5948   -0.7788   24.7997 H   0  0  0  0  0  0  0  0  0  0  0  0
   11.0411   -2.1856   22.6358 H   0  0  0  0  0  0  0  0  0  0  0  0
   11.9329    1.1955   21.6249 H   0  0  0  0  0  0  0  0  0  0  0  0
   14.4826    1.0838   22.2581 H   0  0  0  0  0  0  0  0  0  0  0  0
   11.8782    0.8002   25.9674 H   0  0  0  0  0  0  0  0  0  0  0  0
    8.6398   -5.7223   25.3871 H   0  0  0  0  0  0  0  0  0  0  0  0
   10.2715   -5.3829   26.0145 H   0  0  0  0  0  0  0  0  0  0  0  0
    8.8596   -4.8092   26.9004 H   0  0  0  0  0  0  0  0  0  0  0  0
    9.5794    0.9574   24.7855 H   0  0  0  0  0  0  0  0  0  0  0  0
    9.6220    1.9844   23.3519 H   0  0  0  0  0  0  0  0  0  0  0  0
    8.7066   -1.7479   20.6383 H   0  0  0  0  0  0  0  0  0  0  0  0
    7.4345   -1.4041   21.8461 H   0  0  0  0  0  0  0  0  0  0  0  0
  1  2  1  0  0  0  0
  1  5  2  0  0  0  0
  2  6  2  0  0  0  0
  3  7  2  0  0  0  0
  3 12  1  0  0  0  0
  4  8  1  0  0  0  0
  4 12  2  0  0  0  0
  5 14  1  0  0  0  0
  6 15  1  0  0  0  0
  7 16  1  0  0  0  0
  8 16  2  0  0  0  0
  9 10  2  0  0  0  0
  9 13  1  0  0  0  0
 10 26  1  0  0  0  0
 11 13  2  0  0  0  0
 11 26  1  0  0  0  0
 12 18  1  0  0  0  0
 13 19  1  0  0  0  0
 14 15  2  0  0  0  0
 14 21  1  0  0  0  0
 15 23  1  0  0  0  0
 16 24  1  0  0  0  0
 17 20  1  0  0  0  0
 17 24  1  0  0  0  0
 17 25  2  0  0  0  0
 19 24  1  0  0  0  0
 20 23  1  0  0  0  0
 21 22  2  0  0  0  0
 22 23  1  0  0  0  0
  1 27  1  0  0  0  0
  2 28  1  0  0  0  0
  3 29  1  0  0  0  0
  4 30  1  0  0  0  0
  5 31  1  0  0  0  0
  6 32  1  0  0  0  0
  7 33  1  0  0  0  0
  8 34  1  0  0  0  0
  9 35  1  0  0  0  0
 10 36  1  0  0  0  0
 11 37  1  0  0  0  0
 18 38  1  0  0  0  0
 18 39  1  0  0  0  0
 18 40  1  0  0  0  0
 19 41  1  0  0  0  0
 19 42  1  0  0  0  0
 20 43  1  0  0  0  0
 20 44  1  0  0  0  0
M  END
> <clash_score>
0

> <docking_score>
-10.273619651794434

> <overlap_score>
0.9405438899993896

$$$$
BENZO_351_1
  -OEChem-08232013503D

 47 50  0     0  0  0  0  0  0999 V2000
    4.0980    2.1130   19.5350 C   0  0  0  0  0  0  0  0  0  0  0  0
    4.2970    1.6690   20.8430 C   0  0  0  0  0  0  0  0  0  0  0  0
    8.3310   -2.7170   25.3430 C   0  0  0  0  0  0  0  0  0  0  0  0
   10.2570   -3.5000   24.1350 C   0  0  0  0  0  0  0  0  0  0  0  0
    4.9400    1.7060   18.5060 C   0  0  0  0  0  0  0  0  0  0  0  0
    5.3360    0.8000   21.1530 C   0  0  0  0  0  0  0  0  0  0  0  0
    8.3510   -1.5420   24.6110 C   0  0  0  0  0  0  0  0  0  0  0  0
   10.2760   -2.3270   23.4020 C   0  0  0  0  0  0  0  0  0  0  0  0
   12.3278    0.8882   24.9224 C   0  0  0  0  0  0  0  0  0  0  0  0
   12.3482    1.0837   22.7324 C   0  0  0  0  0  0  0  0  0  0  0  0
    9.2850   -3.7090   25.1090 C   0  0  0  0  0  0  0  0  0  0  0  0
   11.4870    1.0074   23.7996 C   0  0  0  0  0  0  0  0  0  0  0  0
    5.9810    0.8330   18.8060 C   0  0  0  0  0  0  0  0  0  0  0  0
    6.1600    0.3870   20.1140 C   0  0  0  0  0  0  0  0  0  0  0  0
    9.3300   -1.3350   23.6390 C   0  0  0  0  0  0  0  0  0  0  0  0
    8.9510    0.1280   21.6880 C   0  0  0  0  0  0  0  0  0  0  0  0
    9.2610   -4.9721   25.8916 C   0  0  0  0  0  0  0  0  0  0  0  0
   14.8451    1.0460   22.5253 C   0  0  0  0  0  0  0  0  0  0  0  0
    9.9863    1.0409   23.7719 C   0  0  0  0  0  0  0  0  0  0  0  0
    8.0810   -0.9750   21.0820 C   0  0  0  0  0  0  0  0  0  0  0  0
   13.6236    0.8881   24.5986 N   0  0  0  0  0  0  0  0  0  0  0  0
    6.9440    0.2550   18.0100 N   0  0  0  0  0  0  0  0  0  0  0  0
    7.6830   -0.5170   18.7600 N   0  0  0  0  0  0  0  0  0  0  0  0
   13.6036    1.0081   23.2602 N   0  0  0  0  0  0  0  0  0  0  0  0
    7.2210   -0.4620   20.0350 N   0  0  0  0  0  0  0  0  0  0  0  0
    9.4200   -0.0840   22.9530 N   0  0  0  0  0  0  0  0  0  0  0  0
    9.1870    1.1500   21.0630 O   0  0  0  0  0  0  0  0  0  0  0  0
    3.2714    2.7873   19.3199 H   0  0  0  0  0  0  0  0  0  0  0  0
    3.6281    2.0093   21.6291 H   0  0  0  0  0  0  0  0  0  0  0  0
    7.5665   -2.8638   26.1066 H   0  0  0  0  0  0  0  0  0  0  0  0
   11.0137   -4.2652   23.9447 H   0  0  0  0  0  0  0  0  0  0  0  0
    4.7823    2.0669   17.4883 H   0  0  0  0  0  0  0  0  0  0  0  0
    5.4954    0.4562   22.1797 H   0  0  0  0  0  0  0  0  0  0  0  0
    7.5948   -0.7788   24.7997 H   0  0  0  0  0  0  0  0  0  0  0  0
   11.0411   -2.1856   22.6358 H   0  0  0  0  0  0  0  0  0  0  0  0
   12.0526    0.8004   25.9640 H   0  0  0  0  0  0  0  0  0  0  0  0
   12.1789    1.1815   21.6686 H   0  0  0  0  0  0  0  0  0  0  0  0
    8.6398   -5.7223   25.3871 H   0  0  0  0  0  0  0  0  0  0  0  0
   10.2715   -5.3829   26.0145 H   0  0  0  0  0  0  0  0  0  0  0  0
    8.8596   -4.8092   26.9004 H   0  0  0  0  0  0  0  0  0  0  0  0
   15.1586    2.0903   22.4463 H   0  0  0  0  0  0  0  0  0  0  0  0
   15.6003    0.4592   23.0557 H   0  0  0  0  0  0  0  0  0  0  0  0
   14.6902    0.6160   21.5318 H   0  0  0  0  0  0  0  0  0  0  0  0
    9.5794    0.9574   24.7855 H   0  0  0  0  0  0  0  0  0  0  0  0
    9.6220    1.9844   23.3519 H   0  0  0  0  0  0  0  0  0  0  0  0
    8.7066   -1.7479   20.6383 H   0  0  0  0  0  0  0  0  0  0  0  0
    7.4345   -1.4041   21.8461 H   0  0  0  0  0  0  0  0  0  0  0  0
  1  2  1  0  0  0  0
  1  5  2  0  0  0  0
  2  6  2  0  0  0  0
  3  7  2  0  0  0  0
  3 11  1  0  0  0  0
  4  8  1  0  0  0  0
  4 11  2  0  0  0  0
  5 13  1  0  0  0  0
  6 14  1  0  0  0  0
  7 15  1  0  0  0  0
  8 15  2  0  0  0  0
  9 12  1  0  0  0  0
  9 21  2  0  0  0  0
 10 12  2  0  0  0  0
 10 24  1  0  0  0  0
 11 17  1  0  0  0  0
 12 19  1  0  0  0  0
 13 14  2  0  0  0  0
 13 22  1  0  0  0  0
 14 25  1  0  0  0  0
 15 26  1  0  0  0  0
 16 20  1  0  0  0  0
 16 26  1  0  0  0  0
 16 27  2  0  0  0  0
 18 24  1  0  0  0  0
 19 26  1  0  0  0  0
 20 25  1  0  0  0  0
 21 24  1  0  0  0  0
 22 23  2  0  0  0  0
 23 25  1  0  0  0  0
  1 28  1  0  0  0  0
  2 29  1  0  0  0  0
  3 30  1  0  0  0  0
  4 31  1  0  0  0  0
  5 32  1  0  0  0  0
  6 33  1  0  0  0  0
  7 34  1  0  0  0  0
  8 35  1  0  0  0  0
  9 36  1  0  0  0  0
 10 37  1  0  0  0  0
 17 38  1  0  0  0  0
 17 39  1  0  0  0  0
 17 40  1  0  0  0  0
 18 41  1  0  0  0  0
 18 42  1  0  0  0  0
 18 43  1  0  0  0  0
 19 44  1  0  0  0  0
 19 45  1  0  0  0  0
 20 46  1  0  0  0  0
 20 47  1  0  0  0  0
M  END
> <clash_score>
0

> <docking_score>
-9.398601531982422

> <overlap_score>
0.9565515518188477

$$$$
BENZO_350_1
  -OEChem-08232013503D

 47 50  0     0  0  0  0  0  0999 V2000
    4.0980    2.1130   19.5350 C   0  0  0  0  0  0  0  0  0  0  0  0
    4.2970    1.6690   20.8430 C   0  0  0  0  0  0  0  0  0  0  0  0
   13.6128    1.8896   23.0651 C   0  0  0  0  0  0  0  0  0  0  0  0
   12.2186    1.9194   23.0389 C   0  0  0  0  0  0  0  0  0  0  0  0
    8.3310   -2.7170   25.3430 C   0  0  0  0  0  0  0  0  0  0  0  0
   10.2570   -3.5000   24.1350 C   0  0  0  0  0  0  0  0  0  0  0  0
    4.9400    1.7060   18.5060 C   0  0  0  0  0  0  0  0  0  0  0  0
    5.3360    0.8000   21.1530 C   0  0  0  0  0  0  0  0  0  0  0  0
    8.3510   -1.5420   24.6110 C   0  0  0  0  0  0  0  0  0  0  0  0
   10.2760   -2.3270   23.4020 C   0  0  0  0  0  0  0  0  0  0  0  0
   14.2756    0.9477   23.8519 C   0  0  0  0  0  0  0  0  0  0  0  0
   12.1498    0.0655   24.5866 C   0  0  0  0  0  0  0  0  0  0  0  0
    9.2850   -3.7090   25.1090 C   0  0  0  0  0  0  0  0  0  0  0  0
   11.4870    1.0074   23.7996 C   0  0  0  0  0  0  0  0  0  0  0  0
    5.9810    0.8330   18.8060 C   0  0  0  0  0  0  0  0  0  0  0  0
    6.1600    0.3870   20.1140 C   0  0  0  0  0  0  0  0  0  0  0  0
    9.3300   -1.3350   23.6390 C   0  0  0  0  0  0  0  0  0  0  0  0
   13.5441    0.0357   24.6127 C   0  0  0  0  0  0  0  0  0  0  0  0
    8.9510    0.1280   21.6880 C   0  0  0  0  0  0  0  0  0  0  0  0
    9.2610   -4.9721   25.8916 C   0  0  0  0  0  0  0  0  0  0  0  0
    9.9863    1.0409   23.7719 C   0  0  0  0  0  0  0  0  0  0  0  0
    8.0810   -0.9750   21.0820 C   0  0  0  0  0  0  0  0  0  0  0  0
    6.9440    0.2550   18.0100 N   0  0  0  0  0  0  0  0  0  0  0  0
    7.6830   -0.5170   18.7600 N   0  0  0  0  0  0  0  0  0  0  0  0
    7.2210   -0.4620   20.0350 N   0  0  0  0  0  0  0  0  0  0  0  0
    9.4200   -0.0840   22.9530 N   0  0  0  0  0  0  0  0  0  0  0  0
    9.1870    1.1500   21.0630 O   0  0  0  0  0  0  0  0  0  0  0  0
   14.3624   -1.1255   25.5843 Cl  0  0  0  0  0  0  0  0  0  0  0  0
    3.2714    2.7873   19.3199 H   0  0  0  0  0  0  0  0  0  0  0  0
    3.6281    2.0093   21.6291 H   0  0  0  0  0  0  0  0  0  0  0  0
   14.1821    2.6000   22.4726 H   0  0  0  0  0  0  0  0  0  0  0  0
   11.7105    2.6569   22.4229 H   0  0  0  0  0  0  0  0  0  0  0  0
    7.5665   -2.8638   26.1066 H   0  0  0  0  0  0  0  0  0  0  0  0
   11.0137   -4.2652   23.9447 H   0  0  0  0  0  0  0  0  0  0  0  0
    4.7823    2.0669   17.4883 H   0  0  0  0  0  0  0  0  0  0  0  0
    5.4954    0.4562   22.1797 H   0  0  0  0  0  0  0  0  0  0  0  0
    7.5948   -0.7788   24.7997 H   0  0  0  0  0  0  0  0  0  0  0  0
   11.0411   -2.1856   22.6358 H   0  0  0  0  0  0  0  0  0  0  0  0
   15.3628    0.9363   23.8628 H   0  0  0  0  0  0  0  0  0  0  0  0
   11.5749   -0.6438   25.1775 H   0  0  0  0  0  0  0  0  0  0  0  0
    8.6398   -5.7223   25.3871 H   0  0  0  0  0  0  0  0  0  0  0  0
   10.2715   -5.3829   26.0145 H   0  0  0  0  0  0  0  0  0  0  0  0
    8.8596   -4.8092   26.9004 H   0  0  0  0  0  0  0  0  0  0  0  0
    9.5794    0.9574   24.7855 H   0  0  0  0  0  0  0  0  0  0  0  0
    9.6220    1.9844   23.3519 H   0  0  0  0  0  0  0  0  0  0  0  0
    8.7066   -1.7479   20.6383 H   0  0  0  0  0  0  0  0  0  0  0  0
    7.4345   -1.4041   21.8461 H   0  0  0  0  0  0  0  0  0  0  0  0
  1  2  1  0  0  0  0
  1  7  2  0  0  0  0
  2  8  2  0  0  0  0
  3  4  2  0  0  0  0
  3 11  1  0  0  0  0
  4 14  1  0  0  0  0
  5  9  2  0  0  0  0
  5 13  1  0  0  0  0
  6 10  1  0  0  0  0
  6 13  2  0  0  0  0
  7 15  1  0  0  0  0
  8 16  1  0  0  0  0
  9 17  1  0  0  0  0
 10 17  2  0  0  0  0
 11 18  2  0  0  0  0
 12 14  2  0  0  0  0
 12 18  1  0  0  0  0
 13 20  1  0  0  0  0
 14 21  1  0  0  0  0
 15 16  2  0  0  0  0
 15 23  1  0  0  0  0
 16 25  1  0  0  0  0
 17 26  1  0  0  0  0
 18 28  1  0  0  0  0
 19 22  1  0  0  0  0
 19 26  1  0  0  0  0
 19 27  2  0  0  0  0
 21 26  1  0  0  0  0
 22 25  1  0  0  0  0
 23 24  2  0  0  0  0
 24 25  1  0  0  0  0
  1 29  1  0  0  0  0
  2 30  1  0  0  0  0
  3 31  1  0  0  0  0
  4 32  1  0  0  0  0
  5 33  1  0  0  0  0
  6 34  1  0  0  0  0
  7 35  1  0  0  0  0
  8 36  1  0  0  0  0
  9 37  1  0  0  0  0
 10 38  1  0  0  0  0
 11 39  1  0  0  0  0
 12 40  1  0  0  0  0
 20 41  1  0  0  0  0
 20 42  1  0  0  0  0
 20 43  1  0  0  0  0
 21 44  1  0  0  0  0
 21 45  1  0  0  0  0
 22 46  1  0  0  0  0
 22 47  1  0  0  0  0
M  END
> <clash_score>
0.7592402605425311

> <docking_score>
-8.661341667175293

> <overlap_score>
0.9635885953903198

$$$$
BENZO_353_1
  -OEChem-08232013503D

 48 51  0     0  0  0  0  0  0999 V2000
   14.2757    0.9455   23.8498 C   0  0  0  0  0  0  0  0  0  0  0  0
   13.5453    0.2614   24.8215 C   0  0  0  0  0  0  0  0  0  0  0  0
   13.6117    1.6606   22.8530 C   0  0  0  0  0  0  0  0  0  0  0  0
    4.0980    2.1130   19.5350 C   0  0  0  0  0  0  0  0  0  0  0  0
    4.2970    1.6690   20.8430 C   0  0  0  0  0  0  0  0  0  0  0  0
   12.1510    0.2924   24.7964 C   0  0  0  0  0  0  0  0  0  0  0  0
   12.2174    1.6915   22.8279 C   0  0  0  0  0  0  0  0  0  0  0  0
    4.9400    1.7060   18.5060 C   0  0  0  0  0  0  0  0  0  0  0  0
    5.3360    0.8000   21.1530 C   0  0  0  0  0  0  0  0  0  0  0  0
    8.3510   -1.5420   24.6110 C   0  0  0  0  0  0  0  0  0  0  0  0
   10.2760   -2.3270   23.4020 C   0  0  0  0  0  0  0  0  0  0  0  0
    8.3310   -2.7170   25.3430 C   0  0  0  0  0  0  0  0  0  0  0  0
   10.2570   -3.5000   24.1350 C   0  0  0  0  0  0  0  0  0  0  0  0
   11.4870    1.0074   23.7996 C   0  0  0  0  0  0  0  0  0  0  0  0
    5.9810    0.8330   18.8060 C   0  0  0  0  0  0  0  0  0  0  0  0
    6.1600    0.3870   20.1140 C   0  0  0  0  0  0  0  0  0  0  0  0
    9.3300   -1.3350   23.6390 C   0  0  0  0  0  0  0  0  0  0  0  0
    9.2850   -3.7090   25.1090 C   0  0  0  0  0  0  0  0  0  0  0  0
    8.9510    0.1280   21.6880 C   0  0  0  0  0  0  0  0  0  0  0  0
    8.2346   -4.9977   26.8024 C   0  0  0  0  0  0  0  0  0  0  0  0
    9.9863    1.0409   23.7719 C   0  0  0  0  0  0  0  0  0  0  0  0
    8.0810   -0.9750   21.0820 C   0  0  0  0  0  0  0  0  0  0  0  0
    6.9440    0.2550   18.0100 N   0  0  0  0  0  0  0  0  0  0  0  0
    7.6830   -0.5170   18.7600 N   0  0  0  0  0  0  0  0  0  0  0  0
    7.2210   -0.4620   20.0350 N   0  0  0  0  0  0  0  0  0  0  0  0
    9.4200   -0.0840   22.9530 N   0  0  0  0  0  0  0  0  0  0  0  0
    9.1870    1.1500   21.0630 O   0  0  0  0  0  0  0  0  0  0  0  0
    9.2631   -4.8614   25.8229 O   0  0  0  0  0  0  0  0  0  0  0  0
   15.3613    0.9224   23.8703 H   0  0  0  0  0  0  0  0  0  0  0  0
   14.0621   -0.2945   25.5983 H   0  0  0  0  0  0  0  0  0  0  0  0
   14.1800    2.1942   22.0970 H   0  0  0  0  0  0  0  0  0  0  0  0
    3.2714    2.7873   19.3199 H   0  0  0  0  0  0  0  0  0  0  0  0
    3.6281    2.0093   21.6291 H   0  0  0  0  0  0  0  0  0  0  0  0
   11.5902   -0.2438   25.5575 H   0  0  0  0  0  0  0  0  0  0  0  0
   11.7087    2.2512   22.0475 H   0  0  0  0  0  0  0  0  0  0  0  0
    4.7823    2.0669   17.4883 H   0  0  0  0  0  0  0  0  0  0  0  0
    5.4954    0.4562   22.1797 H   0  0  0  0  0  0  0  0  0  0  0  0
    7.5951   -0.7786   24.8000 H   0  0  0  0  0  0  0  0  0  0  0  0
   11.0406   -2.1866   22.6351 H   0  0  0  0  0  0  0  0  0  0  0  0
    7.5664   -2.8674   26.1055 H   0  0  0  0  0  0  0  0  0  0  0  0
   11.0119   -4.2671   23.9461 H   0  0  0  0  0  0  0  0  0  0  0  0
    8.3310   -5.9654   27.3007 H   0  0  0  0  0  0  0  0  0  0  0  0
    7.2574   -4.9205   26.3190 H   0  0  0  0  0  0  0  0  0  0  0  0
    8.3382   -4.1986   27.5402 H   0  0  0  0  0  0  0  0  0  0  0  0
    9.5794    0.9574   24.7855 H   0  0  0  0  0  0  0  0  0  0  0  0
    9.6220    1.9844   23.3519 H   0  0  0  0  0  0  0  0  0  0  0  0
    8.7066   -1.7479   20.6383 H   0  0  0  0  0  0  0  0  0  0  0  0
    7.4345   -1.4041   21.8461 H   0  0  0  0  0  0  0  0  0  0  0  0
  1  2  1  0  0  0  0
  1  3  2  0  0  0  0
  2  6  2  0  0  0  0
  3  7  1  0  0  0  0
  4  5  1  0  0  0  0
  4  8  2  0  0  0  0
  5  9  2  0  0  0  0
  6 14  1  0  0  0  0
  7 14  2  0  0  0  0
  8 15  1  0  0  0  0
  9 16  1  0  0  0  0
 10 12  2  0  0  0  0
 10 17  1  0  0  0  0
 11 13  1  0  0  0  0
 11 17  2  0  0  0  0
 12 18  1  0  0  0  0
 13 18  2  0  0  0  0
 14 21  1  0  0  0  0
 15 16  2  0  0  0  0
 15 23  1  0  0  0  0
 16 25  1  0  0  0  0
 17 26  1  0  0  0  0
 18 28  1  0  0  0  0
 19 22  1  0  0  0  0
 19 26  1  0  0  0  0
 19 27  2  0  0  0  0
 20 28  1  0  0  0  0
 21 26  1  0  0  0  0
 22 25  1  0  0  0  0
 23 24  2  0  0  0  0
 24 25  1  0  0  0  0
  1 29  1  0  0  0  0
  2 30  1  0  0  0  0
  3 31  1  0  0  0  0
  4 32  1  0  0  0  0
  5 33  1  0  0  0  0
  6 34  1  0  0  0  0
  7 35  1  0  0  0  0
  8 36  1  0  0  0  0
  9 37  1  0  0  0  0
 10 38  1  0  0  0  0
 11 39  1  0  0  0  0
 12 40  1  0  0  0  0
 13 41  1  0  0  0  0
 20 42  1  0  0  0  0
 20 43  1  0  0  0  0
 20 44  1  0  0  0  0
 21 45  1  0  0  0  0
 21 46  1  0  0  0  0
 22 47  1  0  0  0  0
 22 48  1  0  0  0  0
M  END
> <clash_score>
0

> <docking_score>
-9.607234954833984

> <overlap_score>
0.9863147735595703

$$$$
BENZO_352_1
  -OEChem-08232013503D

 45 48  0     0  0  0  0  0  0999 V2000
    4.0980    2.1130   19.5350 C   0  0  0  0  0  0  0  0  0  0  0  0
    4.2970    1.6690   20.8430 C   0  0  0  0  0  0  0  0  0  0  0  0
    4.9400    1.7060   18.5060 C   0  0  0  0  0  0  0  0  0  0  0  0
    5.3360    0.8000   21.1530 C   0  0  0  0  0  0  0  0  0  0  0  0
    8.3510   -1.5420   24.6110 C   0  0  0  0  0  0  0  0  0  0  0  0
   10.2760   -2.3270   23.4020 C   0  0  0  0  0  0  0  0  0  0  0  0
    8.3310   -2.7170   25.3430 C   0  0  0  0  0  0  0  0  0  0  0  0
   10.2570   -3.5000   24.1350 C   0  0  0  0  0  0  0  0  0  0  0  0
   12.3054    1.0960   22.6366 C   0  0  0  0  0  0  0  0  0  0  0  0
   13.6473    1.0398   22.9426 C   0  0  0  0  0  0  0  0  0  0  0  0
   12.2348    0.8867   24.9504 C   0  0  0  0  0  0  0  0  0  0  0  0
   11.4871    1.0074   23.7996 C   0  0  0  0  0  0  0  0  0  0  0  0
    5.9810    0.8330   18.8060 C   0  0  0  0  0  0  0  0  0  0  0  0
    6.1600    0.3870   20.1140 C   0  0  0  0  0  0  0  0  0  0  0  0
    9.3300   -1.3350   23.6390 C   0  0  0  0  0  0  0  0  0  0  0  0
    9.2850   -3.7090   25.1090 C   0  0  0  0  0  0  0  0  0  0  0  0
    8.9510    0.1280   21.6880 C   0  0  0  0  0  0  0  0  0  0  0  0
    8.2346   -4.9977   26.8024 C   0  0  0  0  0  0  0  0  0  0  0  0
    9.9863    1.0409   23.7719 C   0  0  0  0  0  0  0  0  0  0  0  0
    8.0810   -0.9750   21.0820 C   0  0  0  0  0  0  0  0  0  0  0  0
    6.9440    0.2550   18.0100 N   0  0  0  0  0  0  0  0  0  0  0  0
    7.6830   -0.5170   18.7600 N   0  0  0  0  0  0  0  0  0  0  0  0
    7.2210   -0.4620   20.0350 N   0  0  0  0  0  0  0  0  0  0  0  0
    9.4200   -0.0840   22.9530 N   0  0  0  0  0  0  0  0  0  0  0  0
    9.1870    1.1500   21.0630 O   0  0  0  0  0  0  0  0  0  0  0  0
    9.2631   -4.8614   25.8229 O   0  0  0  0  0  0  0  0  0  0  0  0
   13.9162    0.8808   24.6263 S   0  0  0  0  0  0  0  0  0  0  0  0
    3.2714    2.7873   19.3199 H   0  0  0  0  0  0  0  0  0  0  0  0
    3.6281    2.0093   21.6291 H   0  0  0  0  0  0  0  0  0  0  0  0
    4.7823    2.0669   17.4883 H   0  0  0  0  0  0  0  0  0  0  0  0
    5.4954    0.4562   22.1797 H   0  0  0  0  0  0  0  0  0  0  0  0
    7.5951   -0.7786   24.8000 H   0  0  0  0  0  0  0  0  0  0  0  0
   11.0406   -2.1866   22.6351 H   0  0  0  0  0  0  0  0  0  0  0  0
    7.5664   -2.8674   26.1055 H   0  0  0  0  0  0  0  0  0  0  0  0
   11.0119   -4.2671   23.9461 H   0  0  0  0  0  0  0  0  0  0  0  0
   11.9329    1.1955   21.6249 H   0  0  0  0  0  0  0  0  0  0  0  0
   14.4826    1.0838   22.2581 H   0  0  0  0  0  0  0  0  0  0  0  0
   11.8782    0.8002   25.9674 H   0  0  0  0  0  0  0  0  0  0  0  0
    8.3310   -5.9654   27.3007 H   0  0  0  0  0  0  0  0  0  0  0  0
    7.2574   -4.9205   26.3190 H   0  0  0  0  0  0  0  0  0  0  0  0
    8.3382   -4.1986   27.5402 H   0  0  0  0  0  0  0  0  0  0  0  0
    9.5794    0.9574   24.7855 H   0  0  0  0  0  0  0  0  0  0  0  0
    9.6220    1.9844   23.3519 H   0  0  0  0  0  0  0  0  0  0  0  0
    8.7066   -1.7479   20.6383 H   0  0  0  0  0  0  0  0  0  0  0  0
    7.4345   -1.4041   21.8461 H   0  0  0  0  0  0  0  0  0  0  0  0
  1  2  1  0  0  0  0
  1  3  2  0  0  0  0
  2  4  2  0  0  0  0
  3 13  1  0  0  0  0
  4 14  1  0  0  0  0
  5  7  2  0  0  0  0
  5 15  1  0  0  0  0
  6  8  1  0  0  0  0
  6 15  2  0  0  0  0
  7 16  1  0  0  0  0
  8 16  2  0  0  0  0
  9 10  2  0  0  0  0
  9 12  1  0  0  0  0
 10 27  1  0  0  0  0
 11 12  2  0  0  0  0
 11 27  1  0  0  0  0
 12 19  1  0  0  0  0
 13 14  2  0  0  0  0
 13 21  1  0  0  0  0
 14 23  1  0  0  0  0
 15 24  1  0  0  0  0
 16 26  1  0  0  0  0
 17 20  1  0  0  0  0
 17 24  1  0  0  0  0
 17 25  2  0  0  0  0
 18 26  1  0  0  0  0
 19 24  1  0  0  0  0
 20 23  1  0  0  0  0
 21 22  2  0  0  0  0
 22 23  1  0  0  0  0
  1 28  1  0  0  0  0
  2 29  1  0  0  0  0
  3 30  1  0  0  0  0
  4 31  1  0  0  0  0
  5 32  1  0  0  0  0
  6 33  1  0  0  0  0
  7 34  1  0  0  0  0
  8 35  1  0  0  0  0
  9 36  1  0  0  0  0
 10 37  1  0  0  0  0
 11 38  1  0  0  0  0
 18 39  1  0  0  0  0
 18 40  1  0  0  0  0
 18 41  1  0  0  0  0
 19 42  1  0  0  0  0
 19 43  1  0  0  0  0
 20 44  1  0  0  0  0
 20 45  1  0  0  0  0
M  END
> <clash_score>
0

> <docking_score>
-9.982678413391113

> <overlap_score>
0.9645459055900574

$$$$
BENZO_355_1
  -OEChem-08232013503D

 48 51  0     0  0  0  0  0  0999 V2000
    4.0980    2.1130   19.5350 C   0  0  0  0  0  0  0  0  0  0  0  0
    4.2970    1.6690   20.8430 C   0  0  0  0  0  0  0  0  0  0  0  0
    4.9400    1.7060   18.5060 C   0  0  0  0  0  0  0  0  0  0  0  0
    5.3360    0.8000   21.1530 C   0  0  0  0  0  0  0  0  0  0  0  0
    8.3510   -1.5420   24.6110 C   0  0  0  0  0  0  0  0  0  0  0  0
   10.2760   -2.3270   23.4020 C   0  0  0  0  0  0  0  0  0  0  0  0
    8.3310   -2.7170   25.3430 C   0  0  0  0  0  0  0  0  0  0  0  0
   10.2570   -3.5000   24.1350 C   0  0  0  0  0  0  0  0  0  0  0  0
   12.3506    1.7001   24.6692 C   0  0  0  0  0  0  0  0  0  0  0  0
   12.3259    0.2903   22.9820 C   0  0  0  0  0  0  0  0  0  0  0  0
   11.4870    1.0074   23.7996 C   0  0  0  0  0  0  0  0  0  0  0  0
    5.9810    0.8330   18.8060 C   0  0  0  0  0  0  0  0  0  0  0  0
    6.1600    0.3870   20.1140 C   0  0  0  0  0  0  0  0  0  0  0  0
    9.3300   -1.3350   23.6390 C   0  0  0  0  0  0  0  0  0  0  0  0
    9.2850   -3.7090   25.1090 C   0  0  0  0  0  0  0  0  0  0  0  0
    8.9510    0.1280   21.6880 C   0  0  0  0  0  0  0  0  0  0  0  0
   14.8175    0.0683   22.8363 C   0  0  0  0  0  0  0  0  0  0  0  0
    8.2346   -4.9977   26.8024 C   0  0  0  0  0  0  0  0  0  0  0  0
    9.9863    1.0409   23.7719 C   0  0  0  0  0  0  0  0  0  0  0  0
    8.0810   -0.9750   21.0820 C   0  0  0  0  0  0  0  0  0  0  0  0
   13.6393    1.4458   24.4268 N   0  0  0  0  0  0  0  0  0  0  0  0
    6.9440    0.2550   18.0100 N   0  0  0  0  0  0  0  0  0  0  0  0
    7.6830   -0.5170   18.7600 N   0  0  0  0  0  0  0  0  0  0  0  0
   13.5916    0.5853   23.3957 N   0  0  0  0  0  0  0  0  0  0  0  0
    7.2210   -0.4620   20.0350 N   0  0  0  0  0  0  0  0  0  0  0  0
    9.4200   -0.0840   22.9530 N   0  0  0  0  0  0  0  0  0  0  0  0
    9.1870    1.1500   21.0630 O   0  0  0  0  0  0  0  0  0  0  0  0
    9.2631   -4.8614   25.8229 O   0  0  0  0  0  0  0  0  0  0  0  0
    3.2714    2.7873   19.3199 H   0  0  0  0  0  0  0  0  0  0  0  0
    3.6281    2.0093   21.6291 H   0  0  0  0  0  0  0  0  0  0  0  0
    4.7823    2.0669   17.4883 H   0  0  0  0  0  0  0  0  0  0  0  0
    5.4954    0.4562   22.1797 H   0  0  0  0  0  0  0  0  0  0  0  0
    7.5951   -0.7786   24.8000 H   0  0  0  0  0  0  0  0  0  0  0  0
   11.0406   -2.1866   22.6351 H   0  0  0  0  0  0  0  0  0  0  0  0
    7.5664   -2.8674   26.1055 H   0  0  0  0  0  0  0  0  0  0  0  0
   11.0119   -4.2671   23.9461 H   0  0  0  0  0  0  0  0  0  0  0  0
   12.0970    2.3794   25.4707 H   0  0  0  0  0  0  0  0  0  0  0  0
   12.1347   -0.3890   22.1623 H   0  0  0  0  0  0  0  0  0  0  0  0
   15.1361    0.7449   22.0390 H   0  0  0  0  0  0  0  0  0  0  0  0
   15.5799    0.0134   23.6184 H   0  0  0  0  0  0  0  0  0  0  0  0
   14.6388   -0.9348   22.4393 H   0  0  0  0  0  0  0  0  0  0  0  0
    8.3310   -5.9654   27.3007 H   0  0  0  0  0  0  0  0  0  0  0  0
    7.2574   -4.9205   26.3190 H   0  0  0  0  0  0  0  0  0  0  0  0
    8.3382   -4.1986   27.5402 H   0  0  0  0  0  0  0  0  0  0  0  0
    9.5794    0.9574   24.7855 H   0  0  0  0  0  0  0  0  0  0  0  0
    9.6220    1.9844   23.3519 H   0  0  0  0  0  0  0  0  0  0  0  0
    8.7066   -1.7479   20.6383 H   0  0  0  0  0  0  0  0  0  0  0  0
    7.4345   -1.4041   21.8461 H   0  0  0  0  0  0  0  0  0  0  0  0
  1  2  1  0  0  0  0
  1  3  2  0  0  0  0
  2  4  2  0  0  0  0
  3 12  1  0  0  0  0
  4 13  1  0  0  0  0
  5  7  2  0  0  0  0
  5 14  1  0  0  0  0
  6  8  1  0  0  0  0
  6 14  2  0  0  0  0
  7 15  1  0  0  0  0
  8 15  2  0  0  0  0
  9 11  1  0  0  0  0
  9 21  2  0  0  0  0
 10 11  2  0  0  0  0
 10 24  1  0  0  0  0
 11 19  1  0  0  0  0
 12 13  2  0  0  0  0
 12 22  1  0  0  0  0
 13 25  1  0  0  0  0
 14 26  1  0  0  0  0
 15 28  1  0  0  0  0
 16 20  1  0  0  0  0
 16 26  1  0  0  0  0
 16 27  2  0  0  0  0
 17 24  1  0  0  0  0
 18 28  1  0  0  0  0
 19 26  1  0  0  0  0
 20 25  1  0  0  0  0
 21 24  1  0  0  0  0
 22 23  2  0  0  0  0
 23 25  1  0  0  0  0
  1 29  1  0  0  0  0
  2 30  1  0  0  0  0
  3 31  1  0  0  0  0
  4 32  1  0  0  0  0
  5 33  1  0  0  0  0
  6 34  1  0  0  0  0
  7 35  1  0  0  0  0
  8 36  1  0  0  0  0
  9 37  1  0  0  0  0
 10 38  1  0  0  0  0
 17 39  1  0  0  0  0
 17 40  1  0  0  0  0
 17 41  1  0  0  0  0
 18 42  1  0  0  0  0
 18 43  1  0  0  0  0
 18 44  1  0  0  0  0
 19 45  1  0  0  0  0
 19 46  1  0  0  0  0
 20 47  1  0  0  0  0
 20 48  1  0  0  0  0
M  END
> <clash_score>
0

> <docking_score>
-9.33539867401123

> <overlap_score>
0.971515953540802

$$$$
BENZO_354_1
  -OEChem-08232013503D

 48 51  0     0  0  0  0  0  0999 V2000
    4.0980    2.1130   19.5350 C   0  0  0  0  0  0  0  0  0  0  0  0
    4.2970    1.6690   20.8430 C   0  0  0  0  0  0  0  0  0  0  0  0
   13.6128    1.8896   23.0651 C   0  0  0  0  0  0  0  0  0  0  0  0
   12.2186    1.9194   23.0389 C   0  0  0  0  0  0  0  0  0  0  0  0
    4.9400    1.7060   18.5060 C   0  0  0  0  0  0  0  0  0  0  0  0
    5.3360    0.8000   21.1530 C   0  0  0  0  0  0  0  0  0  0  0  0
    8.3510   -1.5420   24.6110 C   0  0  0  0  0  0  0  0  0  0  0  0
   10.2760   -2.3270   23.4020 C   0  0  0  0  0  0  0  0  0  0  0  0
    8.3310   -2.7170   25.3430 C   0  0  0  0  0  0  0  0  0  0  0  0
   10.2570   -3.5000   24.1350 C   0  0  0  0  0  0  0  0  0  0  0  0
   14.2756    0.9477   23.8519 C   0  0  0  0  0  0  0  0  0  0  0  0
   12.1498    0.0655   24.5866 C   0  0  0  0  0  0  0  0  0  0  0  0
   11.4870    1.0074   23.7996 C   0  0  0  0  0  0  0  0  0  0  0  0
    5.9810    0.8330   18.8060 C   0  0  0  0  0  0  0  0  0  0  0  0
    6.1600    0.3870   20.1140 C   0  0  0  0  0  0  0  0  0  0  0  0
    9.3300   -1.3350   23.6390 C   0  0  0  0  0  0  0  0  0  0  0  0
    9.2850   -3.7090   25.1090 C   0  0  0  0  0  0  0  0  0  0  0  0
   13.5441    0.0357   24.6127 C   0  0  0  0  0  0  0  0  0  0  0  0
    8.9510    0.1280   21.6880 C   0  0  0  0  0  0  0  0  0  0  0  0
    8.2346   -4.9977   26.8024 C   0  0  0  0  0  0  0  0  0  0  0  0
    9.9863    1.0409   23.7719 C   0  0  0  0  0  0  0  0  0  0  0  0
    8.0810   -0.9750   21.0820 C   0  0  0  0  0  0  0  0  0  0  0  0
    6.9440    0.2550   18.0100 N   0  0  0  0  0  0  0  0  0  0  0  0
    7.6830   -0.5170   18.7600 N   0  0  0  0  0  0  0  0  0  0  0  0
    7.2210   -0.4620   20.0350 N   0  0  0  0  0  0  0  0  0  0  0  0
    9.4200   -0.0840   22.9530 N   0  0  0  0  0  0  0  0  0  0  0  0
    9.1870    1.1500   21.0630 O   0  0  0  0  0  0  0  0  0  0  0  0
    9.2631   -4.8614   25.8229 O   0  0  0  0  0  0  0  0  0  0  0  0
   14.3624   -1.1255   25.5843 Cl  0  0  0  0  0  0  0  0  0  0  0  0
    3.2714    2.7873   19.3199 H   0  0  0  0  0  0  0  0  0  0  0  0
    3.6281    2.0093   21.6291 H   0  0  0  0  0  0  0  0  0  0  0  0
   14.1821    2.6000   22.4726 H   0  0  0  0  0  0  0  0  0  0  0  0
   11.7105    2.6569   22.4229 H   0  0  0  0  0  0  0  0  0  0  0  0
    4.7823    2.0669   17.4883 H   0  0  0  0  0  0  0  0  0  0  0  0
    5.4954    0.4562   22.1797 H   0  0  0  0  0  0  0  0  0  0  0  0
    7.5951   -0.7786   24.8000 H   0  0  0  0  0  0  0  0  0  0  0  0
   11.0406   -2.1866   22.6351 H   0  0  0  0  0  0  0  0  0  0  0  0
    7.5664   -2.8674   26.1055 H   0  0  0  0  0  0  0  0  0  0  0  0
   11.0119   -4.2671   23.9461 H   0  0  0  0  0  0  0  0  0  0  0  0
   15.3628    0.9363   23.8628 H   0  0  0  0  0  0  0  0  0  0  0  0
   11.5749   -0.6438   25.1775 H   0  0  0  0  0  0  0  0  0  0  0  0
    8.3310   -5.9654   27.3007 H   0  0  0  0  0  0  0  0  0  0  0  0
    7.2574   -4.9205   26.3190 H   0  0  0  0  0  0  0  0  0  0  0  0
    8.3382   -4.1986   27.5402 H   0  0  0  0  0  0  0  0  0  0  0  0
    9.5794    0.9574   24.7855 H   0  0  0  0  0  0  0  0  0  0  0  0
    9.6220    1.9844   23.3519 H   0  0  0  0  0  0  0  0  0  0  0  0
    8.7066   -1.7479   20.6383 H   0  0  0  0  0  0  0  0  0  0  0  0
    7.4345   -1.4041   21.8461 H   0  0  0  0  0  0  0  0  0  0  0  0
  1  2  1  0  0  0  0
  1  5  2  0  0  0  0
  2  6  2  0  0  0  0
  3  4  2  0  0  0  0
  3 11  1  0  0  0  0
  4 13  1  0  0  0  0
  5 14  1  0  0  0  0
  6 15  1  0  0  0  0
  7  9  2  0  0  0  0
  7 16  1  0  0  0  0
  8 10  1  0  0  0  0
  8 16  2  0  0  0  0
  9 17  1  0  0  0  0
 10 17  2  0  0  0  0
 11 18  2  0  0  0  0
 12 13  2  0  0  0  0
 12 18  1  0  0  0  0
 13 21  1  0  0  0  0
 14 15  2  0  0  0  0
 14 23  1  0  0  0  0
 15 25  1  0  0  0  0
 16 26  1  0  0  0  0
 17 28  1  0  0  0  0
 18 29  1  0  0  0  0
 19 22  1  0  0  0  0
 19 26  1  0  0  0  0
 19 27  2  0  0  0  0
 20 28  1  0  0  0  0
 21 26  1  0  0  0  0
 22 25  1  0  0  0  0
 23 24  2  0  0  0  0
 24 25  1  0  0  0  0
  1 30  1  0  0  0  0
  2 31  1  0  0  0  0
  3 32  1  0  0  0  0
  4 33  1  0  0  0  0
  5 34  1  0  0  0  0
  6 35  1  0  0  0  0
  7 36  1  0  0  0  0
  8 37  1  0  0  0  0
  9 38  1  0  0  0  0
 10 39  1  0  0  0  0
 11 40  1  0  0  0  0
 12 41  1  0  0  0  0
 20 42  1  0  0  0  0
 20 43  1  0  0  0  0
 20 44  1  0  0  0  0
 21 45  1  0  0  0  0
 21 46  1  0  0  0  0
 22 47  1  0  0  0  0
 22 48  1  0  0  0  0
M  END
> <clash_score>
0.7592402605425311

> <docking_score>
-8.370400428771973

> <overlap_score>
0.987454354763031

$$$$
BENZO_357_1
  -OEChem-08232013503D

 58 62  0     0  0  0  0  0  0999 V2000
   14.2751    1.0084   23.8710 C   0  0  0  0  0  0  0  0  0  0  0  0
   13.5424    0.3380   24.8504 C   0  0  0  0  0  0  0  0  0  0  0  0
   13.6136    1.6969   22.8541 C   0  0  0  0  0  0  0  0  0  0  0  0
    4.0980    2.1130   19.5350 C   0  0  0  0  0  0  0  0  0  0  0  0
    4.2970    1.6690   20.8430 C   0  0  0  0  0  0  0  0  0  0  0  0
   12.1482    0.3559   24.8128 C   0  0  0  0  0  0  0  0  0  0  0  0
   12.2194    1.7147   22.8165 C   0  0  0  0  0  0  0  0  0  0  0  0
    4.9400    1.7060   18.5060 C   0  0  0  0  0  0  0  0  0  0  0  0
    5.3360    0.8000   21.1530 C   0  0  0  0  0  0  0  0  0  0  0  0
    8.3310   -2.7170   25.3430 C   0  0  0  0  0  0  0  0  0  0  0  0
   10.2570   -3.5000   24.1350 C   0  0  0  0  0  0  0  0  0  0  0  0
    8.3510   -1.5420   24.6110 C   0  0  0  0  0  0  0  0  0  0  0  0
   10.2760   -2.3270   23.4020 C   0  0  0  0  0  0  0  0  0  0  0  0
   11.4866    1.0443   23.7958 C   0  0  0  0  0  0  0  0  0  0  0  0
    5.9810    0.8330   18.8060 C   0  0  0  0  0  0  0  0  0  0  0  0
    6.1600    0.3870   20.1140 C   0  0  0  0  0  0  0  0  0  0  0  0
    9.2850   -3.7090   25.1090 C   0  0  0  0  0  0  0  0  0  0  0  0
    9.3300   -1.3350   23.6390 C   0  0  0  0  0  0  0  0  0  0  0  0
    8.0635   -5.4710   26.3667 C   0  0  0  0  0  0  0  0  0  0  0  0
    8.9510    0.1280   21.6880 C   0  0  0  0  0  0  0  0  0  0  0  0
    8.2626   -6.7580   27.1475 C   0  0  0  0  0  0  0  0  0  0  0  0
    9.4048   -6.6156   28.1380 C   0  0  0  0  0  0  0  0  0  0  0  0
   10.6949   -6.1500   27.4702 C   0  0  0  0  0  0  0  0  0  0  0  0
   10.4942   -5.7069   26.0219 C   0  0  0  0  0  0  0  0  0  0  0  0
    9.9859    1.0637   23.7546 C   0  0  0  0  0  0  0  0  0  0  0  0
    8.0810   -0.9750   21.0820 C   0  0  0  0  0  0  0  0  0  0  0  0
    6.9440    0.2550   18.0100 N   0  0  0  0  0  0  0  0  0  0  0  0
    7.6830   -0.5170   18.7600 N   0  0  0  0  0  0  0  0  0  0  0  0
    7.2210   -0.4620   20.0350 N   0  0  0  0  0  0  0  0  0  0  0  0
    9.2623   -4.9266   25.8635 N   0  0  0  0  0  0  0  0  0  0  0  0
    9.4200   -0.0840   22.9530 N   0  0  0  0  0  0  0  0  0  0  0  0
    6.9244   -5.0476   26.1739 O   0  0  0  0  0  0  0  0  0  0  0  0
    9.1870    1.1500   21.0630 O   0  0  0  0  0  0  0  0  0  0  0  0
   15.3607    0.9955   23.9012 H   0  0  0  0  0  0  0  0  0  0  0  0
   14.0573   -0.1972   25.6430 H   0  0  0  0  0  0  0  0  0  0  0  0
   14.1838    2.2199   22.0920 H   0  0  0  0  0  0  0  0  0  0  0  0
    3.2714    2.7873   19.3199 H   0  0  0  0  0  0  0  0  0  0  0  0
    3.6281    2.0093   21.6291 H   0  0  0  0  0  0  0  0  0  0  0  0
   11.5854   -0.1695   25.5800 H   0  0  0  0  0  0  0  0  0  0  0  0
   11.7126    2.2536   22.0203 H   0  0  0  0  0  0  0  0  0  0  0  0
    4.7823    2.0669   17.4883 H   0  0  0  0  0  0  0  0  0  0  0  0
    5.4954    0.4562   22.1797 H   0  0  0  0  0  0  0  0  0  0  0  0
    7.5639   -2.8621   26.1045 H   0  0  0  0  0  0  0  0  0  0  0  0
   11.0141   -4.2644   23.9422 H   0  0  0  0  0  0  0  0  0  0  0  0
    7.5950   -0.7788   24.8007 H   0  0  0  0  0  0  0  0  0  0  0  0
   11.0408   -2.1861   22.6359 H   0  0  0  0  0  0  0  0  0  0  0  0
    7.3516   -6.9810   27.6812 H   0  0  0  0  0  0  0  0  0  0  0  0
    8.4757   -7.5428   26.4371 H   0  0  0  0  0  0  0  0  0  0  0  0
    9.1234   -5.9016   28.9400 H   0  0  0  0  0  0  0  0  0  0  0  0
    9.5778   -7.5840   28.6491 H   0  0  0  0  0  0  0  0  0  0  0  0
   11.1305   -5.3108   28.0523 H   0  0  0  0  0  0  0  0  0  0  0  0
   11.4565   -6.9587   27.5131 H   0  0  0  0  0  0  0  0  0  0  0  0
   11.3212   -5.0729   25.7168 H   0  0  0  0  0  0  0  0  0  0  0  0
   10.4483   -6.5796   25.3796 H   0  0  0  0  0  0  0  0  0  0  0  0
    9.5708    0.9742   24.7644 H   0  0  0  0  0  0  0  0  0  0  0  0
    9.6165    2.0046   23.3334 H   0  0  0  0  0  0  0  0  0  0  0  0
    8.7136   -1.7499   20.6462 H   0  0  0  0  0  0  0  0  0  0  0  0
    7.4415   -1.4060   21.8540 H   0  0  0  0  0  0  0  0  0  0  0  0
  1  2  1  0  0  0  0
  1  3  2  0  0  0  0
  2  6  2  0  0  0  0
  3  7  1  0  0  0  0
  4  5  1  0  0  0  0
  4  8  2  0  0  0  0
  5  9  2  0  0  0  0
  6 14  1  0  0  0  0
  7 14  2  0  0  0  0
  8 15  1  0  0  0  0
  9 16  1  0  0  0  0
 10 12  2  0  0  0  0
 10 17  1  0  0  0  0
 11 13  1  0  0  0  0
 11 17  2  0  0  0  0
 12 18  1  0  0  0  0
 13 18  2  0  0  0  0
 14 25  1  0  0  0  0
 15 16  2  0  0  0  0
 15 27  1  0  0  0  0
 16 29  1  0  0  0  0
 17 30  1  0  0  0  0
 18 31  1  0  0  0  0
 19 21  1  0  0  0  0
 19 30  1  0  0  0  0
 19 32  2  0  0  0  0
 20 26  1  0  0  0  0
 20 31  1  0  0  0  0
 20 33  2  0  0  0  0
 21 22  1  0  0  0  0
 22 23  1  0  0  0  0
 23 24  1  0  0  0  0
 24 30  1  0  0  0  0
 25 31  1  0  0  0  0
 26 29  1  0  0  0  0
 27 28  2  0  0  0  0
 28 29  1  0  0  0  0
  1 34  1  0  0  0  0
  2 35  1  0  0  0  0
  3 36  1  0  0  0  0
  4 37  1  0  0  0  0
  5 38  1  0  0  0  0
  6 39  1  0  0  0  0
  7 40  1  0  0  0  0
  8 41  1  0  0  0  0
  9 42  1  0  0  0  0
 10 43  1  0  0  0  0
 11 44  1  0  0  0  0
 12 45  1  0  0  0  0
 13 46  1  0  0  0  0
 21 47  1  0  0  0  0
 21 48  1  0  0  0  0
 22 49  1  0  0  0  0
 22 50  1  0  0  0  0
 23 51  1  0  0  0  0
 23 52  1  0  0  0  0
 24 53  1  0  0  0  0
 24 54  1  0  0  0  0
 25 55  1  0  0  0  0
 25 56  1  0  0  0  0
 26 57  1  0  0  0  0
 26 58  1  0  0  0  0
M  END
> <clash_score>
1.272782601224562

> <docking_score>
-8.068114280700684

> <overlap_score>
1.0062389373779297

$$$$
BENZO_356_1
  -OEChem-08232013503D

 55 59  0     0  0  0  0  0  0999 V2000
    4.0980    2.1130   19.5350 C   0  0  0  0  0  0  0  0  0  0  0  0
    4.2970    1.6690   20.8430 C   0  0  0  0  0  0  0  0  0  0  0  0
    4.9400    1.7060   18.5060 C   0  0  0  0  0  0  0  0  0  0  0  0
    5.3360    0.8000   21.1530 C   0  0  0  0  0  0  0  0  0  0  0  0
    8.3310   -2.7170   25.3430 C   0  0  0  0  0  0  0  0  0  0  0  0
   10.2570   -3.5000   24.1350 C   0  0  0  0  0  0  0  0  0  0  0  0
    8.3510   -1.5420   24.6110 C   0  0  0  0  0  0  0  0  0  0  0  0
   10.2760   -2.3270   23.4020 C   0  0  0  0  0  0  0  0  0  0  0  0
   12.3146    1.1431   22.6404 C   0  0  0  0  0  0  0  0  0  0  0  0
   13.6541    1.0988   22.9584 C   0  0  0  0  0  0  0  0  0  0  0  0
   12.2251    0.9280   24.9530 C   0  0  0  0  0  0  0  0  0  0  0  0
   11.4866    1.0443   23.7958 C   0  0  0  0  0  0  0  0  0  0  0  0
    5.9810    0.8330   18.8060 C   0  0  0  0  0  0  0  0  0  0  0  0
    6.1600    0.3870   20.1140 C   0  0  0  0  0  0  0  0  0  0  0  0
    9.2850   -3.7090   25.1090 C   0  0  0  0  0  0  0  0  0  0  0  0
    9.3300   -1.3350   23.6390 C   0  0  0  0  0  0  0  0  0  0  0  0
    8.0635   -5.4710   26.3667 C   0  0  0  0  0  0  0  0  0  0  0  0
    8.9510    0.1280   21.6880 C   0  0  0  0  0  0  0  0  0  0  0  0
    8.2626   -6.7580   27.1475 C   0  0  0  0  0  0  0  0  0  0  0  0
    9.4048   -6.6156   28.1380 C   0  0  0  0  0  0  0  0  0  0  0  0
   10.6949   -6.1500   27.4702 C   0  0  0  0  0  0  0  0  0  0  0  0
   10.4942   -5.7069   26.0219 C   0  0  0  0  0  0  0  0  0  0  0  0
    9.9859    1.0637   23.7546 C   0  0  0  0  0  0  0  0  0  0  0  0
    8.0810   -0.9750   21.0820 C   0  0  0  0  0  0  0  0  0  0  0  0
    6.9440    0.2550   18.0100 N   0  0  0  0  0  0  0  0  0  0  0  0
    7.6830   -0.5170   18.7600 N   0  0  0  0  0  0  0  0  0  0  0  0
    7.2210   -0.4620   20.0350 N   0  0  0  0  0  0  0  0  0  0  0  0
    9.2623   -4.9266   25.8635 N   0  0  0  0  0  0  0  0  0  0  0  0
    9.4200   -0.0840   22.9530 N   0  0  0  0  0  0  0  0  0  0  0  0
    6.9244   -5.0476   26.1739 O   0  0  0  0  0  0  0  0  0  0  0  0
    9.1870    1.1500   21.0630 O   0  0  0  0  0  0  0  0  0  0  0  0
   13.9093    0.9386   24.6441 S   0  0  0  0  0  0  0  0  0  0  0  0
    3.2714    2.7873   19.3199 H   0  0  0  0  0  0  0  0  0  0  0  0
    3.6281    2.0093   21.6291 H   0  0  0  0  0  0  0  0  0  0  0  0
    4.7823    2.0669   17.4883 H   0  0  0  0  0  0  0  0  0  0  0  0
    5.4954    0.4562   22.1797 H   0  0  0  0  0  0  0  0  0  0  0  0
    7.5639   -2.8621   26.1045 H   0  0  0  0  0  0  0  0  0  0  0  0
   11.0141   -4.2644   23.9422 H   0  0  0  0  0  0  0  0  0  0  0  0
    7.5950   -0.7788   24.8007 H   0  0  0  0  0  0  0  0  0  0  0  0
   11.0408   -2.1861   22.6359 H   0  0  0  0  0  0  0  0  0  0  0  0
   11.9502    1.2413   21.6256 H   0  0  0  0  0  0  0  0  0  0  0  0
   14.4951    1.1522   22.2816 H   0  0  0  0  0  0  0  0  0  0  0  0
   11.8602    0.8360   25.9667 H   0  0  0  0  0  0  0  0  0  0  0  0
    7.3516   -6.9810   27.6812 H   0  0  0  0  0  0  0  0  0  0  0  0
    8.4757   -7.5428   26.4371 H   0  0  0  0  0  0  0  0  0  0  0  0
    9.1234   -5.9016   28.9400 H   0  0  0  0  0  0  0  0  0  0  0  0
    9.5778   -7.5840   28.6491 H   0  0  0  0  0  0  0  0  0  0  0  0
   11.1305   -5.3108   28.0523 H   0  0  0  0  0  0  0  0  0  0  0  0
   11.4565   -6.9587   27.5131 H   0  0  0  0  0  0  0  0  0  0  0  0
   11.3212   -5.0729   25.7168 H   0  0  0  0  0  0  0  0  0  0  0  0
   10.4483   -6.5796   25.3796 H   0  0  0  0  0  0  0  0  0  0  0  0
    9.5708    0.9742   24.7644 H   0  0  0  0  0  0  0  0  0  0  0  0
    9.6165    2.0046   23.3334 H   0  0  0  0  0  0  0  0  0  0  0  0
    8.7136   -1.7499   20.6462 H   0  0  0  0  0  0  0  0  0  0  0  0
    7.4415   -1.4060   21.8540 H   0  0  0  0  0  0  0  0  0  0  0  0
  1  2  1  0  0  0  0
  1  3  2  0  0  0  0
  2  4  2  0  0  0  0
  3 13  1  0  0  0  0
  4 14  1  0  0  0  0
  5  7  2  0  0  0  0
  5 15  1  0  0  0  0
  6  8  1  0  0  0  0
  6 15  2  0  0  0  0
  7 16  1  0  0  0  0
  8 16  2  0  0  0  0
  9 10  2  0  0  0  0
  9 12  1  0  0  0  0
 10 32  1  0  0  0  0
 11 12  2  0  0  0  0
 11 32  1  0  0  0  0
 12 23  1  0  0  0  0
 13 14  2  0  0  0  0
 13 25  1  0  0  0  0
 14 27  1  0  0  0  0
 15 28  1  0  0  0  0
 16 29  1  0  0  0  0
 17 19  1  0  0  0  0
 17 28  1  0  0  0  0
 17 30  2  0  0  0  0
 18 24  1  0  0  0  0
 18 29  1  0  0  0  0
 18 31  2  0  0  0  0
 19 20  1  0  0  0  0
 20 21  1  0  0  0  0
 21 22  1  0  0  0  0
 22 28  1  0  0  0  0
 23 29  1  0  0  0  0
 24 27  1  0  0  0  0
 25 26  2  0  0  0  0
 26 27  1  0  0  0  0
  1 33  1  0  0  0  0
  2 34  1  0  0  0  0
  3 35  1  0  0  0  0
  4 36  1  0  0  0  0
  5 37  1  0  0  0  0
  6 38  1  0  0  0  0
  7 39  1  0  0  0  0
  8 40  1  0  0  0  0
  9 41  1  0  0  0  0
 10 42  1  0  0  0  0
 11 43  1  0  0  0  0
 19 44  1  0  0  0  0
 19 45  1  0  0  0  0
 20 46  1  0  0  0  0
 20 47  1  0  0  0  0
 21 48  1  0  0  0  0
 21 49  1  0  0  0  0
 22 50  1  0  0  0  0
 22 51  1  0  0  0  0
 23 52  1  0  0  0  0
 23 53  1  0  0  0  0
 24 54  1  0  0  0  0
 24 55  1  0  0  0  0
M  END
> <clash_score>
1.272782601224562

> <docking_score>
-8.43298625946045

> <overlap_score>
0.9856139421463013

$$$$
BENZO_359_1
  -OEChem-08232013503D

 58 62  0     0  0  0  0  0  0999 V2000
    4.0980    2.1130   19.5350 C   0  0  0  0  0  0  0  0  0  0  0  0
    4.2970    1.6690   20.8430 C   0  0  0  0  0  0  0  0  0  0  0  0
    4.9400    1.7060   18.5060 C   0  0  0  0  0  0  0  0  0  0  0  0
    5.3360    0.8000   21.1530 C   0  0  0  0  0  0  0  0  0  0  0  0
    8.3310   -2.7170   25.3430 C   0  0  0  0  0  0  0  0  0  0  0  0
   10.2570   -3.5000   24.1350 C   0  0  0  0  0  0  0  0  0  0  0  0
    8.3510   -1.5420   24.6110 C   0  0  0  0  0  0  0  0  0  0  0  0
   10.2760   -2.3270   23.4020 C   0  0  0  0  0  0  0  0  0  0  0  0
   12.3358    1.7431   24.6746 C   0  0  0  0  0  0  0  0  0  0  0  0
   12.3395    0.3368   22.9843 C   0  0  0  0  0  0  0  0  0  0  0  0
   11.4866    1.0443   23.7958 C   0  0  0  0  0  0  0  0  0  0  0  0
    5.9810    0.8330   18.8060 C   0  0  0  0  0  0  0  0  0  0  0  0
    6.1600    0.3870   20.1140 C   0  0  0  0  0  0  0  0  0  0  0  0
    9.2850   -3.7090   25.1090 C   0  0  0  0  0  0  0  0  0  0  0  0
    9.3300   -1.3350   23.6390 C   0  0  0  0  0  0  0  0  0  0  0  0
    8.2930   -5.1714   26.8572 C   0  0  0  0  0  0  0  0  0  0  0  0
    8.9510    0.1280   21.6880 C   0  0  0  0  0  0  0  0  0  0  0  0
    8.4551   -6.5156   27.5444 C   0  0  0  0  0  0  0  0  0  0  0  0
    9.9019   -6.7444   27.9450 C   0  0  0  0  0  0  0  0  0  0  0  0
   10.8596   -6.5882   26.7680 C   0  0  0  0  0  0  0  0  0  0  0  0
   10.1895   -6.0108   25.5223 C   0  0  0  0  0  0  0  0  0  0  0  0
   14.8344    0.1386   22.8606 C   0  0  0  0  0  0  0  0  0  0  0  0
    9.9859    1.0637   23.7546 C   0  0  0  0  0  0  0  0  0  0  0  0
    8.0810   -0.9750   21.0820 C   0  0  0  0  0  0  0  0  0  0  0  0
   13.6289    1.5015   24.4434 N   0  0  0  0  0  0  0  0  0  0  0  0
    6.9440    0.2550   18.0100 N   0  0  0  0  0  0  0  0  0  0  0  0
    7.6830   -0.5170   18.7600 N   0  0  0  0  0  0  0  0  0  0  0  0
   13.5986    0.6428   23.4100 N   0  0  0  0  0  0  0  0  0  0  0  0
    7.2210   -0.4620   20.0350 N   0  0  0  0  0  0  0  0  0  0  0  0
    9.2623   -4.9266   25.8635 N   0  0  0  0  0  0  0  0  0  0  0  0
    9.4200   -0.0840   22.9530 N   0  0  0  0  0  0  0  0  0  0  0  0
    7.3370   -4.4527   27.1463 O   0  0  0  0  0  0  0  0  0  0  0  0
    9.1870    1.1500   21.0630 O   0  0  0  0  0  0  0  0  0  0  0  0
    3.2714    2.7873   19.3199 H   0  0  0  0  0  0  0  0  0  0  0  0
    3.6281    2.0093   21.6291 H   0  0  0  0  0  0  0  0  0  0  0  0
    4.7823    2.0669   17.4883 H   0  0  0  0  0  0  0  0  0  0  0  0
    5.4954    0.4562   22.1797 H   0  0  0  0  0  0  0  0  0  0  0  0
    7.5639   -2.8621   26.1045 H   0  0  0  0  0  0  0  0  0  0  0  0
   11.0141   -4.2644   23.9422 H   0  0  0  0  0  0  0  0  0  0  0  0
    7.5950   -0.7788   24.8007 H   0  0  0  0  0  0  0  0  0  0  0  0
   11.0408   -2.1861   22.6359 H   0  0  0  0  0  0  0  0  0  0  0  0
   12.0685    2.4183   25.4753 H   0  0  0  0  0  0  0  0  0  0  0  0
   12.1621   -0.3424   22.1615 H   0  0  0  0  0  0  0  0  0  0  0  0
    7.8332   -6.5283   28.4263 H   0  0  0  0  0  0  0  0  0  0  0  0
    8.1305   -7.2787   26.8530 H   0  0  0  0  0  0  0  0  0  0  0  0
   10.1875   -6.0379   28.7521 H   0  0  0  0  0  0  0  0  0  0  0  0
   10.0116   -7.7568   28.3834 H   0  0  0  0  0  0  0  0  0  0  0  0
   11.7061   -5.9337   27.0644 H   0  0  0  0  0  0  0  0  0  0  0  0
   11.3230   -7.5689   26.5243 H   0  0  0  0  0  0  0  0  0  0  0  0
   10.9445   -5.5959   24.8614 H   0  0  0  0  0  0  0  0  0  0  0  0
    9.6461   -6.7954   25.0072 H   0  0  0  0  0  0  0  0  0  0  0  0
   15.1537    0.8199   22.0676 H   0  0  0  0  0  0  0  0  0  0  0  0
   15.5901    0.0891   23.6495 H   0  0  0  0  0  0  0  0  0  0  0  0
   14.6687   -0.8653   22.4600 H   0  0  0  0  0  0  0  0  0  0  0  0
    9.5708    0.9742   24.7644 H   0  0  0  0  0  0  0  0  0  0  0  0
    9.6165    2.0046   23.3334 H   0  0  0  0  0  0  0  0  0  0  0  0
    8.7136   -1.7499   20.6462 H   0  0  0  0  0  0  0  0  0  0  0  0
    7.4415   -1.4060   21.8540 H   0  0  0  0  0  0  0  0  0  0  0  0
  1  2  1  0  0  0  0
  1  3  2  0  0  0  0
  2  4  2  0  0  0  0
  3 12  1  0  0  0  0
  4 13  1  0  0  0  0
  5  7  2  0  0  0  0
  5 14  1  0  0  0  0
  6  8  1  0  0  0  0
  6 14  2  0  0  0  0
  7 15  1  0  0  0  0
  8 15  2  0  0  0  0
  9 11  1  0  0  0  0
  9 25  2  0  0  0  0
 10 11  2  0  0  0  0
 10 28  1  0  0  0  0
 11 23  1  0  0  0  0
 12 13  2  0  0  0  0
 12 26  1  0  0  0  0
 13 29  1  0  0  0  0
 14 30  1  0  0  0  0
 15 31  1  0  0  0  0
 16 18  1  0  0  0  0
 16 30  1  0  0  0  0
 16 32  2  0  0  0  0
 17 24  1  0  0  0  0
 17 31  1  0  0  0  0
 17 33  2  0  0  0  0
 18 19  1  0  0  0  0
 19 20  1  0  0  0  0
 20 21  1  0  0  0  0
 21 30  1  0  0  0  0
 22 28  1  0  0  0  0
 23 31  1  0  0  0  0
 24 29  1  0  0  0  0
 25 28  1  0  0  0  0
 26 27  2  0  0  0  0
 27 29  1  0  0  0  0
  1 34  1  0  0  0  0
  2 35  1  0  0  0  0
  3 36  1  0  0  0  0
  4 37  1  0  0  0  0
  5 38  1  0  0  0  0
  6 39  1  0  0  0  0
  7 40  1  0  0  0  0
  8 41  1  0  0  0  0
  9 42  1  0  0  0  0
 10 43  1  0  0  0  0
 18 44  1  0  0  0  0
 18 45  1  0  0  0  0
 19 46  1  0  0  0  0
 19 47  1  0  0  0  0
 20 48  1  0  0  0  0
 20 49  1  0  0  0  0
 21 50  1  0  0  0  0
 21 51  1  0  0  0  0
 22 52  1  0  0  0  0
 22 53  1  0  0  0  0
 22 54  1  0  0  0  0
 23 55  1  0  0  0  0
 23 56  1  0  0  0  0
 24 57  1  0  0  0  0
 24 58  1  0  0  0  0
M  END
> <clash_score>
2.0596949410317893

> <docking_score>
-7.849429130554199

> <overlap_score>
0.993492841720581

$$$$
BENZO_361_1
  -OEChem-08232013503D

 57 61  0     0  0  0  0  0  0999 V2000
   14.2750    0.9910   23.8656 C   0  0  0  0  0  0  0  0  0  0  0  0
   13.5408    0.3239   24.8462 C   0  0  0  0  0  0  0  0  0  0  0  0
   13.6150    1.6817   22.8492 C   0  0  0  0  0  0  0  0  0  0  0  0
    4.0980    2.1130   19.5350 C   0  0  0  0  0  0  0  0  0  0  0  0
    4.2970    1.6690   20.8430 C   0  0  0  0  0  0  0  0  0  0  0  0
   12.1466    0.3475   24.8104 C   0  0  0  0  0  0  0  0  0  0  0  0
   12.2208    1.7053   22.8134 C   0  0  0  0  0  0  0  0  0  0  0  0
    4.9400    1.7060   18.5060 C   0  0  0  0  0  0  0  0  0  0  0  0
    5.3360    0.8000   21.1530 C   0  0  0  0  0  0  0  0  0  0  0  0
    8.3310   -2.7170   25.3430 C   0  0  0  0  0  0  0  0  0  0  0  0
   10.2570   -3.5000   24.1350 C   0  0  0  0  0  0  0  0  0  0  0  0
    8.3510   -1.5420   24.6110 C   0  0  0  0  0  0  0  0  0  0  0  0
   10.2760   -2.3270   23.4020 C   0  0  0  0  0  0  0  0  0  0  0  0
   11.4866    1.0382   23.7939 C   0  0  0  0  0  0  0  0  0  0  0  0
    5.9810    0.8330   18.8060 C   0  0  0  0  0  0  0  0  0  0  0  0
    6.1600    0.3870   20.1140 C   0  0  0  0  0  0  0  0  0  0  0  0
    9.2850   -3.7090   25.1090 C   0  0  0  0  0  0  0  0  0  0  0  0
    9.3300   -1.3350   23.6390 C   0  0  0  0  0  0  0  0  0  0  0  0
    8.9510    0.1280   21.6880 C   0  0  0  0  0  0  0  0  0  0  0  0
    8.7666   -4.9523   27.2147 C   0  0  0  0  0  0  0  0  0  0  0  0
    9.3034   -6.1866   25.1651 C   0  0  0  0  0  0  0  0  0  0  0  0
    7.3827   -5.5925   27.1999 C   0  0  0  0  0  0  0  0  0  0  0  0
    7.9024   -6.7967   25.2263 C   0  0  0  0  0  0  0  0  0  0  0  0
    9.9859    1.0637   23.7546 C   0  0  0  0  0  0  0  0  0  0  0  0
    8.0810   -0.9750   21.0820 C   0  0  0  0  0  0  0  0  0  0  0  0
    6.9440    0.2550   18.0100 N   0  0  0  0  0  0  0  0  0  0  0  0
    7.6830   -0.5170   18.7600 N   0  0  0  0  0  0  0  0  0  0  0  0
    7.2210   -0.4620   20.0350 N   0  0  0  0  0  0  0  0  0  0  0  0
    9.2640   -4.8844   25.8389 N   0  0  0  0  0  0  0  0  0  0  0  0
    9.4200   -0.0840   22.9530 N   0  0  0  0  0  0  0  0  0  0  0  0
    9.1870    1.1500   21.0630 O   0  0  0  0  0  0  0  0  0  0  0  0
    7.4483   -6.8833   26.5817 O   0  0  0  0  0  0  0  0  0  0  0  0
   15.3606    0.9736   23.8945 H   0  0  0  0  0  0  0  0  0  0  0  0
   14.0545   -0.2131   25.6383 H   0  0  0  0  0  0  0  0  0  0  0  0
   14.1864    2.2021   22.0863 H   0  0  0  0  0  0  0  0  0  0  0  0
    3.2714    2.7873   19.3199 H   0  0  0  0  0  0  0  0  0  0  0  0
    3.6281    2.0093   21.6291 H   0  0  0  0  0  0  0  0  0  0  0  0
   11.5827   -0.1753   25.5784 H   0  0  0  0  0  0  0  0  0  0  0  0
   11.7152    2.2459   22.0177 H   0  0  0  0  0  0  0  0  0  0  0  0
    4.7823    2.0669   17.4883 H   0  0  0  0  0  0  0  0  0  0  0  0
    5.4954    0.4562   22.1797 H   0  0  0  0  0  0  0  0  0  0  0  0
    7.5647   -2.8621   26.1053 H   0  0  0  0  0  0  0  0  0  0  0  0
   11.0144   -4.2642   23.9425 H   0  0  0  0  0  0  0  0  0  0  0  0
    7.5958   -0.7779   24.8006 H   0  0  0  0  0  0  0  0  0  0  0  0
   11.0406   -2.1848   22.6356 H   0  0  0  0  0  0  0  0  0  0  0  0
    8.7030   -3.9561   27.6574 H   0  0  0  0  0  0  0  0  0  0  0  0
    9.4460   -5.5639   27.8143 H   0  0  0  0  0  0  0  0  0  0  0  0
   10.0083   -6.8392   25.6817 H   0  0  0  0  0  0  0  0  0  0  0  0
    9.6089   -6.0802   24.1251 H   0  0  0  0  0  0  0  0  0  0  0  0
    7.0281   -5.7334   28.2231 H   0  0  0  0  0  0  0  0  0  0  0  0
    6.6541   -4.9678   26.6754 H   0  0  0  0  0  0  0  0  0  0  0  0
    7.1860   -6.2177   24.6318 H   0  0  0  0  0  0  0  0  0  0  0  0
    7.9246   -7.8119   24.8187 H   0  0  0  0  0  0  0  0  0  0  0  0
    9.5717    0.9756   24.7649 H   0  0  0  0  0  0  0  0  0  0  0  0
    9.6199    2.0062   23.3340 H   0  0  0  0  0  0  0  0  0  0  0  0
    8.7136   -1.7499   20.6462 H   0  0  0  0  0  0  0  0  0  0  0  0
    7.4415   -1.4060   21.8540 H   0  0  0  0  0  0  0  0  0  0  0  0
  1  2  1  0  0  0  0
  1  3  2  0  0  0  0
  2  6  2  0  0  0  0
  3  7  1  0  0  0  0
  4  5  1  0  0  0  0
  4  8  2  0  0  0  0
  5  9  2  0  0  0  0
  6 14  1  0  0  0  0
  7 14  2  0  0  0  0
  8 15  1  0  0  0  0
  9 16  1  0  0  0  0
 10 12  2  0  0  0  0
 10 17  1  0  0  0  0
 11 13  1  0  0  0  0
 11 17  2  0  0  0  0
 12 18  1  0  0  0  0
 13 18  2  0  0  0  0
 14 24  1  0  0  0  0
 15 16  2  0  0  0  0
 15 26  1  0  0  0  0
 16 28  1  0  0  0  0
 17 29  1  0  0  0  0
 18 30  1  0  0  0  0
 19 25  1  0  0  0  0
 19 30  1  0  0  0  0
 19 31  2  0  0  0  0
 20 22  1  0  0  0  0
 20 29  1  0  0  0  0
 21 23  1  0  0  0  0
 21 29  1  0  0  0  0
 22 32  1  0  0  0  0
 23 32  1  0  0  0  0
 24 30  1  0  0  0  0
 25 28  1  0  0  0  0
 26 27  2  0  0  0  0
 27 28  1  0  0  0  0
  1 33  1  0  0  0  0
  2 34  1  0  0  0  0
  3 35  1  0  0  0  0
  4 36  1  0  0  0  0
  5 37  1  0  0  0  0
  6 38  1  0  0  0  0
  7 39  1  0  0  0  0
  8 40  1  0  0  0  0
  9 41  1  0  0  0  0
 10 42  1  0  0  0  0
 11 43  1  0  0  0  0
 12 44  1  0  0  0  0
 13 45  1  0  0  0  0
 20 46  1  0  0  0  0
 20 47  1  0  0  0  0
 21 48  1  0  0  0  0
 21 49  1  0  0  0  0
 22 50  1  0  0  0  0
 22 51  1  0  0  0  0
 23 52  1  0  0  0  0
 23 53  1  0  0  0  0
 24 54  1  0  0  0  0
 24 55  1  0  0  0  0
 25 56  1  0  0  0  0
 25 57  1  0  0  0  0
M  END
> <clash_score>
0

> <docking_score>
-9.327756881713867

> <overlap_score>
1.006933331489563

$$$$
BENZO_358_1
  -OEChem-08232013503D

 58 62  0     0  0  0  0  0  0999 V2000
    4.0980    2.1130   19.5350 C   0  0  0  0  0  0  0  0  0  0  0  0
    4.2970    1.6690   20.8430 C   0  0  0  0  0  0  0  0  0  0  0  0
   13.6105    1.9480   23.0823 C   0  0  0  0  0  0  0  0  0  0  0  0
   12.2163    1.9648   23.0436 C   0  0  0  0  0  0  0  0  0  0  0  0
    4.9400    1.7060   18.5060 C   0  0  0  0  0  0  0  0  0  0  0  0
    5.3360    0.8000   21.1530 C   0  0  0  0  0  0  0  0  0  0  0  0
    8.3310   -2.7170   25.3430 C   0  0  0  0  0  0  0  0  0  0  0  0
   10.2570   -3.5000   24.1350 C   0  0  0  0  0  0  0  0  0  0  0  0
    8.3510   -1.5420   24.6110 C   0  0  0  0  0  0  0  0  0  0  0  0
   10.2760   -2.3270   23.4020 C   0  0  0  0  0  0  0  0  0  0  0  0
   14.2751    1.0106   23.8732 C   0  0  0  0  0  0  0  0  0  0  0  0
   12.1511    0.1069   24.5867 C   0  0  0  0  0  0  0  0  0  0  0  0
   11.4866    1.0443   23.7958 C   0  0  0  0  0  0  0  0  0  0  0  0
    5.9810    0.8330   18.8060 C   0  0  0  0  0  0  0  0  0  0  0  0
    6.1600    0.3870   20.1140 C   0  0  0  0  0  0  0  0  0  0  0  0
    9.2850   -3.7090   25.1090 C   0  0  0  0  0  0  0  0  0  0  0  0
    9.3300   -1.3350   23.6390 C   0  0  0  0  0  0  0  0  0  0  0  0
   13.5454    0.0901   24.6254 C   0  0  0  0  0  0  0  0  0  0  0  0
    8.2930   -5.1714   26.8572 C   0  0  0  0  0  0  0  0  0  0  0  0
    8.9510    0.1280   21.6880 C   0  0  0  0  0  0  0  0  0  0  0  0
    8.4551   -6.5156   27.5444 C   0  0  0  0  0  0  0  0  0  0  0  0
    9.9019   -6.7444   27.9450 C   0  0  0  0  0  0  0  0  0  0  0  0
   10.8596   -6.5882   26.7680 C   0  0  0  0  0  0  0  0  0  0  0  0
   10.1895   -6.0108   25.5223 C   0  0  0  0  0  0  0  0  0  0  0  0
    9.9859    1.0637   23.7546 C   0  0  0  0  0  0  0  0  0  0  0  0
    8.0810   -0.9750   21.0820 C   0  0  0  0  0  0  0  0  0  0  0  0
    6.9440    0.2550   18.0100 N   0  0  0  0  0  0  0  0  0  0  0  0
    7.6830   -0.5170   18.7600 N   0  0  0  0  0  0  0  0  0  0  0  0
    7.2210   -0.4620   20.0350 N   0  0  0  0  0  0  0  0  0  0  0  0
    9.2623   -4.9266   25.8635 N   0  0  0  0  0  0  0  0  0  0  0  0
    9.4200   -0.0840   22.9530 N   0  0  0  0  0  0  0  0  0  0  0  0
    7.3370   -4.4527   27.1463 O   0  0  0  0  0  0  0  0  0  0  0  0
    9.1870    1.1500   21.0630 O   0  0  0  0  0  0  0  0  0  0  0  0
   14.3658   -1.0654   25.6019 Cl  0  0  0  0  0  0  0  0  0  0  0  0
    3.2714    2.7873   19.3199 H   0  0  0  0  0  0  0  0  0  0  0  0
    3.6281    2.0093   21.6291 H   0  0  0  0  0  0  0  0  0  0  0  0
   14.1784    2.6650   22.4965 H   0  0  0  0  0  0  0  0  0  0  0  0
   11.7069    2.6987   22.4247 H   0  0  0  0  0  0  0  0  0  0  0  0
    4.7823    2.0669   17.4883 H   0  0  0  0  0  0  0  0  0  0  0  0
    5.4954    0.4562   22.1797 H   0  0  0  0  0  0  0  0  0  0  0  0
    7.5639   -2.8621   26.1045 H   0  0  0  0  0  0  0  0  0  0  0  0
   11.0141   -4.2644   23.9422 H   0  0  0  0  0  0  0  0  0  0  0  0
    7.5950   -0.7788   24.8007 H   0  0  0  0  0  0  0  0  0  0  0  0
   11.0408   -2.1861   22.6359 H   0  0  0  0  0  0  0  0  0  0  0  0
   15.3621    1.0094   23.8939 H   0  0  0  0  0  0  0  0  0  0  0  0
   11.5776   -0.6090   25.1710 H   0  0  0  0  0  0  0  0  0  0  0  0
    7.8332   -6.5283   28.4263 H   0  0  0  0  0  0  0  0  0  0  0  0
    8.1305   -7.2787   26.8530 H   0  0  0  0  0  0  0  0  0  0  0  0
   10.1875   -6.0379   28.7521 H   0  0  0  0  0  0  0  0  0  0  0  0
   10.0116   -7.7568   28.3834 H   0  0  0  0  0  0  0  0  0  0  0  0
   11.7061   -5.9337   27.0644 H   0  0  0  0  0  0  0  0  0  0  0  0
   11.3230   -7.5689   26.5243 H   0  0  0  0  0  0  0  0  0  0  0  0
   10.9445   -5.5959   24.8614 H   0  0  0  0  0  0  0  0  0  0  0  0
    9.6461   -6.7954   25.0072 H   0  0  0  0  0  0  0  0  0  0  0  0
    9.5708    0.9742   24.7644 H   0  0  0  0  0  0  0  0  0  0  0  0
    9.6165    2.0046   23.3334 H   0  0  0  0  0  0  0  0  0  0  0  0
    8.7136   -1.7499   20.6462 H   0  0  0  0  0  0  0  0  0  0  0  0
    7.4415   -1.4060   21.8540 H   0  0  0  0  0  0  0  0  0  0  0  0
  1  2  1  0  0  0  0
  1  5  2  0  0  0  0
  2  6  2  0  0  0  0
  3  4  2  0  0  0  0
  3 11  1  0  0  0  0
  4 13  1  0  0  0  0
  5 14  1  0  0  0  0
  6 15  1  0  0  0  0
  7  9  2  0  0  0  0
  7 16  1  0  0  0  0
  8 10  1  0  0  0  0
  8 16  2  0  0  0  0
  9 17  1  0  0  0  0
 10 17  2  0  0  0  0
 11 18  2  0  0  0  0
 12 13  2  0  0  0  0
 12 18  1  0  0  0  0
 13 25  1  0  0  0  0
 14 15  2  0  0  0  0
 14 27  1  0  0  0  0
 15 29  1  0  0  0  0
 16 30  1  0  0  0  0
 17 31  1  0  0  0  0
 18 34  1  0  0  0  0
 19 21  1  0  0  0  0
 19 30  1  0  0  0  0
 19 32  2  0  0  0  0
 20 26  1  0  0  0  0
 20 31  1  0  0  0  0
 20 33  2  0  0  0  0
 21 22  1  0  0  0  0
 22 23  1  0  0  0  0
 23 24  1  0  0  0  0
 24 30  1  0  0  0  0
 25 31  1  0  0  0  0
 26 29  1  0  0  0  0
 27 28  2  0  0  0  0
 28 29  1  0  0  0  0
  1 35  1  0  0  0  0
  2 36  1  0  0  0  0
  3 37  1  0  0  0  0
  4 38  1  0  0  0  0
  5 39  1  0  0  0  0
  6 40  1  0  0  0  0
  7 41  1  0  0  0  0
  8 42  1  0  0  0  0
  9 43  1  0  0  0  0
 10 44  1  0  0  0  0
 11 45  1  0  0  0  0
 12 46  1  0  0  0  0
 21 47  1  0  0  0  0
 21 48  1  0  0  0  0
 22 49  1  0  0  0  0
 22 50  1  0  0  0  0
 23 51  1  0  0  0  0
 23 52  1  0  0  0  0
 24 53  1  0  0  0  0
 24 54  1  0  0  0  0
 25 55  1  0  0  0  0
 25 56  1  0  0  0  0
 26 57  1  0  0  0  0
 26 58  1  0  0  0  0
M  END
> <clash_score>
2.803358825425512

> <docking_score>
-6.827144622802734

> <overlap_score>
1.0081093311309814

$$$$
BENZO_360_1
  -OEChem-08232013503D

 54 58  0     0  0  0  0  0  0999 V2000
    4.0980    2.1130   19.5350 C   0  0  0  0  0  0  0  0  0  0  0  0
    4.2970    1.6690   20.8430 C   0  0  0  0  0  0  0  0  0  0  0  0
    4.9400    1.7060   18.5060 C   0  0  0  0  0  0  0  0  0  0  0  0
    5.3360    0.8000   21.1530 C   0  0  0  0  0  0  0  0  0  0  0  0
    8.3310   -2.7170   25.3430 C   0  0  0  0  0  0  0  0  0  0  0  0
   10.2570   -3.5000   24.1350 C   0  0  0  0  0  0  0  0  0  0  0  0
    8.3510   -1.5420   24.6110 C   0  0  0  0  0  0  0  0  0  0  0  0
   10.2760   -2.3270   23.4020 C   0  0  0  0  0  0  0  0  0  0  0  0
   12.3135    1.1338   22.6375 C   0  0  0  0  0  0  0  0  0  0  0  0
   13.6532    1.0841   22.9538 C   0  0  0  0  0  0  0  0  0  0  0  0
   12.2260    0.9187   24.9502 C   0  0  0  0  0  0  0  0  0  0  0  0
   11.4866    1.0382   23.7939 C   0  0  0  0  0  0  0  0  0  0  0  0
    5.9810    0.8330   18.8060 C   0  0  0  0  0  0  0  0  0  0  0  0
    6.1600    0.3870   20.1140 C   0  0  0  0  0  0  0  0  0  0  0  0
    9.2850   -3.7090   25.1090 C   0  0  0  0  0  0  0  0  0  0  0  0
    9.3300   -1.3350   23.6390 C   0  0  0  0  0  0  0  0  0  0  0  0
    8.9510    0.1280   21.6880 C   0  0  0  0  0  0  0  0  0  0  0  0
    8.7666   -4.9523   27.2147 C   0  0  0  0  0  0  0  0  0  0  0  0
    9.3034   -6.1866   25.1651 C   0  0  0  0  0  0  0  0  0  0  0  0
    7.3827   -5.5925   27.1999 C   0  0  0  0  0  0  0  0  0  0  0  0
    7.9024   -6.7967   25.2263 C   0  0  0  0  0  0  0  0  0  0  0  0
    9.9859    1.0637   23.7546 C   0  0  0  0  0  0  0  0  0  0  0  0
    8.0810   -0.9750   21.0820 C   0  0  0  0  0  0  0  0  0  0  0  0
    6.9440    0.2550   18.0100 N   0  0  0  0  0  0  0  0  0  0  0  0
    7.6830   -0.5170   18.7600 N   0  0  0  0  0  0  0  0  0  0  0  0
    7.2210   -0.4620   20.0350 N   0  0  0  0  0  0  0  0  0  0  0  0
    9.2640   -4.8844   25.8389 N   0  0  0  0  0  0  0  0  0  0  0  0
    9.4200   -0.0840   22.9530 N   0  0  0  0  0  0  0  0  0  0  0  0
    9.1870    1.1500   21.0630 O   0  0  0  0  0  0  0  0  0  0  0  0
    7.4483   -6.8833   26.5817 O   0  0  0  0  0  0  0  0  0  0  0  0
   13.9099    0.9225   24.6392 S   0  0  0  0  0  0  0  0  0  0  0  0
    3.2714    2.7873   19.3199 H   0  0  0  0  0  0  0  0  0  0  0  0
    3.6281    2.0093   21.6291 H   0  0  0  0  0  0  0  0  0  0  0  0
    4.7823    2.0669   17.4883 H   0  0  0  0  0  0  0  0  0  0  0  0
    5.4954    0.4562   22.1797 H   0  0  0  0  0  0  0  0  0  0  0  0
    7.5647   -2.8621   26.1053 H   0  0  0  0  0  0  0  0  0  0  0  0
   11.0144   -4.2642   23.9425 H   0  0  0  0  0  0  0  0  0  0  0  0
    7.5958   -0.7779   24.8006 H   0  0  0  0  0  0  0  0  0  0  0  0
   11.0406   -2.1848   22.6356 H   0  0  0  0  0  0  0  0  0  0  0  0
   11.9482    1.2338   21.6232 H   0  0  0  0  0  0  0  0  0  0  0  0
   14.4936    1.1342   22.2760 H   0  0  0  0  0  0  0  0  0  0  0  0
   11.8620    0.8279   25.9642 H   0  0  0  0  0  0  0  0  0  0  0  0
    8.7030   -3.9561   27.6574 H   0  0  0  0  0  0  0  0  0  0  0  0
    9.4460   -5.5639   27.8143 H   0  0  0  0  0  0  0  0  0  0  0  0
   10.0083   -6.8392   25.6817 H   0  0  0  0  0  0  0  0  0  0  0  0
    9.6089   -6.0802   24.1251 H   0  0  0  0  0  0  0  0  0  0  0  0
    7.0281   -5.7334   28.2231 H   0  0  0  0  0  0  0  0  0  0  0  0
    6.6541   -4.9678   26.6754 H   0  0  0  0  0  0  0  0  0  0  0  0
    7.1860   -6.2177   24.6318 H   0  0  0  0  0  0  0  0  0  0  0  0
    7.9246   -7.8119   24.8187 H   0  0  0  0  0  0  0  0  0  0  0  0
    9.5717    0.9756   24.7649 H   0  0  0  0  0  0  0  0  0  0  0  0
    9.6199    2.0062   23.3340 H   0  0  0  0  0  0  0  0  0  0  0  0
    8.7136   -1.7499   20.6462 H   0  0  0  0  0  0  0  0  0  0  0  0
    7.4415   -1.4060   21.8540 H   0  0  0  0  0  0  0  0  0  0  0  0
  1  2  1  0  0  0  0
  1  3  2  0  0  0  0
  2  4  2  0  0  0  0
  3 13  1  0  0  0  0
  4 14  1  0  0  0  0
  5  7  2  0  0  0  0
  5 15  1  0  0  0  0
  6  8  1  0  0  0  0
  6 15  2  0  0  0  0
  7 16  1  0  0  0  0
  8 16  2  0  0  0  0
  9 10  2  0  0  0  0
  9 12  1  0  0  0  0
 10 31  1  0  0  0  0
 11 12  2  0  0  0  0
 11 31  1  0  0  0  0
 12 22  1  0  0  0  0
 13 14  2  0  0  0  0
 13 24  1  0  0  0  0
 14 26  1  0  0  0  0
 15 27  1  0  0  0  0
 16 28  1  0  0  0  0
 17 23  1  0  0  0  0
 17 28  1  0  0  0  0
 17 29  2  0  0  0  0
 18 20  1  0  0  0  0
 18 27  1  0  0  0  0
 19 21  1  0  0  0  0
 19 27  1  0  0  0  0
 20 30  1  0  0  0  0
 21 30  1  0  0  0  0
 22 28  1  0  0  0  0
 23 26  1  0  0  0  0
 24 25  2  0  0  0  0
 25 26  1  0  0  0  0
  1 32  1  0  0  0  0
  2 33  1  0  0  0  0
  3 34  1  0  0  0  0
  4 35  1  0  0  0  0
  5 36  1  0  0  0  0
  6 37  1  0  0  0  0
  7 38  1  0  0  0  0
  8 39  1  0  0  0  0
  9 40  1  0  0  0  0
 10 41  1  0  0  0  0
 11 42  1  0  0  0  0
 18 43  1  0  0  0  0
 18 44  1  0  0  0  0
 19 45  1  0  0  0  0
 19 46  1  0  0  0  0
 20 47  1  0  0  0  0
 20 48  1  0  0  0  0
 21 49  1  0  0  0  0
 21 50  1  0  0  0  0
 22 51  1  0  0  0  0
 22 52  1  0  0  0  0
 23 53  1  0  0  0  0
 23 54  1  0  0  0  0
M  END
> <clash_score>
0

> <docking_score>
-9.686324119567871

> <overlap_score>
0.9861280918121338

$$$$
BENZO_365_1
  -OEChem-08232013503D

 53 56  0     0  0  0  0  0  0999 V2000
   14.2764    0.9916   23.8530 C   0  0  0  0  0  0  0  0  0  0  0  0
   13.5527    0.2977   24.8227 C   0  0  0  0  0  0  0  0  0  0  0  0
   13.6055    1.7016   22.8572 C   0  0  0  0  0  0  0  0  0  0  0  0
    4.0980    2.1130   19.5350 C   0  0  0  0  0  0  0  0  0  0  0  0
    4.2970    1.6690   20.8430 C   0  0  0  0  0  0  0  0  0  0  0  0
   12.1582    0.3136   24.7966 C   0  0  0  0  0  0  0  0  0  0  0  0
   12.2110    1.7175   22.8310 C   0  0  0  0  0  0  0  0  0  0  0  0
    4.9400    1.7060   18.5060 C   0  0  0  0  0  0  0  0  0  0  0  0
    5.3360    0.8000   21.1530 C   0  0  0  0  0  0  0  0  0  0  0  0
    8.3510   -1.5420   24.6110 C   0  0  0  0  0  0  0  0  0  0  0  0
   10.2760   -2.3270   23.4020 C   0  0  0  0  0  0  0  0  0  0  0  0
    8.3310   -2.7170   25.3430 C   0  0  0  0  0  0  0  0  0  0  0  0
   10.2570   -3.5000   24.1350 C   0  0  0  0  0  0  0  0  0  0  0  0
    7.6830   -0.5170   18.7600 C   0  0  0  0  0  0  0  0  0  0  0  0
   11.4873    1.0235   23.8007 C   0  0  0  0  0  0  0  0  0  0  0  0
    5.9810    0.8330   18.8060 C   0  0  0  0  0  0  0  0  0  0  0  0
    6.1600    0.3870   20.1140 C   0  0  0  0  0  0  0  0  0  0  0  0
    9.3300   -1.3350   23.6390 C   0  0  0  0  0  0  0  0  0  0  0  0
    9.2850   -3.7090   25.1090 C   0  0  0  0  0  0  0  0  0  0  0  0
    8.9510    0.1280   21.6880 C   0  0  0  0  0  0  0  0  0  0  0  0
    8.2499   -5.1180   26.8642 C   0  0  0  0  0  0  0  0  0  0  0  0
   10.2422   -5.9410   25.5984 C   0  0  0  0  0  0  0  0  0  0  0  0
    9.9863    1.0409   23.7719 C   0  0  0  0  0  0  0  0  0  0  0  0
    8.0810   -0.9750   21.0820 C   0  0  0  0  0  0  0  0  0  0  0  0
    6.9440    0.2550   18.0100 N   0  0  0  0  0  0  0  0  0  0  0  0
    7.2210   -0.4620   20.0350 N   0  0  0  0  0  0  0  0  0  0  0  0
    9.4200   -0.0840   22.9530 N   0  0  0  0  0  0  0  0  0  0  0  0
    9.2624   -4.9028   25.8498 N   0  0  0  0  0  0  0  0  0  0  0  0
    9.1870    1.1500   21.0630 O   0  0  0  0  0  0  0  0  0  0  0  0
   15.3622    0.9802   23.8743 H   0  0  0  0  0  0  0  0  0  0  0  0
   14.0749   -0.2543   25.5988 H   0  0  0  0  0  0  0  0  0  0  0  0
   14.1686    2.2428   22.1027 H   0  0  0  0  0  0  0  0  0  0  0  0
    3.2711    2.7875   19.3201 H   0  0  0  0  0  0  0  0  0  0  0  0
    3.6281    2.0095   21.6292 H   0  0  0  0  0  0  0  0  0  0  0  0
   11.6026   -0.2301   25.5561 H   0  0  0  0  0  0  0  0  0  0  0  0
   11.6969    2.2732   22.0513 H   0  0  0  0  0  0  0  0  0  0  0  0
    4.7815    2.0665   17.4902 H   0  0  0  0  0  0  0  0  0  0  0  0
    5.4939    0.4577   22.1786 H   0  0  0  0  0  0  0  0  0  0  0  0
    7.5947   -0.7787   24.7997 H   0  0  0  0  0  0  0  0  0  0  0  0
   11.0404   -2.1861   22.6352 H   0  0  0  0  0  0  0  0  0  0  0  0
    7.5641   -2.8632   26.1047 H   0  0  0  0  0  0  0  0  0  0  0  0
   11.0135   -4.2647   23.9425 H   0  0  0  0  0  0  0  0  0  0  0  0
    8.5167   -1.1056   18.4550 H   0  0  0  0  0  0  0  0  0  0  0  0
    8.3988   -6.1043   27.3281 H   0  0  0  0  0  0  0  0  0  0  0  0
    8.3293   -4.3355   27.6332 H   0  0  0  0  0  0  0  0  0  0  0  0
    7.2529   -5.0774   26.4013 H   0  0  0  0  0  0  0  0  0  0  0  0
   10.0589   -6.7900   26.2734 H   0  0  0  0  0  0  0  0  0  0  0  0
   10.1595   -6.2780   24.5546 H   0  0  0  0  0  0  0  0  0  0  0  0
   11.2520   -5.5428   25.7763 H   0  0  0  0  0  0  0  0  0  0  0  0
    9.5796    0.9577   24.7857 H   0  0  0  0  0  0  0  0  0  0  0  0
    9.6122    1.9785   23.3473 H   0  0  0  0  0  0  0  0  0  0  0  0
    8.7073   -1.7481   20.6391 H   0  0  0  0  0  0  0  0  0  0  0  0
    7.4352   -1.4043   21.8468 H   0  0  0  0  0  0  0  0  0  0  0  0
  1  2  1  0  0  0  0
  1  3  2  0  0  0  0
  2  6  2  0  0  0  0
  3  7  1  0  0  0  0
  4  5  1  0  0  0  0
  4  8  2  0  0  0  0
  5  9  2  0  0  0  0
  6 15  1  0  0  0  0
  7 15  2  0  0  0  0
  8 16  1  0  0  0  0
  9 17  1  0  0  0  0
 10 12  2  0  0  0  0
 10 18  1  0  0  0  0
 11 13  1  0  0  0  0
 11 18  2  0  0  0  0
 12 19  1  0  0  0  0
 13 19  2  0  0  0  0
 14 25  2  0  0  0  0
 14 26  1  0  0  0  0
 15 23  1  0  0  0  0
 16 17  2  0  0  0  0
 16 25  1  0  0  0  0
 17 26  1  0  0  0  0
 18 27  1  0  0  0  0
 19 28  1  0  0  0  0
 20 24  1  0  0  0  0
 20 27  1  0  0  0  0
 20 29  2  0  0  0  0
 21 28  1  0  0  0  0
 22 28  1  0  0  0  0
 23 27  1  0  0  0  0
 24 26  1  0  0  0  0
  1 30  1  0  0  0  0
  2 31  1  0  0  0  0
  3 32  1  0  0  0  0
  4 33  1  0  0  0  0
  5 34  1  0  0  0  0
  6 35  1  0  0  0  0
  7 36  1  0  0  0  0
  8 37  1  0  0  0  0
  9 38  1  0  0  0  0
 10 39  1  0  0  0  0
 11 40  1  0  0  0  0
 12 41  1  0  0  0  0
 13 42  1  0  0  0  0
 14 43  1  0  0  0  0
 21 44  1  0  0  0  0
 21 45  1  0  0  0  0
 21 46  1  0  0  0  0
 22 47  1  0  0  0  0
 22 48  1  0  0  0  0
 22 49  1  0  0  0  0
 23 50  1  0  0  0  0
 23 51  1  0  0  0  0
 24 52  1  0  0  0  0
 24 53  1  0  0  0  0
M  END
> <clash_score>
0

> <docking_score>
-10.657456398010254

> <overlap_score>
0.9938434958457947

$$$$
BENZO_364_1
  -OEChem-08232013503D

 50 53  0     0  0  0  0  0  0999 V2000
    4.0980    2.1130   19.5350 C   0  0  0  0  0  0  0  0  0  0  0  0
    4.2970    1.6690   20.8430 C   0  0  0  0  0  0  0  0  0  0  0  0
    4.9400    1.7060   18.5060 C   0  0  0  0  0  0  0  0  0  0  0  0
    5.3360    0.8000   21.1530 C   0  0  0  0  0  0  0  0  0  0  0  0
    8.3510   -1.5420   24.6110 C   0  0  0  0  0  0  0  0  0  0  0  0
   10.2760   -2.3270   23.4020 C   0  0  0  0  0  0  0  0  0  0  0  0
    8.3310   -2.7170   25.3430 C   0  0  0  0  0  0  0  0  0  0  0  0
   10.2570   -3.5000   24.1350 C   0  0  0  0  0  0  0  0  0  0  0  0
   12.3055    1.1155   22.6379 C   0  0  0  0  0  0  0  0  0  0  0  0
   13.6477    1.0750   22.9450 C   0  0  0  0  0  0  0  0  0  0  0  0
   12.2355    0.9161   24.9525 C   0  0  0  0  0  0  0  0  0  0  0  0
    7.6830   -0.5170   18.7600 C   0  0  0  0  0  0  0  0  0  0  0  0
   11.4873    1.0235   23.8007 C   0  0  0  0  0  0  0  0  0  0  0  0
    5.9810    0.8330   18.8060 C   0  0  0  0  0  0  0  0  0  0  0  0
    6.1600    0.3870   20.1140 C   0  0  0  0  0  0  0  0  0  0  0  0
    9.3300   -1.3350   23.6390 C   0  0  0  0  0  0  0  0  0  0  0  0
    9.2850   -3.7090   25.1090 C   0  0  0  0  0  0  0  0  0  0  0  0
    8.9510    0.1280   21.6880 C   0  0  0  0  0  0  0  0  0  0  0  0
    8.2499   -5.1180   26.8642 C   0  0  0  0  0  0  0  0  0  0  0  0
   10.2422   -5.9410   25.5984 C   0  0  0  0  0  0  0  0  0  0  0  0
    9.9863    1.0409   23.7719 C   0  0  0  0  0  0  0  0  0  0  0  0
    8.0810   -0.9750   21.0820 C   0  0  0  0  0  0  0  0  0  0  0  0
    6.9440    0.2550   18.0100 N   0  0  0  0  0  0  0  0  0  0  0  0
    7.2210   -0.4620   20.0350 N   0  0  0  0  0  0  0  0  0  0  0  0
    9.4200   -0.0840   22.9530 N   0  0  0  0  0  0  0  0  0  0  0  0
    9.2624   -4.9028   25.8498 N   0  0  0  0  0  0  0  0  0  0  0  0
    9.1870    1.1500   21.0630 O   0  0  0  0  0  0  0  0  0  0  0  0
   13.9171    0.9266   24.6296 S   0  0  0  0  0  0  0  0  0  0  0  0
    3.2711    2.7875   19.3201 H   0  0  0  0  0  0  0  0  0  0  0  0
    3.6281    2.0095   21.6292 H   0  0  0  0  0  0  0  0  0  0  0  0
    4.7815    2.0665   17.4902 H   0  0  0  0  0  0  0  0  0  0  0  0
    5.4939    0.4577   22.1786 H   0  0  0  0  0  0  0  0  0  0  0  0
    7.5947   -0.7787   24.7997 H   0  0  0  0  0  0  0  0  0  0  0  0
   11.0404   -2.1861   22.6352 H   0  0  0  0  0  0  0  0  0  0  0  0
    7.5641   -2.8632   26.1047 H   0  0  0  0  0  0  0  0  0  0  0  0
   11.0135   -4.2647   23.9425 H   0  0  0  0  0  0  0  0  0  0  0  0
   11.9326    1.2064   21.6254 H   0  0  0  0  0  0  0  0  0  0  0  0
   14.4830    1.1248   22.2608 H   0  0  0  0  0  0  0  0  0  0  0  0
   11.8792    0.8305   25.9697 H   0  0  0  0  0  0  0  0  0  0  0  0
    8.5167   -1.1056   18.4550 H   0  0  0  0  0  0  0  0  0  0  0  0
    8.3988   -6.1043   27.3281 H   0  0  0  0  0  0  0  0  0  0  0  0
    8.3293   -4.3355   27.6332 H   0  0  0  0  0  0  0  0  0  0  0  0
    7.2529   -5.0774   26.4013 H   0  0  0  0  0  0  0  0  0  0  0  0
   10.0589   -6.7900   26.2734 H   0  0  0  0  0  0  0  0  0  0  0  0
   10.1595   -6.2780   24.5546 H   0  0  0  0  0  0  0  0  0  0  0  0
   11.2520   -5.5428   25.7763 H   0  0  0  0  0  0  0  0  0  0  0  0
    9.5796    0.9577   24.7857 H   0  0  0  0  0  0  0  0  0  0  0  0
    9.6122    1.9785   23.3473 H   0  0  0  0  0  0  0  0  0  0  0  0
    8.7073   -1.7481   20.6391 H   0  0  0  0  0  0  0  0  0  0  0  0
    7.4352   -1.4043   21.8468 H   0  0  0  0  0  0  0  0  0  0  0  0
  1  2  1  0  0  0  0
  1  3  2  0  0  0  0
  2  4  2  0  0  0  0
  3 14  1  0  0  0  0
  4 15  1  0  0  0  0
  5  7  2  0  0  0  0
  5 16  1  0  0  0  0
  6  8  1  0  0  0  0
  6 16  2  0  0  0  0
  7 17  1  0  0  0  0
  8 17  2  0  0  0  0
  9 10  2  0  0  0  0
  9 13  1  0  0  0  0
 10 28  1  0  0  0  0
 11 13  2  0  0  0  0
 11 28  1  0  0  0  0
 12 23  2  0  0  0  0
 12 24  1  0  0  0  0
 13 21  1  0  0  0  0
 14 15  2  0  0  0  0
 14 23  1  0  0  0  0
 15 24  1  0  0  0  0
 16 25  1  0  0  0  0
 17 26  1  0  0  0  0
 18 22  1  0  0  0  0
 18 25  1  0  0  0  0
 18 27  2  0  0  0  0
 19 26  1  0  0  0  0
 20 26  1  0  0  0  0
 21 25  1  0  0  0  0
 22 24  1  0  0  0  0
  1 29  1  0  0  0  0
  2 30  1  0  0  0  0
  3 31  1  0  0  0  0
  4 32  1  0  0  0  0
  5 33  1  0  0  0  0
  6 34  1  0  0  0  0
  7 35  1  0  0  0  0
  8 36  1  0  0  0  0
  9 37  1  0  0  0  0
 10 38  1  0  0  0  0
 11 39  1  0  0  0  0
 12 40  1  0  0  0  0
 19 41  1  0  0  0  0
 19 42  1  0  0  0  0
 19 43  1  0  0  0  0
 20 44  1  0  0  0  0
 20 45  1  0  0  0  0
 20 46  1  0  0  0  0
 21 47  1  0  0  0  0
 21 48  1  0  0  0  0
 22 49  1  0  0  0  0
 22 50  1  0  0  0  0
M  END
> <clash_score>
0

> <docking_score>
-11.026911735534668

> <overlap_score>
0.9722636342048645

$$$$
BENZO_362_1
  -OEChem-08232013503D

 57 61  0     0  0  0  0  0  0999 V2000
    4.0980    2.1130   19.5350 C   0  0  0  0  0  0  0  0  0  0  0  0
    4.2970    1.6690   20.8430 C   0  0  0  0  0  0  0  0  0  0  0  0
   13.6132    1.9334   23.0780 C   0  0  0  0  0  0  0  0  0  0  0  0
   12.2191    1.9559   23.0410 C   0  0  0  0  0  0  0  0  0  0  0  0
    4.9400    1.7060   18.5060 C   0  0  0  0  0  0  0  0  0  0  0  0
    5.3360    0.8000   21.1530 C   0  0  0  0  0  0  0  0  0  0  0  0
    8.3310   -2.7170   25.3430 C   0  0  0  0  0  0  0  0  0  0  0  0
   10.2570   -3.5000   24.1350 C   0  0  0  0  0  0  0  0  0  0  0  0
    8.3510   -1.5420   24.6110 C   0  0  0  0  0  0  0  0  0  0  0  0
   10.2760   -2.3270   23.4020 C   0  0  0  0  0  0  0  0  0  0  0  0
   14.2750    0.9931   23.8678 C   0  0  0  0  0  0  0  0  0  0  0  0
   12.1483    0.0979   24.5838 C   0  0  0  0  0  0  0  0  0  0  0  0
   11.4866    1.0382   23.7939 C   0  0  0  0  0  0  0  0  0  0  0  0
    5.9810    0.8330   18.8060 C   0  0  0  0  0  0  0  0  0  0  0  0
    6.1600    0.3870   20.1140 C   0  0  0  0  0  0  0  0  0  0  0  0
    9.2850   -3.7090   25.1090 C   0  0  0  0  0  0  0  0  0  0  0  0
    9.3300   -1.3350   23.6390 C   0  0  0  0  0  0  0  0  0  0  0  0
   13.5425    0.0755   24.6207 C   0  0  0  0  0  0  0  0  0  0  0  0
    8.9510    0.1280   21.6880 C   0  0  0  0  0  0  0  0  0  0  0  0
    8.7666   -4.9523   27.2147 C   0  0  0  0  0  0  0  0  0  0  0  0
    9.3034   -6.1866   25.1651 C   0  0  0  0  0  0  0  0  0  0  0  0
    7.3827   -5.5925   27.1999 C   0  0  0  0  0  0  0  0  0  0  0  0
    7.9024   -6.7967   25.2263 C   0  0  0  0  0  0  0  0  0  0  0  0
    9.9859    1.0637   23.7546 C   0  0  0  0  0  0  0  0  0  0  0  0
    8.0810   -0.9750   21.0820 C   0  0  0  0  0  0  0  0  0  0  0  0
    6.9440    0.2550   18.0100 N   0  0  0  0  0  0  0  0  0  0  0  0
    7.6830   -0.5170   18.7600 N   0  0  0  0  0  0  0  0  0  0  0  0
    7.2210   -0.4620   20.0350 N   0  0  0  0  0  0  0  0  0  0  0  0
    9.2640   -4.8844   25.8389 N   0  0  0  0  0  0  0  0  0  0  0  0
    9.4200   -0.0840   22.9530 N   0  0  0  0  0  0  0  0  0  0  0  0
    9.1870    1.1500   21.0630 O   0  0  0  0  0  0  0  0  0  0  0  0
    7.4483   -6.8833   26.5817 O   0  0  0  0  0  0  0  0  0  0  0  0
   14.3594   -1.0836   25.5959 Cl  0  0  0  0  0  0  0  0  0  0  0  0
    3.2714    2.7873   19.3199 H   0  0  0  0  0  0  0  0  0  0  0  0
    3.6281    2.0093   21.6291 H   0  0  0  0  0  0  0  0  0  0  0  0
   14.1833    2.6483   22.4916 H   0  0  0  0  0  0  0  0  0  0  0  0
   11.7119    2.6920   22.4228 H   0  0  0  0  0  0  0  0  0  0  0  0
    4.7823    2.0669   17.4883 H   0  0  0  0  0  0  0  0  0  0  0  0
    5.4954    0.4562   22.1797 H   0  0  0  0  0  0  0  0  0  0  0  0
    7.5647   -2.8621   26.1053 H   0  0  0  0  0  0  0  0  0  0  0  0
   11.0144   -4.2642   23.9425 H   0  0  0  0  0  0  0  0  0  0  0  0
    7.5958   -0.7779   24.8006 H   0  0  0  0  0  0  0  0  0  0  0  0
   11.0406   -2.1848   22.6356 H   0  0  0  0  0  0  0  0  0  0  0  0
   15.3620    0.9875   23.8871 H   0  0  0  0  0  0  0  0  0  0  0  0
   11.5726   -0.6158   25.1686 H   0  0  0  0  0  0  0  0  0  0  0  0
    8.7030   -3.9561   27.6574 H   0  0  0  0  0  0  0  0  0  0  0  0
    9.4460   -5.5639   27.8143 H   0  0  0  0  0  0  0  0  0  0  0  0
   10.0083   -6.8392   25.6817 H   0  0  0  0  0  0  0  0  0  0  0  0
    9.6089   -6.0802   24.1251 H   0  0  0  0  0  0  0  0  0  0  0  0
    7.0281   -5.7334   28.2231 H   0  0  0  0  0  0  0  0  0  0  0  0
    6.6541   -4.9678   26.6754 H   0  0  0  0  0  0  0  0  0  0  0  0
    7.1860   -6.2177   24.6318 H   0  0  0  0  0  0  0  0  0  0  0  0
    7.9246   -7.8119   24.8187 H   0  0  0  0  0  0  0  0  0  0  0  0
    9.5717    0.9756   24.7649 H   0  0  0  0  0  0  0  0  0  0  0  0
    9.6199    2.0062   23.3340 H   0  0  0  0  0  0  0  0  0  0  0  0
    8.7136   -1.7499   20.6462 H   0  0  0  0  0  0  0  0  0  0  0  0
    7.4415   -1.4060   21.8540 H   0  0  0  0  0  0  0  0  0  0  0  0
  1  2  1  0  0  0  0
  1  5  2  0  0  0  0
  2  6  2  0  0  0  0
  3  4  2  0  0  0  0
  3 11  1  0  0  0  0
  4 13  1  0  0  0  0
  5 14  1  0  0  0  0
  6 15  1  0  0  0  0
  7  9  2  0  0  0  0
  7 16  1  0  0  0  0
  8 10  1  0  0  0  0
  8 16  2  0  0  0  0
  9 17  1  0  0  0  0
 10 17  2  0  0  0  0
 11 18  2  0  0  0  0
 12 13  2  0  0  0  0
 12 18  1  0  0  0  0
 13 24  1  0  0  0  0
 14 15  2  0  0  0  0
 14 26  1  0  0  0  0
 15 28  1  0  0  0  0
 16 29  1  0  0  0  0
 17 30  1  0  0  0  0
 18 33  1  0  0  0  0
 19 25  1  0  0  0  0
 19 30  1  0  0  0  0
 19 31  2  0  0  0  0
 20 22  1  0  0  0  0
 20 29  1  0  0  0  0
 21 23  1  0  0  0  0
 21 29  1  0  0  0  0
 22 32  1  0  0  0  0
 23 32  1  0  0  0  0
 24 30  1  0  0  0  0
 25 28  1  0  0  0  0
 26 27  2  0  0  0  0
 27 28  1  0  0  0  0
  1 34  1  0  0  0  0
  2 35  1  0  0  0  0
  3 36  1  0  0  0  0
  4 37  1  0  0  0  0
  5 38  1  0  0  0  0
  6 39  1  0  0  0  0
  7 40  1  0  0  0  0
  8 41  1  0  0  0  0
  9 42  1  0  0  0  0
 10 43  1  0  0  0  0
 11 44  1  0  0  0  0
 12 45  1  0  0  0  0
 20 46  1  0  0  0  0
 20 47  1  0  0  0  0
 21 48  1  0  0  0  0
 21 49  1  0  0  0  0
 22 50  1  0  0  0  0
 22 51  1  0  0  0  0
 23 52  1  0  0  0  0
 23 53  1  0  0  0  0
 24 54  1  0  0  0  0
 24 55  1  0  0  0  0
 25 56  1  0  0  0  0
 25 57  1  0  0  0  0
M  END
> <clash_score>
0.7490224172275136

> <docking_score>
-8.074853897094727

> <overlap_score>
1.0081725120544434

$$$$
BENZO_363_1
  -OEChem-08232013503D

 57 61  0     0  0  0  0  0  0999 V2000
    4.0980    2.1130   19.5350 C   0  0  0  0  0  0  0  0  0  0  0  0
    4.2970    1.6690   20.8430 C   0  0  0  0  0  0  0  0  0  0  0  0
    4.9400    1.7060   18.5060 C   0  0  0  0  0  0  0  0  0  0  0  0
    5.3360    0.8000   21.1530 C   0  0  0  0  0  0  0  0  0  0  0  0
    8.3310   -2.7170   25.3430 C   0  0  0  0  0  0  0  0  0  0  0  0
   10.2570   -3.5000   24.1350 C   0  0  0  0  0  0  0  0  0  0  0  0
    8.3510   -1.5420   24.6110 C   0  0  0  0  0  0  0  0  0  0  0  0
   10.2760   -2.3270   23.4020 C   0  0  0  0  0  0  0  0  0  0  0  0
   12.3397    1.7334   24.6718 C   0  0  0  0  0  0  0  0  0  0  0  0
   12.3356    0.3274   22.9812 C   0  0  0  0  0  0  0  0  0  0  0  0
   11.4866    1.0382   23.7939 C   0  0  0  0  0  0  0  0  0  0  0  0
    5.9810    0.8330   18.8060 C   0  0  0  0  0  0  0  0  0  0  0  0
    6.1600    0.3870   20.1140 C   0  0  0  0  0  0  0  0  0  0  0  0
    9.2850   -3.7090   25.1090 C   0  0  0  0  0  0  0  0  0  0  0  0
    9.3300   -1.3350   23.6390 C   0  0  0  0  0  0  0  0  0  0  0  0
    8.9510    0.1280   21.6880 C   0  0  0  0  0  0  0  0  0  0  0  0
    8.7666   -4.9523   27.2147 C   0  0  0  0  0  0  0  0  0  0  0  0
    9.3034   -6.1866   25.1651 C   0  0  0  0  0  0  0  0  0  0  0  0
    7.3827   -5.5925   27.1999 C   0  0  0  0  0  0  0  0  0  0  0  0
    7.9024   -6.7967   25.2263 C   0  0  0  0  0  0  0  0  0  0  0  0
   14.8294    0.1191   22.8544 C   0  0  0  0  0  0  0  0  0  0  0  0
    9.9859    1.0637   23.7546 C   0  0  0  0  0  0  0  0  0  0  0  0
    8.0810   -0.9750   21.0820 C   0  0  0  0  0  0  0  0  0  0  0  0
   13.6315    1.4866   24.4389 N   0  0  0  0  0  0  0  0  0  0  0  0
    6.9440    0.2550   18.0100 N   0  0  0  0  0  0  0  0  0  0  0  0
    7.6830   -0.5170   18.7600 N   0  0  0  0  0  0  0  0  0  0  0  0
   13.5965    0.6282   23.4054 N   0  0  0  0  0  0  0  0  0  0  0  0
    7.2210   -0.4620   20.0350 N   0  0  0  0  0  0  0  0  0  0  0  0
    9.2640   -4.8844   25.8389 N   0  0  0  0  0  0  0  0  0  0  0  0
    9.4200   -0.0840   22.9530 N   0  0  0  0  0  0  0  0  0  0  0  0
    9.1870    1.1500   21.0630 O   0  0  0  0  0  0  0  0  0  0  0  0
    7.4483   -6.8833   26.5817 O   0  0  0  0  0  0  0  0  0  0  0  0
    3.2714    2.7873   19.3199 H   0  0  0  0  0  0  0  0  0  0  0  0
    3.6281    2.0093   21.6291 H   0  0  0  0  0  0  0  0  0  0  0  0
    4.7823    2.0669   17.4883 H   0  0  0  0  0  0  0  0  0  0  0  0
    5.4954    0.4562   22.1797 H   0  0  0  0  0  0  0  0  0  0  0  0
    7.5647   -2.8621   26.1053 H   0  0  0  0  0  0  0  0  0  0  0  0
   11.0144   -4.2642   23.9425 H   0  0  0  0  0  0  0  0  0  0  0  0
    7.5958   -0.7779   24.8006 H   0  0  0  0  0  0  0  0  0  0  0  0
   11.0406   -2.1848   22.6356 H   0  0  0  0  0  0  0  0  0  0  0  0
   12.0762    2.4094   25.4729 H   0  0  0  0  0  0  0  0  0  0  0  0
   12.1544   -0.3509   22.1584 H   0  0  0  0  0  0  0  0  0  0  0  0
    8.7030   -3.9561   27.6574 H   0  0  0  0  0  0  0  0  0  0  0  0
    9.4460   -5.5639   27.8143 H   0  0  0  0  0  0  0  0  0  0  0  0
   10.0083   -6.8392   25.6817 H   0  0  0  0  0  0  0  0  0  0  0  0
    9.6089   -6.0802   24.1251 H   0  0  0  0  0  0  0  0  0  0  0  0
    7.0281   -5.7334   28.2231 H   0  0  0  0  0  0  0  0  0  0  0  0
    6.6541   -4.9678   26.6754 H   0  0  0  0  0  0  0  0  0  0  0  0
    7.1860   -6.2177   24.6318 H   0  0  0  0  0  0  0  0  0  0  0  0
    7.9246   -7.8119   24.8187 H   0  0  0  0  0  0  0  0  0  0  0  0
   15.1505    0.7993   22.0611 H   0  0  0  0  0  0  0  0  0  0  0  0
   15.5860    0.0664   23.6422 H   0  0  0  0  0  0  0  0  0  0  0  0
   14.6592   -0.8840   22.4537 H   0  0  0  0  0  0  0  0  0  0  0  0
    9.5717    0.9756   24.7649 H   0  0  0  0  0  0  0  0  0  0  0  0
    9.6199    2.0062   23.3340 H   0  0  0  0  0  0  0  0  0  0  0  0
    8.7136   -1.7499   20.6462 H   0  0  0  0  0  0  0  0  0  0  0  0
    7.4415   -1.4060   21.8540 H   0  0  0  0  0  0  0  0  0  0  0  0
  1  2  1  0  0  0  0
  1  3  2  0  0  0  0
  2  4  2  0  0  0  0
  3 12  1  0  0  0  0
  4 13  1  0  0  0  0
  5  7  2  0  0  0  0
  5 14  1  0  0  0  0
  6  8  1  0  0  0  0
  6 14  2  0  0  0  0
  7 15  1  0  0  0  0
  8 15  2  0  0  0  0
  9 11  1  0  0  0  0
  9 24  2  0  0  0  0
 10 11  2  0  0  0  0
 10 27  1  0  0  0  0
 11 22  1  0  0  0  0
 12 13  2  0  0  0  0
 12 25  1  0  0  0  0
 13 28  1  0  0  0  0
 14 29  1  0  0  0  0
 15 30  1  0  0  0  0
 16 23  1  0  0  0  0
 16 30  1  0  0  0  0
 16 31  2  0  0  0  0
 17 19  1  0  0  0  0
 17 29  1  0  0  0  0
 18 20  1  0  0  0  0
 18 29  1  0  0  0  0
 19 32  1  0  0  0  0
 20 32  1  0  0  0  0
 21 27  1  0  0  0  0
 22 30  1  0  0  0  0
 23 28  1  0  0  0  0
 24 27  1  0  0  0  0
 25 26  2  0  0  0  0
 26 28  1  0  0  0  0
  1 33  1  0  0  0  0
  2 34  1  0  0  0  0
  3 35  1  0  0  0  0
  4 36  1  0  0  0  0
  5 37  1  0  0  0  0
  6 38  1  0  0  0  0
  7 39  1  0  0  0  0
  8 40  1  0  0  0  0
  9 41  1  0  0  0  0
 10 42  1  0  0  0  0
 17 43  1  0  0  0  0
 17 44  1  0  0  0  0
 18 45  1  0  0  0  0
 18 46  1  0  0  0  0
 19 47  1  0  0  0  0
 19 48  1  0  0  0  0
 20 49  1  0  0  0  0
 20 50  1  0  0  0  0
 21 51  1  0  0  0  0
 21 52  1  0  0  0  0
 21 53  1  0  0  0  0
 22 54  1  0  0  0  0
 22 55  1  0  0  0  0
 23 56  1  0  0  0  0
 23 57  1  0  0  0  0
M  END
> <clash_score>
0

> <docking_score>
-9.08554744720459

> <overlap_score>
0.9932271242141724

$$$$
BENZO_367_1
  -OEChem-08232013503D

 53 56  0     0  0  0  0  0  0999 V2000
    4.0980    2.1130   19.5350 C   0  0  0  0  0  0  0  0  0  0  0  0
    4.2970    1.6690   20.8430 C   0  0  0  0  0  0  0  0  0  0  0  0
    4.9400    1.7060   18.5060 C   0  0  0  0  0  0  0  0  0  0  0  0
    5.3360    0.8000   21.1530 C   0  0  0  0  0  0  0  0  0  0  0  0
    8.3510   -1.5420   24.6110 C   0  0  0  0  0  0  0  0  0  0  0  0
   10.2760   -2.3270   23.4020 C   0  0  0  0  0  0  0  0  0  0  0  0
    8.3310   -2.7170   25.3430 C   0  0  0  0  0  0  0  0  0  0  0  0
   10.2570   -3.5000   24.1350 C   0  0  0  0  0  0  0  0  0  0  0  0
   12.3285    0.9185   24.9246 C   0  0  0  0  0  0  0  0  0  0  0  0
   12.3484    1.1041   22.7337 C   0  0  0  0  0  0  0  0  0  0  0  0
    7.6830   -0.5170   18.7600 C   0  0  0  0  0  0  0  0  0  0  0  0
   11.4873    1.0235   23.8007 C   0  0  0  0  0  0  0  0  0  0  0  0
    5.9810    0.8330   18.8060 C   0  0  0  0  0  0  0  0  0  0  0  0
    6.1600    0.3870   20.1140 C   0  0  0  0  0  0  0  0  0  0  0  0
    9.3300   -1.3350   23.6390 C   0  0  0  0  0  0  0  0  0  0  0  0
    9.2850   -3.7090   25.1090 C   0  0  0  0  0  0  0  0  0  0  0  0
    8.9510    0.1280   21.6880 C   0  0  0  0  0  0  0  0  0  0  0  0
   14.8457    1.0920   22.5284 C   0  0  0  0  0  0  0  0  0  0  0  0
    8.2499   -5.1180   26.8642 C   0  0  0  0  0  0  0  0  0  0  0  0
   10.2422   -5.9410   25.5984 C   0  0  0  0  0  0  0  0  0  0  0  0
    9.9863    1.0409   23.7719 C   0  0  0  0  0  0  0  0  0  0  0  0
    8.0810   -0.9750   21.0820 C   0  0  0  0  0  0  0  0  0  0  0  0
   13.6245    0.9307   24.6016 N   0  0  0  0  0  0  0  0  0  0  0  0
    6.9440    0.2550   18.0100 N   0  0  0  0  0  0  0  0  0  0  0  0
   13.6041    1.0443   23.2627 N   0  0  0  0  0  0  0  0  0  0  0  0
    7.2210   -0.4620   20.0350 N   0  0  0  0  0  0  0  0  0  0  0  0
    9.4200   -0.0840   22.9530 N   0  0  0  0  0  0  0  0  0  0  0  0
    9.2624   -4.9028   25.8498 N   0  0  0  0  0  0  0  0  0  0  0  0
    9.1870    1.1500   21.0630 O   0  0  0  0  0  0  0  0  0  0  0  0
    3.2711    2.7875   19.3201 H   0  0  0  0  0  0  0  0  0  0  0  0
    3.6281    2.0095   21.6292 H   0  0  0  0  0  0  0  0  0  0  0  0
    4.7815    2.0665   17.4902 H   0  0  0  0  0  0  0  0  0  0  0  0
    5.4939    0.4577   22.1786 H   0  0  0  0  0  0  0  0  0  0  0  0
    7.5947   -0.7787   24.7997 H   0  0  0  0  0  0  0  0  0  0  0  0
   11.0404   -2.1861   22.6352 H   0  0  0  0  0  0  0  0  0  0  0  0
    7.5641   -2.8632   26.1047 H   0  0  0  0  0  0  0  0  0  0  0  0
   11.0135   -4.2647   23.9425 H   0  0  0  0  0  0  0  0  0  0  0  0
   12.0535    0.8325   25.9664 H   0  0  0  0  0  0  0  0  0  0  0  0
   12.1787    1.1952   21.6694 H   0  0  0  0  0  0  0  0  0  0  0  0
    8.5167   -1.1056   18.4550 H   0  0  0  0  0  0  0  0  0  0  0  0
   15.1480    2.1392   22.4448 H   0  0  0  0  0  0  0  0  0  0  0  0
   15.6066    0.5158   23.0620 H   0  0  0  0  0  0  0  0  0  0  0  0
   14.6961    0.6558   21.5368 H   0  0  0  0  0  0  0  0  0  0  0  0
    8.3988   -6.1043   27.3281 H   0  0  0  0  0  0  0  0  0  0  0  0
    8.3293   -4.3355   27.6332 H   0  0  0  0  0  0  0  0  0  0  0  0
    7.2529   -5.0774   26.4013 H   0  0  0  0  0  0  0  0  0  0  0  0
   10.0589   -6.7900   26.2734 H   0  0  0  0  0  0  0  0  0  0  0  0
   10.1595   -6.2780   24.5546 H   0  0  0  0  0  0  0  0  0  0  0  0
   11.2520   -5.5428   25.7763 H   0  0  0  0  0  0  0  0  0  0  0  0
    9.5796    0.9577   24.7857 H   0  0  0  0  0  0  0  0  0  0  0  0
    9.6122    1.9785   23.3473 H   0  0  0  0  0  0  0  0  0  0  0  0
    8.7073   -1.7481   20.6391 H   0  0  0  0  0  0  0  0  0  0  0  0
    7.4352   -1.4043   21.8468 H   0  0  0  0  0  0  0  0  0  0  0  0
  1  2  1  0  0  0  0
  1  3  2  0  0  0  0
  2  4  2  0  0  0  0
  3 13  1  0  0  0  0
  4 14  1  0  0  0  0
  5  7  2  0  0  0  0
  5 15  1  0  0  0  0
  6  8  1  0  0  0  0
  6 15  2  0  0  0  0
  7 16  1  0  0  0  0
  8 16  2  0  0  0  0
  9 12  1  0  0  0  0
  9 23  2  0  0  0  0
 10 12  2  0  0  0  0
 10 25  1  0  0  0  0
 11 24  2  0  0  0  0
 11 26  1  0  0  0  0
 12 21  1  0  0  0  0
 13 14  2  0  0  0  0
 13 24  1  0  0  0  0
 14 26  1  0  0  0  0
 15 27  1  0  0  0  0
 16 28  1  0  0  0  0
 17 22  1  0  0  0  0
 17 27  1  0  0  0  0
 17 29  2  0  0  0  0
 18 25  1  0  0  0  0
 19 28  1  0  0  0  0
 20 28  1  0  0  0  0
 21 27  1  0  0  0  0
 22 26  1  0  0  0  0
 23 25  1  0  0  0  0
  1 30  1  0  0  0  0
  2 31  1  0  0  0  0
  3 32  1  0  0  0  0
  4 33  1  0  0  0  0
  5 34  1  0  0  0  0
  6 35  1  0  0  0  0
  7 36  1  0  0  0  0
  8 37  1  0  0  0  0
  9 38  1  0  0  0  0
 10 39  1  0  0  0  0
 11 40  1  0  0  0  0
 18 41  1  0  0  0  0
 18 42  1  0  0  0  0
 18 43  1  0  0  0  0
 19 44  1  0  0  0  0
 19 45  1  0  0  0  0
 19 46  1  0  0  0  0
 20 47  1  0  0  0  0
 20 48  1  0  0  0  0
 20 49  1  0  0  0  0
 21 50  1  0  0  0  0
 21 51  1  0  0  0  0
 22 52  1  0  0  0  0
 22 53  1  0  0  0  0
M  END
> <clash_score>
0

> <docking_score>
-10.212014198303223

> <overlap_score>
0.9881356954574585

$$$$
BENZO_366_1
  -OEChem-08232013503D

 53 56  0     0  0  0  0  0  0999 V2000
    4.0980    2.1130   19.5350 C   0  0  0  0  0  0  0  0  0  0  0  0
    4.2970    1.6690   20.8430 C   0  0  0  0  0  0  0  0  0  0  0  0
   13.6041    1.9249   23.0635 C   0  0  0  0  0  0  0  0  0  0  0  0
   12.2096    1.9398   23.0362 C   0  0  0  0  0  0  0  0  0  0  0  0
    4.9400    1.7060   18.5060 C   0  0  0  0  0  0  0  0  0  0  0  0
    5.3360    0.8000   21.1530 C   0  0  0  0  0  0  0  0  0  0  0  0
    8.3510   -1.5420   24.6110 C   0  0  0  0  0  0  0  0  0  0  0  0
   10.2760   -2.3270   23.4020 C   0  0  0  0  0  0  0  0  0  0  0  0
    8.3310   -2.7170   25.3430 C   0  0  0  0  0  0  0  0  0  0  0  0
   10.2570   -3.5000   24.1350 C   0  0  0  0  0  0  0  0  0  0  0  0
   14.2763    0.9938   23.8551 C   0  0  0  0  0  0  0  0  0  0  0  0
   12.1595    0.0924   24.5924 C   0  0  0  0  0  0  0  0  0  0  0  0
    7.6830   -0.5170   18.7600 C   0  0  0  0  0  0  0  0  0  0  0  0
   11.4873    1.0235   23.8007 C   0  0  0  0  0  0  0  0  0  0  0  0
    5.9810    0.8330   18.8060 C   0  0  0  0  0  0  0  0  0  0  0  0
    6.1600    0.3870   20.1140 C   0  0  0  0  0  0  0  0  0  0  0  0
    9.3300   -1.3350   23.6390 C   0  0  0  0  0  0  0  0  0  0  0  0
    9.2850   -3.7090   25.1090 C   0  0  0  0  0  0  0  0  0  0  0  0
   13.5541    0.0775   24.6196 C   0  0  0  0  0  0  0  0  0  0  0  0
    8.9510    0.1280   21.6880 C   0  0  0  0  0  0  0  0  0  0  0  0
    8.2499   -5.1180   26.8642 C   0  0  0  0  0  0  0  0  0  0  0  0
   10.2422   -5.9410   25.5984 C   0  0  0  0  0  0  0  0  0  0  0  0
    9.9863    1.0409   23.7719 C   0  0  0  0  0  0  0  0  0  0  0  0
    8.0810   -0.9750   21.0820 C   0  0  0  0  0  0  0  0  0  0  0  0
    6.9440    0.2550   18.0100 N   0  0  0  0  0  0  0  0  0  0  0  0
    7.2210   -0.4620   20.0350 N   0  0  0  0  0  0  0  0  0  0  0  0
    9.4200   -0.0840   22.9530 N   0  0  0  0  0  0  0  0  0  0  0  0
    9.2624   -4.9028   25.8498 N   0  0  0  0  0  0  0  0  0  0  0  0
    9.1870    1.1500   21.0630 O   0  0  0  0  0  0  0  0  0  0  0  0
   14.3840   -1.0703   25.5970 Cl  0  0  0  0  0  0  0  0  0  0  0  0
    3.2711    2.7875   19.3201 H   0  0  0  0  0  0  0  0  0  0  0  0
    3.6281    2.0095   21.6292 H   0  0  0  0  0  0  0  0  0  0  0  0
   14.1661    2.6387   22.4681 H   0  0  0  0  0  0  0  0  0  0  0  0
   11.6941    2.6689   22.4166 H   0  0  0  0  0  0  0  0  0  0  0  0
    4.7815    2.0665   17.4902 H   0  0  0  0  0  0  0  0  0  0  0  0
    5.4939    0.4577   22.1786 H   0  0  0  0  0  0  0  0  0  0  0  0
    7.5947   -0.7787   24.7997 H   0  0  0  0  0  0  0  0  0  0  0  0
   11.0404   -2.1861   22.6352 H   0  0  0  0  0  0  0  0  0  0  0  0
    7.5641   -2.8632   26.1047 H   0  0  0  0  0  0  0  0  0  0  0  0
   11.0135   -4.2647   23.9425 H   0  0  0  0  0  0  0  0  0  0  0  0
   15.3635    0.9940   23.8668 H   0  0  0  0  0  0  0  0  0  0  0  0
   11.5918   -0.6203   25.1863 H   0  0  0  0  0  0  0  0  0  0  0  0
    8.5167   -1.1056   18.4550 H   0  0  0  0  0  0  0  0  0  0  0  0
    8.3988   -6.1043   27.3281 H   0  0  0  0  0  0  0  0  0  0  0  0
    8.3293   -4.3355   27.6332 H   0  0  0  0  0  0  0  0  0  0  0  0
    7.2529   -5.0774   26.4013 H   0  0  0  0  0  0  0  0  0  0  0  0
   10.0589   -6.7900   26.2734 H   0  0  0  0  0  0  0  0  0  0  0  0
   10.1595   -6.2780   24.5546 H   0  0  0  0  0  0  0  0  0  0  0  0
   11.2520   -5.5428   25.7763 H   0  0  0  0  0  0  0  0  0  0  0  0
    9.5796    0.9577   24.7857 H   0  0  0  0  0  0  0  0  0  0  0  0
    9.6122    1.9785   23.3473 H   0  0  0  0  0  0  0  0  0  0  0  0
    8.7073   -1.7481   20.6391 H   0  0  0  0  0  0  0  0  0  0  0  0
    7.4352   -1.4043   21.8468 H   0  0  0  0  0  0  0  0  0  0  0  0
  1  2  1  0  0  0  0
  1  5  2  0  0  0  0
  2  6  2  0  0  0  0
  3  4  2  0  0  0  0
  3 11  1  0  0  0  0
  4 14  1  0  0  0  0
  5 15  1  0  0  0  0
  6 16  1  0  0  0  0
  7  9  2  0  0  0  0
  7 17  1  0  0  0  0
  8 10  1  0  0  0  0
  8 17  2  0  0  0  0
  9 18  1  0  0  0  0
 10 18  2  0  0  0  0
 11 19  2  0  0  0  0
 12 14  2  0  0  0  0
 12 19  1  0  0  0  0
 13 25  2  0  0  0  0
 13 26  1  0  0  0  0
 14 23  1  0  0  0  0
 15 16  2  0  0  0  0
 15 25  1  0  0  0  0
 16 26  1  0  0  0  0
 17 27  1  0  0  0  0
 18 28  1  0  0  0  0
 19 30  1  0  0  0  0
 20 24  1  0  0  0  0
 20 27  1  0  0  0  0
 20 29  2  0  0  0  0
 21 28  1  0  0  0  0
 22 28  1  0  0  0  0
 23 27  1  0  0  0  0
 24 26  1  0  0  0  0
  1 31  1  0  0  0  0
  2 32  1  0  0  0  0
  3 33  1  0  0  0  0
  4 34  1  0  0  0  0
  5 35  1  0  0  0  0
  6 36  1  0  0  0  0
  7 37  1  0  0  0  0
  8 38  1  0  0  0  0
  9 39  1  0  0  0  0
 10 40  1  0  0  0  0
 11 41  1  0  0  0  0
 12 42  1  0  0  0  0
 13 43  1  0  0  0  0
 21 44  1  0  0  0  0
 21 45  1  0  0  0  0
 21 46  1  0  0  0  0
 22 47  1  0  0  0  0
 22 48  1  0  0  0  0
 22 49  1  0  0  0  0
 23 50  1  0  0  0  0
 23 51  1  0  0  0  0
 24 52  1  0  0  0  0
 24 53  1  0  0  0  0
M  END
> <clash_score>
0.7438166031195413

> <docking_score>
-9.423995018005371

> <overlap_score>
0.9948357343673706

$$$$
BENZO_369_1
  -OEChem-08232013503D

 55 58  0     0  0  0  0  0  0999 V2000
   14.2764    0.9916   23.8530 C   0  0  0  0  0  0  0  0  0  0  0  0
   13.5527    0.2977   24.8227 C   0  0  0  0  0  0  0  0  0  0  0  0
   13.6055    1.7016   22.8572 C   0  0  0  0  0  0  0  0  0  0  0  0
    4.0980    2.1130   19.5350 C   0  0  0  0  0  0  0  0  0  0  0  0
    4.2970    1.6690   20.8430 C   0  0  0  0  0  0  0  0  0  0  0  0
   12.1582    0.3136   24.7966 C   0  0  0  0  0  0  0  0  0  0  0  0
   12.2110    1.7175   22.8310 C   0  0  0  0  0  0  0  0  0  0  0  0
    4.9400    1.7060   18.5060 C   0  0  0  0  0  0  0  0  0  0  0  0
    5.3360    0.8000   21.1530 C   0  0  0  0  0  0  0  0  0  0  0  0
    8.3310   -2.7170   25.3430 C   0  0  0  0  0  0  0  0  0  0  0  0
   10.2570   -3.5000   24.1350 C   0  0  0  0  0  0  0  0  0  0  0  0
    8.3510   -1.5420   24.6110 C   0  0  0  0  0  0  0  0  0  0  0  0
   10.2760   -2.3270   23.4020 C   0  0  0  0  0  0  0  0  0  0  0  0
    7.6830   -0.5170   18.7600 C   0  0  0  0  0  0  0  0  0  0  0  0
   11.4873    1.0235   23.8007 C   0  0  0  0  0  0  0  0  0  0  0  0
    5.9810    0.8330   18.8060 C   0  0  0  0  0  0  0  0  0  0  0  0
    6.1600    0.3870   20.1140 C   0  0  0  0  0  0  0  0  0  0  0  0
    9.2850   -3.7090   25.1090 C   0  0  0  0  0  0  0  0  0  0  0  0
    9.3300   -1.3350   23.6390 C   0  0  0  0  0  0  0  0  0  0  0  0
    9.6851   -6.1686   25.4416 C   0  0  0  0  0  0  0  0  0  0  0  0
    8.9510    0.1280   21.6880 C   0  0  0  0  0  0  0  0  0  0  0  0
    8.0387   -7.2896   27.0032 C   0  0  0  0  0  0  0  0  0  0  0  0
    9.9863    1.0409   23.7719 C   0  0  0  0  0  0  0  0  0  0  0  0
    9.4855   -7.1863   26.5549 C   0  0  0  0  0  0  0  0  0  0  0  0
    8.0810   -0.9750   21.0820 C   0  0  0  0  0  0  0  0  0  0  0  0
    6.9440    0.2550   18.0100 N   0  0  0  0  0  0  0  0  0  0  0  0
    7.2210   -0.4620   20.0350 N   0  0  0  0  0  0  0  0  0  0  0  0
    9.2630   -4.8902   25.8410 N   0  0  0  0  0  0  0  0  0  0  0  0
    9.4200   -0.0840   22.9530 N   0  0  0  0  0  0  0  0  0  0  0  0
   10.1590   -6.4792   24.3537 O   0  0  0  0  0  0  0  0  0  0  0  0
    9.1870    1.1500   21.0630 O   0  0  0  0  0  0  0  0  0  0  0  0
   15.3622    0.9802   23.8743 H   0  0  0  0  0  0  0  0  0  0  0  0
   14.0749   -0.2543   25.5988 H   0  0  0  0  0  0  0  0  0  0  0  0
   14.1686    2.2428   22.1027 H   0  0  0  0  0  0  0  0  0  0  0  0
    3.2711    2.7875   19.3201 H   0  0  0  0  0  0  0  0  0  0  0  0
    3.6281    2.0095   21.6292 H   0  0  0  0  0  0  0  0  0  0  0  0
   11.6026   -0.2301   25.5561 H   0  0  0  0  0  0  0  0  0  0  0  0
   11.6969    2.2732   22.0513 H   0  0  0  0  0  0  0  0  0  0  0  0
    4.7815    2.0665   17.4902 H   0  0  0  0  0  0  0  0  0  0  0  0
    5.4939    0.4577   22.1786 H   0  0  0  0  0  0  0  0  0  0  0  0
    7.5639   -2.8621   26.1045 H   0  0  0  0  0  0  0  0  0  0  0  0
   11.0141   -4.2644   23.9422 H   0  0  0  0  0  0  0  0  0  0  0  0
    7.5950   -0.7788   24.8007 H   0  0  0  0  0  0  0  0  0  0  0  0
   11.0408   -2.1861   22.6359 H   0  0  0  0  0  0  0  0  0  0  0  0
    8.5167   -1.1056   18.4550 H   0  0  0  0  0  0  0  0  0  0  0  0
    7.6696   -6.3247   27.3662 H   0  0  0  0  0  0  0  0  0  0  0  0
    7.9418   -8.0194   27.8128 H   0  0  0  0  0  0  0  0  0  0  0  0
    7.3931   -7.6069   26.1776 H   0  0  0  0  0  0  0  0  0  0  0  0
    9.5796    0.9577   24.7857 H   0  0  0  0  0  0  0  0  0  0  0  0
    9.6122    1.9785   23.3473 H   0  0  0  0  0  0  0  0  0  0  0  0
    9.8279   -8.1642   26.1973 H   0  0  0  0  0  0  0  0  0  0  0  0
   10.1123   -6.8975   27.4064 H   0  0  0  0  0  0  0  0  0  0  0  0
    8.7073   -1.7481   20.6391 H   0  0  0  0  0  0  0  0  0  0  0  0
    7.4352   -1.4043   21.8468 H   0  0  0  0  0  0  0  0  0  0  0  0
    8.8927   -4.8257   26.7964 H   0  0  0  0  0  0  0  0  0  0  0  0
  1  2  1  0  0  0  0
  1  3  2  0  0  0  0
  2  6  2  0  0  0  0
  3  7  1  0  0  0  0
  4  5  1  0  0  0  0
  4  8  2  0  0  0  0
  5  9  2  0  0  0  0
  6 15  1  0  0  0  0
  7 15  2  0  0  0  0
  8 16  1  0  0  0  0
  9 17  1  0  0  0  0
 10 12  2  0  0  0  0
 10 18  1  0  0  0  0
 11 13  1  0  0  0  0
 11 18  2  0  0  0  0
 12 19  1  0  0  0  0
 13 19  2  0  0  0  0
 14 26  2  0  0  0  0
 14 27  1  0  0  0  0
 15 23  1  0  0  0  0
 16 17  2  0  0  0  0
 16 26  1  0  0  0  0
 17 27  1  0  0  0  0
 18 28  1  0  0  0  0
 19 29  1  0  0  0  0
 20 24  1  0  0  0  0
 20 28  1  0  0  0  0
 20 30  2  0  0  0  0
 21 25  1  0  0  0  0
 21 29  1  0  0  0  0
 21 31  2  0  0  0  0
 22 24  1  0  0  0  0
 23 29  1  0  0  0  0
 25 27  1  0  0  0  0
  1 32  1  0  0  0  0
  2 33  1  0  0  0  0
  3 34  1  0  0  0  0
  4 35  1  0  0  0  0
  5 36  1  0  0  0  0
  6 37  1  0  0  0  0
  7 38  1  0  0  0  0
  8 39  1  0  0  0  0
  9 40  1  0  0  0  0
 10 41  1  0  0  0  0
 11 42  1  0  0  0  0
 12 43  1  0  0  0  0
 13 44  1  0  0  0  0
 14 45  1  0  0  0  0
 22 46  1  0  0  0  0
 22 47  1  0  0  0  0
 22 48  1  0  0  0  0
 23 49  1  0  0  0  0
 23 50  1  0  0  0  0
 24 51  1  0  0  0  0
 24 52  1  0  0  0  0
 25 53  1  0  0  0  0
 25 54  1  0  0  0  0
 28 55  1  0  0  0  0
M  END
> <clash_score>
1.3337581357662123

> <docking_score>
-7.134284973144531

> <overlap_score>
0.9779337048530579

$$$$
BENZO_368_1
  -OEChem-08232013503D

 52 55  0     0  0  0  0  0  0999 V2000
    4.0980    2.1130   19.5350 C   0  0  0  0  0  0  0  0  0  0  0  0
    4.2970    1.6690   20.8430 C   0  0  0  0  0  0  0  0  0  0  0  0
    4.9400    1.7060   18.5060 C   0  0  0  0  0  0  0  0  0  0  0  0
    5.3360    0.8000   21.1530 C   0  0  0  0  0  0  0  0  0  0  0  0
    8.3310   -2.7170   25.3430 C   0  0  0  0  0  0  0  0  0  0  0  0
   10.2570   -3.5000   24.1350 C   0  0  0  0  0  0  0  0  0  0  0  0
    8.3510   -1.5420   24.6110 C   0  0  0  0  0  0  0  0  0  0  0  0
   10.2760   -2.3270   23.4020 C   0  0  0  0  0  0  0  0  0  0  0  0
   12.3055    1.1155   22.6379 C   0  0  0  0  0  0  0  0  0  0  0  0
   13.6477    1.0750   22.9450 C   0  0  0  0  0  0  0  0  0  0  0  0
   12.2355    0.9161   24.9525 C   0  0  0  0  0  0  0  0  0  0  0  0
    7.6830   -0.5170   18.7600 C   0  0  0  0  0  0  0  0  0  0  0  0
   11.4873    1.0235   23.8007 C   0  0  0  0  0  0  0  0  0  0  0  0
    5.9810    0.8330   18.8060 C   0  0  0  0  0  0  0  0  0  0  0  0
    6.1600    0.3870   20.1140 C   0  0  0  0  0  0  0  0  0  0  0  0
    9.2850   -3.7090   25.1090 C   0  0  0  0  0  0  0  0  0  0  0  0
    9.3300   -1.3350   23.6390 C   0  0  0  0  0  0  0  0  0  0  0  0
    9.6851   -6.1686   25.4416 C   0  0  0  0  0  0  0  0  0  0  0  0
    8.9510    0.1280   21.6880 C   0  0  0  0  0  0  0  0  0  0  0  0
    8.0387   -7.2896   27.0032 C   0  0  0  0  0  0  0  0  0  0  0  0
    9.9863    1.0409   23.7719 C   0  0  0  0  0  0  0  0  0  0  0  0
    9.4855   -7.1863   26.5549 C   0  0  0  0  0  0  0  0  0  0  0  0
    8.0810   -0.9750   21.0820 C   0  0  0  0  0  0  0  0  0  0  0  0
    6.9440    0.2550   18.0100 N   0  0  0  0  0  0  0  0  0  0  0  0
    7.2210   -0.4620   20.0350 N   0  0  0  0  0  0  0  0  0  0  0  0
    9.2630   -4.8902   25.8410 N   0  0  0  0  0  0  0  0  0  0  0  0
    9.4200   -0.0840   22.9530 N   0  0  0  0  0  0  0  0  0  0  0  0
   10.1590   -6.4792   24.3537 O   0  0  0  0  0  0  0  0  0  0  0  0
    9.1870    1.1500   21.0630 O   0  0  0  0  0  0  0  0  0  0  0  0
   13.9171    0.9266   24.6296 S   0  0  0  0  0  0  0  0  0  0  0  0
    3.2711    2.7875   19.3201 H   0  0  0  0  0  0  0  0  0  0  0  0
    3.6281    2.0095   21.6292 H   0  0  0  0  0  0  0  0  0  0  0  0
    4.7815    2.0665   17.4902 H   0  0  0  0  0  0  0  0  0  0  0  0
    5.4939    0.4577   22.1786 H   0  0  0  0  0  0  0  0  0  0  0  0
    7.5639   -2.8621   26.1045 H   0  0  0  0  0  0  0  0  0  0  0  0
   11.0141   -4.2644   23.9422 H   0  0  0  0  0  0  0  0  0  0  0  0
    7.5950   -0.7788   24.8007 H   0  0  0  0  0  0  0  0  0  0  0  0
   11.0408   -2.1861   22.6359 H   0  0  0  0  0  0  0  0  0  0  0  0
   11.9326    1.2064   21.6254 H   0  0  0  0  0  0  0  0  0  0  0  0
   14.4830    1.1248   22.2608 H   0  0  0  0  0  0  0  0  0  0  0  0
   11.8792    0.8305   25.9697 H   0  0  0  0  0  0  0  0  0  0  0  0
    8.5167   -1.1056   18.4550 H   0  0  0  0  0  0  0  0  0  0  0  0
    7.6696   -6.3247   27.3662 H   0  0  0  0  0  0  0  0  0  0  0  0
    7.9418   -8.0194   27.8128 H   0  0  0  0  0  0  0  0  0  0  0  0
    7.3931   -7.6069   26.1776 H   0  0  0  0  0  0  0  0  0  0  0  0
    9.5796    0.9577   24.7857 H   0  0  0  0  0  0  0  0  0  0  0  0
    9.6122    1.9785   23.3473 H   0  0  0  0  0  0  0  0  0  0  0  0
    9.8279   -8.1642   26.1973 H   0  0  0  0  0  0  0  0  0  0  0  0
   10.1123   -6.8975   27.4064 H   0  0  0  0  0  0  0  0  0  0  0  0
    8.7073   -1.7481   20.6391 H   0  0  0  0  0  0  0  0  0  0  0  0
    7.4352   -1.4043   21.8468 H   0  0  0  0  0  0  0  0  0  0  0  0
    8.8927   -4.8257   26.7964 H   0  0  0  0  0  0  0  0  0  0  0  0
  1  2  1  0  0  0  0
  1  3  2  0  0  0  0
  2  4  2  0  0  0  0
  3 14  1  0  0  0  0
  4 15  1  0  0  0  0
  5  7  2  0  0  0  0
  5 16  1  0  0  0  0
  6  8  1  0  0  0  0
  6 16  2  0  0  0  0
  7 17  1  0  0  0  0
  8 17  2  0  0  0  0
  9 10  2  0  0  0  0
  9 13  1  0  0  0  0
 10 30  1  0  0  0  0
 11 13  2  0  0  0  0
 11 30  1  0  0  0  0
 12 24  2  0  0  0  0
 12 25  1  0  0  0  0
 13 21  1  0  0  0  0
 14 15  2  0  0  0  0
 14 24  1  0  0  0  0
 15 25  1  0  0  0  0
 16 26  1  0  0  0  0
 17 27  1  0  0  0  0
 18 22  1  0  0  0  0
 18 26  1  0  0  0  0
 18 28  2  0  0  0  0
 19 23  1  0  0  0  0
 19 27  1  0  0  0  0
 19 29  2  0  0  0  0
 20 22  1  0  0  0  0
 21 27  1  0  0  0  0
 23 25  1  0  0  0  0
  1 31  1  0  0  0  0
  2 32  1  0  0  0  0
  3 33  1  0  0  0  0
  4 34  1  0  0  0  0
  5 35  1  0  0  0  0
  6 36  1  0  0  0  0
  7 37  1  0  0  0  0
  8 38  1  0  0  0  0
  9 39  1  0  0  0  0
 10 40  1  0  0  0  0
 11 41  1  0  0  0  0
 12 42  1  0  0  0  0
 20 43  1  0  0  0  0
 20 44  1  0  0  0  0
 20 45  1  0  0  0  0
 21 46  1  0  0  0  0
 21 47  1  0  0  0  0
 22 48  1  0  0  0  0
 22 49  1  0  0  0  0
 23 50  1  0  0  0  0
 23 51  1  0  0  0  0
 26 52  1  0  0  0  0
M  END
> <clash_score>
1.3337581357662123

> <docking_score>
-7.503739356994629

> <overlap_score>
0.9563899040222168

$$$$
BENZO_370_1
  -OEChem-08232013503D

 55 58  0     0  0  0  0  0  0999 V2000
    4.0980    2.1130   19.5350 C   0  0  0  0  0  0  0  0  0  0  0  0
    4.2970    1.6690   20.8430 C   0  0  0  0  0  0  0  0  0  0  0  0
   13.6041    1.9249   23.0635 C   0  0  0  0  0  0  0  0  0  0  0  0
   12.2096    1.9398   23.0362 C   0  0  0  0  0  0  0  0  0  0  0  0
    4.9400    1.7060   18.5060 C   0  0  0  0  0  0  0  0  0  0  0  0
    5.3360    0.8000   21.1530 C   0  0  0  0  0  0  0  0  0  0  0  0
    8.3310   -2.7170   25.3430 C   0  0  0  0  0  0  0  0  0  0  0  0
   10.2570   -3.5000   24.1350 C   0  0  0  0  0  0  0  0  0  0  0  0
    8.3510   -1.5420   24.6110 C   0  0  0  0  0  0  0  0  0  0  0  0
   10.2760   -2.3270   23.4020 C   0  0  0  0  0  0  0  0  0  0  0  0
   14.2763    0.9938   23.8551 C   0  0  0  0  0  0  0  0  0  0  0  0
   12.1595    0.0924   24.5924 C   0  0  0  0  0  0  0  0  0  0  0  0
    7.6830   -0.5170   18.7600 C   0  0  0  0  0  0  0  0  0  0  0  0
   11.4873    1.0235   23.8007 C   0  0  0  0  0  0  0  0  0  0  0  0
    5.9810    0.8330   18.8060 C   0  0  0  0  0  0  0  0  0  0  0  0
    6.1600    0.3870   20.1140 C   0  0  0  0  0  0  0  0  0  0  0  0
    9.2850   -3.7090   25.1090 C   0  0  0  0  0  0  0  0  0  0  0  0
    9.3300   -1.3350   23.6390 C   0  0  0  0  0  0  0  0  0  0  0  0
   13.5541    0.0775   24.6196 C   0  0  0  0  0  0  0  0  0  0  0  0
    9.6851   -6.1686   25.4416 C   0  0  0  0  0  0  0  0  0  0  0  0
    8.9510    0.1280   21.6880 C   0  0  0  0  0  0  0  0  0  0  0  0
    8.0387   -7.2896   27.0032 C   0  0  0  0  0  0  0  0  0  0  0  0
    9.9863    1.0409   23.7719 C   0  0  0  0  0  0  0  0  0  0  0  0
    9.4855   -7.1863   26.5549 C   0  0  0  0  0  0  0  0  0  0  0  0
    8.0810   -0.9750   21.0820 C   0  0  0  0  0  0  0  0  0  0  0  0
    6.9440    0.2550   18.0100 N   0  0  0  0  0  0  0  0  0  0  0  0
    7.2210   -0.4620   20.0350 N   0  0  0  0  0  0  0  0  0  0  0  0
    9.2630   -4.8902   25.8410 N   0  0  0  0  0  0  0  0  0  0  0  0
    9.4200   -0.0840   22.9530 N   0  0  0  0  0  0  0  0  0  0  0  0
   10.1590   -6.4792   24.3537 O   0  0  0  0  0  0  0  0  0  0  0  0
    9.1870    1.1500   21.0630 O   0  0  0  0  0  0  0  0  0  0  0  0
   14.3840   -1.0703   25.5970 Cl  0  0  0  0  0  0  0  0  0  0  0  0
    3.2711    2.7875   19.3201 H   0  0  0  0  0  0  0  0  0  0  0  0
    3.6281    2.0095   21.6292 H   0  0  0  0  0  0  0  0  0  0  0  0
   14.1661    2.6387   22.4681 H   0  0  0  0  0  0  0  0  0  0  0  0
   11.6941    2.6689   22.4166 H   0  0  0  0  0  0  0  0  0  0  0  0
    4.7815    2.0665   17.4902 H   0  0  0  0  0  0  0  0  0  0  0  0
    5.4939    0.4577   22.1786 H   0  0  0  0  0  0  0  0  0  0  0  0
    7.5639   -2.8621   26.1045 H   0  0  0  0  0  0  0  0  0  0  0  0
   11.0141   -4.2644   23.9422 H   0  0  0  0  0  0  0  0  0  0  0  0
    7.5950   -0.7788   24.8007 H   0  0  0  0  0  0  0  0  0  0  0  0
   11.0408   -2.1861   22.6359 H   0  0  0  0  0  0  0  0  0  0  0  0
   15.3635    0.9940   23.8668 H   0  0  0  0  0  0  0  0  0  0  0  0
   11.5918   -0.6203   25.1863 H   0  0  0  0  0  0  0  0  0  0  0  0
    8.5167   -1.1056   18.4550 H   0  0  0  0  0  0  0  0  0  0  0  0
    7.6696   -6.3247   27.3662 H   0  0  0  0  0  0  0  0  0  0  0  0
    7.9418   -8.0194   27.8128 H   0  0  0  0  0  0  0  0  0  0  0  0
    7.3931   -7.6069   26.1776 H   0  0  0  0  0  0  0  0  0  0  0  0
    9.5796    0.9577   24.7857 H   0  0  0  0  0  0  0  0  0  0  0  0
    9.6122    1.9785   23.3473 H   0  0  0  0  0  0  0  0  0  0  0  0
    9.8279   -8.1642   26.1973 H   0  0  0  0  0  0  0  0  0  0  0  0
   10.1123   -6.8975   27.4064 H   0  0  0  0  0  0  0  0  0  0  0  0
    8.7073   -1.7481   20.6391 H   0  0  0  0  0  0  0  0  0  0  0  0
    7.4352   -1.4043   21.8468 H   0  0  0  0  0  0  0  0  0  0  0  0
    8.8927   -4.8257   26.7964 H   0  0  0  0  0  0  0  0  0  0  0  0
  1  2  1  0  0  0  0
  1  5  2  0  0  0  0
  2  6  2  0  0  0  0
  3  4  2  0  0  0  0
  3 11  1  0  0  0  0
  4 14  1  0  0  0  0
  5 15  1  0  0  0  0
  6 16  1  0  0  0  0
  7  9  2  0  0  0  0
  7 17  1  0  0  0  0
  8 10  1  0  0  0  0
  8 17  2  0  0  0  0
  9 18  1  0  0  0  0
 10 18  2  0  0  0  0
 11 19  2  0  0  0  0
 12 14  2  0  0  0  0
 12 19  1  0  0  0  0
 13 26  2  0  0  0  0
 13 27  1  0  0  0  0
 14 23  1  0  0  0  0
 15 16  2  0  0  0  0
 15 26  1  0  0  0  0
 16 27  1  0  0  0  0
 17 28  1  0  0  0  0
 18 29  1  0  0  0  0
 19 32  1  0  0  0  0
 20 24  1  0  0  0  0
 20 28  1  0  0  0  0
 20 30  2  0  0  0  0
 21 25  1  0  0  0  0
 21 29  1  0  0  0  0
 21 31  2  0  0  0  0
 22 24  1  0  0  0  0
 23 29  1  0  0  0  0
 25 27  1  0  0  0  0
  1 33  1  0  0  0  0
  2 34  1  0  0  0  0
  3 35  1  0  0  0  0
  4 36  1  0  0  0  0
  5 37  1  0  0  0  0
  6 38  1  0  0  0  0
  7 39  1  0  0  0  0
  8 40  1  0  0  0  0
  9 41  1  0  0  0  0
 10 42  1  0  0  0  0
 11 43  1  0  0  0  0
 12 44  1  0  0  0  0
 13 45  1  0  0  0  0
 22 46  1  0  0  0  0
 22 47  1  0  0  0  0
 22 48  1  0  0  0  0
 23 49  1  0  0  0  0
 23 50  1  0  0  0  0
 24 51  1  0  0  0  0
 24 52  1  0  0  0  0
 25 53  1  0  0  0  0
 25 54  1  0  0  0  0
 28 55  1  0  0  0  0
M  END
> <clash_score>
2.0775747388857537

> <docking_score>
-5.900822639465332

> <overlap_score>
0.9789455533027649

$$$$
BENZO_373_1
  -OEChem-08232013503D

 60 64  0     0  0  0  0  0  0999 V2000
   14.2757    1.1262   23.8410 C   0  0  0  0  0  0  0  0  0  0  0  0
   13.5688    0.4278   24.8197 C   0  0  0  0  0  0  0  0  0  0  0  0
   13.5882    1.8044   22.8344 C   0  0  0  0  0  0  0  0  0  0  0  0
    4.0980    2.1130   19.5350 C   0  0  0  0  0  0  0  0  0  0  0  0
    4.2970    1.6690   20.8430 C   0  0  0  0  0  0  0  0  0  0  0  0
   12.1744    0.4073   24.7919 C   0  0  0  0  0  0  0  0  0  0  0  0
   12.1938    1.7840   22.8066 C   0  0  0  0  0  0  0  0  0  0  0  0
    4.9400    1.7060   18.5060 C   0  0  0  0  0  0  0  0  0  0  0  0
    5.3360    0.8000   21.1530 C   0  0  0  0  0  0  0  0  0  0  0  0
    8.3310   -2.7170   25.3430 C   0  0  0  0  0  0  0  0  0  0  0  0
   10.2570   -3.5000   24.1350 C   0  0  0  0  0  0  0  0  0  0  0  0
    8.3510   -1.5420   24.6110 C   0  0  0  0  0  0  0  0  0  0  0  0
   10.2760   -2.3270   23.4020 C   0  0  0  0  0  0  0  0  0  0  0  0
    7.6830   -0.5170   18.7600 C   0  0  0  0  0  0  0  0  0  0  0  0
   11.4868    1.0855   23.7853 C   0  0  0  0  0  0  0  0  0  0  0  0
    5.9810    0.8330   18.8060 C   0  0  0  0  0  0  0  0  0  0  0  0
    6.1600    0.3870   20.1140 C   0  0  0  0  0  0  0  0  0  0  0  0
    9.2850   -3.7090   25.1090 C   0  0  0  0  0  0  0  0  0  0  0  0
    9.3300   -1.3350   23.6390 C   0  0  0  0  0  0  0  0  0  0  0  0
    8.9510    0.1280   21.6880 C   0  0  0  0  0  0  0  0  0  0  0  0
    7.3162   -6.8835   26.5210 C   0  0  0  0  0  0  0  0  0  0  0  0
    7.3507   -5.5245   27.2240 C   0  0  0  0  0  0  0  0  0  0  0  0
    7.9375   -6.8069   25.1245 C   0  0  0  0  0  0  0  0  0  0  0  0
    8.7638   -4.9418   27.2163 C   0  0  0  0  0  0  0  0  0  0  0  0
    9.3378   -6.1874   25.1659 C   0  0  0  0  0  0  0  0  0  0  0  0
    9.9859    1.0637   23.7546 C   0  0  0  0  0  0  0  0  0  0  0  0
    8.0810   -0.9750   21.0820 C   0  0  0  0  0  0  0  0  0  0  0  0
    6.9440    0.2550   18.0100 N   0  0  0  0  0  0  0  0  0  0  0  0
    7.2210   -0.4620   20.0350 N   0  0  0  0  0  0  0  0  0  0  0  0
    9.2639   -4.8860   25.8399 N   0  0  0  0  0  0  0  0  0  0  0  0
    9.4200   -0.0840   22.9530 N   0  0  0  0  0  0  0  0  0  0  0  0
    9.1870    1.1500   21.0630 O   0  0  0  0  0  0  0  0  0  0  0  0
   15.3615    1.1431   23.8636 H   0  0  0  0  0  0  0  0  0  0  0  0
   14.1039   -0.0995   25.6042 H   0  0  0  0  0  0  0  0  0  0  0  0
   14.1383    2.3493   22.0729 H   0  0  0  0  0  0  0  0  0  0  0  0
    3.2711    2.7875   19.3201 H   0  0  0  0  0  0  0  0  0  0  0  0
    3.6281    2.0095   21.6292 H   0  0  0  0  0  0  0  0  0  0  0  0
   11.6319   -0.1397   25.5585 H   0  0  0  0  0  0  0  0  0  0  0  0
   11.6666    2.3152   22.0185 H   0  0  0  0  0  0  0  0  0  0  0  0
    4.7815    2.0665   17.4902 H   0  0  0  0  0  0  0  0  0  0  0  0
    5.4939    0.4577   22.1786 H   0  0  0  0  0  0  0  0  0  0  0  0
    7.5647   -2.8621   26.1053 H   0  0  0  0  0  0  0  0  0  0  0  0
   11.0144   -4.2642   23.9425 H   0  0  0  0  0  0  0  0  0  0  0  0
    7.5958   -0.7779   24.8006 H   0  0  0  0  0  0  0  0  0  0  0  0
   11.0406   -2.1848   22.6356 H   0  0  0  0  0  0  0  0  0  0  0  0
    8.5167   -1.1056   18.4550 H   0  0  0  0  0  0  0  0  0  0  0  0
    7.8578   -7.6261   27.1266 H   0  0  0  0  0  0  0  0  0  0  0  0
    6.2773   -7.2358   26.4459 H   0  0  0  0  0  0  0  0  0  0  0  0
    6.6663   -4.8351   26.7223 H   0  0  0  0  0  0  0  0  0  0  0  0
    7.0044   -5.6368   28.2534 H   0  0  0  0  0  0  0  0  0  0  0  0
    7.9946   -7.8119   24.6937 H   0  0  0  0  0  0  0  0  0  0  0  0
    7.2929   -6.2123   24.4668 H   0  0  0  0  0  0  0  0  0  0  0  0
    8.7343   -3.9408   27.6542 H   0  0  0  0  0  0  0  0  0  0  0  0
    9.4243   -5.5632   27.8278 H   0  0  0  0  0  0  0  0  0  0  0  0
   10.0200   -6.8490   25.7011 H   0  0  0  0  0  0  0  0  0  0  0  0
    9.6984   -6.0694   24.1436 H   0  0  0  0  0  0  0  0  0  0  0  0
    9.5800    0.9891   24.7694 H   0  0  0  0  0  0  0  0  0  0  0  0
    9.5886    1.9832   23.3122 H   0  0  0  0  0  0  0  0  0  0  0  0
    8.7136   -1.7499   20.6462 H   0  0  0  0  0  0  0  0  0  0  0  0
    7.4415   -1.4060   21.8540 H   0  0  0  0  0  0  0  0  0  0  0  0
  1  2  1  0  0  0  0
  1  3  2  0  0  0  0
  2  6  2  0  0  0  0
  3  7  1  0  0  0  0
  4  5  1  0  0  0  0
  4  8  2  0  0  0  0
  5  9  2  0  0  0  0
  6 15  1  0  0  0  0
  7 15  2  0  0  0  0
  8 16  1  0  0  0  0
  9 17  1  0  0  0  0
 10 12  2  0  0  0  0
 10 18  1  0  0  0  0
 11 13  1  0  0  0  0
 11 18  2  0  0  0  0
 12 19  1  0  0  0  0
 13 19  2  0  0  0  0
 14 28  2  0  0  0  0
 14 29  1  0  0  0  0
 15 26  1  0  0  0  0
 16 17  2  0  0  0  0
 16 28  1  0  0  0  0
 17 29  1  0  0  0  0
 18 30  1  0  0  0  0
 19 31  1  0  0  0  0
 20 27  1  0  0  0  0
 20 31  1  0  0  0  0
 20 32  2  0  0  0  0
 21 22  1  0  0  0  0
 21 23  1  0  0  0  0
 22 24  1  0  0  0  0
 23 25  1  0  0  0  0
 24 30  1  0  0  0  0
 25 30  1  0  0  0  0
 26 31  1  0  0  0  0
 27 29  1  0  0  0  0
  1 33  1  0  0  0  0
  2 34  1  0  0  0  0
  3 35  1  0  0  0  0
  4 36  1  0  0  0  0
  5 37  1  0  0  0  0
  6 38  1  0  0  0  0
  7 39  1  0  0  0  0
  8 40  1  0  0  0  0
  9 41  1  0  0  0  0
 10 42  1  0  0  0  0
 11 43  1  0  0  0  0
 12 44  1  0  0  0  0
 13 45  1  0  0  0  0
 14 46  1  0  0  0  0
 21 47  1  0  0  0  0
 21 48  1  0  0  0  0
 22 49  1  0  0  0  0
 22 50  1  0  0  0  0
 23 51  1  0  0  0  0
 23 52  1  0  0  0  0
 24 53  1  0  0  0  0
 24 54  1  0  0  0  0
 25 55  1  0  0  0  0
 25 56  1  0  0  0  0
 26 57  1  0  0  0  0
 26 58  1  0  0  0  0
 27 59  1  0  0  0  0
 27 60  1  0  0  0  0
M  END
> <clash_score>
0

> <docking_score>
-9.285481452941895

> <overlap_score>
1.0069940090179443

$$$$
BENZO_371_1
  -OEChem-08232013503D

 55 58  0     0  0  0  0  0  0999 V2000
    4.0980    2.1130   19.5350 C   0  0  0  0  0  0  0  0  0  0  0  0
    4.2970    1.6690   20.8430 C   0  0  0  0  0  0  0  0  0  0  0  0
    4.9400    1.7060   18.5060 C   0  0  0  0  0  0  0  0  0  0  0  0
    5.3360    0.8000   21.1530 C   0  0  0  0  0  0  0  0  0  0  0  0
    8.3310   -2.7170   25.3430 C   0  0  0  0  0  0  0  0  0  0  0  0
   10.2570   -3.5000   24.1350 C   0  0  0  0  0  0  0  0  0  0  0  0
    8.3510   -1.5420   24.6110 C   0  0  0  0  0  0  0  0  0  0  0  0
   10.2760   -2.3270   23.4020 C   0  0  0  0  0  0  0  0  0  0  0  0
   12.3285    0.9185   24.9246 C   0  0  0  0  0  0  0  0  0  0  0  0
   12.3484    1.1041   22.7337 C   0  0  0  0  0  0  0  0  0  0  0  0
    7.6830   -0.5170   18.7600 C   0  0  0  0  0  0  0  0  0  0  0  0
   11.4873    1.0235   23.8007 C   0  0  0  0  0  0  0  0  0  0  0  0
    5.9810    0.8330   18.8060 C   0  0  0  0  0  0  0  0  0  0  0  0
    6.1600    0.3870   20.1140 C   0  0  0  0  0  0  0  0  0  0  0  0
    9.2850   -3.7090   25.1090 C   0  0  0  0  0  0  0  0  0  0  0  0
    9.3300   -1.3350   23.6390 C   0  0  0  0  0  0  0  0  0  0  0  0
    9.6851   -6.1686   25.4416 C   0  0  0  0  0  0  0  0  0  0  0  0
    8.9510    0.1280   21.6880 C   0  0  0  0  0  0  0  0  0  0  0  0
    8.0387   -7.2896   27.0032 C   0  0  0  0  0  0  0  0  0  0  0  0
   14.8457    1.0920   22.5284 C   0  0  0  0  0  0  0  0  0  0  0  0
    9.9863    1.0409   23.7719 C   0  0  0  0  0  0  0  0  0  0  0  0
    9.4855   -7.1863   26.5549 C   0  0  0  0  0  0  0  0  0  0  0  0
    8.0810   -0.9750   21.0820 C   0  0  0  0  0  0  0  0  0  0  0  0
   13.6245    0.9307   24.6016 N   0  0  0  0  0  0  0  0  0  0  0  0
    6.9440    0.2550   18.0100 N   0  0  0  0  0  0  0  0  0  0  0  0
   13.6041    1.0443   23.2627 N   0  0  0  0  0  0  0  0  0  0  0  0
    7.2210   -0.4620   20.0350 N   0  0  0  0  0  0  0  0  0  0  0  0
    9.2630   -4.8902   25.8410 N   0  0  0  0  0  0  0  0  0  0  0  0
    9.4200   -0.0840   22.9530 N   0  0  0  0  0  0  0  0  0  0  0  0
   10.1590   -6.4792   24.3537 O   0  0  0  0  0  0  0  0  0  0  0  0
    9.1870    1.1500   21.0630 O   0  0  0  0  0  0  0  0  0  0  0  0
    3.2711    2.7875   19.3201 H   0  0  0  0  0  0  0  0  0  0  0  0
    3.6281    2.0095   21.6292 H   0  0  0  0  0  0  0  0  0  0  0  0
    4.7815    2.0665   17.4902 H   0  0  0  0  0  0  0  0  0  0  0  0
    5.4939    0.4577   22.1786 H   0  0  0  0  0  0  0  0  0  0  0  0
    7.5639   -2.8621   26.1045 H   0  0  0  0  0  0  0  0  0  0  0  0
   11.0141   -4.2644   23.9422 H   0  0  0  0  0  0  0  0  0  0  0  0
    7.5950   -0.7788   24.8007 H   0  0  0  0  0  0  0  0  0  0  0  0
   11.0408   -2.1861   22.6359 H   0  0  0  0  0  0  0  0  0  0  0  0
   12.0535    0.8325   25.9664 H   0  0  0  0  0  0  0  0  0  0  0  0
   12.1787    1.1952   21.6694 H   0  0  0  0  0  0  0  0  0  0  0  0
    8.5167   -1.1056   18.4550 H   0  0  0  0  0  0  0  0  0  0  0  0
    7.6696   -6.3247   27.3662 H   0  0  0  0  0  0  0  0  0  0  0  0
    7.9418   -8.0194   27.8128 H   0  0  0  0  0  0  0  0  0  0  0  0
    7.3931   -7.6069   26.1776 H   0  0  0  0  0  0  0  0  0  0  0  0
   15.1480    2.1392   22.4448 H   0  0  0  0  0  0  0  0  0  0  0  0
   15.6066    0.5158   23.0620 H   0  0  0  0  0  0  0  0  0  0  0  0
   14.6961    0.6558   21.5368 H   0  0  0  0  0  0  0  0  0  0  0  0
    9.5796    0.9577   24.7857 H   0  0  0  0  0  0  0  0  0  0  0  0
    9.6122    1.9785   23.3473 H   0  0  0  0  0  0  0  0  0  0  0  0
    9.8279   -8.1642   26.1973 H   0  0  0  0  0  0  0  0  0  0  0  0
   10.1123   -6.8975   27.4064 H   0  0  0  0  0  0  0  0  0  0  0  0
    8.7073   -1.7481   20.6391 H   0  0  0  0  0  0  0  0  0  0  0  0
    7.4352   -1.4043   21.8468 H   0  0  0  0  0  0  0  0  0  0  0  0
    8.8927   -4.8257   26.7964 H   0  0  0  0  0  0  0  0  0  0  0  0
  1  2  1  0  0  0  0
  1  3  2  0  0  0  0
  2  4  2  0  0  0  0
  3 13  1  0  0  0  0
  4 14  1  0  0  0  0
  5  7  2  0  0  0  0
  5 15  1  0  0  0  0
  6  8  1  0  0  0  0
  6 15  2  0  0  0  0
  7 16  1  0  0  0  0
  8 16  2  0  0  0  0
  9 12  1  0  0  0  0
  9 24  2  0  0  0  0
 10 12  2  0  0  0  0
 10 26  1  0  0  0  0
 11 25  2  0  0  0  0
 11 27  1  0  0  0  0
 12 21  1  0  0  0  0
 13 14  2  0  0  0  0
 13 25  1  0  0  0  0
 14 27  1  0  0  0  0
 15 28  1  0  0  0  0
 16 29  1  0  0  0  0
 17 22  1  0  0  0  0
 17 28  1  0  0  0  0
 17 30  2  0  0  0  0
 18 23  1  0  0  0  0
 18 29  1  0  0  0  0
 18 31  2  0  0  0  0
 19 22  1  0  0  0  0
 20 26  1  0  0  0  0
 21 29  1  0  0  0  0
 23 27  1  0  0  0  0
 24 26  1  0  0  0  0
  1 32  1  0  0  0  0
  2 33  1  0  0  0  0
  3 34  1  0  0  0  0
  4 35  1  0  0  0  0
  5 36  1  0  0  0  0
  6 37  1  0  0  0  0
  7 38  1  0  0  0  0
  8 39  1  0  0  0  0
  9 40  1  0  0  0  0
 10 41  1  0  0  0  0
 11 42  1  0  0  0  0
 19 43  1  0  0  0  0
 19 44  1  0  0  0  0
 19 45  1  0  0  0  0
 20 46  1  0  0  0  0
 20 47  1  0  0  0  0
 20 48  1  0  0  0  0
 21 49  1  0  0  0  0
 21 50  1  0  0  0  0
 22 51  1  0  0  0  0
 22 52  1  0  0  0  0
 23 53  1  0  0  0  0
 23 54  1  0  0  0  0
 28 55  1  0  0  0  0
M  END
> <clash_score>
1.3337581357662123

> <docking_score>
-6.6888427734375

> <overlap_score>
0.972250759601593

$$$$
BENZO_372_1
  -OEChem-08232013503D

 57 61  0     0  0  0  0  0  0999 V2000
    4.0980    2.1130   19.5350 C   0  0  0  0  0  0  0  0  0  0  0  0
    4.2970    1.6690   20.8430 C   0  0  0  0  0  0  0  0  0  0  0  0
    4.9400    1.7060   18.5060 C   0  0  0  0  0  0  0  0  0  0  0  0
    5.3360    0.8000   21.1530 C   0  0  0  0  0  0  0  0  0  0  0  0
    8.3310   -2.7170   25.3430 C   0  0  0  0  0  0  0  0  0  0  0  0
   10.2570   -3.5000   24.1350 C   0  0  0  0  0  0  0  0  0  0  0  0
    8.3510   -1.5420   24.6110 C   0  0  0  0  0  0  0  0  0  0  0  0
   10.2760   -2.3270   23.4020 C   0  0  0  0  0  0  0  0  0  0  0  0
   12.3041    1.1766   22.6217 C   0  0  0  0  0  0  0  0  0  0  0  0
   13.6465    1.1764   22.9309 C   0  0  0  0  0  0  0  0  0  0  0  0
   12.2358    1.0189   24.9397 C   0  0  0  0  0  0  0  0  0  0  0  0
    7.6830   -0.5170   18.7600 C   0  0  0  0  0  0  0  0  0  0  0  0
   11.4868    1.0855   23.7853 C   0  0  0  0  0  0  0  0  0  0  0  0
    5.9810    0.8330   18.8060 C   0  0  0  0  0  0  0  0  0  0  0  0
    6.1600    0.3870   20.1140 C   0  0  0  0  0  0  0  0  0  0  0  0
    9.2850   -3.7090   25.1090 C   0  0  0  0  0  0  0  0  0  0  0  0
    9.3300   -1.3350   23.6390 C   0  0  0  0  0  0  0  0  0  0  0  0
    8.9510    0.1280   21.6880 C   0  0  0  0  0  0  0  0  0  0  0  0
    7.3162   -6.8835   26.5210 C   0  0  0  0  0  0  0  0  0  0  0  0
    7.3507   -5.5245   27.2240 C   0  0  0  0  0  0  0  0  0  0  0  0
    7.9375   -6.8069   25.1245 C   0  0  0  0  0  0  0  0  0  0  0  0
    8.7638   -4.9418   27.2163 C   0  0  0  0  0  0  0  0  0  0  0  0
    9.3378   -6.1874   25.1659 C   0  0  0  0  0  0  0  0  0  0  0  0
    9.9859    1.0637   23.7546 C   0  0  0  0  0  0  0  0  0  0  0  0
    8.0810   -0.9750   21.0820 C   0  0  0  0  0  0  0  0  0  0  0  0
    6.9440    0.2550   18.0100 N   0  0  0  0  0  0  0  0  0  0  0  0
    7.2210   -0.4620   20.0350 N   0  0  0  0  0  0  0  0  0  0  0  0
    9.2639   -4.8860   25.8399 N   0  0  0  0  0  0  0  0  0  0  0  0
    9.4200   -0.0840   22.9530 N   0  0  0  0  0  0  0  0  0  0  0  0
    9.1870    1.1500   21.0630 O   0  0  0  0  0  0  0  0  0  0  0  0
   13.9171    1.0666   24.6183 S   0  0  0  0  0  0  0  0  0  0  0  0
    3.2711    2.7875   19.3201 H   0  0  0  0  0  0  0  0  0  0  0  0
    3.6281    2.0095   21.6292 H   0  0  0  0  0  0  0  0  0  0  0  0
    4.7815    2.0665   17.4902 H   0  0  0  0  0  0  0  0  0  0  0  0
    5.4939    0.4577   22.1786 H   0  0  0  0  0  0  0  0  0  0  0  0
    7.5647   -2.8621   26.1053 H   0  0  0  0  0  0  0  0  0  0  0  0
   11.0144   -4.2642   23.9425 H   0  0  0  0  0  0  0  0  0  0  0  0
    7.5958   -0.7779   24.8006 H   0  0  0  0  0  0  0  0  0  0  0  0
   11.0406   -2.1848   22.6356 H   0  0  0  0  0  0  0  0  0  0  0  0
   11.9305    1.2389   21.6074 H   0  0  0  0  0  0  0  0  0  0  0  0
   14.4812    1.2348   22.2468 H   0  0  0  0  0  0  0  0  0  0  0  0
   11.8803    0.9433   25.9580 H   0  0  0  0  0  0  0  0  0  0  0  0
    8.5167   -1.1056   18.4550 H   0  0  0  0  0  0  0  0  0  0  0  0
    7.8578   -7.6261   27.1266 H   0  0  0  0  0  0  0  0  0  0  0  0
    6.2773   -7.2358   26.4459 H   0  0  0  0  0  0  0  0  0  0  0  0
    6.6663   -4.8351   26.7223 H   0  0  0  0  0  0  0  0  0  0  0  0
    7.0044   -5.6368   28.2534 H   0  0  0  0  0  0  0  0  0  0  0  0
    7.9946   -7.8119   24.6937 H   0  0  0  0  0  0  0  0  0  0  0  0
    7.2929   -6.2123   24.4668 H   0  0  0  0  0  0  0  0  0  0  0  0
    8.7343   -3.9408   27.6542 H   0  0  0  0  0  0  0  0  0  0  0  0
    9.4243   -5.5632   27.8278 H   0  0  0  0  0  0  0  0  0  0  0  0
   10.0200   -6.8490   25.7011 H   0  0  0  0  0  0  0  0  0  0  0  0
    9.6984   -6.0694   24.1436 H   0  0  0  0  0  0  0  0  0  0  0  0
    9.5800    0.9891   24.7694 H   0  0  0  0  0  0  0  0  0  0  0  0
    9.5886    1.9832   23.3122 H   0  0  0  0  0  0  0  0  0  0  0  0
    8.7136   -1.7499   20.6462 H   0  0  0  0  0  0  0  0  0  0  0  0
    7.4415   -1.4060   21.8540 H   0  0  0  0  0  0  0  0  0  0  0  0
  1  2  1  0  0  0  0
  1  3  2  0  0  0  0
  2  4  2  0  0  0  0
  3 14  1  0  0  0  0
  4 15  1  0  0  0  0
  5  7  2  0  0  0  0
  5 16  1  0  0  0  0
  6  8  1  0  0  0  0
  6 16  2  0  0  0  0
  7 17  1  0  0  0  0
  8 17  2  0  0  0  0
  9 10  2  0  0  0  0
  9 13  1  0  0  0  0
 10 31  1  0  0  0  0
 11 13  2  0  0  0  0
 11 31  1  0  0  0  0
 12 26  2  0  0  0  0
 12 27  1  0  0  0  0
 13 24  1  0  0  0  0
 14 15  2  0  0  0  0
 14 26  1  0  0  0  0
 15 27  1  0  0  0  0
 16 28  1  0  0  0  0
 17 29  1  0  0  0  0
 18 25  1  0  0  0  0
 18 29  1  0  0  0  0
 18 30  2  0  0  0  0
 19 20  1  0  0  0  0
 19 21  1  0  0  0  0
 20 22  1  0  0  0  0
 21 23  1  0  0  0  0
 22 28  1  0  0  0  0
 23 28  1  0  0  0  0
 24 29  1  0  0  0  0
 25 27  1  0  0  0  0
  1 32  1  0  0  0  0
  2 33  1  0  0  0  0
  3 34  1  0  0  0  0
  4 35  1  0  0  0  0
  5 36  1  0  0  0  0
  6 37  1  0  0  0  0
  7 38  1  0  0  0  0
  8 39  1  0  0  0  0
  9 40  1  0  0  0  0
 10 41  1  0  0  0  0
 11 42  1  0  0  0  0
 12 43  1  0  0  0  0
 19 44  1  0  0  0  0
 19 45  1  0  0  0  0
 20 46  1  0  0  0  0
 20 47  1  0  0  0  0
 21 48  1  0  0  0  0
 21 49  1  0  0  0  0
 22 50  1  0  0  0  0
 22 51  1  0  0  0  0
 23 52  1  0  0  0  0
 23 53  1  0  0  0  0
 24 54  1  0  0  0  0
 24 55  1  0  0  0  0
 25 56  1  0  0  0  0
 25 57  1  0  0  0  0
M  END
> <clash_score>
0

> <docking_score>
-9.657851219177246

> <overlap_score>
0.9859148263931274

$$$$
BENZO_377_1
  -OEChem-08232013503D

 48 51  0     0  0  0  0  0  0999 V2000
   14.2764    0.9916   23.8530 C   0  0  0  0  0  0  0  0  0  0  0  0
   13.5527    0.2977   24.8227 C   0  0  0  0  0  0  0  0  0  0  0  0
   13.6055    1.7016   22.8572 C   0  0  0  0  0  0  0  0  0  0  0  0
    4.0980    2.1130   19.5350 C   0  0  0  0  0  0  0  0  0  0  0  0
    4.2970    1.6690   20.8430 C   0  0  0  0  0  0  0  0  0  0  0  0
   12.1582    0.3136   24.7966 C   0  0  0  0  0  0  0  0  0  0  0  0
   12.2110    1.7175   22.8310 C   0  0  0  0  0  0  0  0  0  0  0  0
    8.3310   -2.7170   25.3430 C   0  0  0  0  0  0  0  0  0  0  0  0
   10.2570   -3.5000   24.1350 C   0  0  0  0  0  0  0  0  0  0  0  0
    4.9400    1.7060   18.5060 C   0  0  0  0  0  0  0  0  0  0  0  0
    5.3360    0.8000   21.1530 C   0  0  0  0  0  0  0  0  0  0  0  0
    8.3510   -1.5420   24.6110 C   0  0  0  0  0  0  0  0  0  0  0  0
   10.2760   -2.3270   23.4020 C   0  0  0  0  0  0  0  0  0  0  0  0
    7.6830   -0.5170   18.7600 C   0  0  0  0  0  0  0  0  0  0  0  0
    9.2850   -3.7090   25.1090 C   0  0  0  0  0  0  0  0  0  0  0  0
   11.4873    1.0235   23.8007 C   0  0  0  0  0  0  0  0  0  0  0  0
    5.9810    0.8330   18.8060 C   0  0  0  0  0  0  0  0  0  0  0  0
    6.1600    0.3870   20.1140 C   0  0  0  0  0  0  0  0  0  0  0  0
    9.3300   -1.3350   23.6390 C   0  0  0  0  0  0  0  0  0  0  0  0
    8.9510    0.1280   21.6880 C   0  0  0  0  0  0  0  0  0  0  0  0
    9.2610   -4.9721   25.8916 C   0  0  0  0  0  0  0  0  0  0  0  0
    9.9863    1.0409   23.7719 C   0  0  0  0  0  0  0  0  0  0  0  0
    8.0810   -0.9750   21.0820 C   0  0  0  0  0  0  0  0  0  0  0  0
    6.9440    0.2550   18.0100 N   0  0  0  0  0  0  0  0  0  0  0  0
    7.2210   -0.4620   20.0350 N   0  0  0  0  0  0  0  0  0  0  0  0
    9.4200   -0.0840   22.9530 N   0  0  0  0  0  0  0  0  0  0  0  0
    9.1870    1.1500   21.0630 O   0  0  0  0  0  0  0  0  0  0  0  0
   15.3622    0.9802   23.8743 H   0  0  0  0  0  0  0  0  0  0  0  0
   14.0749   -0.2543   25.5988 H   0  0  0  0  0  0  0  0  0  0  0  0
   14.1686    2.2428   22.1027 H   0  0  0  0  0  0  0  0  0  0  0  0
    3.2711    2.7875   19.3201 H   0  0  0  0  0  0  0  0  0  0  0  0
    3.6281    2.0095   21.6292 H   0  0  0  0  0  0  0  0  0  0  0  0
   11.6026   -0.2301   25.5561 H   0  0  0  0  0  0  0  0  0  0  0  0
   11.6969    2.2732   22.0513 H   0  0  0  0  0  0  0  0  0  0  0  0
    7.5665   -2.8638   26.1066 H   0  0  0  0  0  0  0  0  0  0  0  0
   11.0137   -4.2652   23.9447 H   0  0  0  0  0  0  0  0  0  0  0  0
    4.7815    2.0665   17.4902 H   0  0  0  0  0  0  0  0  0  0  0  0
    5.4939    0.4577   22.1786 H   0  0  0  0  0  0  0  0  0  0  0  0
    7.5948   -0.7788   24.7997 H   0  0  0  0  0  0  0  0  0  0  0  0
   11.0411   -2.1856   22.6358 H   0  0  0  0  0  0  0  0  0  0  0  0
    8.5167   -1.1056   18.4550 H   0  0  0  0  0  0  0  0  0  0  0  0
    8.6398   -5.7223   25.3871 H   0  0  0  0  0  0  0  0  0  0  0  0
   10.2715   -5.3829   26.0145 H   0  0  0  0  0  0  0  0  0  0  0  0
    8.8596   -4.8092   26.9004 H   0  0  0  0  0  0  0  0  0  0  0  0
    9.5796    0.9577   24.7857 H   0  0  0  0  0  0  0  0  0  0  0  0
    9.6122    1.9785   23.3473 H   0  0  0  0  0  0  0  0  0  0  0  0
    8.7073   -1.7481   20.6391 H   0  0  0  0  0  0  0  0  0  0  0  0
    7.4352   -1.4043   21.8468 H   0  0  0  0  0  0  0  0  0  0  0  0
  1  2  1  0  0  0  0
  1  3  2  0  0  0  0
  2  6  2  0  0  0  0
  3  7  1  0  0  0  0
  4  5  1  0  0  0  0
  4 10  2  0  0  0  0
  5 11  2  0  0  0  0
  6 16  1  0  0  0  0
  7 16  2  0  0  0  0
  8 12  2  0  0  0  0
  8 15  1  0  0  0  0
  9 13  1  0  0  0  0
  9 15  2  0  0  0  0
 10 17  1  0  0  0  0
 11 18  1  0  0  0  0
 12 19  1  0  0  0  0
 13 19  2  0  0  0  0
 14 24  2  0  0  0  0
 14 25  1  0  0  0  0
 15 21  1  0  0  0  0
 16 22  1  0  0  0  0
 17 18  2  0  0  0  0
 17 24  1  0  0  0  0
 18 25  1  0  0  0  0
 19 26  1  0  0  0  0
 20 23  1  0  0  0  0
 20 26  1  0  0  0  0
 20 27  2  0  0  0  0
 22 26  1  0  0  0  0
 23 25  1  0  0  0  0
  1 28  1  0  0  0  0
  2 29  1  0  0  0  0
  3 30  1  0  0  0  0
  4 31  1  0  0  0  0
  5 32  1  0  0  0  0
  6 33  1  0  0  0  0
  7 34  1  0  0  0  0
  8 35  1  0  0  0  0
  9 36  1  0  0  0  0
 10 37  1  0  0  0  0
 11 38  1  0  0  0  0
 12 39  1  0  0  0  0
 13 40  1  0  0  0  0
 14 41  1  0  0  0  0
 21 42  1  0  0  0  0
 21 43  1  0  0  0  0
 21 44  1  0  0  0  0
 22 45  1  0  0  0  0
 22 46  1  0  0  0  0
 23 47  1  0  0  0  0
 23 48  1  0  0  0  0
M  END
> <clash_score>
0

> <docking_score>
-10.326661109924316

> <overlap_score>
0.9624925851821899

$$$$
BENZO_376_1
  -OEChem-08232013503D

 45 48  0     0  0  0  0  0  0999 V2000
    4.0980    2.1130   19.5350 C   0  0  0  0  0  0  0  0  0  0  0  0
    4.2970    1.6690   20.8430 C   0  0  0  0  0  0  0  0  0  0  0  0
    8.3310   -2.7170   25.3430 C   0  0  0  0  0  0  0  0  0  0  0  0
   10.2570   -3.5000   24.1350 C   0  0  0  0  0  0  0  0  0  0  0  0
    4.9400    1.7060   18.5060 C   0  0  0  0  0  0  0  0  0  0  0  0
    5.3360    0.8000   21.1530 C   0  0  0  0  0  0  0  0  0  0  0  0
    8.3510   -1.5420   24.6110 C   0  0  0  0  0  0  0  0  0  0  0  0
   10.2760   -2.3270   23.4020 C   0  0  0  0  0  0  0  0  0  0  0  0
   12.3055    1.1155   22.6379 C   0  0  0  0  0  0  0  0  0  0  0  0
   13.6477    1.0750   22.9450 C   0  0  0  0  0  0  0  0  0  0  0  0
   12.2355    0.9161   24.9525 C   0  0  0  0  0  0  0  0  0  0  0  0
    7.6830   -0.5170   18.7600 C   0  0  0  0  0  0  0  0  0  0  0  0
    9.2850   -3.7090   25.1090 C   0  0  0  0  0  0  0  0  0  0  0  0
   11.4873    1.0235   23.8007 C   0  0  0  0  0  0  0  0  0  0  0  0
    5.9810    0.8330   18.8060 C   0  0  0  0  0  0  0  0  0  0  0  0
    6.1600    0.3870   20.1140 C   0  0  0  0  0  0  0  0  0  0  0  0
    9.3300   -1.3350   23.6390 C   0  0  0  0  0  0  0  0  0  0  0  0
    8.9510    0.1280   21.6880 C   0  0  0  0  0  0  0  0  0  0  0  0
    9.2610   -4.9721   25.8916 C   0  0  0  0  0  0  0  0  0  0  0  0
    9.9863    1.0409   23.7719 C   0  0  0  0  0  0  0  0  0  0  0  0
    8.0810   -0.9750   21.0820 C   0  0  0  0  0  0  0  0  0  0  0  0
    6.9440    0.2550   18.0100 N   0  0  0  0  0  0  0  0  0  0  0  0
    7.2210   -0.4620   20.0350 N   0  0  0  0  0  0  0  0  0  0  0  0
    9.4200   -0.0840   22.9530 N   0  0  0  0  0  0  0  0  0  0  0  0
    9.1870    1.1500   21.0630 O   0  0  0  0  0  0  0  0  0  0  0  0
   13.9171    0.9266   24.6296 S   0  0  0  0  0  0  0  0  0  0  0  0
    3.2711    2.7875   19.3201 H   0  0  0  0  0  0  0  0  0  0  0  0
    3.6281    2.0095   21.6292 H   0  0  0  0  0  0  0  0  0  0  0  0
    7.5665   -2.8638   26.1066 H   0  0  0  0  0  0  0  0  0  0  0  0
   11.0137   -4.2652   23.9447 H   0  0  0  0  0  0  0  0  0  0  0  0
    4.7815    2.0665   17.4902 H   0  0  0  0  0  0  0  0  0  0  0  0
    5.4939    0.4577   22.1786 H   0  0  0  0  0  0  0  0  0  0  0  0
    7.5948   -0.7788   24.7997 H   0  0  0  0  0  0  0  0  0  0  0  0
   11.0411   -2.1856   22.6358 H   0  0  0  0  0  0  0  0  0  0  0  0
   11.9326    1.2064   21.6254 H   0  0  0  0  0  0  0  0  0  0  0  0
   14.4830    1.1248   22.2608 H   0  0  0  0  0  0  0  0  0  0  0  0
   11.8792    0.8305   25.9697 H   0  0  0  0  0  0  0  0  0  0  0  0
    8.5167   -1.1056   18.4550 H   0  0  0  0  0  0  0  0  0  0  0  0
    8.6398   -5.7223   25.3871 H   0  0  0  0  0  0  0  0  0  0  0  0
   10.2715   -5.3829   26.0145 H   0  0  0  0  0  0  0  0  0  0  0  0
    8.8596   -4.8092   26.9004 H   0  0  0  0  0  0  0  0  0  0  0  0
    9.5796    0.9577   24.7857 H   0  0  0  0  0  0  0  0  0  0  0  0
    9.6122    1.9785   23.3473 H   0  0  0  0  0  0  0  0  0  0  0  0
    8.7073   -1.7481   20.6391 H   0  0  0  0  0  0  0  0  0  0  0  0
    7.4352   -1.4043   21.8468 H   0  0  0  0  0  0  0  0  0  0  0  0
  1  2  1  0  0  0  0
  1  5  2  0  0  0  0
  2  6  2  0  0  0  0
  3  7  2  0  0  0  0
  3 13  1  0  0  0  0
  4  8  1  0  0  0  0
  4 13  2  0  0  0  0
  5 15  1  0  0  0  0
  6 16  1  0  0  0  0
  7 17  1  0  0  0  0
  8 17  2  0  0  0  0
  9 10  2  0  0  0  0
  9 14  1  0  0  0  0
 10 26  1  0  0  0  0
 11 14  2  0  0  0  0
 11 26  1  0  0  0  0
 12 22  2  0  0  0  0
 12 23  1  0  0  0  0
 13 19  1  0  0  0  0
 14 20  1  0  0  0  0
 15 16  2  0  0  0  0
 15 22  1  0  0  0  0
 16 23  1  0  0  0  0
 17 24  1  0  0  0  0
 18 21  1  0  0  0  0
 18 24  1  0  0  0  0
 18 25  2  0  0  0  0
 20 24  1  0  0  0  0
 21 23  1  0  0  0  0
  1 27  1  0  0  0  0
  2 28  1  0  0  0  0
  3 29  1  0  0  0  0
  4 30  1  0  0  0  0
  5 31  1  0  0  0  0
  6 32  1  0  0  0  0
  7 33  1  0  0  0  0
  8 34  1  0  0  0  0
  9 35  1  0  0  0  0
 10 36  1  0  0  0  0
 11 37  1  0  0  0  0
 12 38  1  0  0  0  0
 19 39  1  0  0  0  0
 19 40  1  0  0  0  0
 19 41  1  0  0  0  0
 20 42  1  0  0  0  0
 20 43  1  0  0  0  0
 21 44  1  0  0  0  0
 21 45  1  0  0  0  0
M  END
> <clash_score>
0

> <docking_score>
-10.696114540100098

> <overlap_score>
0.9407599568367004

$$$$
BENZO_374_1
  -OEChem-08232013503D

 60 64  0     0  0  0  0  0  0999 V2000
    4.0980    2.1130   19.5350 C   0  0  0  0  0  0  0  0  0  0  0  0
    4.2970    1.6690   20.8430 C   0  0  0  0  0  0  0  0  0  0  0  0
   13.5809    2.0270   23.0334 C   0  0  0  0  0  0  0  0  0  0  0  0
   12.1865    2.0055   23.0045 C   0  0  0  0  0  0  0  0  0  0  0  0
    4.9400    1.7060   18.5060 C   0  0  0  0  0  0  0  0  0  0  0  0
    5.3360    0.8000   21.1530 C   0  0  0  0  0  0  0  0  0  0  0  0
    8.3310   -2.7170   25.3430 C   0  0  0  0  0  0  0  0  0  0  0  0
   10.2570   -3.5000   24.1350 C   0  0  0  0  0  0  0  0  0  0  0  0
    8.3510   -1.5420   24.6110 C   0  0  0  0  0  0  0  0  0  0  0  0
   10.2760   -2.3270   23.4020 C   0  0  0  0  0  0  0  0  0  0  0  0
   14.2756    1.1284   23.8431 C   0  0  0  0  0  0  0  0  0  0  0  0
   12.1816    0.1869   24.5950 C   0  0  0  0  0  0  0  0  0  0  0  0
    7.6830   -0.5170   18.7600 C   0  0  0  0  0  0  0  0  0  0  0  0
   11.4868    1.0855   23.7853 C   0  0  0  0  0  0  0  0  0  0  0  0
    5.9810    0.8330   18.8060 C   0  0  0  0  0  0  0  0  0  0  0  0
    6.1600    0.3870   20.1140 C   0  0  0  0  0  0  0  0  0  0  0  0
    9.2850   -3.7090   25.1090 C   0  0  0  0  0  0  0  0  0  0  0  0
    9.3300   -1.3350   23.6390 C   0  0  0  0  0  0  0  0  0  0  0  0
   13.5760    0.2084   24.6239 C   0  0  0  0  0  0  0  0  0  0  0  0
    8.9510    0.1280   21.6880 C   0  0  0  0  0  0  0  0  0  0  0  0
    7.3162   -6.8835   26.5210 C   0  0  0  0  0  0  0  0  0  0  0  0
    7.3507   -5.5245   27.2240 C   0  0  0  0  0  0  0  0  0  0  0  0
    7.9375   -6.8069   25.1245 C   0  0  0  0  0  0  0  0  0  0  0  0
    8.7638   -4.9418   27.2163 C   0  0  0  0  0  0  0  0  0  0  0  0
    9.3378   -6.1874   25.1659 C   0  0  0  0  0  0  0  0  0  0  0  0
    9.9859    1.0637   23.7546 C   0  0  0  0  0  0  0  0  0  0  0  0
    8.0810   -0.9750   21.0820 C   0  0  0  0  0  0  0  0  0  0  0  0
    6.9440    0.2550   18.0100 N   0  0  0  0  0  0  0  0  0  0  0  0
    7.2210   -0.4620   20.0350 N   0  0  0  0  0  0  0  0  0  0  0  0
    9.2639   -4.8860   25.8399 N   0  0  0  0  0  0  0  0  0  0  0  0
    9.4200   -0.0840   22.9530 N   0  0  0  0  0  0  0  0  0  0  0  0
    9.1870    1.1500   21.0630 O   0  0  0  0  0  0  0  0  0  0  0  0
   14.4337   -0.8992   25.6236 Cl  0  0  0  0  0  0  0  0  0  0  0  0
    3.2711    2.7875   19.3201 H   0  0  0  0  0  0  0  0  0  0  0  0
    3.6281    2.0095   21.6292 H   0  0  0  0  0  0  0  0  0  0  0  0
   14.1253    2.7437   22.4253 H   0  0  0  0  0  0  0  0  0  0  0  0
   11.6534    2.7094   22.3707 H   0  0  0  0  0  0  0  0  0  0  0  0
    4.7815    2.0665   17.4902 H   0  0  0  0  0  0  0  0  0  0  0  0
    5.4939    0.4577   22.1786 H   0  0  0  0  0  0  0  0  0  0  0  0
    7.5647   -2.8621   26.1053 H   0  0  0  0  0  0  0  0  0  0  0  0
   11.0144   -4.2642   23.9425 H   0  0  0  0  0  0  0  0  0  0  0  0
    7.5958   -0.7779   24.8006 H   0  0  0  0  0  0  0  0  0  0  0  0
   11.0406   -2.1848   22.6356 H   0  0  0  0  0  0  0  0  0  0  0  0
   15.3624    1.1568   23.8558 H   0  0  0  0  0  0  0  0  0  0  0  0
   11.6315   -0.5288   25.2016 H   0  0  0  0  0  0  0  0  0  0  0  0
    8.5167   -1.1056   18.4550 H   0  0  0  0  0  0  0  0  0  0  0  0
    7.8578   -7.6261   27.1266 H   0  0  0  0  0  0  0  0  0  0  0  0
    6.2773   -7.2358   26.4459 H   0  0  0  0  0  0  0  0  0  0  0  0
    6.6663   -4.8351   26.7223 H   0  0  0  0  0  0  0  0  0  0  0  0
    7.0044   -5.6368   28.2534 H   0  0  0  0  0  0  0  0  0  0  0  0
    7.9946   -7.8119   24.6937 H   0  0  0  0  0  0  0  0  0  0  0  0
    7.2929   -6.2123   24.4668 H   0  0  0  0  0  0  0  0  0  0  0  0
    8.7343   -3.9408   27.6542 H   0  0  0  0  0  0  0  0  0  0  0  0
    9.4243   -5.5632   27.8278 H   0  0  0  0  0  0  0  0  0  0  0  0
   10.0200   -6.8490   25.7011 H   0  0  0  0  0  0  0  0  0  0  0  0
    9.6984   -6.0694   24.1436 H   0  0  0  0  0  0  0  0  0  0  0  0
    9.5800    0.9891   24.7694 H   0  0  0  0  0  0  0  0  0  0  0  0
    9.5886    1.9832   23.3122 H   0  0  0  0  0  0  0  0  0  0  0  0
    8.7136   -1.7499   20.6462 H   0  0  0  0  0  0  0  0  0  0  0  0
    7.4415   -1.4060   21.8540 H   0  0  0  0  0  0  0  0  0  0  0  0
  1  2  1  0  0  0  0
  1  5  2  0  0  0  0
  2  6  2  0  0  0  0
  3  4  2  0  0  0  0
  3 11  1  0  0  0  0
  4 14  1  0  0  0  0
  5 15  1  0  0  0  0
  6 16  1  0  0  0  0
  7  9  2  0  0  0  0
  7 17  1  0  0  0  0
  8 10  1  0  0  0  0
  8 17  2  0  0  0  0
  9 18  1  0  0  0  0
 10 18  2  0  0  0  0
 11 19  2  0  0  0  0
 12 14  2  0  0  0  0
 12 19  1  0  0  0  0
 13 28  2  0  0  0  0
 13 29  1  0  0  0  0
 14 26  1  0  0  0  0
 15 16  2  0  0  0  0
 15 28  1  0  0  0  0
 16 29  1  0  0  0  0
 17 30  1  0  0  0  0
 18 31  1  0  0  0  0
 19 33  1  0  0  0  0
 20 27  1  0  0  0  0
 20 31  1  0  0  0  0
 20 32  2  0  0  0  0
 21 22  1  0  0  0  0
 21 23  1  0  0  0  0
 22 24  1  0  0  0  0
 23 25  1  0  0  0  0
 24 30  1  0  0  0  0
 25 30  1  0  0  0  0
 26 31  1  0  0  0  0
 27 29  1  0  0  0  0
  1 34  1  0  0  0  0
  2 35  1  0  0  0  0
  3 36  1  0  0  0  0
  4 37  1  0  0  0  0
  5 38  1  0  0  0  0
  6 39  1  0  0  0  0
  7 40  1  0  0  0  0
  8 41  1  0  0  0  0
  9 42  1  0  0  0  0
 10 43  1  0  0  0  0
 11 44  1  0  0  0  0
 12 45  1  0  0  0  0
 13 46  1  0  0  0  0
 21 47  1  0  0  0  0
 21 48  1  0  0  0  0
 22 49  1  0  0  0  0
 22 50  1  0  0  0  0
 23 51  1  0  0  0  0
 23 52  1  0  0  0  0
 24 53  1  0  0  0  0
 24 54  1  0  0  0  0
 25 55  1  0  0  0  0
 25 56  1  0  0  0  0
 26 57  1  0  0  0  0
 26 58  1  0  0  0  0
 27 59  1  0  0  0  0
 27 60  1  0  0  0  0
M  END
> <clash_score>
0.6977852945342905

> <docking_score>
-8.117812156677246

> <overlap_score>
1.0080987215042114

$$$$
BENZO_375_1
  -OEChem-08232013503D

 60 64  0     0  0  0  0  0  0999 V2000
    4.0980    2.1130   19.5350 C   0  0  0  0  0  0  0  0  0  0  0  0
    4.2970    1.6690   20.8430 C   0  0  0  0  0  0  0  0  0  0  0  0
    4.9400    1.7060   18.5060 C   0  0  0  0  0  0  0  0  0  0  0  0
    5.3360    0.8000   21.1530 C   0  0  0  0  0  0  0  0  0  0  0  0
    8.3310   -2.7170   25.3430 C   0  0  0  0  0  0  0  0  0  0  0  0
   10.2570   -3.5000   24.1350 C   0  0  0  0  0  0  0  0  0  0  0  0
    8.3510   -1.5420   24.6110 C   0  0  0  0  0  0  0  0  0  0  0  0
   10.2760   -2.3270   23.4020 C   0  0  0  0  0  0  0  0  0  0  0  0
   12.3227    1.8292   24.6397 C   0  0  0  0  0  0  0  0  0  0  0  0
   12.3531    0.3804   22.9859 C   0  0  0  0  0  0  0  0  0  0  0  0
    7.6830   -0.5170   18.7600 C   0  0  0  0  0  0  0  0  0  0  0  0
   11.4868    1.0855   23.7853 C   0  0  0  0  0  0  0  0  0  0  0  0
    5.9810    0.8330   18.8060 C   0  0  0  0  0  0  0  0  0  0  0  0
    6.1600    0.3870   20.1140 C   0  0  0  0  0  0  0  0  0  0  0  0
    9.2850   -3.7090   25.1090 C   0  0  0  0  0  0  0  0  0  0  0  0
    9.3300   -1.3350   23.6390 C   0  0  0  0  0  0  0  0  0  0  0  0
    8.9510    0.1280   21.6880 C   0  0  0  0  0  0  0  0  0  0  0  0
    7.3162   -6.8835   26.5210 C   0  0  0  0  0  0  0  0  0  0  0  0
    7.3507   -5.5245   27.2240 C   0  0  0  0  0  0  0  0  0  0  0  0
    7.9375   -6.8069   25.1245 C   0  0  0  0  0  0  0  0  0  0  0  0
    8.7638   -4.9418   27.2163 C   0  0  0  0  0  0  0  0  0  0  0  0
    9.3378   -6.1874   25.1659 C   0  0  0  0  0  0  0  0  0  0  0  0
   14.8515    0.2459   22.8491 C   0  0  0  0  0  0  0  0  0  0  0  0
    9.9859    1.0637   23.7546 C   0  0  0  0  0  0  0  0  0  0  0  0
    8.0810   -0.9750   21.0820 C   0  0  0  0  0  0  0  0  0  0  0  0
   13.6203    1.6164   24.4052 N   0  0  0  0  0  0  0  0  0  0  0  0
    6.9440    0.2550   18.0100 N   0  0  0  0  0  0  0  0  0  0  0  0
   13.6063    0.7308   23.3944 N   0  0  0  0  0  0  0  0  0  0  0  0
    7.2210   -0.4620   20.0350 N   0  0  0  0  0  0  0  0  0  0  0  0
    9.2639   -4.8860   25.8399 N   0  0  0  0  0  0  0  0  0  0  0  0
    9.4200   -0.0840   22.9530 N   0  0  0  0  0  0  0  0  0  0  0  0
    9.1870    1.1500   21.0630 O   0  0  0  0  0  0  0  0  0  0  0  0
    3.2711    2.7875   19.3201 H   0  0  0  0  0  0  0  0  0  0  0  0
    3.6281    2.0095   21.6292 H   0  0  0  0  0  0  0  0  0  0  0  0
    4.7815    2.0665   17.4902 H   0  0  0  0  0  0  0  0  0  0  0  0
    5.4939    0.4577   22.1786 H   0  0  0  0  0  0  0  0  0  0  0  0
    7.5647   -2.8621   26.1053 H   0  0  0  0  0  0  0  0  0  0  0  0
   11.0144   -4.2642   23.9425 H   0  0  0  0  0  0  0  0  0  0  0  0
    7.5958   -0.7779   24.8006 H   0  0  0  0  0  0  0  0  0  0  0  0
   11.0406   -2.1848   22.6356 H   0  0  0  0  0  0  0  0  0  0  0  0
   12.0427    2.5174   25.4248 H   0  0  0  0  0  0  0  0  0  0  0  0
   12.1886   -0.3242   22.1820 H   0  0  0  0  0  0  0  0  0  0  0  0
    8.5167   -1.1056   18.4550 H   0  0  0  0  0  0  0  0  0  0  0  0
    7.8578   -7.6261   27.1266 H   0  0  0  0  0  0  0  0  0  0  0  0
    6.2773   -7.2358   26.4459 H   0  0  0  0  0  0  0  0  0  0  0  0
    6.6663   -4.8351   26.7223 H   0  0  0  0  0  0  0  0  0  0  0  0
    7.0044   -5.6368   28.2534 H   0  0  0  0  0  0  0  0  0  0  0  0
    7.9946   -7.8119   24.6937 H   0  0  0  0  0  0  0  0  0  0  0  0
    7.2929   -6.2123   24.4668 H   0  0  0  0  0  0  0  0  0  0  0  0
    8.7343   -3.9408   27.6542 H   0  0  0  0  0  0  0  0  0  0  0  0
    9.4243   -5.5632   27.8278 H   0  0  0  0  0  0  0  0  0  0  0  0
   10.0200   -6.8490   25.7011 H   0  0  0  0  0  0  0  0  0  0  0  0
    9.6984   -6.0694   24.1436 H   0  0  0  0  0  0  0  0  0  0  0  0
   15.1471    0.9149   22.0366 H   0  0  0  0  0  0  0  0  0  0  0  0
   15.6135    0.2370   23.6333 H   0  0  0  0  0  0  0  0  0  0  0  0
   14.7102   -0.7721   22.4754 H   0  0  0  0  0  0  0  0  0  0  0  0
    9.5800    0.9891   24.7694 H   0  0  0  0  0  0  0  0  0  0  0  0
    9.5886    1.9832   23.3122 H   0  0  0  0  0  0  0  0  0  0  0  0
    8.7136   -1.7499   20.6462 H   0  0  0  0  0  0  0  0  0  0  0  0
    7.4415   -1.4060   21.8540 H   0  0  0  0  0  0  0  0  0  0  0  0
  1  2  1  0  0  0  0
  1  3  2  0  0  0  0
  2  4  2  0  0  0  0
  3 13  1  0  0  0  0
  4 14  1  0  0  0  0
  5  7  2  0  0  0  0
  5 15  1  0  0  0  0
  6  8  1  0  0  0  0
  6 15  2  0  0  0  0
  7 16  1  0  0  0  0
  8 16  2  0  0  0  0
  9 12  1  0  0  0  0
  9 26  2  0  0  0  0
 10 12  2  0  0  0  0
 10 28  1  0  0  0  0
 11 27  2  0  0  0  0
 11 29  1  0  0  0  0
 12 24  1  0  0  0  0
 13 14  2  0  0  0  0
 13 27  1  0  0  0  0
 14 29  1  0  0  0  0
 15 30  1  0  0  0  0
 16 31  1  0  0  0  0
 17 25  1  0  0  0  0
 17 31  1  0  0  0  0
 17 32  2  0  0  0  0
 18 19  1  0  0  0  0
 18 20  1  0  0  0  0
 19 21  1  0  0  0  0
 20 22  1  0  0  0  0
 21 30  1  0  0  0  0
 22 30  1  0  0  0  0
 23 28  1  0  0  0  0
 24 31  1  0  0  0  0
 25 29  1  0  0  0  0
 26 28  1  0  0  0  0
  1 33  1  0  0  0  0
  2 34  1  0  0  0  0
  3 35  1  0  0  0  0
  4 36  1  0  0  0  0
  5 37  1  0  0  0  0
  6 38  1  0  0  0  0
  7 39  1  0  0  0  0
  8 40  1  0  0  0  0
  9 41  1  0  0  0  0
 10 42  1  0  0  0  0
 11 43  1  0  0  0  0
 18 44  1  0  0  0  0
 18 45  1  0  0  0  0
 19 46  1  0  0  0  0
 19 47  1  0  0  0  0
 20 48  1  0  0  0  0
 20 49  1  0  0  0  0
 21 50  1  0  0  0  0
 21 51  1  0  0  0  0
 22 52  1  0  0  0  0
 22 53  1  0  0  0  0
 23 54  1  0  0  0  0
 23 55  1  0  0  0  0
 23 56  1  0  0  0  0
 24 57  1  0  0  0  0
 24 58  1  0  0  0  0
 25 59  1  0  0  0  0
 25 60  1  0  0  0  0
M  END
> <clash_score>
0

> <docking_score>
-9.08297348022461

> <overlap_score>
0.9945988655090332

$$$$
BENZO_379_1
  -OEChem-08232013503D

 48 51  0     0  0  0  0  0  0999 V2000
    4.0980    2.1130   19.5350 C   0  0  0  0  0  0  0  0  0  0  0  0
    4.2970    1.6690   20.8430 C   0  0  0  0  0  0  0  0  0  0  0  0
    8.3310   -2.7170   25.3430 C   0  0  0  0  0  0  0  0  0  0  0  0
   10.2570   -3.5000   24.1350 C   0  0  0  0  0  0  0  0  0  0  0  0
    4.9400    1.7060   18.5060 C   0  0  0  0  0  0  0  0  0  0  0  0
    5.3360    0.8000   21.1530 C   0  0  0  0  0  0  0  0  0  0  0  0
    8.3510   -1.5420   24.6110 C   0  0  0  0  0  0  0  0  0  0  0  0
   10.2760   -2.3270   23.4020 C   0  0  0  0  0  0  0  0  0  0  0  0
   12.3285    0.9185   24.9246 C   0  0  0  0  0  0  0  0  0  0  0  0
   12.3484    1.1041   22.7337 C   0  0  0  0  0  0  0  0  0  0  0  0
    7.6830   -0.5170   18.7600 C   0  0  0  0  0  0  0  0  0  0  0  0
    9.2850   -3.7090   25.1090 C   0  0  0  0  0  0  0  0  0  0  0  0
   11.4873    1.0235   23.8007 C   0  0  0  0  0  0  0  0  0  0  0  0
    5.9810    0.8330   18.8060 C   0  0  0  0  0  0  0  0  0  0  0  0
    6.1600    0.3870   20.1140 C   0  0  0  0  0  0  0  0  0  0  0  0
    9.3300   -1.3350   23.6390 C   0  0  0  0  0  0  0  0  0  0  0  0
    8.9510    0.1280   21.6880 C   0  0  0  0  0  0  0  0  0  0  0  0
    9.2610   -4.9721   25.8916 C   0  0  0  0  0  0  0  0  0  0  0  0
   14.8457    1.0920   22.5284 C   0  0  0  0  0  0  0  0  0  0  0  0
    9.9863    1.0409   23.7719 C   0  0  0  0  0  0  0  0  0  0  0  0
    8.0810   -0.9750   21.0820 C   0  0  0  0  0  0  0  0  0  0  0  0
   13.6245    0.9307   24.6016 N   0  0  0  0  0  0  0  0  0  0  0  0
    6.9440    0.2550   18.0100 N   0  0  0  0  0  0  0  0  0  0  0  0
   13.6041    1.0443   23.2627 N   0  0  0  0  0  0  0  0  0  0  0  0
    7.2210   -0.4620   20.0350 N   0  0  0  0  0  0  0  0  0  0  0  0
    9.4200   -0.0840   22.9530 N   0  0  0  0  0  0  0  0  0  0  0  0
    9.1870    1.1500   21.0630 O   0  0  0  0  0  0  0  0  0  0  0  0
    3.2711    2.7875   19.3201 H   0  0  0  0  0  0  0  0  0  0  0  0
    3.6281    2.0095   21.6292 H   0  0  0  0  0  0  0  0  0  0  0  0
    7.5665   -2.8638   26.1066 H   0  0  0  0  0  0  0  0  0  0  0  0
   11.0137   -4.2652   23.9447 H   0  0  0  0  0  0  0  0  0  0  0  0
    4.7815    2.0665   17.4902 H   0  0  0  0  0  0  0  0  0  0  0  0
    5.4939    0.4577   22.1786 H   0  0  0  0  0  0  0  0  0  0  0  0
    7.5948   -0.7788   24.7997 H   0  0  0  0  0  0  0  0  0  0  0  0
   11.0411   -2.1856   22.6358 H   0  0  0  0  0  0  0  0  0  0  0  0
   12.0535    0.8325   25.9664 H   0  0  0  0  0  0  0  0  0  0  0  0
   12.1787    1.1952   21.6694 H   0  0  0  0  0  0  0  0  0  0  0  0
    8.5167   -1.1056   18.4550 H   0  0  0  0  0  0  0  0  0  0  0  0
    8.6398   -5.7223   25.3871 H   0  0  0  0  0  0  0  0  0  0  0  0
   10.2715   -5.3829   26.0145 H   0  0  0  0  0  0  0  0  0  0  0  0
    8.8596   -4.8092   26.9004 H   0  0  0  0  0  0  0  0  0  0  0  0
   15.1480    2.1392   22.4448 H   0  0  0  0  0  0  0  0  0  0  0  0
   15.6066    0.5158   23.0620 H   0  0  0  0  0  0  0  0  0  0  0  0
   14.6961    0.6558   21.5368 H   0  0  0  0  0  0  0  0  0  0  0  0
    9.5796    0.9577   24.7857 H   0  0  0  0  0  0  0  0  0  0  0  0
    9.6122    1.9785   23.3473 H   0  0  0  0  0  0  0  0  0  0  0  0
    8.7073   -1.7481   20.6391 H   0  0  0  0  0  0  0  0  0  0  0  0
    7.4352   -1.4043   21.8468 H   0  0  0  0  0  0  0  0  0  0  0  0
  1  2  1  0  0  0  0
  1  5  2  0  0  0  0
  2  6  2  0  0  0  0
  3  7  2  0  0  0  0
  3 12  1  0  0  0  0
  4  8  1  0  0  0  0
  4 12  2  0  0  0  0
  5 14  1  0  0  0  0
  6 15  1  0  0  0  0
  7 16  1  0  0  0  0
  8 16  2  0  0  0  0
  9 13  1  0  0  0  0
  9 22  2  0  0  0  0
 10 13  2  0  0  0  0
 10 24  1  0  0  0  0
 11 23  2  0  0  0  0
 11 25  1  0  0  0  0
 12 18  1  0  0  0  0
 13 20  1  0  0  0  0
 14 15  2  0  0  0  0
 14 23  1  0  0  0  0
 15 25  1  0  0  0  0
 16 26  1  0  0  0  0
 17 21  1  0  0  0  0
 17 26  1  0  0  0  0
 17 27  2  0  0  0  0
 19 24  1  0  0  0  0
 20 26  1  0  0  0  0
 21 25  1  0  0  0  0
 22 24  1  0  0  0  0
  1 28  1  0  0  0  0
  2 29  1  0  0  0  0
  3 30  1  0  0  0  0
  4 31  1  0  0  0  0
  5 32  1  0  0  0  0
  6 33  1  0  0  0  0
  7 34  1  0  0  0  0
  8 35  1  0  0  0  0
  9 36  1  0  0  0  0
 10 37  1  0  0  0  0
 11 38  1  0  0  0  0
 18 39  1  0  0  0  0
 18 40  1  0  0  0  0
 18 41  1  0  0  0  0
 19 42  1  0  0  0  0
 19 43  1  0  0  0  0
 19 44  1  0  0  0  0
 20 45  1  0  0  0  0
 20 46  1  0  0  0  0
 21 47  1  0  0  0  0
 21 48  1  0  0  0  0
M  END
> <clash_score>
0

> <docking_score>
-9.881217956542969

> <overlap_score>
0.9567747712135315

$$$$
BENZO_378_1
  -OEChem-08232013503D

 48 51  0     0  0  0  0  0  0999 V2000
    4.0980    2.1130   19.5350 C   0  0  0  0  0  0  0  0  0  0  0  0
    4.2970    1.6690   20.8430 C   0  0  0  0  0  0  0  0  0  0  0  0
   13.6041    1.9249   23.0635 C   0  0  0  0  0  0  0  0  0  0  0  0
   12.2096    1.9398   23.0362 C   0  0  0  0  0  0  0  0  0  0  0  0
    8.3310   -2.7170   25.3430 C   0  0  0  0  0  0  0  0  0  0  0  0
   10.2570   -3.5000   24.1350 C   0  0  0  0  0  0  0  0  0  0  0  0
    4.9400    1.7060   18.5060 C   0  0  0  0  0  0  0  0  0  0  0  0
    5.3360    0.8000   21.1530 C   0  0  0  0  0  0  0  0  0  0  0  0
    8.3510   -1.5420   24.6110 C   0  0  0  0  0  0  0  0  0  0  0  0
   10.2760   -2.3270   23.4020 C   0  0  0  0  0  0  0  0  0  0  0  0
   14.2763    0.9938   23.8551 C   0  0  0  0  0  0  0  0  0  0  0  0
   12.1595    0.0924   24.5924 C   0  0  0  0  0  0  0  0  0  0  0  0
    7.6830   -0.5170   18.7600 C   0  0  0  0  0  0  0  0  0  0  0  0
    9.2850   -3.7090   25.1090 C   0  0  0  0  0  0  0  0  0  0  0  0
   11.4873    1.0235   23.8007 C   0  0  0  0  0  0  0  0  0  0  0  0
    5.9810    0.8330   18.8060 C   0  0  0  0  0  0  0  0  0  0  0  0
    6.1600    0.3870   20.1140 C   0  0  0  0  0  0  0  0  0  0  0  0
    9.3300   -1.3350   23.6390 C   0  0  0  0  0  0  0  0  0  0  0  0
   13.5541    0.0775   24.6196 C   0  0  0  0  0  0  0  0  0  0  0  0
    8.9510    0.1280   21.6880 C   0  0  0  0  0  0  0  0  0  0  0  0
    9.2610   -4.9721   25.8916 C   0  0  0  0  0  0  0  0  0  0  0  0
    9.9863    1.0409   23.7719 C   0  0  0  0  0  0  0  0  0  0  0  0
    8.0810   -0.9750   21.0820 C   0  0  0  0  0  0  0  0  0  0  0  0
    6.9440    0.2550   18.0100 N   0  0  0  0  0  0  0  0  0  0  0  0
    7.2210   -0.4620   20.0350 N   0  0  0  0  0  0  0  0  0  0  0  0
    9.4200   -0.0840   22.9530 N   0  0  0  0  0  0  0  0  0  0  0  0
    9.1870    1.1500   21.0630 O   0  0  0  0  0  0  0  0  0  0  0  0
   14.3840   -1.0703   25.5970 Cl  0  0  0  0  0  0  0  0  0  0  0  0
    3.2711    2.7875   19.3201 H   0  0  0  0  0  0  0  0  0  0  0  0
    3.6281    2.0095   21.6292 H   0  0  0  0  0  0  0  0  0  0  0  0
   14.1661    2.6387   22.4681 H   0  0  0  0  0  0  0  0  0  0  0  0
   11.6941    2.6689   22.4166 H   0  0  0  0  0  0  0  0  0  0  0  0
    7.5665   -2.8638   26.1066 H   0  0  0  0  0  0  0  0  0  0  0  0
   11.0137   -4.2652   23.9447 H   0  0  0  0  0  0  0  0  0  0  0  0
    4.7815    2.0665   17.4902 H   0  0  0  0  0  0  0  0  0  0  0  0
    5.4939    0.4577   22.1786 H   0  0  0  0  0  0  0  0  0  0  0  0
    7.5948   -0.7788   24.7997 H   0  0  0  0  0  0  0  0  0  0  0  0
   11.0411   -2.1856   22.6358 H   0  0  0  0  0  0  0  0  0  0  0  0
   15.3635    0.9940   23.8668 H   0  0  0  0  0  0  0  0  0  0  0  0
   11.5918   -0.6203   25.1863 H   0  0  0  0  0  0  0  0  0  0  0  0
    8.5167   -1.1056   18.4550 H   0  0  0  0  0  0  0  0  0  0  0  0
    8.6398   -5.7223   25.3871 H   0  0  0  0  0  0  0  0  0  0  0  0
   10.2715   -5.3829   26.0145 H   0  0  0  0  0  0  0  0  0  0  0  0
    8.8596   -4.8092   26.9004 H   0  0  0  0  0  0  0  0  0  0  0  0
    9.5796    0.9577   24.7857 H   0  0  0  0  0  0  0  0  0  0  0  0
    9.6122    1.9785   23.3473 H   0  0  0  0  0  0  0  0  0  0  0  0
    8.7073   -1.7481   20.6391 H   0  0  0  0  0  0  0  0  0  0  0  0
    7.4352   -1.4043   21.8468 H   0  0  0  0  0  0  0  0  0  0  0  0
  1  2  1  0  0  0  0
  1  7  2  0  0  0  0
  2  8  2  0  0  0  0
  3  4  2  0  0  0  0
  3 11  1  0  0  0  0
  4 15  1  0  0  0  0
  5  9  2  0  0  0  0
  5 14  1  0  0  0  0
  6 10  1  0  0  0  0
  6 14  2  0  0  0  0
  7 16  1  0  0  0  0
  8 17  1  0  0  0  0
  9 18  1  0  0  0  0
 10 18  2  0  0  0  0
 11 19  2  0  0  0  0
 12 15  2  0  0  0  0
 12 19  1  0  0  0  0
 13 24  2  0  0  0  0
 13 25  1  0  0  0  0
 14 21  1  0  0  0  0
 15 22  1  0  0  0  0
 16 17  2  0  0  0  0
 16 24  1  0  0  0  0
 17 25  1  0  0  0  0
 18 26  1  0  0  0  0
 19 28  1  0  0  0  0
 20 23  1  0  0  0  0
 20 26  1  0  0  0  0
 20 27  2  0  0  0  0
 22 26  1  0  0  0  0
 23 25  1  0  0  0  0
  1 29  1  0  0  0  0
  2 30  1  0  0  0  0
  3 31  1  0  0  0  0
  4 32  1  0  0  0  0
  5 33  1  0  0  0  0
  6 34  1  0  0  0  0
  7 35  1  0  0  0  0
  8 36  1  0  0  0  0
  9 37  1  0  0  0  0
 10 38  1  0  0  0  0
 11 39  1  0  0  0  0
 12 40  1  0  0  0  0
 13 41  1  0  0  0  0
 21 42  1  0  0  0  0
 21 43  1  0  0  0  0
 21 44  1  0  0  0  0
 22 45  1  0  0  0  0
 22 46  1  0  0  0  0
 23 47  1  0  0  0  0
 23 48  1  0  0  0  0
M  END
> <clash_score>
0.7438166031195413

> <docking_score>
-9.09320068359375

> <overlap_score>
0.9635337591171265

$$$$
BENZO_380_1
  -OEChem-08232013503D

 46 49  0     0  0  0  0  0  0999 V2000
    4.0980    2.1130   19.5350 C   0  0  0  0  0  0  0  0  0  0  0  0
    4.2970    1.6690   20.8430 C   0  0  0  0  0  0  0  0  0  0  0  0
    4.9400    1.7060   18.5060 C   0  0  0  0  0  0  0  0  0  0  0  0
    5.3360    0.8000   21.1530 C   0  0  0  0  0  0  0  0  0  0  0  0
    8.3510   -1.5420   24.6110 C   0  0  0  0  0  0  0  0  0  0  0  0
   10.2760   -2.3270   23.4020 C   0  0  0  0  0  0  0  0  0  0  0  0
    8.3310   -2.7170   25.3430 C   0  0  0  0  0  0  0  0  0  0  0  0
   10.2570   -3.5000   24.1350 C   0  0  0  0  0  0  0  0  0  0  0  0
   12.3055    1.1155   22.6379 C   0  0  0  0  0  0  0  0  0  0  0  0
   13.6477    1.0750   22.9450 C   0  0  0  0  0  0  0  0  0  0  0  0
   12.2355    0.9161   24.9525 C   0  0  0  0  0  0  0  0  0  0  0  0
    7.6830   -0.5170   18.7600 C   0  0  0  0  0  0  0  0  0  0  0  0
   11.4873    1.0235   23.8007 C   0  0  0  0  0  0  0  0  0  0  0  0
    5.9810    0.8330   18.8060 C   0  0  0  0  0  0  0  0  0  0  0  0
    6.1600    0.3870   20.1140 C   0  0  0  0  0  0  0  0  0  0  0  0
    9.3300   -1.3350   23.6390 C   0  0  0  0  0  0  0  0  0  0  0  0
    9.2850   -3.7090   25.1090 C   0  0  0  0  0  0  0  0  0  0  0  0
    8.9510    0.1280   21.6880 C   0  0  0  0  0  0  0  0  0  0  0  0
    8.2347   -4.9979   26.8024 C   0  0  0  0  0  0  0  0  0  0  0  0
    9.9863    1.0409   23.7719 C   0  0  0  0  0  0  0  0  0  0  0  0
    8.0810   -0.9750   21.0820 C   0  0  0  0  0  0  0  0  0  0  0  0
    6.9440    0.2550   18.0100 N   0  0  0  0  0  0  0  0  0  0  0  0
    7.2210   -0.4620   20.0350 N   0  0  0  0  0  0  0  0  0  0  0  0
    9.4200   -0.0840   22.9530 N   0  0  0  0  0  0  0  0  0  0  0  0
    9.1870    1.1500   21.0630 O   0  0  0  0  0  0  0  0  0  0  0  0
    9.2631   -4.8614   25.8229 O   0  0  0  0  0  0  0  0  0  0  0  0
   13.9171    0.9266   24.6296 S   0  0  0  0  0  0  0  0  0  0  0  0
    3.2711    2.7875   19.3201 H   0  0  0  0  0  0  0  0  0  0  0  0
    3.6281    2.0095   21.6292 H   0  0  0  0  0  0  0  0  0  0  0  0
    4.7815    2.0665   17.4902 H   0  0  0  0  0  0  0  0  0  0  0  0
    5.4939    0.4577   22.1786 H   0  0  0  0  0  0  0  0  0  0  0  0
    7.5951   -0.7786   24.8000 H   0  0  0  0  0  0  0  0  0  0  0  0
   11.0406   -2.1866   22.6351 H   0  0  0  0  0  0  0  0  0  0  0  0
    7.5664   -2.8674   26.1055 H   0  0  0  0  0  0  0  0  0  0  0  0
   11.0119   -4.2671   23.9461 H   0  0  0  0  0  0  0  0  0  0  0  0
   11.9326    1.2064   21.6254 H   0  0  0  0  0  0  0  0  0  0  0  0
   14.4830    1.1248   22.2608 H   0  0  0  0  0  0  0  0  0  0  0  0
   11.8792    0.8305   25.9697 H   0  0  0  0  0  0  0  0  0  0  0  0
    8.5167   -1.1056   18.4550 H   0  0  0  0  0  0  0  0  0  0  0  0
    8.3311   -5.9657   27.3006 H   0  0  0  0  0  0  0  0  0  0  0  0
    7.2575   -4.9205   26.3191 H   0  0  0  0  0  0  0  0  0  0  0  0
    8.3383   -4.1989   27.5403 H   0  0  0  0  0  0  0  0  0  0  0  0
    9.5796    0.9577   24.7857 H   0  0  0  0  0  0  0  0  0  0  0  0
    9.6122    1.9785   23.3473 H   0  0  0  0  0  0  0  0  0  0  0  0
    8.7073   -1.7481   20.6391 H   0  0  0  0  0  0  0  0  0  0  0  0
    7.4352   -1.4043   21.8468 H   0  0  0  0  0  0  0  0  0  0  0  0
  1  2  1  0  0  0  0
  1  3  2  0  0  0  0
  2  4  2  0  0  0  0
  3 14  1  0  0  0  0
  4 15  1  0  0  0  0
  5  7  2  0  0  0  0
  5 16  1  0  0  0  0
  6  8  1  0  0  0  0
  6 16  2  0  0  0  0
  7 17  1  0  0  0  0
  8 17  2  0  0  0  0
  9 10  2  0  0  0  0
  9 13  1  0  0  0  0
 10 27  1  0  0  0  0
 11 13  2  0  0  0  0
 11 27  1  0  0  0  0
 12 22  2  0  0  0  0
 12 23  1  0  0  0  0
 13 20  1  0  0  0  0
 14 15  2  0  0  0  0
 14 22  1  0  0  0  0
 15 23  1  0  0  0  0
 16 24  1  0  0  0  0
 17 26  1  0  0  0  0
 18 21  1  0  0  0  0
 18 24  1  0  0  0  0
 18 25  2  0  0  0  0
 19 26  1  0  0  0  0
 20 24  1  0  0  0  0
 21 23  1  0  0  0  0
  1 28  1  0  0  0  0
  2 29  1  0  0  0  0
  3 30  1  0  0  0  0
  4 31  1  0  0  0  0
  5 32  1  0  0  0  0
  6 33  1  0  0  0  0
  7 34  1  0  0  0  0
  8 35  1  0  0  0  0
  9 36  1  0  0  0  0
 10 37  1  0  0  0  0
 11 38  1  0  0  0  0
 12 39  1  0  0  0  0
 19 40  1  0  0  0  0
 19 41  1  0  0  0  0
 19 42  1  0  0  0  0
 20 43  1  0  0  0  0
 20 44  1  0  0  0  0
 21 45  1  0  0  0  0
 21 46  1  0  0  0  0
M  END
> <clash_score>
0

> <docking_score>
-10.405213356018066

> <overlap_score>
0.9647617936134338

$$$$
BENZO_381_1
  -OEChem-08232013503D

 49 52  0     0  0  0  0  0  0999 V2000
   14.2764    0.9916   23.8530 C   0  0  0  0  0  0  0  0  0  0  0  0
   13.5527    0.2977   24.8227 C   0  0  0  0  0  0  0  0  0  0  0  0
   13.6055    1.7016   22.8572 C   0  0  0  0  0  0  0  0  0  0  0  0
    4.0980    2.1130   19.5350 C   0  0  0  0  0  0  0  0  0  0  0  0
    4.2970    1.6690   20.8430 C   0  0  0  0  0  0  0  0  0  0  0  0
   12.1582    0.3136   24.7966 C   0  0  0  0  0  0  0  0  0  0  0  0
   12.2110    1.7175   22.8310 C   0  0  0  0  0  0  0  0  0  0  0  0
    4.9400    1.7060   18.5060 C   0  0  0  0  0  0  0  0  0  0  0  0
    5.3360    0.8000   21.1530 C   0  0  0  0  0  0  0  0  0  0  0  0
    8.3510   -1.5420   24.6110 C   0  0  0  0  0  0  0  0  0  0  0  0
   10.2760   -2.3270   23.4020 C   0  0  0  0  0  0  0  0  0  0  0  0
    8.3310   -2.7170   25.3430 C   0  0  0  0  0  0  0  0  0  0  0  0
   10.2570   -3.5000   24.1350 C   0  0  0  0  0  0  0  0  0  0  0  0
    7.6830   -0.5170   18.7600 C   0  0  0  0  0  0  0  0  0  0  0  0
   11.4873    1.0235   23.8007 C   0  0  0  0  0  0  0  0  0  0  0  0
    5.9810    0.8330   18.8060 C   0  0  0  0  0  0  0  0  0  0  0  0
    6.1600    0.3870   20.1140 C   0  0  0  0  0  0  0  0  0  0  0  0
    9.3300   -1.3350   23.6390 C   0  0  0  0  0  0  0  0  0  0  0  0
    9.2850   -3.7090   25.1090 C   0  0  0  0  0  0  0  0  0  0  0  0
    8.9510    0.1280   21.6880 C   0  0  0  0  0  0  0  0  0  0  0  0
    8.2347   -4.9979   26.8024 C   0  0  0  0  0  0  0  0  0  0  0  0
    9.9863    1.0409   23.7719 C   0  0  0  0  0  0  0  0  0  0  0  0
    8.0810   -0.9750   21.0820 C   0  0  0  0  0  0  0  0  0  0  0  0
    6.9440    0.2550   18.0100 N   0  0  0  0  0  0  0  0  0  0  0  0
    7.2210   -0.4620   20.0350 N   0  0  0  0  0  0  0  0  0  0  0  0
    9.4200   -0.0840   22.9530 N   0  0  0  0  0  0  0  0  0  0  0  0
    9.1870    1.1500   21.0630 O   0  0  0  0  0  0  0  0  0  0  0  0
    9.2631   -4.8614   25.8229 O   0  0  0  0  0  0  0  0  0  0  0  0
   15.3622    0.9802   23.8743 H   0  0  0  0  0  0  0  0  0  0  0  0
   14.0749   -0.2543   25.5988 H   0  0  0  0  0  0  0  0  0  0  0  0
   14.1686    2.2428   22.1027 H   0  0  0  0  0  0  0  0  0  0  0  0
    3.2711    2.7875   19.3201 H   0  0  0  0  0  0  0  0  0  0  0  0
    3.6281    2.0095   21.6292 H   0  0  0  0  0  0  0  0  0  0  0  0
   11.6026   -0.2301   25.5561 H   0  0  0  0  0  0  0  0  0  0  0  0
   11.6969    2.2732   22.0513 H   0  0  0  0  0  0  0  0  0  0  0  0
    4.7815    2.0665   17.4902 H   0  0  0  0  0  0  0  0  0  0  0  0
    5.4939    0.4577   22.1786 H   0  0  0  0  0  0  0  0  0  0  0  0
    7.5951   -0.7786   24.8000 H   0  0  0  0  0  0  0  0  0  0  0  0
   11.0406   -2.1866   22.6351 H   0  0  0  0  0  0  0  0  0  0  0  0
    7.5664   -2.8674   26.1055 H   0  0  0  0  0  0  0  0  0  0  0  0
   11.0119   -4.2671   23.9461 H   0  0  0  0  0  0  0  0  0  0  0  0
    8.5167   -1.1056   18.4550 H   0  0  0  0  0  0  0  0  0  0  0  0
    8.3311   -5.9657   27.3006 H   0  0  0  0  0  0  0  0  0  0  0  0
    7.2575   -4.9205   26.3191 H   0  0  0  0  0  0  0  0  0  0  0  0
    8.3383   -4.1989   27.5403 H   0  0  0  0  0  0  0  0  0  0  0  0
    9.5796    0.9577   24.7857 H   0  0  0  0  0  0  0  0  0  0  0  0
    9.6122    1.9785   23.3473 H   0  0  0  0  0  0  0  0  0  0  0  0
    8.7073   -1.7481   20.6391 H   0  0  0  0  0  0  0  0  0  0  0  0
    7.4352   -1.4043   21.8468 H   0  0  0  0  0  0  0  0  0  0  0  0
  1  2  1  0  0  0  0
  1  3  2  0  0  0  0
  2  6  2  0  0  0  0
  3  7  1  0  0  0  0
  4  5  1  0  0  0  0
  4  8  2  0  0  0  0
  5  9  2  0  0  0  0
  6 15  1  0  0  0  0
  7 15  2  0  0  0  0
  8 16  1  0  0  0  0
  9 17  1  0  0  0  0
 10 12  2  0  0  0  0
 10 18  1  0  0  0  0
 11 13  1  0  0  0  0
 11 18  2  0  0  0  0
 12 19  1  0  0  0  0
 13 19  2  0  0  0  0
 14 24  2  0  0  0  0
 14 25  1  0  0  0  0
 15 22  1  0  0  0  0
 16 17  2  0  0  0  0
 16 24  1  0  0  0  0
 17 25  1  0  0  0  0
 18 26  1  0  0  0  0
 19 28  1  0  0  0  0
 20 23  1  0  0  0  0
 20 26  1  0  0  0  0
 20 27  2  0  0  0  0
 21 28  1  0  0  0  0
 22 26  1  0  0  0  0
 23 25  1  0  0  0  0
  1 29  1  0  0  0  0
  2 30  1  0  0  0  0
  3 31  1  0  0  0  0
  4 32  1  0  0  0  0
  5 33  1  0  0  0  0
  6 34  1  0  0  0  0
  7 35  1  0  0  0  0
  8 36  1  0  0  0  0
  9 37  1  0  0  0  0
 10 38  1  0  0  0  0
 11 39  1  0  0  0  0
 12 40  1  0  0  0  0
 13 41  1  0  0  0  0
 14 42  1  0  0  0  0
 21 43  1  0  0  0  0
 21 44  1  0  0  0  0
 21 45  1  0  0  0  0
 22 46  1  0  0  0  0
 22 47  1  0  0  0  0
 23 48  1  0  0  0  0
 23 49  1  0  0  0  0
M  END
> <clash_score>
0

> <docking_score>
-10.035758018493652

> <overlap_score>
0.9863951802253723

$$$$
BENZO_383_1
  -OEChem-08232013503D

 49 52  0     0  0  0  0  0  0999 V2000
    4.0980    2.1130   19.5350 C   0  0  0  0  0  0  0  0  0  0  0  0
    4.2970    1.6690   20.8430 C   0  0  0  0  0  0  0  0  0  0  0  0
    4.9400    1.7060   18.5060 C   0  0  0  0  0  0  0  0  0  0  0  0
    5.3360    0.8000   21.1530 C   0  0  0  0  0  0  0  0  0  0  0  0
    8.3510   -1.5420   24.6110 C   0  0  0  0  0  0  0  0  0  0  0  0
   10.2760   -2.3270   23.4020 C   0  0  0  0  0  0  0  0  0  0  0  0
    8.3310   -2.7170   25.3430 C   0  0  0  0  0  0  0  0  0  0  0  0
   10.2570   -3.5000   24.1350 C   0  0  0  0  0  0  0  0  0  0  0  0
   12.3428    1.7294   24.6677 C   0  0  0  0  0  0  0  0  0  0  0  0
   12.3343    0.3116   22.9870 C   0  0  0  0  0  0  0  0  0  0  0  0
    7.6830   -0.5170   18.7600 C   0  0  0  0  0  0  0  0  0  0  0  0
   11.4873    1.0235   23.8007 C   0  0  0  0  0  0  0  0  0  0  0  0
    5.9810    0.8330   18.8060 C   0  0  0  0  0  0  0  0  0  0  0  0
    6.1600    0.3870   20.1140 C   0  0  0  0  0  0  0  0  0  0  0  0
    9.3300   -1.3350   23.6390 C   0  0  0  0  0  0  0  0  0  0  0  0
    9.2850   -3.7090   25.1090 C   0  0  0  0  0  0  0  0  0  0  0  0
    8.9510    0.1280   21.6880 C   0  0  0  0  0  0  0  0  0  0  0  0
   14.8283    0.1156   22.8439 C   0  0  0  0  0  0  0  0  0  0  0  0
    8.2347   -4.9979   26.8024 C   0  0  0  0  0  0  0  0  0  0  0  0
    9.9863    1.0409   23.7719 C   0  0  0  0  0  0  0  0  0  0  0  0
    8.0810   -0.9750   21.0820 C   0  0  0  0  0  0  0  0  0  0  0  0
   13.6343    1.4877   24.4273 N   0  0  0  0  0  0  0  0  0  0  0  0
    6.9440    0.2550   18.0100 N   0  0  0  0  0  0  0  0  0  0  0  0
   13.5965    0.6220   23.4001 N   0  0  0  0  0  0  0  0  0  0  0  0
    7.2210   -0.4620   20.0350 N   0  0  0  0  0  0  0  0  0  0  0  0
    9.4200   -0.0840   22.9530 N   0  0  0  0  0  0  0  0  0  0  0  0
    9.1870    1.1500   21.0630 O   0  0  0  0  0  0  0  0  0  0  0  0
    9.2631   -4.8614   25.8229 O   0  0  0  0  0  0  0  0  0  0  0  0
    3.2711    2.7875   19.3201 H   0  0  0  0  0  0  0  0  0  0  0  0
    3.6281    2.0095   21.6292 H   0  0  0  0  0  0  0  0  0  0  0  0
    4.7815    2.0665   17.4902 H   0  0  0  0  0  0  0  0  0  0  0  0
    5.4939    0.4577   22.1786 H   0  0  0  0  0  0  0  0  0  0  0  0
    7.5951   -0.7786   24.8000 H   0  0  0  0  0  0  0  0  0  0  0  0
   11.0406   -2.1866   22.6351 H   0  0  0  0  0  0  0  0  0  0  0  0
    7.5664   -2.8674   26.1055 H   0  0  0  0  0  0  0  0  0  0  0  0
   11.0119   -4.2671   23.9461 H   0  0  0  0  0  0  0  0  0  0  0  0
   12.0814    2.4097   25.4659 H   0  0  0  0  0  0  0  0  0  0  0  0
   12.1509   -0.3734   22.1703 H   0  0  0  0  0  0  0  0  0  0  0  0
    8.5167   -1.1056   18.4550 H   0  0  0  0  0  0  0  0  0  0  0  0
   15.1402    0.7919   22.0436 H   0  0  0  0  0  0  0  0  0  0  0  0
   15.5906    0.0724   23.6267 H   0  0  0  0  0  0  0  0  0  0  0  0
   14.6605   -0.8913   22.4514 H   0  0  0  0  0  0  0  0  0  0  0  0
    8.3311   -5.9657   27.3006 H   0  0  0  0  0  0  0  0  0  0  0  0
    7.2575   -4.9205   26.3191 H   0  0  0  0  0  0  0  0  0  0  0  0
    8.3383   -4.1989   27.5403 H   0  0  0  0  0  0  0  0  0  0  0  0
    9.5796    0.9577   24.7857 H   0  0  0  0  0  0  0  0  0  0  0  0
    9.6122    1.9785   23.3473 H   0  0  0  0  0  0  0  0  0  0  0  0
    8.7073   -1.7481   20.6391 H   0  0  0  0  0  0  0  0  0  0  0  0
    7.4352   -1.4043   21.8468 H   0  0  0  0  0  0  0  0  0  0  0  0
  1  2  1  0  0  0  0
  1  3  2  0  0  0  0
  2  4  2  0  0  0  0
  3 13  1  0  0  0  0
  4 14  1  0  0  0  0
  5  7  2  0  0  0  0
  5 15  1  0  0  0  0
  6  8  1  0  0  0  0
  6 15  2  0  0  0  0
  7 16  1  0  0  0  0
  8 16  2  0  0  0  0
  9 12  1  0  0  0  0
  9 22  2  0  0  0  0
 10 12  2  0  0  0  0
 10 24  1  0  0  0  0
 11 23  2  0  0  0  0
 11 25  1  0  0  0  0
 12 20  1  0  0  0  0
 13 14  2  0  0  0  0
 13 23  1  0  0  0  0
 14 25  1  0  0  0  0
 15 26  1  0  0  0  0
 16 28  1  0  0  0  0
 17 21  1  0  0  0  0
 17 26  1  0  0  0  0
 17 27  2  0  0  0  0
 18 24  1  0  0  0  0
 19 28  1  0  0  0  0
 20 26  1  0  0  0  0
 21 25  1  0  0  0  0
 22 24  1  0  0  0  0
  1 29  1  0  0  0  0
  2 30  1  0  0  0  0
  3 31  1  0  0  0  0
  4 32  1  0  0  0  0
  5 33  1  0  0  0  0
  6 34  1  0  0  0  0
  7 35  1  0  0  0  0
  8 36  1  0  0  0  0
  9 37  1  0  0  0  0
 10 38  1  0  0  0  0
 11 39  1  0  0  0  0
 18 40  1  0  0  0  0
 18 41  1  0  0  0  0
 18 42  1  0  0  0  0
 19 43  1  0  0  0  0
 19 44  1  0  0  0  0
 19 45  1  0  0  0  0
 20 46  1  0  0  0  0
 20 47  1  0  0  0  0
 21 48  1  0  0  0  0
 21 49  1  0  0  0  0
M  END
> <clash_score>
0

> <docking_score>
-9.783767700195312

> <overlap_score>
0.9720916152000427

$$$$
BENZO_382_1
  -OEChem-08232013503D

 49 52  0     0  0  0  0  0  0999 V2000
    4.0980    2.1130   19.5350 C   0  0  0  0  0  0  0  0  0  0  0  0
    4.2970    1.6690   20.8430 C   0  0  0  0  0  0  0  0  0  0  0  0
   13.6041    1.9249   23.0635 C   0  0  0  0  0  0  0  0  0  0  0  0
   12.2096    1.9398   23.0362 C   0  0  0  0  0  0  0  0  0  0  0  0
    4.9400    1.7060   18.5060 C   0  0  0  0  0  0  0  0  0  0  0  0
    5.3360    0.8000   21.1530 C   0  0  0  0  0  0  0  0  0  0  0  0
    8.3510   -1.5420   24.6110 C   0  0  0  0  0  0  0  0  0  0  0  0
   10.2760   -2.3270   23.4020 C   0  0  0  0  0  0  0  0  0  0  0  0
    8.3310   -2.7170   25.3430 C   0  0  0  0  0  0  0  0  0  0  0  0
   10.2570   -3.5000   24.1350 C   0  0  0  0  0  0  0  0  0  0  0  0
   14.2763    0.9938   23.8551 C   0  0  0  0  0  0  0  0  0  0  0  0
   12.1595    0.0924   24.5924 C   0  0  0  0  0  0  0  0  0  0  0  0
    7.6830   -0.5170   18.7600 C   0  0  0  0  0  0  0  0  0  0  0  0
   11.4873    1.0235   23.8007 C   0  0  0  0  0  0  0  0  0  0  0  0
    5.9810    0.8330   18.8060 C   0  0  0  0  0  0  0  0  0  0  0  0
    6.1600    0.3870   20.1140 C   0  0  0  0  0  0  0  0  0  0  0  0
    9.3300   -1.3350   23.6390 C   0  0  0  0  0  0  0  0  0  0  0  0
    9.2850   -3.7090   25.1090 C   0  0  0  0  0  0  0  0  0  0  0  0
   13.5541    0.0775   24.6196 C   0  0  0  0  0  0  0  0  0  0  0  0
    8.9510    0.1280   21.6880 C   0  0  0  0  0  0  0  0  0  0  0  0
    8.2347   -4.9979   26.8024 C   0  0  0  0  0  0  0  0  0  0  0  0
    9.9863    1.0409   23.7719 C   0  0  0  0  0  0  0  0  0  0  0  0
    8.0810   -0.9750   21.0820 C   0  0  0  0  0  0  0  0  0  0  0  0
    6.9440    0.2550   18.0100 N   0  0  0  0  0  0  0  0  0  0  0  0
    7.2210   -0.4620   20.0350 N   0  0  0  0  0  0  0  0  0  0  0  0
    9.4200   -0.0840   22.9530 N   0  0  0  0  0  0  0  0  0  0  0  0
    9.1870    1.1500   21.0630 O   0  0  0  0  0  0  0  0  0  0  0  0
    9.2631   -4.8614   25.8229 O   0  0  0  0  0  0  0  0  0  0  0  0
   14.3840   -1.0703   25.5970 Cl  0  0  0  0  0  0  0  0  0  0  0  0
    3.2711    2.7875   19.3201 H   0  0  0  0  0  0  0  0  0  0  0  0
    3.6281    2.0095   21.6292 H   0  0  0  0  0  0  0  0  0  0  0  0
   14.1661    2.6387   22.4681 H   0  0  0  0  0  0  0  0  0  0  0  0
   11.6941    2.6689   22.4166 H   0  0  0  0  0  0  0  0  0  0  0  0
    4.7815    2.0665   17.4902 H   0  0  0  0  0  0  0  0  0  0  0  0
    5.4939    0.4577   22.1786 H   0  0  0  0  0  0  0  0  0  0  0  0
    7.5951   -0.7786   24.8000 H   0  0  0  0  0  0  0  0  0  0  0  0
   11.0406   -2.1866   22.6351 H   0  0  0  0  0  0  0  0  0  0  0  0
    7.5664   -2.8674   26.1055 H   0  0  0  0  0  0  0  0  0  0  0  0
   11.0119   -4.2671   23.9461 H   0  0  0  0  0  0  0  0  0  0  0  0
   15.3635    0.9940   23.8668 H   0  0  0  0  0  0  0  0  0  0  0  0
   11.5918   -0.6203   25.1863 H   0  0  0  0  0  0  0  0  0  0  0  0
    8.5167   -1.1056   18.4550 H   0  0  0  0  0  0  0  0  0  0  0  0
    8.3311   -5.9657   27.3006 H   0  0  0  0  0  0  0  0  0  0  0  0
    7.2575   -4.9205   26.3191 H   0  0  0  0  0  0  0  0  0  0  0  0
    8.3383   -4.1989   27.5403 H   0  0  0  0  0  0  0  0  0  0  0  0
    9.5796    0.9577   24.7857 H   0  0  0  0  0  0  0  0  0  0  0  0
    9.6122    1.9785   23.3473 H   0  0  0  0  0  0  0  0  0  0  0  0
    8.7073   -1.7481   20.6391 H   0  0  0  0  0  0  0  0  0  0  0  0
    7.4352   -1.4043   21.8468 H   0  0  0  0  0  0  0  0  0  0  0  0
  1  2  1  0  0  0  0
  1  5  2  0  0  0  0
  2  6  2  0  0  0  0
  3  4  2  0  0  0  0
  3 11  1  0  0  0  0
  4 14  1  0  0  0  0
  5 15  1  0  0  0  0
  6 16  1  0  0  0  0
  7  9  2  0  0  0  0
  7 17  1  0  0  0  0
  8 10  1  0  0  0  0
  8 17  2  0  0  0  0
  9 18  1  0  0  0  0
 10 18  2  0  0  0  0
 11 19  2  0  0  0  0
 12 14  2  0  0  0  0
 12 19  1  0  0  0  0
 13 24  2  0  0  0  0
 13 25  1  0  0  0  0
 14 22  1  0  0  0  0
 15 16  2  0  0  0  0
 15 24  1  0  0  0  0
 16 25  1  0  0  0  0
 17 26  1  0  0  0  0
 18 28  1  0  0  0  0
 19 29  1  0  0  0  0
 20 23  1  0  0  0  0
 20 26  1  0  0  0  0
 20 27  2  0  0  0  0
 21 28  1  0  0  0  0
 22 26  1  0  0  0  0
 23 25  1  0  0  0  0
  1 30  1  0  0  0  0
  2 31  1  0  0  0  0
  3 32  1  0  0  0  0
  4 33  1  0  0  0  0
  5 34  1  0  0  0  0
  6 35  1  0  0  0  0
  7 36  1  0  0  0  0
  8 37  1  0  0  0  0
  9 38  1  0  0  0  0
 10 39  1  0  0  0  0
 11 40  1  0  0  0  0
 12 41  1  0  0  0  0
 13 42  1  0  0  0  0
 21 43  1  0  0  0  0
 21 44  1  0  0  0  0
 21 45  1  0  0  0  0
 22 46  1  0  0  0  0
 22 47  1  0  0  0  0
 23 48  1  0  0  0  0
 23 49  1  0  0  0  0
M  END
> <clash_score>
0.7438166031195413

> <docking_score>
-8.802295684814453

> <overlap_score>
0.9873998165130615

$$$$
BENZO_385_1
  -OEChem-08232013503D

 59 63  0     0  0  0  0  0  0999 V2000
   14.2751    1.0084   23.8710 C   0  0  0  0  0  0  0  0  0  0  0  0
   13.5424    0.3380   24.8504 C   0  0  0  0  0  0  0  0  0  0  0  0
   13.6136    1.6969   22.8541 C   0  0  0  0  0  0  0  0  0  0  0  0
    4.0980    2.1130   19.5350 C   0  0  0  0  0  0  0  0  0  0  0  0
    4.2970    1.6690   20.8430 C   0  0  0  0  0  0  0  0  0  0  0  0
   12.1482    0.3559   24.8128 C   0  0  0  0  0  0  0  0  0  0  0  0
   12.2194    1.7147   22.8165 C   0  0  0  0  0  0  0  0  0  0  0  0
    4.9400    1.7060   18.5060 C   0  0  0  0  0  0  0  0  0  0  0  0
    5.3360    0.8000   21.1530 C   0  0  0  0  0  0  0  0  0  0  0  0
    8.3310   -2.7170   25.3430 C   0  0  0  0  0  0  0  0  0  0  0  0
   10.2570   -3.5000   24.1350 C   0  0  0  0  0  0  0  0  0  0  0  0
    8.3510   -1.5420   24.6110 C   0  0  0  0  0  0  0  0  0  0  0  0
   10.2760   -2.3270   23.4020 C   0  0  0  0  0  0  0  0  0  0  0  0
    7.6830   -0.5170   18.7600 C   0  0  0  0  0  0  0  0  0  0  0  0
   11.4866    1.0443   23.7958 C   0  0  0  0  0  0  0  0  0  0  0  0
    5.9810    0.8330   18.8060 C   0  0  0  0  0  0  0  0  0  0  0  0
    6.1600    0.3870   20.1140 C   0  0  0  0  0  0  0  0  0  0  0  0
    9.2850   -3.7090   25.1090 C   0  0  0  0  0  0  0  0  0  0  0  0
    9.3300   -1.3350   23.6390 C   0  0  0  0  0  0  0  0  0  0  0  0
    8.0635   -5.4710   26.3667 C   0  0  0  0  0  0  0  0  0  0  0  0
    8.9510    0.1280   21.6880 C   0  0  0  0  0  0  0  0  0  0  0  0
    8.2626   -6.7580   27.1475 C   0  0  0  0  0  0  0  0  0  0  0  0
    9.4048   -6.6156   28.1380 C   0  0  0  0  0  0  0  0  0  0  0  0
   10.6949   -6.1500   27.4702 C   0  0  0  0  0  0  0  0  0  0  0  0
   10.4942   -5.7069   26.0219 C   0  0  0  0  0  0  0  0  0  0  0  0
    9.9859    1.0637   23.7546 C   0  0  0  0  0  0  0  0  0  0  0  0
    8.0810   -0.9750   21.0820 C   0  0  0  0  0  0  0  0  0  0  0  0
    6.9440    0.2550   18.0100 N   0  0  0  0  0  0  0  0  0  0  0  0
    7.2210   -0.4620   20.0350 N   0  0  0  0  0  0  0  0  0  0  0  0
    9.2623   -4.9266   25.8635 N   0  0  0  0  0  0  0  0  0  0  0  0
    9.4200   -0.0840   22.9530 N   0  0  0  0  0  0  0  0  0  0  0  0
    6.9244   -5.0476   26.1739 O   0  0  0  0  0  0  0  0  0  0  0  0
    9.1870    1.1500   21.0630 O   0  0  0  0  0  0  0  0  0  0  0  0
   15.3607    0.9955   23.9012 H   0  0  0  0  0  0  0  0  0  0  0  0
   14.0573   -0.1972   25.6430 H   0  0  0  0  0  0  0  0  0  0  0  0
   14.1838    2.2199   22.0920 H   0  0  0  0  0  0  0  0  0  0  0  0
    3.2711    2.7875   19.3201 H   0  0  0  0  0  0  0  0  0  0  0  0
    3.6281    2.0095   21.6292 H   0  0  0  0  0  0  0  0  0  0  0  0
   11.5854   -0.1695   25.5800 H   0  0  0  0  0  0  0  0  0  0  0  0
   11.7126    2.2536   22.0203 H   0  0  0  0  0  0  0  0  0  0  0  0
    4.7815    2.0665   17.4902 H   0  0  0  0  0  0  0  0  0  0  0  0
    5.4939    0.4577   22.1786 H   0  0  0  0  0  0  0  0  0  0  0  0
    7.5639   -2.8621   26.1045 H   0  0  0  0  0  0  0  0  0  0  0  0
   11.0141   -4.2644   23.9422 H   0  0  0  0  0  0  0  0  0  0  0  0
    7.5950   -0.7788   24.8007 H   0  0  0  0  0  0  0  0  0  0  0  0
   11.0408   -2.1861   22.6359 H   0  0  0  0  0  0  0  0  0  0  0  0
    8.5167   -1.1056   18.4550 H   0  0  0  0  0  0  0  0  0  0  0  0
    7.3516   -6.9810   27.6812 H   0  0  0  0  0  0  0  0  0  0  0  0
    8.4757   -7.5428   26.4371 H   0  0  0  0  0  0  0  0  0  0  0  0
    9.1234   -5.9016   28.9400 H   0  0  0  0  0  0  0  0  0  0  0  0
    9.5778   -7.5840   28.6491 H   0  0  0  0  0  0  0  0  0  0  0  0
   11.1305   -5.3108   28.0523 H   0  0  0  0  0  0  0  0  0  0  0  0
   11.4565   -6.9587   27.5131 H   0  0  0  0  0  0  0  0  0  0  0  0
   11.3212   -5.0729   25.7168 H   0  0  0  0  0  0  0  0  0  0  0  0
   10.4483   -6.5796   25.3796 H   0  0  0  0  0  0  0  0  0  0  0  0
    9.5708    0.9742   24.7644 H   0  0  0  0  0  0  0  0  0  0  0  0
    9.6165    2.0046   23.3334 H   0  0  0  0  0  0  0  0  0  0  0  0
    8.7136   -1.7499   20.6462 H   0  0  0  0  0  0  0  0  0  0  0  0
    7.4415   -1.4060   21.8540 H   0  0  0  0  0  0  0  0  0  0  0  0
  1  2  1  0  0  0  0
  1  3  2  0  0  0  0
  2  6  2  0  0  0  0
  3  7  1  0  0  0  0
  4  5  1  0  0  0  0
  4  8  2  0  0  0  0
  5  9  2  0  0  0  0
  6 15  1  0  0  0  0
  7 15  2  0  0  0  0
  8 16  1  0  0  0  0
  9 17  1  0  0  0  0
 10 12  2  0  0  0  0
 10 18  1  0  0  0  0
 11 13  1  0  0  0  0
 11 18  2  0  0  0  0
 12 19  1  0  0  0  0
 13 19  2  0  0  0  0
 14 28  2  0  0  0  0
 14 29  1  0  0  0  0
 15 26  1  0  0  0  0
 16 17  2  0  0  0  0
 16 28  1  0  0  0  0
 17 29  1  0  0  0  0
 18 30  1  0  0  0  0
 19 31  1  0  0  0  0
 20 22  1  0  0  0  0
 20 30  1  0  0  0  0
 20 32  2  0  0  0  0
 21 27  1  0  0  0  0
 21 31  1  0  0  0  0
 21 33  2  0  0  0  0
 22 23  1  0  0  0  0
 23 24  1  0  0  0  0
 24 25  1  0  0  0  0
 25 30  1  0  0  0  0
 26 31  1  0  0  0  0
 27 29  1  0  0  0  0
  1 34  1  0  0  0  0
  2 35  1  0  0  0  0
  3 36  1  0  0  0  0
  4 37  1  0  0  0  0
  5 38  1  0  0  0  0
  6 39  1  0  0  0  0
  7 40  1  0  0  0  0
  8 41  1  0  0  0  0
  9 42  1  0  0  0  0
 10 43  1  0  0  0  0
 11 44  1  0  0  0  0
 12 45  1  0  0  0  0
 13 46  1  0  0  0  0
 14 47  1  0  0  0  0
 22 48  1  0  0  0  0
 22 49  1  0  0  0  0
 23 50  1  0  0  0  0
 23 51  1  0  0  0  0
 24 52  1  0  0  0  0
 24 53  1  0  0  0  0
 25 54  1  0  0  0  0
 25 55  1  0  0  0  0
 26 56  1  0  0  0  0
 26 57  1  0  0  0  0
 27 58  1  0  0  0  0
 27 59  1  0  0  0  0
M  END
> <clash_score>
1.272782601224562

> <docking_score>
-8.513652801513672

> <overlap_score>
1.0062389373779297

$$$$
BENZO_384_1
  -OEChem-08232013503D

 56 60  0     0  0  0  0  0  0999 V2000
    4.0980    2.1130   19.5350 C   0  0  0  0  0  0  0  0  0  0  0  0
    4.2970    1.6690   20.8430 C   0  0  0  0  0  0  0  0  0  0  0  0
    4.9400    1.7060   18.5060 C   0  0  0  0  0  0  0  0  0  0  0  0
    5.3360    0.8000   21.1530 C   0  0  0  0  0  0  0  0  0  0  0  0
    8.3310   -2.7170   25.3430 C   0  0  0  0  0  0  0  0  0  0  0  0
   10.2570   -3.5000   24.1350 C   0  0  0  0  0  0  0  0  0  0  0  0
    8.3510   -1.5420   24.6110 C   0  0  0  0  0  0  0  0  0  0  0  0
   10.2760   -2.3270   23.4020 C   0  0  0  0  0  0  0  0  0  0  0  0
   12.3146    1.1431   22.6404 C   0  0  0  0  0  0  0  0  0  0  0  0
   13.6541    1.0988   22.9584 C   0  0  0  0  0  0  0  0  0  0  0  0
   12.2251    0.9280   24.9530 C   0  0  0  0  0  0  0  0  0  0  0  0
    7.6830   -0.5170   18.7600 C   0  0  0  0  0  0  0  0  0  0  0  0
   11.4866    1.0443   23.7958 C   0  0  0  0  0  0  0  0  0  0  0  0
    5.9810    0.8330   18.8060 C   0  0  0  0  0  0  0  0  0  0  0  0
    6.1600    0.3870   20.1140 C   0  0  0  0  0  0  0  0  0  0  0  0
    9.2850   -3.7090   25.1090 C   0  0  0  0  0  0  0  0  0  0  0  0
    9.3300   -1.3350   23.6390 C   0  0  0  0  0  0  0  0  0  0  0  0
    8.0635   -5.4710   26.3667 C   0  0  0  0  0  0  0  0  0  0  0  0
    8.9510    0.1280   21.6880 C   0  0  0  0  0  0  0  0  0  0  0  0
    8.2626   -6.7580   27.1475 C   0  0  0  0  0  0  0  0  0  0  0  0
    9.4048   -6.6156   28.1380 C   0  0  0  0  0  0  0  0  0  0  0  0
   10.6949   -6.1500   27.4702 C   0  0  0  0  0  0  0  0  0  0  0  0
   10.4942   -5.7069   26.0219 C   0  0  0  0  0  0  0  0  0  0  0  0
    9.9859    1.0637   23.7546 C   0  0  0  0  0  0  0  0  0  0  0  0
    8.0810   -0.9750   21.0820 C   0  0  0  0  0  0  0  0  0  0  0  0
    6.9440    0.2550   18.0100 N   0  0  0  0  0  0  0  0  0  0  0  0
    7.2210   -0.4620   20.0350 N   0  0  0  0  0  0  0  0  0  0  0  0
    9.2623   -4.9266   25.8635 N   0  0  0  0  0  0  0  0  0  0  0  0
    9.4200   -0.0840   22.9530 N   0  0  0  0  0  0  0  0  0  0  0  0
    6.9244   -5.0476   26.1739 O   0  0  0  0  0  0  0  0  0  0  0  0
    9.1870    1.1500   21.0630 O   0  0  0  0  0  0  0  0  0  0  0  0
   13.9093    0.9386   24.6441 S   0  0  0  0  0  0  0  0  0  0  0  0
    3.2711    2.7875   19.3201 H   0  0  0  0  0  0  0  0  0  0  0  0
    3.6281    2.0095   21.6292 H   0  0  0  0  0  0  0  0  0  0  0  0
    4.7815    2.0665   17.4902 H   0  0  0  0  0  0  0  0  0  0  0  0
    5.4939    0.4577   22.1786 H   0  0  0  0  0  0  0  0  0  0  0  0
    7.5639   -2.8621   26.1045 H   0  0  0  0  0  0  0  0  0  0  0  0
   11.0141   -4.2644   23.9422 H   0  0  0  0  0  0  0  0  0  0  0  0
    7.5950   -0.7788   24.8007 H   0  0  0  0  0  0  0  0  0  0  0  0
   11.0408   -2.1861   22.6359 H   0  0  0  0  0  0  0  0  0  0  0  0
   11.9502    1.2413   21.6256 H   0  0  0  0  0  0  0  0  0  0  0  0
   14.4951    1.1522   22.2816 H   0  0  0  0  0  0  0  0  0  0  0  0
   11.8602    0.8360   25.9667 H   0  0  0  0  0  0  0  0  0  0  0  0
    8.5167   -1.1056   18.4550 H   0  0  0  0  0  0  0  0  0  0  0  0
    7.3516   -6.9810   27.6812 H   0  0  0  0  0  0  0  0  0  0  0  0
    8.4757   -7.5428   26.4371 H   0  0  0  0  0  0  0  0  0  0  0  0
    9.1234   -5.9016   28.9400 H   0  0  0  0  0  0  0  0  0  0  0  0
    9.5778   -7.5840   28.6491 H   0  0  0  0  0  0  0  0  0  0  0  0
   11.1305   -5.3108   28.0523 H   0  0  0  0  0  0  0  0  0  0  0  0
   11.4565   -6.9587   27.5131 H   0  0  0  0  0  0  0  0  0  0  0  0
   11.3212   -5.0729   25.7168 H   0  0  0  0  0  0  0  0  0  0  0  0
   10.4483   -6.5796   25.3796 H   0  0  0  0  0  0  0  0  0  0  0  0
    9.5708    0.9742   24.7644 H   0  0  0  0  0  0  0  0  0  0  0  0
    9.6165    2.0046   23.3334 H   0  0  0  0  0  0  0  0  0  0  0  0
    8.7136   -1.7499   20.6462 H   0  0  0  0  0  0  0  0  0  0  0  0
    7.4415   -1.4060   21.8540 H   0  0  0  0  0  0  0  0  0  0  0  0
  1  2  1  0  0  0  0
  1  3  2  0  0  0  0
  2  4  2  0  0  0  0
  3 14  1  0  0  0  0
  4 15  1  0  0  0  0
  5  7  2  0  0  0  0
  5 16  1  0  0  0  0
  6  8  1  0  0  0  0
  6 16  2  0  0  0  0
  7 17  1  0  0  0  0
  8 17  2  0  0  0  0
  9 10  2  0  0  0  0
  9 13  1  0  0  0  0
 10 32  1  0  0  0  0
 11 13  2  0  0  0  0
 11 32  1  0  0  0  0
 12 26  2  0  0  0  0
 12 27  1  0  0  0  0
 13 24  1  0  0  0  0
 14 15  2  0  0  0  0
 14 26  1  0  0  0  0
 15 27  1  0  0  0  0
 16 28  1  0  0  0  0
 17 29  1  0  0  0  0
 18 20  1  0  0  0  0
 18 28  1  0  0  0  0
 18 30  2  0  0  0  0
 19 25  1  0  0  0  0
 19 29  1  0  0  0  0
 19 31  2  0  0  0  0
 20 21  1  0  0  0  0
 21 22  1  0  0  0  0
 22 23  1  0  0  0  0
 23 28  1  0  0  0  0
 24 29  1  0  0  0  0
 25 27  1  0  0  0  0
  1 33  1  0  0  0  0
  2 34  1  0  0  0  0
  3 35  1  0  0  0  0
  4 36  1  0  0  0  0
  5 37  1  0  0  0  0
  6 38  1  0  0  0  0
  7 39  1  0  0  0  0
  8 40  1  0  0  0  0
  9 41  1  0  0  0  0
 10 42  1  0  0  0  0
 11 43  1  0  0  0  0
 12 44  1  0  0  0  0
 20 45  1  0  0  0  0
 20 46  1  0  0  0  0
 21 47  1  0  0  0  0
 21 48  1  0  0  0  0
 22 49  1  0  0  0  0
 22 50  1  0  0  0  0
 23 51  1  0  0  0  0
 23 52  1  0  0  0  0
 24 53  1  0  0  0  0
 24 54  1  0  0  0  0
 25 55  1  0  0  0  0
 25 56  1  0  0  0  0
M  END
> <clash_score>
1.272782601224562

> <docking_score>
-8.878523826599121

> <overlap_score>
0.9856139421463013

$$$$
BENZO_389_1
  -OEChem-08232013503D

 58 62  0     0  0  0  0  0  0999 V2000
   14.2750    0.9910   23.8656 C   0  0  0  0  0  0  0  0  0  0  0  0
   13.5408    0.3239   24.8462 C   0  0  0  0  0  0  0  0  0  0  0  0
   13.6150    1.6817   22.8492 C   0  0  0  0  0  0  0  0  0  0  0  0
    4.0980    2.1130   19.5350 C   0  0  0  0  0  0  0  0  0  0  0  0
    4.2970    1.6690   20.8430 C   0  0  0  0  0  0  0  0  0  0  0  0
   12.1466    0.3475   24.8104 C   0  0  0  0  0  0  0  0  0  0  0  0
   12.2208    1.7053   22.8134 C   0  0  0  0  0  0  0  0  0  0  0  0
    4.9400    1.7060   18.5060 C   0  0  0  0  0  0  0  0  0  0  0  0
    5.3360    0.8000   21.1530 C   0  0  0  0  0  0  0  0  0  0  0  0
    8.3310   -2.7170   25.3430 C   0  0  0  0  0  0  0  0  0  0  0  0
   10.2570   -3.5000   24.1350 C   0  0  0  0  0  0  0  0  0  0  0  0
    8.3510   -1.5420   24.6110 C   0  0  0  0  0  0  0  0  0  0  0  0
   10.2760   -2.3270   23.4020 C   0  0  0  0  0  0  0  0  0  0  0  0
    7.6830   -0.5170   18.7600 C   0  0  0  0  0  0  0  0  0  0  0  0
   11.4866    1.0382   23.7939 C   0  0  0  0  0  0  0  0  0  0  0  0
    5.9810    0.8330   18.8060 C   0  0  0  0  0  0  0  0  0  0  0  0
    6.1600    0.3870   20.1140 C   0  0  0  0  0  0  0  0  0  0  0  0
    9.2850   -3.7090   25.1090 C   0  0  0  0  0  0  0  0  0  0  0  0
    9.3300   -1.3350   23.6390 C   0  0  0  0  0  0  0  0  0  0  0  0
    8.9510    0.1280   21.6880 C   0  0  0  0  0  0  0  0  0  0  0  0
    8.7666   -4.9523   27.2147 C   0  0  0  0  0  0  0  0  0  0  0  0
    9.3034   -6.1866   25.1651 C   0  0  0  0  0  0  0  0  0  0  0  0
    7.3827   -5.5925   27.1999 C   0  0  0  0  0  0  0  0  0  0  0  0
    7.9024   -6.7967   25.2263 C   0  0  0  0  0  0  0  0  0  0  0  0
    9.9859    1.0637   23.7546 C   0  0  0  0  0  0  0  0  0  0  0  0
    8.0810   -0.9750   21.0820 C   0  0  0  0  0  0  0  0  0  0  0  0
    6.9440    0.2550   18.0100 N   0  0  0  0  0  0  0  0  0  0  0  0
    7.2210   -0.4620   20.0350 N   0  0  0  0  0  0  0  0  0  0  0  0
    9.2640   -4.8844   25.8389 N   0  0  0  0  0  0  0  0  0  0  0  0
    9.4200   -0.0840   22.9530 N   0  0  0  0  0  0  0  0  0  0  0  0
    9.1870    1.1500   21.0630 O   0  0  0  0  0  0  0  0  0  0  0  0
    7.4483   -6.8833   26.5817 O   0  0  0  0  0  0  0  0  0  0  0  0
   15.3606    0.9736   23.8945 H   0  0  0  0  0  0  0  0  0  0  0  0
   14.0545   -0.2131   25.6383 H   0  0  0  0  0  0  0  0  0  0  0  0
   14.1864    2.2021   22.0863 H   0  0  0  0  0  0  0  0  0  0  0  0
    3.2711    2.7875   19.3201 H   0  0  0  0  0  0  0  0  0  0  0  0
    3.6281    2.0095   21.6292 H   0  0  0  0  0  0  0  0  0  0  0  0
   11.5827   -0.1753   25.5784 H   0  0  0  0  0  0  0  0  0  0  0  0
   11.7152    2.2459   22.0177 H   0  0  0  0  0  0  0  0  0  0  0  0
    4.7815    2.0665   17.4902 H   0  0  0  0  0  0  0  0  0  0  0  0
    5.4939    0.4577   22.1786 H   0  0  0  0  0  0  0  0  0  0  0  0
    7.5647   -2.8621   26.1053 H   0  0  0  0  0  0  0  0  0  0  0  0
   11.0144   -4.2642   23.9425 H   0  0  0  0  0  0  0  0  0  0  0  0
    7.5958   -0.7779   24.8006 H   0  0  0  0  0  0  0  0  0  0  0  0
   11.0406   -2.1848   22.6356 H   0  0  0  0  0  0  0  0  0  0  0  0
    8.5167   -1.1056   18.4550 H   0  0  0  0  0  0  0  0  0  0  0  0
    8.7030   -3.9561   27.6574 H   0  0  0  0  0  0  0  0  0  0  0  0
    9.4460   -5.5639   27.8143 H   0  0  0  0  0  0  0  0  0  0  0  0
   10.0083   -6.8392   25.6817 H   0  0  0  0  0  0  0  0  0  0  0  0
    9.6089   -6.0802   24.1251 H   0  0  0  0  0  0  0  0  0  0  0  0
    7.0281   -5.7334   28.2231 H   0  0  0  0  0  0  0  0  0  0  0  0
    6.6541   -4.9678   26.6754 H   0  0  0  0  0  0  0  0  0  0  0  0
    7.1860   -6.2177   24.6318 H   0  0  0  0  0  0  0  0  0  0  0  0
    7.9246   -7.8119   24.8187 H   0  0  0  0  0  0  0  0  0  0  0  0
    9.5717    0.9756   24.7649 H   0  0  0  0  0  0  0  0  0  0  0  0
    9.6199    2.0062   23.3340 H   0  0  0  0  0  0  0  0  0  0  0  0
    8.7136   -1.7499   20.6462 H   0  0  0  0  0  0  0  0  0  0  0  0
    7.4415   -1.4060   21.8540 H   0  0  0  0  0  0  0  0  0  0  0  0
  1  2  1  0  0  0  0
  1  3  2  0  0  0  0
  2  6  2  0  0  0  0
  3  7  1  0  0  0  0
  4  5  1  0  0  0  0
  4  8  2  0  0  0  0
  5  9  2  0  0  0  0
  6 15  1  0  0  0  0
  7 15  2  0  0  0  0
  8 16  1  0  0  0  0
  9 17  1  0  0  0  0
 10 12  2  0  0  0  0
 10 18  1  0  0  0  0
 11 13  1  0  0  0  0
 11 18  2  0  0  0  0
 12 19  1  0  0  0  0
 13 19  2  0  0  0  0
 14 27  2  0  0  0  0
 14 28  1  0  0  0  0
 15 25  1  0  0  0  0
 16 17  2  0  0  0  0
 16 27  1  0  0  0  0
 17 28  1  0  0  0  0
 18 29  1  0  0  0  0
 19 30  1  0  0  0  0
 20 26  1  0  0  0  0
 20 30  1  0  0  0  0
 20 31  2  0  0  0  0
 21 23  1  0  0  0  0
 21 29  1  0  0  0  0
 22 24  1  0  0  0  0
 22 29  1  0  0  0  0
 23 32  1  0  0  0  0
 24 32  1  0  0  0  0
 25 30  1  0  0  0  0
 26 28  1  0  0  0  0
  1 33  1  0  0  0  0
  2 34  1  0  0  0  0
  3 35  1  0  0  0  0
  4 36  1  0  0  0  0
  5 37  1  0  0  0  0
  6 38  1  0  0  0  0
  7 39  1  0  0  0  0
  8 40  1  0  0  0  0
  9 41  1  0  0  0  0
 10 42  1  0  0  0  0
 11 43  1  0  0  0  0
 12 44  1  0  0  0  0
 13 45  1  0  0  0  0
 14 46  1  0  0  0  0
 21 47  1  0  0  0  0
 21 48  1  0  0  0  0
 22 49  1  0  0  0  0
 22 50  1  0  0  0  0
 23 51  1  0  0  0  0
 23 52  1  0  0  0  0
 24 53  1  0  0  0  0
 24 54  1  0  0  0  0
 25 55  1  0  0  0  0
 25 56  1  0  0  0  0
 26 57  1  0  0  0  0
 26 58  1  0  0  0  0
M  END
> <clash_score>
0

> <docking_score>
-9.773295402526855

> <overlap_score>
1.006933331489563

$$$$
BENZO_386_1
  -OEChem-08232013503D

 59 63  0     0  0  0  0  0  0999 V2000
    4.0980    2.1130   19.5350 C   0  0  0  0  0  0  0  0  0  0  0  0
    4.2970    1.6690   20.8430 C   0  0  0  0  0  0  0  0  0  0  0  0
   13.6105    1.9480   23.0823 C   0  0  0  0  0  0  0  0  0  0  0  0
   12.2163    1.9648   23.0436 C   0  0  0  0  0  0  0  0  0  0  0  0
    4.9400    1.7060   18.5060 C   0  0  0  0  0  0  0  0  0  0  0  0
    5.3360    0.8000   21.1530 C   0  0  0  0  0  0  0  0  0  0  0  0
    8.3310   -2.7170   25.3430 C   0  0  0  0  0  0  0  0  0  0  0  0
   10.2570   -3.5000   24.1350 C   0  0  0  0  0  0  0  0  0  0  0  0
    8.3510   -1.5420   24.6110 C   0  0  0  0  0  0  0  0  0  0  0  0
   10.2760   -2.3270   23.4020 C   0  0  0  0  0  0  0  0  0  0  0  0
   14.2751    1.0106   23.8732 C   0  0  0  0  0  0  0  0  0  0  0  0
   12.1511    0.1069   24.5867 C   0  0  0  0  0  0  0  0  0  0  0  0
    7.6830   -0.5170   18.7600 C   0  0  0  0  0  0  0  0  0  0  0  0
   11.4866    1.0443   23.7958 C   0  0  0  0  0  0  0  0  0  0  0  0
    5.9810    0.8330   18.8060 C   0  0  0  0  0  0  0  0  0  0  0  0
    6.1600    0.3870   20.1140 C   0  0  0  0  0  0  0  0  0  0  0  0
    9.2850   -3.7090   25.1090 C   0  0  0  0  0  0  0  0  0  0  0  0
    9.3300   -1.3350   23.6390 C   0  0  0  0  0  0  0  0  0  0  0  0
   13.5454    0.0901   24.6254 C   0  0  0  0  0  0  0  0  0  0  0  0
    8.2930   -5.1714   26.8572 C   0  0  0  0  0  0  0  0  0  0  0  0
    8.9510    0.1280   21.6880 C   0  0  0  0  0  0  0  0  0  0  0  0
    8.4551   -6.5156   27.5444 C   0  0  0  0  0  0  0  0  0  0  0  0
    9.9019   -6.7444   27.9450 C   0  0  0  0  0  0  0  0  0  0  0  0
   10.8596   -6.5882   26.7680 C   0  0  0  0  0  0  0  0  0  0  0  0
   10.1895   -6.0108   25.5223 C   0  0  0  0  0  0  0  0  0  0  0  0
    9.9859    1.0637   23.7546 C   0  0  0  0  0  0  0  0  0  0  0  0
    8.0810   -0.9750   21.0820 C   0  0  0  0  0  0  0  0  0  0  0  0
    6.9440    0.2550   18.0100 N   0  0  0  0  0  0  0  0  0  0  0  0
    7.2210   -0.4620   20.0350 N   0  0  0  0  0  0  0  0  0  0  0  0
    9.2623   -4.9266   25.8635 N   0  0  0  0  0  0  0  0  0  0  0  0
    9.4200   -0.0840   22.9530 N   0  0  0  0  0  0  0  0  0  0  0  0
    7.3370   -4.4527   27.1463 O   0  0  0  0  0  0  0  0  0  0  0  0
    9.1870    1.1500   21.0630 O   0  0  0  0  0  0  0  0  0  0  0  0
   14.3658   -1.0654   25.6019 Cl  0  0  0  0  0  0  0  0  0  0  0  0
    3.2711    2.7875   19.3201 H   0  0  0  0  0  0  0  0  0  0  0  0
    3.6281    2.0095   21.6292 H   0  0  0  0  0  0  0  0  0  0  0  0
   14.1784    2.6650   22.4965 H   0  0  0  0  0  0  0  0  0  0  0  0
   11.7069    2.6987   22.4247 H   0  0  0  0  0  0  0  0  0  0  0  0
    4.7815    2.0665   17.4902 H   0  0  0  0  0  0  0  0  0  0  0  0
    5.4939    0.4577   22.1786 H   0  0  0  0  0  0  0  0  0  0  0  0
    7.5639   -2.8621   26.1045 H   0  0  0  0  0  0  0  0  0  0  0  0
   11.0141   -4.2644   23.9422 H   0  0  0  0  0  0  0  0  0  0  0  0
    7.5950   -0.7788   24.8007 H   0  0  0  0  0  0  0  0  0  0  0  0
   11.0408   -2.1861   22.6359 H   0  0  0  0  0  0  0  0  0  0  0  0
   15.3621    1.0094   23.8939 H   0  0  0  0  0  0  0  0  0  0  0  0
   11.5776   -0.6090   25.1710 H   0  0  0  0  0  0  0  0  0  0  0  0
    8.5167   -1.1056   18.4550 H   0  0  0  0  0  0  0  0  0  0  0  0
    7.8332   -6.5283   28.4263 H   0  0  0  0  0  0  0  0  0  0  0  0
    8.1305   -7.2787   26.8530 H   0  0  0  0  0  0  0  0  0  0  0  0
   10.1875   -6.0379   28.7521 H   0  0  0  0  0  0  0  0  0  0  0  0
   10.0116   -7.7568   28.3834 H   0  0  0  0  0  0  0  0  0  0  0  0
   11.7061   -5.9337   27.0644 H   0  0  0  0  0  0  0  0  0  0  0  0
   11.3230   -7.5689   26.5243 H   0  0  0  0  0  0  0  0  0  0  0  0
   10.9445   -5.5959   24.8614 H   0  0  0  0  0  0  0  0  0  0  0  0
    9.6461   -6.7954   25.0072 H   0  0  0  0  0  0  0  0  0  0  0  0
    9.5708    0.9742   24.7644 H   0  0  0  0  0  0  0  0  0  0  0  0
    9.6165    2.0046   23.3334 H   0  0  0  0  0  0  0  0  0  0  0  0
    8.7136   -1.7499   20.6462 H   0  0  0  0  0  0  0  0  0  0  0  0
    7.4415   -1.4060   21.8540 H   0  0  0  0  0  0  0  0  0  0  0  0
  1  2  1  0  0  0  0
  1  5  2  0  0  0  0
  2  6  2  0  0  0  0
  3  4  2  0  0  0  0
  3 11  1  0  0  0  0
  4 14  1  0  0  0  0
  5 15  1  0  0  0  0
  6 16  1  0  0  0  0
  7  9  2  0  0  0  0
  7 17  1  0  0  0  0
  8 10  1  0  0  0  0
  8 17  2  0  0  0  0
  9 18  1  0  0  0  0
 10 18  2  0  0  0  0
 11 19  2  0  0  0  0
 12 14  2  0  0  0  0
 12 19  1  0  0  0  0
 13 28  2  0  0  0  0
 13 29  1  0  0  0  0
 14 26  1  0  0  0  0
 15 16  2  0  0  0  0
 15 28  1  0  0  0  0
 16 29  1  0  0  0  0
 17 30  1  0  0  0  0
 18 31  1  0  0  0  0
 19 34  1  0  0  0  0
 20 22  1  0  0  0  0
 20 30  1  0  0  0  0
 20 32  2  0  0  0  0
 21 27  1  0  0  0  0
 21 31  1  0  0  0  0
 21 33  2  0  0  0  0
 22 23  1  0  0  0  0
 23 24  1  0  0  0  0
 24 25  1  0  0  0  0
 25 30  1  0  0  0  0
 26 31  1  0  0  0  0
 27 29  1  0  0  0  0
  1 35  1  0  0  0  0
  2 36  1  0  0  0  0
  3 37  1  0  0  0  0
  4 38  1  0  0  0  0
  5 39  1  0  0  0  0
  6 40  1  0  0  0  0
  7 41  1  0  0  0  0
  8 42  1  0  0  0  0
  9 43  1  0  0  0  0
 10 44  1  0  0  0  0
 11 45  1  0  0  0  0
 12 46  1  0  0  0  0
 13 47  1  0  0  0  0
 22 48  1  0  0  0  0
 22 49  1  0  0  0  0
 23 50  1  0  0  0  0
 23 51  1  0  0  0  0
 24 52  1  0  0  0  0
 24 53  1  0  0  0  0
 25 54  1  0  0  0  0
 25 55  1  0  0  0  0
 26 56  1  0  0  0  0
 26 57  1  0  0  0  0
 27 58  1  0  0  0  0
 27 59  1  0  0  0  0
M  END
> <clash_score>
2.803358825425512

> <docking_score>
-7.272683620452881

> <overlap_score>
1.0081093311309814

$$$$
BENZO_387_1
  -OEChem-08232013503D

 59 63  0     0  0  0  0  0  0999 V2000
    4.0980    2.1130   19.5350 C   0  0  0  0  0  0  0  0  0  0  0  0
    4.2970    1.6690   20.8430 C   0  0  0  0  0  0  0  0  0  0  0  0
    4.9400    1.7060   18.5060 C   0  0  0  0  0  0  0  0  0  0  0  0
    5.3360    0.8000   21.1530 C   0  0  0  0  0  0  0  0  0  0  0  0
    8.3310   -2.7170   25.3430 C   0  0  0  0  0  0  0  0  0  0  0  0
   10.2570   -3.5000   24.1350 C   0  0  0  0  0  0  0  0  0  0  0  0
    8.3510   -1.5420   24.6110 C   0  0  0  0  0  0  0  0  0  0  0  0
   10.2760   -2.3270   23.4020 C   0  0  0  0  0  0  0  0  0  0  0  0
   12.3358    1.7431   24.6746 C   0  0  0  0  0  0  0  0  0  0  0  0
   12.3395    0.3368   22.9843 C   0  0  0  0  0  0  0  0  0  0  0  0
    7.6830   -0.5170   18.7600 C   0  0  0  0  0  0  0  0  0  0  0  0
   11.4866    1.0443   23.7958 C   0  0  0  0  0  0  0  0  0  0  0  0
    5.9810    0.8330   18.8060 C   0  0  0  0  0  0  0  0  0  0  0  0
    6.1600    0.3870   20.1140 C   0  0  0  0  0  0  0  0  0  0  0  0
    9.2850   -3.7090   25.1090 C   0  0  0  0  0  0  0  0  0  0  0  0
    9.3300   -1.3350   23.6390 C   0  0  0  0  0  0  0  0  0  0  0  0
    8.2930   -5.1714   26.8572 C   0  0  0  0  0  0  0  0  0  0  0  0
    8.9510    0.1280   21.6880 C   0  0  0  0  0  0  0  0  0  0  0  0
    8.4551   -6.5156   27.5444 C   0  0  0  0  0  0  0  0  0  0  0  0
    9.9019   -6.7444   27.9450 C   0  0  0  0  0  0  0  0  0  0  0  0
   10.8596   -6.5882   26.7680 C   0  0  0  0  0  0  0  0  0  0  0  0
   10.1895   -6.0108   25.5223 C   0  0  0  0  0  0  0  0  0  0  0  0
   14.8344    0.1386   22.8606 C   0  0  0  0  0  0  0  0  0  0  0  0
    9.9859    1.0637   23.7546 C   0  0  0  0  0  0  0  0  0  0  0  0
    8.0810   -0.9750   21.0820 C   0  0  0  0  0  0  0  0  0  0  0  0
   13.6289    1.5015   24.4434 N   0  0  0  0  0  0  0  0  0  0  0  0
    6.9440    0.2550   18.0100 N   0  0  0  0  0  0  0  0  0  0  0  0
   13.5986    0.6428   23.4100 N   0  0  0  0  0  0  0  0  0  0  0  0
    7.2210   -0.4620   20.0350 N   0  0  0  0  0  0  0  0  0  0  0  0
    9.2623   -4.9266   25.8635 N   0  0  0  0  0  0  0  0  0  0  0  0
    9.4200   -0.0840   22.9530 N   0  0  0  0  0  0  0  0  0  0  0  0
    7.3370   -4.4527   27.1463 O   0  0  0  0  0  0  0  0  0  0  0  0
    9.1870    1.1500   21.0630 O   0  0  0  0  0  0  0  0  0  0  0  0
    3.2711    2.7875   19.3201 H   0  0  0  0  0  0  0  0  0  0  0  0
    3.6281    2.0095   21.6292 H   0  0  0  0  0  0  0  0  0  0  0  0
    4.7815    2.0665   17.4902 H   0  0  0  0  0  0  0  0  0  0  0  0
    5.4939    0.4577   22.1786 H   0  0  0  0  0  0  0  0  0  0  0  0
    7.5639   -2.8621   26.1045 H   0  0  0  0  0  0  0  0  0  0  0  0
   11.0141   -4.2644   23.9422 H   0  0  0  0  0  0  0  0  0  0  0  0
    7.5950   -0.7788   24.8007 H   0  0  0  0  0  0  0  0  0  0  0  0
   11.0408   -2.1861   22.6359 H   0  0  0  0  0  0  0  0  0  0  0  0
   12.0685    2.4183   25.4753 H   0  0  0  0  0  0  0  0  0  0  0  0
   12.1621   -0.3424   22.1615 H   0  0  0  0  0  0  0  0  0  0  0  0
    8.5167   -1.1056   18.4550 H   0  0  0  0  0  0  0  0  0  0  0  0
    7.8332   -6.5283   28.4263 H   0  0  0  0  0  0  0  0  0  0  0  0
    8.1305   -7.2787   26.8530 H   0  0  0  0  0  0  0  0  0  0  0  0
   10.1875   -6.0379   28.7521 H   0  0  0  0  0  0  0  0  0  0  0  0
   10.0116   -7.7568   28.3834 H   0  0  0  0  0  0  0  0  0  0  0  0
   11.7061   -5.9337   27.0644 H   0  0  0  0  0  0  0  0  0  0  0  0
   11.3230   -7.5689   26.5243 H   0  0  0  0  0  0  0  0  0  0  0  0
   10.9445   -5.5959   24.8614 H   0  0  0  0  0  0  0  0  0  0  0  0
    9.6461   -6.7954   25.0072 H   0  0  0  0  0  0  0  0  0  0  0  0
   15.1537    0.8199   22.0676 H   0  0  0  0  0  0  0  0  0  0  0  0
   15.5901    0.0891   23.6495 H   0  0  0  0  0  0  0  0  0  0  0  0
   14.6687   -0.8653   22.4600 H   0  0  0  0  0  0  0  0  0  0  0  0
    9.5708    0.9742   24.7644 H   0  0  0  0  0  0  0  0  0  0  0  0
    9.6165    2.0046   23.3334 H   0  0  0  0  0  0  0  0  0  0  0  0
    8.7136   -1.7499   20.6462 H   0  0  0  0  0  0  0  0  0  0  0  0
    7.4415   -1.4060   21.8540 H   0  0  0  0  0  0  0  0  0  0  0  0
  1  2  1  0  0  0  0
  1  3  2  0  0  0  0
  2  4  2  0  0  0  0
  3 13  1  0  0  0  0
  4 14  1  0  0  0  0
  5  7  2  0  0  0  0
  5 15  1  0  0  0  0
  6  8  1  0  0  0  0
  6 15  2  0  0  0  0
  7 16  1  0  0  0  0
  8 16  2  0  0  0  0
  9 12  1  0  0  0  0
  9 26  2  0  0  0  0
 10 12  2  0  0  0  0
 10 28  1  0  0  0  0
 11 27  2  0  0  0  0
 11 29  1  0  0  0  0
 12 24  1  0  0  0  0
 13 14  2  0  0  0  0
 13 27  1  0  0  0  0
 14 29  1  0  0  0  0
 15 30  1  0  0  0  0
 16 31  1  0  0  0  0
 17 19  1  0  0  0  0
 17 30  1  0  0  0  0
 17 32  2  0  0  0  0
 18 25  1  0  0  0  0
 18 31  1  0  0  0  0
 18 33  2  0  0  0  0
 19 20  1  0  0  0  0
 20 21  1  0  0  0  0
 21 22  1  0  0  0  0
 22 30  1  0  0  0  0
 23 28  1  0  0  0  0
 24 31  1  0  0  0  0
 25 29  1  0  0  0  0
 26 28  1  0  0  0  0
  1 34  1  0  0  0  0
  2 35  1  0  0  0  0
  3 36  1  0  0  0  0
  4 37  1  0  0  0  0
  5 38  1  0  0  0  0
  6 39  1  0  0  0  0
  7 40  1  0  0  0  0
  8 41  1  0  0  0  0
  9 42  1  0  0  0  0
 10 43  1  0  0  0  0
 11 44  1  0  0  0  0
 19 45  1  0  0  0  0
 19 46  1  0  0  0  0
 20 47  1  0  0  0  0
 20 48  1  0  0  0  0
 21 49  1  0  0  0  0
 21 50  1  0  0  0  0
 22 51  1  0  0  0  0
 22 52  1  0  0  0  0
 23 53  1  0  0  0  0
 23 54  1  0  0  0  0
 23 55  1  0  0  0  0
 24 56  1  0  0  0  0
 24 57  1  0  0  0  0
 25 58  1  0  0  0  0
 25 59  1  0  0  0  0
M  END
> <clash_score>
2.0596949410317893

> <docking_score>
-8.294967651367188

> <overlap_score>
0.993492841720581

$$$$
BENZO_388_1
  -OEChem-08232013503D

 55 59  0     0  0  0  0  0  0999 V2000
    4.0980    2.1130   19.5350 C   0  0  0  0  0  0  0  0  0  0  0  0
    4.2970    1.6690   20.8430 C   0  0  0  0  0  0  0  0  0  0  0  0
    4.9400    1.7060   18.5060 C   0  0  0  0  0  0  0  0  0  0  0  0
    5.3360    0.8000   21.1530 C   0  0  0  0  0  0  0  0  0  0  0  0
    8.3310   -2.7170   25.3430 C   0  0  0  0  0  0  0  0  0  0  0  0
   10.2570   -3.5000   24.1350 C   0  0  0  0  0  0  0  0  0  0  0  0
    8.3510   -1.5420   24.6110 C   0  0  0  0  0  0  0  0  0  0  0  0
   10.2760   -2.3270   23.4020 C   0  0  0  0  0  0  0  0  0  0  0  0
   12.3135    1.1338   22.6375 C   0  0  0  0  0  0  0  0  0  0  0  0
   13.6532    1.0841   22.9538 C   0  0  0  0  0  0  0  0  0  0  0  0
   12.2260    0.9187   24.9502 C   0  0  0  0  0  0  0  0  0  0  0  0
    7.6830   -0.5170   18.7600 C   0  0  0  0  0  0  0  0  0  0  0  0
   11.4866    1.0382   23.7939 C   0  0  0  0  0  0  0  0  0  0  0  0
    5.9810    0.8330   18.8060 C   0  0  0  0  0  0  0  0  0  0  0  0
    6.1600    0.3870   20.1140 C   0  0  0  0  0  0  0  0  0  0  0  0
    9.2850   -3.7090   25.1090 C   0  0  0  0  0  0  0  0  0  0  0  0
    9.3300   -1.3350   23.6390 C   0  0  0  0  0  0  0  0  0  0  0  0
    8.9510    0.1280   21.6880 C   0  0  0  0  0  0  0  0  0  0  0  0
    8.7666   -4.9523   27.2147 C   0  0  0  0  0  0  0  0  0  0  0  0
    9.3034   -6.1866   25.1651 C   0  0  0  0  0  0  0  0  0  0  0  0
    7.3827   -5.5925   27.1999 C   0  0  0  0  0  0  0  0  0  0  0  0
    7.9024   -6.7967   25.2263 C   0  0  0  0  0  0  0  0  0  0  0  0
    9.9859    1.0637   23.7546 C   0  0  0  0  0  0  0  0  0  0  0  0
    8.0810   -0.9750   21.0820 C   0  0  0  0  0  0  0  0  0  0  0  0
    6.9440    0.2550   18.0100 N   0  0  0  0  0  0  0  0  0  0  0  0
    7.2210   -0.4620   20.0350 N   0  0  0  0  0  0  0  0  0  0  0  0
    9.2640   -4.8844   25.8389 N   0  0  0  0  0  0  0  0  0  0  0  0
    9.4200   -0.0840   22.9530 N   0  0  0  0  0  0  0  0  0  0  0  0
    9.1870    1.1500   21.0630 O   0  0  0  0  0  0  0  0  0  0  0  0
    7.4483   -6.8833   26.5817 O   0  0  0  0  0  0  0  0  0  0  0  0
   13.9099    0.9225   24.6392 S   0  0  0  0  0  0  0  0  0  0  0  0
    3.2711    2.7875   19.3201 H   0  0  0  0  0  0  0  0  0  0  0  0
    3.6281    2.0095   21.6292 H   0  0  0  0  0  0  0  0  0  0  0  0
    4.7815    2.0665   17.4902 H   0  0  0  0  0  0  0  0  0  0  0  0
    5.4939    0.4577   22.1786 H   0  0  0  0  0  0  0  0  0  0  0  0
    7.5647   -2.8621   26.1053 H   0  0  0  0  0  0  0  0  0  0  0  0
   11.0144   -4.2642   23.9425 H   0  0  0  0  0  0  0  0  0  0  0  0
    7.5958   -0.7779   24.8006 H   0  0  0  0  0  0  0  0  0  0  0  0
   11.0406   -2.1848   22.6356 H   0  0  0  0  0  0  0  0  0  0  0  0
   11.9482    1.2338   21.6232 H   0  0  0  0  0  0  0  0  0  0  0  0
   14.4936    1.1342   22.2760 H   0  0  0  0  0  0  0  0  0  0  0  0
   11.8620    0.8279   25.9642 H   0  0  0  0  0  0  0  0  0  0  0  0
    8.5167   -1.1056   18.4550 H   0  0  0  0  0  0  0  0  0  0  0  0
    8.7030   -3.9561   27.6574 H   0  0  0  0  0  0  0  0  0  0  0  0
    9.4460   -5.5639   27.8143 H   0  0  0  0  0  0  0  0  0  0  0  0
   10.0083   -6.8392   25.6817 H   0  0  0  0  0  0  0  0  0  0  0  0
    9.6089   -6.0802   24.1251 H   0  0  0  0  0  0  0  0  0  0  0  0
    7.0281   -5.7334   28.2231 H   0  0  0  0  0  0  0  0  0  0  0  0
    6.6541   -4.9678   26.6754 H   0  0  0  0  0  0  0  0  0  0  0  0
    7.1860   -6.2177   24.6318 H   0  0  0  0  0  0  0  0  0  0  0  0
    7.9246   -7.8119   24.8187 H   0  0  0  0  0  0  0  0  0  0  0  0
    9.5717    0.9756   24.7649 H   0  0  0  0  0  0  0  0  0  0  0  0
    9.6199    2.0062   23.3340 H   0  0  0  0  0  0  0  0  0  0  0  0
    8.7136   -1.7499   20.6462 H   0  0  0  0  0  0  0  0  0  0  0  0
    7.4415   -1.4060   21.8540 H   0  0  0  0  0  0  0  0  0  0  0  0
  1  2  1  0  0  0  0
  1  3  2  0  0  0  0
  2  4  2  0  0  0  0
  3 14  1  0  0  0  0
  4 15  1  0  0  0  0
  5  7  2  0  0  0  0
  5 16  1  0  0  0  0
  6  8  1  0  0  0  0
  6 16  2  0  0  0  0
  7 17  1  0  0  0  0
  8 17  2  0  0  0  0
  9 10  2  0  0  0  0
  9 13  1  0  0  0  0
 10 31  1  0  0  0  0
 11 13  2  0  0  0  0
 11 31  1  0  0  0  0
 12 25  2  0  0  0  0
 12 26  1  0  0  0  0
 13 23  1  0  0  0  0
 14 15  2  0  0  0  0
 14 25  1  0  0  0  0
 15 26  1  0  0  0  0
 16 27  1  0  0  0  0
 17 28  1  0  0  0  0
 18 24  1  0  0  0  0
 18 28  1  0  0  0  0
 18 29  2  0  0  0  0
 19 21  1  0  0  0  0
 19 27  1  0  0  0  0
 20 22  1  0  0  0  0
 20 27  1  0  0  0  0
 21 30  1  0  0  0  0
 22 30  1  0  0  0  0
 23 28  1  0  0  0  0
 24 26  1  0  0  0  0
  1 32  1  0  0  0  0
  2 33  1  0  0  0  0
  3 34  1  0  0  0  0
  4 35  1  0  0  0  0
  5 36  1  0  0  0  0
  6 37  1  0  0  0  0
  7 38  1  0  0  0  0
  8 39  1  0  0  0  0
  9 40  1  0  0  0  0
 10 41  1  0  0  0  0
 11 42  1  0  0  0  0
 12 43  1  0  0  0  0
 19 44  1  0  0  0  0
 19 45  1  0  0  0  0
 20 46  1  0  0  0  0
 20 47  1  0  0  0  0
 21 48  1  0  0  0  0
 21 49  1  0  0  0  0
 22 50  1  0  0  0  0
 22 51  1  0  0  0  0
 23 52  1  0  0  0  0
 23 53  1  0  0  0  0
 24 54  1  0  0  0  0
 24 55  1  0  0  0  0
M  END
> <clash_score>
0

> <docking_score>
-10.131861686706543

> <overlap_score>
0.9861280918121338

$$$$
BENZO_390_1
  -OEChem-08232013503D

 58 62  0     0  0  0  0  0  0999 V2000
    4.0980    2.1130   19.5350 C   0  0  0  0  0  0  0  0  0  0  0  0
    4.2970    1.6690   20.8430 C   0  0  0  0  0  0  0  0  0  0  0  0
   13.6132    1.9334   23.0780 C   0  0  0  0  0  0  0  0  0  0  0  0
   12.2191    1.9559   23.0410 C   0  0  0  0  0  0  0  0  0  0  0  0
    4.9400    1.7060   18.5060 C   0  0  0  0  0  0  0  0  0  0  0  0
    5.3360    0.8000   21.1530 C   0  0  0  0  0  0  0  0  0  0  0  0
    8.3310   -2.7170   25.3430 C   0  0  0  0  0  0  0  0  0  0  0  0
   10.2570   -3.5000   24.1350 C   0  0  0  0  0  0  0  0  0  0  0  0
    8.3510   -1.5420   24.6110 C   0  0  0  0  0  0  0  0  0  0  0  0
   10.2760   -2.3270   23.4020 C   0  0  0  0  0  0  0  0  0  0  0  0
   14.2750    0.9931   23.8678 C   0  0  0  0  0  0  0  0  0  0  0  0
   12.1483    0.0979   24.5838 C   0  0  0  0  0  0  0  0  0  0  0  0
    7.6830   -0.5170   18.7600 C   0  0  0  0  0  0  0  0  0  0  0  0
   11.4866    1.0382   23.7939 C   0  0  0  0  0  0  0  0  0  0  0  0
    5.9810    0.8330   18.8060 C   0  0  0  0  0  0  0  0  0  0  0  0
    6.1600    0.3870   20.1140 C   0  0  0  0  0  0  0  0  0  0  0  0
    9.2850   -3.7090   25.1090 C   0  0  0  0  0  0  0  0  0  0  0  0
    9.3300   -1.3350   23.6390 C   0  0  0  0  0  0  0  0  0  0  0  0
   13.5425    0.0755   24.6207 C   0  0  0  0  0  0  0  0  0  0  0  0
    8.9510    0.1280   21.6880 C   0  0  0  0  0  0  0  0  0  0  0  0
    8.7666   -4.9523   27.2147 C   0  0  0  0  0  0  0  0  0  0  0  0
    9.3034   -6.1866   25.1651 C   0  0  0  0  0  0  0  0  0  0  0  0
    7.3827   -5.5925   27.1999 C   0  0  0  0  0  0  0  0  0  0  0  0
    7.9024   -6.7967   25.2263 C   0  0  0  0  0  0  0  0  0  0  0  0
    9.9859    1.0637   23.7546 C   0  0  0  0  0  0  0  0  0  0  0  0
    8.0810   -0.9750   21.0820 C   0  0  0  0  0  0  0  0  0  0  0  0
    6.9440    0.2550   18.0100 N   0  0  0  0  0  0  0  0  0  0  0  0
    7.2210   -0.4620   20.0350 N   0  0  0  0  0  0  0  0  0  0  0  0
    9.2640   -4.8844   25.8389 N   0  0  0  0  0  0  0  0  0  0  0  0
    9.4200   -0.0840   22.9530 N   0  0  0  0  0  0  0  0  0  0  0  0
    9.1870    1.1500   21.0630 O   0  0  0  0  0  0  0  0  0  0  0  0
    7.4483   -6.8833   26.5817 O   0  0  0  0  0  0  0  0  0  0  0  0
   14.3594   -1.0836   25.5959 Cl  0  0  0  0  0  0  0  0  0  0  0  0
    3.2711    2.7875   19.3201 H   0  0  0  0  0  0  0  0  0  0  0  0
    3.6281    2.0095   21.6292 H   0  0  0  0  0  0  0  0  0  0  0  0
   14.1833    2.6483   22.4916 H   0  0  0  0  0  0  0  0  0  0  0  0
   11.7119    2.6920   22.4228 H   0  0  0  0  0  0  0  0  0  0  0  0
    4.7815    2.0665   17.4902 H   0  0  0  0  0  0  0  0  0  0  0  0
    5.4939    0.4577   22.1786 H   0  0  0  0  0  0  0  0  0  0  0  0
    7.5647   -2.8621   26.1053 H   0  0  0  0  0  0  0  0  0  0  0  0
   11.0144   -4.2642   23.9425 H   0  0  0  0  0  0  0  0  0  0  0  0
    7.5958   -0.7779   24.8006 H   0  0  0  0  0  0  0  0  0  0  0  0
   11.0406   -2.1848   22.6356 H   0  0  0  0  0  0  0  0  0  0  0  0
   15.3620    0.9875   23.8871 H   0  0  0  0  0  0  0  0  0  0  0  0
   11.5726   -0.6158   25.1686 H   0  0  0  0  0  0  0  0  0  0  0  0
    8.5167   -1.1056   18.4550 H   0  0  0  0  0  0  0  0  0  0  0  0
    8.7030   -3.9561   27.6574 H   0  0  0  0  0  0  0  0  0  0  0  0
    9.4460   -5.5639   27.8143 H   0  0  0  0  0  0  0  0  0  0  0  0
   10.0083   -6.8392   25.6817 H   0  0  0  0  0  0  0  0  0  0  0  0
    9.6089   -6.0802   24.1251 H   0  0  0  0  0  0  0  0  0  0  0  0
    7.0281   -5.7334   28.2231 H   0  0  0  0  0  0  0  0  0  0  0  0
    6.6541   -4.9678   26.6754 H   0  0  0  0  0  0  0  0  0  0  0  0
    7.1860   -6.2177   24.6318 H   0  0  0  0  0  0  0  0  0  0  0  0
    7.9246   -7.8119   24.8187 H   0  0  0  0  0  0  0  0  0  0  0  0
    9.5717    0.9756   24.7649 H   0  0  0  0  0  0  0  0  0  0  0  0
    9.6199    2.0062   23.3340 H   0  0  0  0  0  0  0  0  0  0  0  0
    8.7136   -1.7499   20.6462 H   0  0  0  0  0  0  0  0  0  0  0  0
    7.4415   -1.4060   21.8540 H   0  0  0  0  0  0  0  0  0  0  0  0
  1  2  1  0  0  0  0
  1  5  2  0  0  0  0
  2  6  2  0  0  0  0
  3  4  2  0  0  0  0
  3 11  1  0  0  0  0
  4 14  1  0  0  0  0
  5 15  1  0  0  0  0
  6 16  1  0  0  0  0
  7  9  2  0  0  0  0
  7 17  1  0  0  0  0
  8 10  1  0  0  0  0
  8 17  2  0  0  0  0
  9 18  1  0  0  0  0
 10 18  2  0  0  0  0
 11 19  2  0  0  0  0
 12 14  2  0  0  0  0
 12 19  1  0  0  0  0
 13 27  2  0  0  0  0
 13 28  1  0  0  0  0
 14 25  1  0  0  0  0
 15 16  2  0  0  0  0
 15 27  1  0  0  0  0
 16 28  1  0  0  0  0
 17 29  1  0  0  0  0
 18 30  1  0  0  0  0
 19 33  1  0  0  0  0
 20 26  1  0  0  0  0
 20 30  1  0  0  0  0
 20 31  2  0  0  0  0
 21 23  1  0  0  0  0
 21 29  1  0  0  0  0
 22 24  1  0  0  0  0
 22 29  1  0  0  0  0
 23 32  1  0  0  0  0
 24 32  1  0  0  0  0
 25 30  1  0  0  0  0
 26 28  1  0  0  0  0
  1 34  1  0  0  0  0
  2 35  1  0  0  0  0
  3 36  1  0  0  0  0
  4 37  1  0  0  0  0
  5 38  1  0  0  0  0
  6 39  1  0  0  0  0
  7 40  1  0  0  0  0
  8 41  1  0  0  0  0
  9 42  1  0  0  0  0
 10 43  1  0  0  0  0
 11 44  1  0  0  0  0
 12 45  1  0  0  0  0
 13 46  1  0  0  0  0
 21 47  1  0  0  0  0
 21 48  1  0  0  0  0
 22 49  1  0  0  0  0
 22 50  1  0  0  0  0
 23 51  1  0  0  0  0
 23 52  1  0  0  0  0
 24 53  1  0  0  0  0
 24 54  1  0  0  0  0
 25 55  1  0  0  0  0
 25 56  1  0  0  0  0
 26 57  1  0  0  0  0
 26 58  1  0  0  0  0
M  END
> <clash_score>
0.7490224172275136

> <docking_score>
-8.520390510559082

> <overlap_score>
1.0081725120544434

$$$$
BENZO_391_1
  -OEChem-08232013503D

 58 62  0     0  0  0  0  0  0999 V2000
    4.0980    2.1130   19.5350 C   0  0  0  0  0  0  0  0  0  0  0  0
    4.2970    1.6690   20.8430 C   0  0  0  0  0  0  0  0  0  0  0  0
    4.9400    1.7060   18.5060 C   0  0  0  0  0  0  0  0  0  0  0  0
    5.3360    0.8000   21.1530 C   0  0  0  0  0  0  0  0  0  0  0  0
    8.3310   -2.7170   25.3430 C   0  0  0  0  0  0  0  0  0  0  0  0
   10.2570   -3.5000   24.1350 C   0  0  0  0  0  0  0  0  0  0  0  0
    8.3510   -1.5420   24.6110 C   0  0  0  0  0  0  0  0  0  0  0  0
   10.2760   -2.3270   23.4020 C   0  0  0  0  0  0  0  0  0  0  0  0
   12.3397    1.7334   24.6718 C   0  0  0  0  0  0  0  0  0  0  0  0
   12.3356    0.3274   22.9812 C   0  0  0  0  0  0  0  0  0  0  0  0
    7.6830   -0.5170   18.7600 C   0  0  0  0  0  0  0  0  0  0  0  0
   11.4866    1.0382   23.7939 C   0  0  0  0  0  0  0  0  0  0  0  0
    5.9810    0.8330   18.8060 C   0  0  0  0  0  0  0  0  0  0  0  0
    6.1600    0.3870   20.1140 C   0  0  0  0  0  0  0  0  0  0  0  0
    9.2850   -3.7090   25.1090 C   0  0  0  0  0  0  0  0  0  0  0  0
    9.3300   -1.3350   23.6390 C   0  0  0  0  0  0  0  0  0  0  0  0
    8.9510    0.1280   21.6880 C   0  0  0  0  0  0  0  0  0  0  0  0
    8.7666   -4.9523   27.2147 C   0  0  0  0  0  0  0  0  0  0  0  0
    9.3034   -6.1866   25.1651 C   0  0  0  0  0  0  0  0  0  0  0  0
    7.3827   -5.5925   27.1999 C   0  0  0  0  0  0  0  0  0  0  0  0
    7.9024   -6.7967   25.2263 C   0  0  0  0  0  0  0  0  0  0  0  0
   14.8294    0.1191   22.8544 C   0  0  0  0  0  0  0  0  0  0  0  0
    9.9859    1.0637   23.7546 C   0  0  0  0  0  0  0  0  0  0  0  0
    8.0810   -0.9750   21.0820 C   0  0  0  0  0  0  0  0  0  0  0  0
   13.6315    1.4866   24.4389 N   0  0  0  0  0  0  0  0  0  0  0  0
    6.9440    0.2550   18.0100 N   0  0  0  0  0  0  0  0  0  0  0  0
   13.5965    0.6282   23.4054 N   0  0  0  0  0  0  0  0  0  0  0  0
    7.2210   -0.4620   20.0350 N   0  0  0  0  0  0  0  0  0  0  0  0
    9.2640   -4.8844   25.8389 N   0  0  0  0  0  0  0  0  0  0  0  0
    9.4200   -0.0840   22.9530 N   0  0  0  0  0  0  0  0  0  0  0  0
    9.1870    1.1500   21.0630 O   0  0  0  0  0  0  0  0  0  0  0  0
    7.4483   -6.8833   26.5817 O   0  0  0  0  0  0  0  0  0  0  0  0
    3.2711    2.7875   19.3201 H   0  0  0  0  0  0  0  0  0  0  0  0
    3.6281    2.0095   21.6292 H   0  0  0  0  0  0  0  0  0  0  0  0
    4.7815    2.0665   17.4902 H   0  0  0  0  0  0  0  0  0  0  0  0
    5.4939    0.4577   22.1786 H   0  0  0  0  0  0  0  0  0  0  0  0
    7.5647   -2.8621   26.1053 H   0  0  0  0  0  0  0  0  0  0  0  0
   11.0144   -4.2642   23.9425 H   0  0  0  0  0  0  0  0  0  0  0  0
    7.5958   -0.7779   24.8006 H   0  0  0  0  0  0  0  0  0  0  0  0
   11.0406   -2.1848   22.6356 H   0  0  0  0  0  0  0  0  0  0  0  0
   12.0762    2.4094   25.4729 H   0  0  0  0  0  0  0  0  0  0  0  0
   12.1544   -0.3509   22.1584 H   0  0  0  0  0  0  0  0  0  0  0  0
    8.5167   -1.1056   18.4550 H   0  0  0  0  0  0  0  0  0  0  0  0
    8.7030   -3.9561   27.6574 H   0  0  0  0  0  0  0  0  0  0  0  0
    9.4460   -5.5639   27.8143 H   0  0  0  0  0  0  0  0  0  0  0  0
   10.0083   -6.8392   25.6817 H   0  0  0  0  0  0  0  0  0  0  0  0
    9.6089   -6.0802   24.1251 H   0  0  0  0  0  0  0  0  0  0  0  0
    7.0281   -5.7334   28.2231 H   0  0  0  0  0  0  0  0  0  0  0  0
    6.6541   -4.9678   26.6754 H   0  0  0  0  0  0  0  0  0  0  0  0
    7.1860   -6.2177   24.6318 H   0  0  0  0  0  0  0  0  0  0  0  0
    7.9246   -7.8119   24.8187 H   0  0  0  0  0  0  0  0  0  0  0  0
   15.1505    0.7993   22.0611 H   0  0  0  0  0  0  0  0  0  0  0  0
   15.5860    0.0664   23.6422 H   0  0  0  0  0  0  0  0  0  0  0  0
   14.6592   -0.8840   22.4537 H   0  0  0  0  0  0  0  0  0  0  0  0
    9.5717    0.9756   24.7649 H   0  0  0  0  0  0  0  0  0  0  0  0
    9.6199    2.0062   23.3340 H   0  0  0  0  0  0  0  0  0  0  0  0
    8.7136   -1.7499   20.6462 H   0  0  0  0  0  0  0  0  0  0  0  0
    7.4415   -1.4060   21.8540 H   0  0  0  0  0  0  0  0  0  0  0  0
  1  2  1  0  0  0  0
  1  3  2  0  0  0  0
  2  4  2  0  0  0  0
  3 13  1  0  0  0  0
  4 14  1  0  0  0  0
  5  7  2  0  0  0  0
  5 15  1  0  0  0  0
  6  8  1  0  0  0  0
  6 15  2  0  0  0  0
  7 16  1  0  0  0  0
  8 16  2  0  0  0  0
  9 12  1  0  0  0  0
  9 25  2  0  0  0  0
 10 12  2  0  0  0  0
 10 27  1  0  0  0  0
 11 26  2  0  0  0  0
 11 28  1  0  0  0  0
 12 23  1  0  0  0  0
 13 14  2  0  0  0  0
 13 26  1  0  0  0  0
 14 28  1  0  0  0  0
 15 29  1  0  0  0  0
 16 30  1  0  0  0  0
 17 24  1  0  0  0  0
 17 30  1  0  0  0  0
 17 31  2  0  0  0  0
 18 20  1  0  0  0  0
 18 29  1  0  0  0  0
 19 21  1  0  0  0  0
 19 29  1  0  0  0  0
 20 32  1  0  0  0  0
 21 32  1  0  0  0  0
 22 27  1  0  0  0  0
 23 30  1  0  0  0  0
 24 28  1  0  0  0  0
 25 27  1  0  0  0  0
  1 33  1  0  0  0  0
  2 34  1  0  0  0  0
  3 35  1  0  0  0  0
  4 36  1  0  0  0  0
  5 37  1  0  0  0  0
  6 38  1  0  0  0  0
  7 39  1  0  0  0  0
  8 40  1  0  0  0  0
  9 41  1  0  0  0  0
 10 42  1  0  0  0  0
 11 43  1  0  0  0  0
 18 44  1  0  0  0  0
 18 45  1  0  0  0  0
 19 46  1  0  0  0  0
 19 47  1  0  0  0  0
 20 48  1  0  0  0  0
 20 49  1  0  0  0  0
 21 50  1  0  0  0  0
 21 51  1  0  0  0  0
 22 52  1  0  0  0  0
 22 53  1  0  0  0  0
 22 54  1  0  0  0  0
 23 55  1  0  0  0  0
 23 56  1  0  0  0  0
 24 57  1  0  0  0  0
 24 58  1  0  0  0  0
M  END
> <clash_score>
0

> <docking_score>
-9.531085014343262

> <overlap_score>
0.9932271242141724

$$$$
BENZO_393_1
  -OEChem-08232013503D

 53 56  0     0  0  0  0  0  0999 V2000
   14.3638    0.8223   23.4745 C   0  0  0  0  0  0  0  0  0  0  0  0
    4.2970    1.6690   20.8430 C   0  0  0  0  0  0  0  0  0  0  0  0
   13.6894    0.1733   24.5087 C   0  0  0  0  0  0  0  0  0  0  0  0
   13.6474    1.5443   22.5198 C   0  0  0  0  0  0  0  0  0  0  0  0
    4.0980    2.1130   19.5350 C   0  0  0  0  0  0  0  0  0  0  0  0
    5.3360    0.8000   21.1530 C   0  0  0  0  0  0  0  0  0  0  0  0
   12.2987    0.2462   24.5883 C   0  0  0  0  0  0  0  0  0  0  0  0
   12.2567    1.6172   22.5994 C   0  0  0  0  0  0  0  0  0  0  0  0
    4.9400    1.7060   18.5060 C   0  0  0  0  0  0  0  0  0  0  0  0
    8.3510   -1.5420   24.6110 C   0  0  0  0  0  0  0  0  0  0  0  0
   10.2760   -2.3270   23.4020 C   0  0  0  0  0  0  0  0  0  0  0  0
    8.3310   -2.7170   25.3430 C   0  0  0  0  0  0  0  0  0  0  0  0
   10.2570   -3.5000   24.1350 C   0  0  0  0  0  0  0  0  0  0  0  0
    6.1600    0.3870   20.1140 C   0  0  0  0  0  0  0  0  0  0  0  0
   11.5824    0.9681   23.6336 C   0  0  0  0  0  0  0  0  0  0  0  0
    5.9810    0.8330   18.8060 C   0  0  0  0  0  0  0  0  0  0  0  0
    9.3300   -1.3350   23.6390 C   0  0  0  0  0  0  0  0  0  0  0  0
    9.2850   -3.7090   25.1090 C   0  0  0  0  0  0  0  0  0  0  0  0
    7.2210   -0.4620   20.0350 C   0  0  0  0  0  0  0  0  0  0  0  0
    8.9510    0.1280   21.6880 C   0  0  0  0  0  0  0  0  0  0  0  0
    8.2504   -5.1193   26.8645 C   0  0  0  0  0  0  0  0  0  0  0  0
   10.2433   -5.9398   25.5981 C   0  0  0  0  0  0  0  0  0  0  0  0
   10.0855    1.0467   23.7186 C   0  0  0  0  0  0  0  0  0  0  0  0
    8.0810   -0.9750   21.0820 C   0  0  0  0  0  0  0  0  0  0  0  0
    6.9440    0.2550   18.0100 N   0  0  0  0  0  0  0  0  0  0  0  0
    7.6830   -0.5170   18.7600 N   0  0  0  0  0  0  0  0  0  0  0  0
    9.4200   -0.0840   22.9530 N   0  0  0  0  0  0  0  0  0  0  0  0
    9.2624   -4.9028   25.8498 N   0  0  0  0  0  0  0  0  0  0  0  0
    9.1870    1.1500   21.0630 O   0  0  0  0  0  0  0  0  0  0  0  0
   15.4467    0.7666   23.4135 H   0  0  0  0  0  0  0  0  0  0  0  0
    3.6362    2.0028   21.6260 H   0  0  0  0  0  0  0  0  0  0  0  0
   14.2471   -0.3880   25.2528 H   0  0  0  0  0  0  0  0  0  0  0  0
   14.1722    2.0506   21.7151 H   0  0  0  0  0  0  0  0  0  0  0  0
    3.2801    2.7808   19.3164 H   0  0  0  0  0  0  0  0  0  0  0  0
    5.4892    0.4523   22.2166 H   0  0  0  0  0  0  0  0  0  0  0  0
   11.7817   -0.2629   25.3975 H   0  0  0  0  0  0  0  0  0  0  0  0
   11.7069    2.1818   21.8511 H   0  0  0  0  0  0  0  0  0  0  0  0
    4.7762    2.0781   17.4596 H   0  0  0  0  0  0  0  0  0  0  0  0
    7.5947   -0.7787   24.7997 H   0  0  0  0  0  0  0  0  0  0  0  0
   11.0404   -2.1861   22.6352 H   0  0  0  0  0  0  0  0  0  0  0  0
    7.5641   -2.8632   26.1047 H   0  0  0  0  0  0  0  0  0  0  0  0
   11.0135   -4.2647   23.9425 H   0  0  0  0  0  0  0  0  0  0  0  0
    8.4006   -6.1053   27.3283 H   0  0  0  0  0  0  0  0  0  0  0  0
    8.3291   -4.3367   27.6335 H   0  0  0  0  0  0  0  0  0  0  0  0
    7.2532   -5.0798   26.4019 H   0  0  0  0  0  0  0  0  0  0  0  0
   10.0612   -6.7891   26.2731 H   0  0  0  0  0  0  0  0  0  0  0  0
   10.1608   -6.2769   24.5543 H   0  0  0  0  0  0  0  0  0  0  0  0
   11.2528   -5.5404   25.7757 H   0  0  0  0  0  0  0  0  0  0  0  0
    9.7545    0.9926   24.7614 H   0  0  0  0  0  0  0  0  0  0  0  0
    9.7178    1.9937   23.3094 H   0  0  0  0  0  0  0  0  0  0  0  0
    7.4898   -1.4163   21.8975 H   0  0  0  0  0  0  0  0  0  0  0  0
    8.7537   -1.7577   20.7019 H   0  0  0  0  0  0  0  0  0  0  0  0
    8.4371   -1.0264   18.3897 H   0  0  0  0  0  0  0  0  0  0  0  0
  1  3  1  0  0  0  0
  1  4  2  0  0  0  0
  2  5  1  0  0  0  0
  2  6  2  0  0  0  0
  3  7  2  0  0  0  0
  4  8  1  0  0  0  0
  5  9  2  0  0  0  0
  6 14  1  0  0  0  0
  7 15  1  0  0  0  0
  8 15  2  0  0  0  0
  9 16  1  0  0  0  0
 10 12  2  0  0  0  0
 10 17  1  0  0  0  0
 11 13  1  0  0  0  0
 11 17  2  0  0  0  0
 12 18  1  0  0  0  0
 13 18  2  0  0  0  0
 14 16  1  0  0  0  0
 14 19  2  0  0  0  0
 15 23  1  0  0  0  0
 16 25  2  0  0  0  0
 17 27  1  0  0  0  0
 18 28  1  0  0  0  0
 19 24  1  0  0  0  0
 19 26  1  0  0  0  0
 20 24  1  0  0  0  0
 20 27  1  0  0  0  0
 20 29  2  0  0  0  0
 21 28  1  0  0  0  0
 22 28  1  0  0  0  0
 23 27  1  0  0  0  0
 25 26  1  0  0  0  0
  1 30  1  0  0  0  0
  2 31  1  0  0  0  0
  3 32  1  0  0  0  0
  4 33  1  0  0  0  0
  5 34  1  0  0  0  0
  6 35  1  0  0  0  0
  7 36  1  0  0  0  0
  8 37  1  0  0  0  0
  9 38  1  0  0  0  0
 10 39  1  0  0  0  0
 11 40  1  0  0  0  0
 12 41  1  0  0  0  0
 13 42  1  0  0  0  0
 21 43  1  0  0  0  0
 21 44  1  0  0  0  0
 21 45  1  0  0  0  0
 22 46  1  0  0  0  0
 22 47  1  0  0  0  0
 22 48  1  0  0  0  0
 23 49  1  0  0  0  0
 23 50  1  0  0  0  0
 24 51  1  0  0  0  0
 24 52  1  0  0  0  0
 26 53  1  0  0  0  0
M  END
> <clash_score>
0

> <docking_score>
-9.761241912841797

> <overlap_score>
1.0002275705337524

$$$$
BENZO_392_1
  -OEChem-08232013503D

 50 53  0     0  0  0  0  0  0999 V2000
    4.2970    1.6690   20.8430 C   0  0  0  0  0  0  0  0  0  0  0  0
    4.0980    2.1130   19.5350 C   0  0  0  0  0  0  0  0  0  0  0  0
    5.3360    0.8000   21.1530 C   0  0  0  0  0  0  0  0  0  0  0  0
    4.9400    1.7060   18.5060 C   0  0  0  0  0  0  0  0  0  0  0  0
    8.3510   -1.5420   24.6110 C   0  0  0  0  0  0  0  0  0  0  0  0
   10.2760   -2.3270   23.4020 C   0  0  0  0  0  0  0  0  0  0  0  0
    8.3310   -2.7170   25.3430 C   0  0  0  0  0  0  0  0  0  0  0  0
   10.2570   -3.5000   24.1350 C   0  0  0  0  0  0  0  0  0  0  0  0
   12.3122    1.0123   22.4107 C   0  0  0  0  0  0  0  0  0  0  0  0
   13.6713    0.9205   22.6157 C   0  0  0  0  0  0  0  0  0  0  0  0
   12.4116    0.8440   24.7268 C   0  0  0  0  0  0  0  0  0  0  0  0
    6.1600    0.3870   20.1140 C   0  0  0  0  0  0  0  0  0  0  0  0
   11.5824    0.9681   23.6336 C   0  0  0  0  0  0  0  0  0  0  0  0
    5.9810    0.8330   18.8060 C   0  0  0  0  0  0  0  0  0  0  0  0
    9.3300   -1.3350   23.6390 C   0  0  0  0  0  0  0  0  0  0  0  0
    9.2850   -3.7090   25.1090 C   0  0  0  0  0  0  0  0  0  0  0  0
    7.2210   -0.4620   20.0350 C   0  0  0  0  0  0  0  0  0  0  0  0
    8.9510    0.1280   21.6880 C   0  0  0  0  0  0  0  0  0  0  0  0
    8.2504   -5.1193   26.8645 C   0  0  0  0  0  0  0  0  0  0  0  0
   10.2433   -5.9398   25.5981 C   0  0  0  0  0  0  0  0  0  0  0  0
   10.0855    1.0467   23.7186 C   0  0  0  0  0  0  0  0  0  0  0  0
    8.0810   -0.9750   21.0820 C   0  0  0  0  0  0  0  0  0  0  0  0
    6.9440    0.2550   18.0100 N   0  0  0  0  0  0  0  0  0  0  0  0
    7.6830   -0.5170   18.7600 N   0  0  0  0  0  0  0  0  0  0  0  0
    9.4200   -0.0840   22.9530 N   0  0  0  0  0  0  0  0  0  0  0  0
    9.2624   -4.9028   25.8498 N   0  0  0  0  0  0  0  0  0  0  0  0
    9.1870    1.1500   21.0630 O   0  0  0  0  0  0  0  0  0  0  0  0
   14.0626    0.7816   24.2770 S   0  0  0  0  0  0  0  0  0  0  0  0
    3.6362    2.0028   21.6260 H   0  0  0  0  0  0  0  0  0  0  0  0
    3.2801    2.7808   19.3164 H   0  0  0  0  0  0  0  0  0  0  0  0
    5.4892    0.4523   22.2166 H   0  0  0  0  0  0  0  0  0  0  0  0
    4.7762    2.0781   17.4596 H   0  0  0  0  0  0  0  0  0  0  0  0
    7.5947   -0.7787   24.7997 H   0  0  0  0  0  0  0  0  0  0  0  0
   11.0404   -2.1861   22.6352 H   0  0  0  0  0  0  0  0  0  0  0  0
    7.5641   -2.8632   26.1047 H   0  0  0  0  0  0  0  0  0  0  0  0
   11.0135   -4.2647   23.9425 H   0  0  0  0  0  0  0  0  0  0  0  0
   11.8670    1.1061   21.4283 H   0  0  0  0  0  0  0  0  0  0  0  0
   14.4532    0.9276   21.8694 H   0  0  0  0  0  0  0  0  0  0  0  0
   12.1309    0.7854   25.7693 H   0  0  0  0  0  0  0  0  0  0  0  0
    8.4006   -6.1053   27.3283 H   0  0  0  0  0  0  0  0  0  0  0  0
    8.3291   -4.3367   27.6335 H   0  0  0  0  0  0  0  0  0  0  0  0
    7.2532   -5.0798   26.4019 H   0  0  0  0  0  0  0  0  0  0  0  0
   10.0612   -6.7891   26.2731 H   0  0  0  0  0  0  0  0  0  0  0  0
   10.1608   -6.2769   24.5543 H   0  0  0  0  0  0  0  0  0  0  0  0
   11.2528   -5.5404   25.7757 H   0  0  0  0  0  0  0  0  0  0  0  0
    9.7545    0.9926   24.7614 H   0  0  0  0  0  0  0  0  0  0  0  0
    9.7178    1.9937   23.3094 H   0  0  0  0  0  0  0  0  0  0  0  0
    7.4898   -1.4163   21.8975 H   0  0  0  0  0  0  0  0  0  0  0  0
    8.7537   -1.7577   20.7019 H   0  0  0  0  0  0  0  0  0  0  0  0
    8.4371   -1.0264   18.3897 H   0  0  0  0  0  0  0  0  0  0  0  0
  1  2  1  0  0  0  0
  1  3  2  0  0  0  0
  2  4  2  0  0  0  0
  3 12  1  0  0  0  0
  4 14  1  0  0  0  0
  5  7  2  0  0  0  0
  5 15  1  0  0  0  0
  6  8  1  0  0  0  0
  6 15  2  0  0  0  0
  7 16  1  0  0  0  0
  8 16  2  0  0  0  0
  9 10  2  0  0  0  0
  9 13  1  0  0  0  0
 10 28  1  0  0  0  0
 11 13  2  0  0  0  0
 11 28  1  0  0  0  0
 12 14  1  0  0  0  0
 12 17  2  0  0  0  0
 13 21  1  0  0  0  0
 14 23  2  0  0  0  0
 15 25  1  0  0  0  0
 16 26  1  0  0  0  0
 17 22  1  0  0  0  0
 17 24  1  0  0  0  0
 18 22  1  0  0  0  0
 18 25  1  0  0  0  0
 18 27  2  0  0  0  0
 19 26  1  0  0  0  0
 20 26  1  0  0  0  0
 21 25  1  0  0  0  0
 23 24  1  0  0  0  0
  1 29  1  0  0  0  0
  2 30  1  0  0  0  0
  3 31  1  0  0  0  0
  4 32  1  0  0  0  0
  5 33  1  0  0  0  0
  6 34  1  0  0  0  0
  7 35  1  0  0  0  0
  8 36  1  0  0  0  0
  9 37  1  0  0  0  0
 10 38  1  0  0  0  0
 11 39  1  0  0  0  0
 19 40  1  0  0  0  0
 19 41  1  0  0  0  0
 19 42  1  0  0  0  0
 20 43  1  0  0  0  0
 20 44  1  0  0  0  0
 20 45  1  0  0  0  0
 21 46  1  0  0  0  0
 21 47  1  0  0  0  0
 22 48  1  0  0  0  0
 22 49  1  0  0  0  0
 24 50  1  0  0  0  0
M  END
> <clash_score>
0

> <docking_score>
-10.089292526245117

> <overlap_score>
0.9748703837394714

$$$$
BENZO_395_1
  -OEChem-08232013513D

 53 56  0     0  0  0  0  0  0999 V2000
    4.2970    1.6690   20.8430 C   0  0  0  0  0  0  0  0  0  0  0  0
    4.0980    2.1130   19.5350 C   0  0  0  0  0  0  0  0  0  0  0  0
    5.3360    0.8000   21.1530 C   0  0  0  0  0  0  0  0  0  0  0  0
    4.9400    1.7060   18.5060 C   0  0  0  0  0  0  0  0  0  0  0  0
    8.3510   -1.5420   24.6110 C   0  0  0  0  0  0  0  0  0  0  0  0
   10.2760   -2.3270   23.4020 C   0  0  0  0  0  0  0  0  0  0  0  0
    8.3310   -2.7170   25.3430 C   0  0  0  0  0  0  0  0  0  0  0  0
   10.2570   -3.5000   24.1350 C   0  0  0  0  0  0  0  0  0  0  0  0
   12.5293    1.6487   24.4223 C   0  0  0  0  0  0  0  0  0  0  0  0
   12.3355    0.2122   22.7689 C   0  0  0  0  0  0  0  0  0  0  0  0
    6.1600    0.3870   20.1140 C   0  0  0  0  0  0  0  0  0  0  0  0
   11.5824    0.9681   23.6336 C   0  0  0  0  0  0  0  0  0  0  0  0
    5.9810    0.8330   18.8060 C   0  0  0  0  0  0  0  0  0  0  0  0
    9.3300   -1.3350   23.6390 C   0  0  0  0  0  0  0  0  0  0  0  0
    9.2850   -3.7090   25.1090 C   0  0  0  0  0  0  0  0  0  0  0  0
    7.2210   -0.4620   20.0350 C   0  0  0  0  0  0  0  0  0  0  0  0
    8.9510    0.1280   21.6880 C   0  0  0  0  0  0  0  0  0  0  0  0
   14.8014   -0.0878   22.4399 C   0  0  0  0  0  0  0  0  0  0  0  0
    8.2504   -5.1193   26.8645 C   0  0  0  0  0  0  0  0  0  0  0  0
   10.2433   -5.9398   25.5981 C   0  0  0  0  0  0  0  0  0  0  0  0
   10.0855    1.0467   23.7186 C   0  0  0  0  0  0  0  0  0  0  0  0
    8.0810   -0.9750   21.0820 C   0  0  0  0  0  0  0  0  0  0  0  0
   13.7878    1.3513   24.0883 N   0  0  0  0  0  0  0  0  0  0  0  0
    6.9440    0.2550   18.0100 N   0  0  0  0  0  0  0  0  0  0  0  0
    7.6830   -0.5170   18.7600 N   0  0  0  0  0  0  0  0  0  0  0  0
   13.6370    0.4755   23.0802 N   0  0  0  0  0  0  0  0  0  0  0  0
    9.4200   -0.0840   22.9530 N   0  0  0  0  0  0  0  0  0  0  0  0
    9.2624   -4.9028   25.8498 N   0  0  0  0  0  0  0  0  0  0  0  0
    9.1870    1.1500   21.0630 O   0  0  0  0  0  0  0  0  0  0  0  0
    3.6362    2.0028   21.6260 H   0  0  0  0  0  0  0  0  0  0  0  0
    3.2801    2.7808   19.3164 H   0  0  0  0  0  0  0  0  0  0  0  0
    5.4892    0.4523   22.2166 H   0  0  0  0  0  0  0  0  0  0  0  0
    4.7762    2.0781   17.4596 H   0  0  0  0  0  0  0  0  0  0  0  0
    7.5947   -0.7787   24.7997 H   0  0  0  0  0  0  0  0  0  0  0  0
   11.0404   -2.1861   22.6352 H   0  0  0  0  0  0  0  0  0  0  0  0
    7.5641   -2.8632   26.1047 H   0  0  0  0  0  0  0  0  0  0  0  0
   11.0135   -4.2647   23.9425 H   0  0  0  0  0  0  0  0  0  0  0  0
   12.3571    2.3487   25.2276 H   0  0  0  0  0  0  0  0  0  0  0  0
   12.0630   -0.4746   21.9789 H   0  0  0  0  0  0  0  0  0  0  0  0
   15.0779    0.5654   21.6080 H   0  0  0  0  0  0  0  0  0  0  0  0
   15.6190   -0.1528   23.1631 H   0  0  0  0  0  0  0  0  0  0  0  0
   14.5640   -1.0916   22.0766 H   0  0  0  0  0  0  0  0  0  0  0  0
    8.4006   -6.1053   27.3283 H   0  0  0  0  0  0  0  0  0  0  0  0
    8.3291   -4.3367   27.6335 H   0  0  0  0  0  0  0  0  0  0  0  0
    7.2532   -5.0798   26.4019 H   0  0  0  0  0  0  0  0  0  0  0  0
   10.0612   -6.7891   26.2731 H   0  0  0  0  0  0  0  0  0  0  0  0
   10.1608   -6.2769   24.5543 H   0  0  0  0  0  0  0  0  0  0  0  0
   11.2528   -5.5404   25.7757 H   0  0  0  0  0  0  0  0  0  0  0  0
    9.7545    0.9926   24.7614 H   0  0  0  0  0  0  0  0  0  0  0  0
    9.7178    1.9937   23.3094 H   0  0  0  0  0  0  0  0  0  0  0  0
    7.4898   -1.4163   21.8975 H   0  0  0  0  0  0  0  0  0  0  0  0
    8.7537   -1.7577   20.7019 H   0  0  0  0  0  0  0  0  0  0  0  0
    8.4371   -1.0264   18.3897 H   0  0  0  0  0  0  0  0  0  0  0  0
  1  2  1  0  0  0  0
  1  3  2  0  0  0  0
  2  4  2  0  0  0  0
  3 11  1  0  0  0  0
  4 13  1  0  0  0  0
  5  7  2  0  0  0  0
  5 14  1  0  0  0  0
  6  8  1  0  0  0  0
  6 14  2  0  0  0  0
  7 15  1  0  0  0  0
  8 15  2  0  0  0  0
  9 12  1  0  0  0  0
  9 23  2  0  0  0  0
 10 12  2  0  0  0  0
 10 26  1  0  0  0  0
 11 13  1  0  0  0  0
 11 16  2  0  0  0  0
 12 21  1  0  0  0  0
 13 24  2  0  0  0  0
 14 27  1  0  0  0  0
 15 28  1  0  0  0  0
 16 22  1  0  0  0  0
 16 25  1  0  0  0  0
 17 22  1  0  0  0  0
 17 27  1  0  0  0  0
 17 29  2  0  0  0  0
 18 26  1  0  0  0  0
 19 28  1  0  0  0  0
 20 28  1  0  0  0  0
 21 27  1  0  0  0  0
 23 26  1  0  0  0  0
 24 25  1  0  0  0  0
  1 30  1  0  0  0  0
  2 31  1  0  0  0  0
  3 32  1  0  0  0  0
  4 33  1  0  0  0  0
  5 34  1  0  0  0  0
  6 35  1  0  0  0  0
  7 36  1  0  0  0  0
  8 37  1  0  0  0  0
  9 38  1  0  0  0  0
 10 39  1  0  0  0  0
 18 40  1  0  0  0  0
 18 41  1  0  0  0  0
 18 42  1  0  0  0  0
 19 43  1  0  0  0  0
 19 44  1  0  0  0  0
 19 45  1  0  0  0  0
 20 46  1  0  0  0  0
 20 47  1  0  0  0  0
 20 48  1  0  0  0  0
 21 49  1  0  0  0  0
 21 50  1  0  0  0  0
 22 51  1  0  0  0  0
 22 52  1  0  0  0  0
 25 53  1  0  0  0  0
M  END
> <clash_score>
0

> <docking_score>
-9.922160148620605

> <overlap_score>
0.9843881130218506

$$$$
BENZO_394_1
  -OEChem-08232013513D

 53 56  0     0  0  0  0  0  0999 V2000
    4.2970    1.6690   20.8430 C   0  0  0  0  0  0  0  0  0  0  0  0
    4.0980    2.1130   19.5350 C   0  0  0  0  0  0  0  0  0  0  0  0
   13.6709    1.7728   22.7242 C   0  0  0  0  0  0  0  0  0  0  0  0
    5.3360    0.8000   21.1530 C   0  0  0  0  0  0  0  0  0  0  0  0
   12.2802    1.8446   22.8027 C   0  0  0  0  0  0  0  0  0  0  0  0
    4.9400    1.7060   18.5060 C   0  0  0  0  0  0  0  0  0  0  0  0
    8.3510   -1.5420   24.6110 C   0  0  0  0  0  0  0  0  0  0  0  0
   10.2760   -2.3270   23.4020 C   0  0  0  0  0  0  0  0  0  0  0  0
    8.3310   -2.7170   25.3430 C   0  0  0  0  0  0  0  0  0  0  0  0
   10.2570   -3.5000   24.1350 C   0  0  0  0  0  0  0  0  0  0  0  0
   14.3640    0.8245   23.4766 C   0  0  0  0  0  0  0  0  0  0  0  0
   12.2754    0.0198   24.3861 C   0  0  0  0  0  0  0  0  0  0  0  0
    6.1600    0.3870   20.1140 C   0  0  0  0  0  0  0  0  0  0  0  0
   11.5824    0.9681   23.6336 C   0  0  0  0  0  0  0  0  0  0  0  0
    5.9810    0.8330   18.8060 C   0  0  0  0  0  0  0  0  0  0  0  0
    9.3300   -1.3350   23.6390 C   0  0  0  0  0  0  0  0  0  0  0  0
    9.2850   -3.7090   25.1090 C   0  0  0  0  0  0  0  0  0  0  0  0
   13.6662   -0.0520   24.3076 C   0  0  0  0  0  0  0  0  0  0  0  0
    7.2210   -0.4620   20.0350 C   0  0  0  0  0  0  0  0  0  0  0  0
    8.9510    0.1280   21.6880 C   0  0  0  0  0  0  0  0  0  0  0  0
    8.2504   -5.1193   26.8645 C   0  0  0  0  0  0  0  0  0  0  0  0
   10.2433   -5.9398   25.5981 C   0  0  0  0  0  0  0  0  0  0  0  0
   10.0855    1.0467   23.7186 C   0  0  0  0  0  0  0  0  0  0  0  0
    8.0810   -0.9750   21.0820 C   0  0  0  0  0  0  0  0  0  0  0  0
    6.9440    0.2550   18.0100 N   0  0  0  0  0  0  0  0  0  0  0  0
    7.6830   -0.5170   18.7600 N   0  0  0  0  0  0  0  0  0  0  0  0
    9.4200   -0.0840   22.9530 N   0  0  0  0  0  0  0  0  0  0  0  0
    9.2624   -4.9028   25.8498 N   0  0  0  0  0  0  0  0  0  0  0  0
    9.1870    1.1500   21.0630 O   0  0  0  0  0  0  0  0  0  0  0  0
   14.5219   -1.2210   25.2365 Cl  0  0  0  0  0  0  0  0  0  0  0  0
    3.6362    2.0028   21.6260 H   0  0  0  0  0  0  0  0  0  0  0  0
    3.2801    2.7808   19.3164 H   0  0  0  0  0  0  0  0  0  0  0  0
   14.2139    2.4556   22.0771 H   0  0  0  0  0  0  0  0  0  0  0  0
    5.4892    0.4523   22.2166 H   0  0  0  0  0  0  0  0  0  0  0  0
   11.7484    2.5867   22.2129 H   0  0  0  0  0  0  0  0  0  0  0  0
    4.7762    2.0781   17.4596 H   0  0  0  0  0  0  0  0  0  0  0  0
    7.5947   -0.7787   24.7997 H   0  0  0  0  0  0  0  0  0  0  0  0
   11.0404   -2.1861   22.6352 H   0  0  0  0  0  0  0  0  0  0  0  0
    7.5641   -2.8632   26.1047 H   0  0  0  0  0  0  0  0  0  0  0  0
   11.0135   -4.2647   23.9425 H   0  0  0  0  0  0  0  0  0  0  0  0
   15.4480    0.7802   23.4056 H   0  0  0  0  0  0  0  0  0  0  0  0
   11.7267   -0.6617   25.0321 H   0  0  0  0  0  0  0  0  0  0  0  0
    8.4006   -6.1053   27.3283 H   0  0  0  0  0  0  0  0  0  0  0  0
    8.3291   -4.3367   27.6335 H   0  0  0  0  0  0  0  0  0  0  0  0
    7.2532   -5.0798   26.4019 H   0  0  0  0  0  0  0  0  0  0  0  0
   10.0612   -6.7891   26.2731 H   0  0  0  0  0  0  0  0  0  0  0  0
   10.1608   -6.2769   24.5543 H   0  0  0  0  0  0  0  0  0  0  0  0
   11.2528   -5.5404   25.7757 H   0  0  0  0  0  0  0  0  0  0  0  0
    9.7545    0.9926   24.7614 H   0  0  0  0  0  0  0  0  0  0  0  0
    9.7178    1.9937   23.3094 H   0  0  0  0  0  0  0  0  0  0  0  0
    7.4898   -1.4163   21.8975 H   0  0  0  0  0  0  0  0  0  0  0  0
    8.7537   -1.7577   20.7019 H   0  0  0  0  0  0  0  0  0  0  0  0
    8.4371   -1.0264   18.3897 H   0  0  0  0  0  0  0  0  0  0  0  0
  1  2  1  0  0  0  0
  1  4  2  0  0  0  0
  2  6  2  0  0  0  0
  3  5  2  0  0  0  0
  3 11  1  0  0  0  0
  4 13  1  0  0  0  0
  5 14  1  0  0  0  0
  6 15  1  0  0  0  0
  7  9  2  0  0  0  0
  7 16  1  0  0  0  0
  8 10  1  0  0  0  0
  8 16  2  0  0  0  0
  9 17  1  0  0  0  0
 10 17  2  0  0  0  0
 11 18  2  0  0  0  0
 12 14  2  0  0  0  0
 12 18  1  0  0  0  0
 13 15  1  0  0  0  0
 13 19  2  0  0  0  0
 14 23  1  0  0  0  0
 15 25  2  0  0  0  0
 16 27  1  0  0  0  0
 17 28  1  0  0  0  0
 18 30  1  0  0  0  0
 19 24  1  0  0  0  0
 19 26  1  0  0  0  0
 20 24  1  0  0  0  0
 20 27  1  0  0  0  0
 20 29  2  0  0  0  0
 21 28  1  0  0  0  0
 22 28  1  0  0  0  0
 23 27  1  0  0  0  0
 25 26  1  0  0  0  0
  1 31  1  0  0  0  0
  2 32  1  0  0  0  0
  3 33  1  0  0  0  0
  4 34  1  0  0  0  0
  5 35  1  0  0  0  0
  6 36  1  0  0  0  0
  7 37  1  0  0  0  0
  8 38  1  0  0  0  0
  9 39  1  0  0  0  0
 10 40  1  0  0  0  0
 11 41  1  0  0  0  0
 12 42  1  0  0  0  0
 21 43  1  0  0  0  0
 21 44  1  0  0  0  0
 21 45  1  0  0  0  0
 22 46  1  0  0  0  0
 22 47  1  0  0  0  0
 22 48  1  0  0  0  0
 23 49  1  0  0  0  0
 23 50  1  0  0  0  0
 24 51  1  0  0  0  0
 24 52  1  0  0  0  0
 26 53  1  0  0  0  0
M  END
> <clash_score>
0.8117304001676134

> <docking_score>
-8.93529224395752

> <overlap_score>
1.0047980546951294

$$$$
BENZO_397_1
  -OEChem-08232013513D

 55 58  0     0  0  0  0  0  0999 V2000
   14.3638    0.8223   23.4745 C   0  0  0  0  0  0  0  0  0  0  0  0
    4.2970    1.6690   20.8430 C   0  0  0  0  0  0  0  0  0  0  0  0
   13.6894    0.1733   24.5087 C   0  0  0  0  0  0  0  0  0  0  0  0
   13.6474    1.5443   22.5198 C   0  0  0  0  0  0  0  0  0  0  0  0
    4.0980    2.1130   19.5350 C   0  0  0  0  0  0  0  0  0  0  0  0
    5.3360    0.8000   21.1530 C   0  0  0  0  0  0  0  0  0  0  0  0
   12.2987    0.2462   24.5883 C   0  0  0  0  0  0  0  0  0  0  0  0
   12.2567    1.6172   22.5994 C   0  0  0  0  0  0  0  0  0  0  0  0
    4.9400    1.7060   18.5060 C   0  0  0  0  0  0  0  0  0  0  0  0
    8.3310   -2.7170   25.3430 C   0  0  0  0  0  0  0  0  0  0  0  0
   10.2570   -3.5000   24.1350 C   0  0  0  0  0  0  0  0  0  0  0  0
    8.3510   -1.5420   24.6110 C   0  0  0  0  0  0  0  0  0  0  0  0
   10.2760   -2.3270   23.4020 C   0  0  0  0  0  0  0  0  0  0  0  0
    6.1600    0.3870   20.1140 C   0  0  0  0  0  0  0  0  0  0  0  0
   11.5824    0.9681   23.6336 C   0  0  0  0  0  0  0  0  0  0  0  0
    5.9810    0.8330   18.8060 C   0  0  0  0  0  0  0  0  0  0  0  0
    9.2850   -3.7090   25.1090 C   0  0  0  0  0  0  0  0  0  0  0  0
    9.3300   -1.3350   23.6390 C   0  0  0  0  0  0  0  0  0  0  0  0
    7.2210   -0.4620   20.0350 C   0  0  0  0  0  0  0  0  0  0  0  0
    8.9510    0.1280   21.6880 C   0  0  0  0  0  0  0  0  0  0  0  0
    9.6855   -6.1678   25.4393 C   0  0  0  0  0  0  0  0  0  0  0  0
    8.0405   -7.2921   26.9999 C   0  0  0  0  0  0  0  0  0  0  0  0
   10.0855    1.0467   23.7186 C   0  0  0  0  0  0  0  0  0  0  0  0
    8.0810   -0.9750   21.0820 C   0  0  0  0  0  0  0  0  0  0  0  0
    9.4870   -7.1874   26.5510 C   0  0  0  0  0  0  0  0  0  0  0  0
    6.9440    0.2550   18.0100 N   0  0  0  0  0  0  0  0  0  0  0  0
    7.6830   -0.5170   18.7600 N   0  0  0  0  0  0  0  0  0  0  0  0
    9.2630   -4.8902   25.8410 N   0  0  0  0  0  0  0  0  0  0  0  0
    9.4200   -0.0840   22.9530 N   0  0  0  0  0  0  0  0  0  0  0  0
    9.1870    1.1500   21.0630 O   0  0  0  0  0  0  0  0  0  0  0  0
   10.1589   -6.4763   24.3506 O   0  0  0  0  0  0  0  0  0  0  0  0
   15.4467    0.7666   23.4135 H   0  0  0  0  0  0  0  0  0  0  0  0
    3.6362    2.0028   21.6260 H   0  0  0  0  0  0  0  0  0  0  0  0
   14.2471   -0.3880   25.2528 H   0  0  0  0  0  0  0  0  0  0  0  0
   14.1722    2.0506   21.7151 H   0  0  0  0  0  0  0  0  0  0  0  0
    3.2801    2.7808   19.3164 H   0  0  0  0  0  0  0  0  0  0  0  0
    5.4892    0.4523   22.2166 H   0  0  0  0  0  0  0  0  0  0  0  0
   11.7817   -0.2629   25.3975 H   0  0  0  0  0  0  0  0  0  0  0  0
   11.7069    2.1818   21.8511 H   0  0  0  0  0  0  0  0  0  0  0  0
    4.7762    2.0781   17.4596 H   0  0  0  0  0  0  0  0  0  0  0  0
    7.5639   -2.8621   26.1045 H   0  0  0  0  0  0  0  0  0  0  0  0
   11.0141   -4.2644   23.9422 H   0  0  0  0  0  0  0  0  0  0  0  0
    7.5950   -0.7788   24.8007 H   0  0  0  0  0  0  0  0  0  0  0  0
   11.0408   -2.1861   22.6359 H   0  0  0  0  0  0  0  0  0  0  0  0
    7.6712   -6.3280   27.3648 H   0  0  0  0  0  0  0  0  0  0  0  0
    7.9444   -8.0232   27.8085 H   0  0  0  0  0  0  0  0  0  0  0  0
    7.3945   -7.6083   26.1743 H   0  0  0  0  0  0  0  0  0  0  0  0
    9.7545    0.9926   24.7614 H   0  0  0  0  0  0  0  0  0  0  0  0
    9.7178    1.9937   23.3094 H   0  0  0  0  0  0  0  0  0  0  0  0
    7.4898   -1.4163   21.8975 H   0  0  0  0  0  0  0  0  0  0  0  0
    8.7537   -1.7577   20.7019 H   0  0  0  0  0  0  0  0  0  0  0  0
    9.8297   -8.1645   26.1916 H   0  0  0  0  0  0  0  0  0  0  0  0
   10.1142   -6.8997   27.4026 H   0  0  0  0  0  0  0  0  0  0  0  0
    8.4371   -1.0264   18.3897 H   0  0  0  0  0  0  0  0  0  0  0  0
    8.8930   -4.8275   26.7966 H   0  0  0  0  0  0  0  0  0  0  0  0
  1  3  1  0  0  0  0
  1  4  2  0  0  0  0
  2  5  1  0  0  0  0
  2  6  2  0  0  0  0
  3  7  2  0  0  0  0
  4  8  1  0  0  0  0
  5  9  2  0  0  0  0
  6 14  1  0  0  0  0
  7 15  1  0  0  0  0
  8 15  2  0  0  0  0
  9 16  1  0  0  0  0
 10 12  2  0  0  0  0
 10 17  1  0  0  0  0
 11 13  1  0  0  0  0
 11 17  2  0  0  0  0
 12 18  1  0  0  0  0
 13 18  2  0  0  0  0
 14 16  1  0  0  0  0
 14 19  2  0  0  0  0
 15 23  1  0  0  0  0
 16 26  2  0  0  0  0
 17 28  1  0  0  0  0
 18 29  1  0  0  0  0
 19 24  1  0  0  0  0
 19 27  1  0  0  0  0
 20 24  1  0  0  0  0
 20 29  1  0  0  0  0
 20 30  2  0  0  0  0
 21 25  1  0  0  0  0
 21 28  1  0  0  0  0
 21 31  2  0  0  0  0
 22 25  1  0  0  0  0
 23 29  1  0  0  0  0
 26 27  1  0  0  0  0
  1 32  1  0  0  0  0
  2 33  1  0  0  0  0
  3 34  1  0  0  0  0
  4 35  1  0  0  0  0
  5 36  1  0  0  0  0
  6 37  1  0  0  0  0
  7 38  1  0  0  0  0
  8 39  1  0  0  0  0
  9 40  1  0  0  0  0
 10 41  1  0  0  0  0
 11 42  1  0  0  0  0
 12 43  1  0  0  0  0
 13 44  1  0  0  0  0
 22 45  1  0  0  0  0
 22 46  1  0  0  0  0
 22 47  1  0  0  0  0
 23 48  1  0  0  0  0
 23 49  1  0  0  0  0
 24 50  1  0  0  0  0
 24 51  1  0  0  0  0
 25 52  1  0  0  0  0
 25 53  1  0  0  0  0
 27 54  1  0  0  0  0
 28 55  1  0  0  0  0
M  END
> <clash_score>
1.3340772449480107

> <docking_score>
-6.239402770996094

> <overlap_score>
0.9842851758003235

$$$$
BENZO_396_1
  -OEChem-08232013513D

 52 55  0     0  0  0  0  0  0999 V2000
    4.2970    1.6690   20.8430 C   0  0  0  0  0  0  0  0  0  0  0  0
    4.0980    2.1130   19.5350 C   0  0  0  0  0  0  0  0  0  0  0  0
    5.3360    0.8000   21.1530 C   0  0  0  0  0  0  0  0  0  0  0  0
    4.9400    1.7060   18.5060 C   0  0  0  0  0  0  0  0  0  0  0  0
    8.3310   -2.7170   25.3430 C   0  0  0  0  0  0  0  0  0  0  0  0
   10.2570   -3.5000   24.1350 C   0  0  0  0  0  0  0  0  0  0  0  0
    8.3510   -1.5420   24.6110 C   0  0  0  0  0  0  0  0  0  0  0  0
   10.2760   -2.3270   23.4020 C   0  0  0  0  0  0  0  0  0  0  0  0
   12.3122    1.0123   22.4107 C   0  0  0  0  0  0  0  0  0  0  0  0
   13.6713    0.9205   22.6157 C   0  0  0  0  0  0  0  0  0  0  0  0
   12.4116    0.8440   24.7268 C   0  0  0  0  0  0  0  0  0  0  0  0
    6.1600    0.3870   20.1140 C   0  0  0  0  0  0  0  0  0  0  0  0
   11.5824    0.9681   23.6336 C   0  0  0  0  0  0  0  0  0  0  0  0
    5.9810    0.8330   18.8060 C   0  0  0  0  0  0  0  0  0  0  0  0
    9.2850   -3.7090   25.1090 C   0  0  0  0  0  0  0  0  0  0  0  0
    9.3300   -1.3350   23.6390 C   0  0  0  0  0  0  0  0  0  0  0  0
    7.2210   -0.4620   20.0350 C   0  0  0  0  0  0  0  0  0  0  0  0
    8.9510    0.1280   21.6880 C   0  0  0  0  0  0  0  0  0  0  0  0
    9.6855   -6.1678   25.4393 C   0  0  0  0  0  0  0  0  0  0  0  0
    8.0405   -7.2921   26.9999 C   0  0  0  0  0  0  0  0  0  0  0  0
   10.0855    1.0467   23.7186 C   0  0  0  0  0  0  0  0  0  0  0  0
    8.0810   -0.9750   21.0820 C   0  0  0  0  0  0  0  0  0  0  0  0
    9.4870   -7.1874   26.5510 C   0  0  0  0  0  0  0  0  0  0  0  0
    6.9440    0.2550   18.0100 N   0  0  0  0  0  0  0  0  0  0  0  0
    7.6830   -0.5170   18.7600 N   0  0  0  0  0  0  0  0  0  0  0  0
    9.2630   -4.8902   25.8410 N   0  0  0  0  0  0  0  0  0  0  0  0
    9.4200   -0.0840   22.9530 N   0  0  0  0  0  0  0  0  0  0  0  0
    9.1870    1.1500   21.0630 O   0  0  0  0  0  0  0  0  0  0  0  0
   10.1589   -6.4763   24.3506 O   0  0  0  0  0  0  0  0  0  0  0  0
   14.0626    0.7816   24.2770 S   0  0  0  0  0  0  0  0  0  0  0  0
    3.6362    2.0028   21.6260 H   0  0  0  0  0  0  0  0  0  0  0  0
    3.2801    2.7808   19.3164 H   0  0  0  0  0  0  0  0  0  0  0  0
    5.4892    0.4523   22.2166 H   0  0  0  0  0  0  0  0  0  0  0  0
    4.7762    2.0781   17.4596 H   0  0  0  0  0  0  0  0  0  0  0  0
    7.5639   -2.8621   26.1045 H   0  0  0  0  0  0  0  0  0  0  0  0
   11.0141   -4.2644   23.9422 H   0  0  0  0  0  0  0  0  0  0  0  0
    7.5950   -0.7788   24.8007 H   0  0  0  0  0  0  0  0  0  0  0  0
   11.0408   -2.1861   22.6359 H   0  0  0  0  0  0  0  0  0  0  0  0
   11.8670    1.1061   21.4283 H   0  0  0  0  0  0  0  0  0  0  0  0
   14.4532    0.9276   21.8694 H   0  0  0  0  0  0  0  0  0  0  0  0
   12.1309    0.7854   25.7693 H   0  0  0  0  0  0  0  0  0  0  0  0
    7.6712   -6.3280   27.3648 H   0  0  0  0  0  0  0  0  0  0  0  0
    7.9444   -8.0232   27.8085 H   0  0  0  0  0  0  0  0  0  0  0  0
    7.3945   -7.6083   26.1743 H   0  0  0  0  0  0  0  0  0  0  0  0
    9.7545    0.9926   24.7614 H   0  0  0  0  0  0  0  0  0  0  0  0
    9.7178    1.9937   23.3094 H   0  0  0  0  0  0  0  0  0  0  0  0
    7.4898   -1.4163   21.8975 H   0  0  0  0  0  0  0  0  0  0  0  0
    8.7537   -1.7577   20.7019 H   0  0  0  0  0  0  0  0  0  0  0  0
    9.8297   -8.1645   26.1916 H   0  0  0  0  0  0  0  0  0  0  0  0
   10.1142   -6.8997   27.4026 H   0  0  0  0  0  0  0  0  0  0  0  0
    8.4371   -1.0264   18.3897 H   0  0  0  0  0  0  0  0  0  0  0  0
    8.8930   -4.8275   26.7966 H   0  0  0  0  0  0  0  0  0  0  0  0
  1  2  1  0  0  0  0
  1  3  2  0  0  0  0
  2  4  2  0  0  0  0
  3 12  1  0  0  0  0
  4 14  1  0  0  0  0
  5  7  2  0  0  0  0
  5 15  1  0  0  0  0
  6  8  1  0  0  0  0
  6 15  2  0  0  0  0
  7 16  1  0  0  0  0
  8 16  2  0  0  0  0
  9 10  2  0  0  0  0
  9 13  1  0  0  0  0
 10 30  1  0  0  0  0
 11 13  2  0  0  0  0
 11 30  1  0  0  0  0
 12 14  1  0  0  0  0
 12 17  2  0  0  0  0
 13 21  1  0  0  0  0
 14 24  2  0  0  0  0
 15 26  1  0  0  0  0
 16 27  1  0  0  0  0
 17 22  1  0  0  0  0
 17 25  1  0  0  0  0
 18 22  1  0  0  0  0
 18 27  1  0  0  0  0
 18 28  2  0  0  0  0
 19 23  1  0  0  0  0
 19 26  1  0  0  0  0
 19 29  2  0  0  0  0
 20 23  1  0  0  0  0
 21 27  1  0  0  0  0
 24 25  1  0  0  0  0
  1 31  1  0  0  0  0
  2 32  1  0  0  0  0
  3 33  1  0  0  0  0
  4 34  1  0  0  0  0
  5 35  1  0  0  0  0
  6 36  1  0  0  0  0
  7 37  1  0  0  0  0
  8 38  1  0  0  0  0
  9 39  1  0  0  0  0
 10 40  1  0  0  0  0
 11 41  1  0  0  0  0
 20 42  1  0  0  0  0
 20 43  1  0  0  0  0
 20 44  1  0  0  0  0
 21 45  1  0  0  0  0
 21 46  1  0  0  0  0
 22 47  1  0  0  0  0
 22 48  1  0  0  0  0
 23 49  1  0  0  0  0
 23 50  1  0  0  0  0
 25 51  1  0  0  0  0
 26 52  1  0  0  0  0
M  END
> <clash_score>
1.3340772449480107

> <docking_score>
-6.567452430725098

> <overlap_score>
0.9589771032333374

$$$$
BENZO_399_1
  -OEChem-08232013513D

 55 58  0     0  0  0  0  0  0999 V2000
    4.2970    1.6690   20.8430 C   0  0  0  0  0  0  0  0  0  0  0  0
    4.0980    2.1130   19.5350 C   0  0  0  0  0  0  0  0  0  0  0  0
    5.3360    0.8000   21.1530 C   0  0  0  0  0  0  0  0  0  0  0  0
    4.9400    1.7060   18.5060 C   0  0  0  0  0  0  0  0  0  0  0  0
    8.3310   -2.7170   25.3430 C   0  0  0  0  0  0  0  0  0  0  0  0
   10.2570   -3.5000   24.1350 C   0  0  0  0  0  0  0  0  0  0  0  0
    8.3510   -1.5420   24.6110 C   0  0  0  0  0  0  0  0  0  0  0  0
   10.2760   -2.3270   23.4020 C   0  0  0  0  0  0  0  0  0  0  0  0
   12.4464    1.7627   22.8566 C   0  0  0  0  0  0  0  0  0  0  0  0
   12.4167    0.1045   24.3004 C   0  0  0  0  0  0  0  0  0  0  0  0
    6.1600    0.3870   20.1140 C   0  0  0  0  0  0  0  0  0  0  0  0
   11.5824    0.9681   23.6336 C   0  0  0  0  0  0  0  0  0  0  0  0
    5.9810    0.8330   18.8060 C   0  0  0  0  0  0  0  0  0  0  0  0
    9.2850   -3.7090   25.1090 C   0  0  0  0  0  0  0  0  0  0  0  0
    9.3300   -1.3350   23.6390 C   0  0  0  0  0  0  0  0  0  0  0  0
    7.2210   -0.4620   20.0350 C   0  0  0  0  0  0  0  0  0  0  0  0
    8.9510    0.1280   21.6880 C   0  0  0  0  0  0  0  0  0  0  0  0
    9.6855   -6.1678   25.4393 C   0  0  0  0  0  0  0  0  0  0  0  0
    8.0405   -7.2921   26.9999 C   0  0  0  0  0  0  0  0  0  0  0  0
   14.9019   -0.2146   24.3293 C   0  0  0  0  0  0  0  0  0  0  0  0
   10.0855    1.0467   23.7186 C   0  0  0  0  0  0  0  0  0  0  0  0
    8.0810   -0.9750   21.0820 C   0  0  0  0  0  0  0  0  0  0  0  0
    9.4870   -7.1874   26.5510 C   0  0  0  0  0  0  0  0  0  0  0  0
   13.7312    1.4333   23.0143 N   0  0  0  0  0  0  0  0  0  0  0  0
    6.9440    0.2550   18.0100 N   0  0  0  0  0  0  0  0  0  0  0  0
    7.6830   -0.5170   18.7600 N   0  0  0  0  0  0  0  0  0  0  0  0
   13.6806    0.4222   23.8981 N   0  0  0  0  0  0  0  0  0  0  0  0
    9.2630   -4.8902   25.8410 N   0  0  0  0  0  0  0  0  0  0  0  0
    9.4200   -0.0840   22.9530 N   0  0  0  0  0  0  0  0  0  0  0  0
    9.1870    1.1500   21.0630 O   0  0  0  0  0  0  0  0  0  0  0  0
   10.1589   -6.4763   24.3506 O   0  0  0  0  0  0  0  0  0  0  0  0
    3.6362    2.0028   21.6260 H   0  0  0  0  0  0  0  0  0  0  0  0
    3.2801    2.7808   19.3164 H   0  0  0  0  0  0  0  0  0  0  0  0
    5.4892    0.4523   22.2166 H   0  0  0  0  0  0  0  0  0  0  0  0
    4.7762    2.0781   17.4596 H   0  0  0  0  0  0  0  0  0  0  0  0
    7.5639   -2.8621   26.1045 H   0  0  0  0  0  0  0  0  0  0  0  0
   11.0141   -4.2644   23.9422 H   0  0  0  0  0  0  0  0  0  0  0  0
    7.5950   -0.7788   24.8007 H   0  0  0  0  0  0  0  0  0  0  0  0
   11.0408   -2.1861   22.6359 H   0  0  0  0  0  0  0  0  0  0  0  0
   12.1959    2.5692   22.1820 H   0  0  0  0  0  0  0  0  0  0  0  0
   12.2237   -0.6885   25.0102 H   0  0  0  0  0  0  0  0  0  0  0  0
    7.6712   -6.3280   27.3648 H   0  0  0  0  0  0  0  0  0  0  0  0
    7.9444   -8.0232   27.8085 H   0  0  0  0  0  0  0  0  0  0  0  0
    7.3945   -7.6083   26.1743 H   0  0  0  0  0  0  0  0  0  0  0  0
   15.1091   -1.0434   23.6473 H   0  0  0  0  0  0  0  0  0  0  0  0
   15.7189    0.5120   24.3073 H   0  0  0  0  0  0  0  0  0  0  0  0
   14.7766   -0.5816   25.3518 H   0  0  0  0  0  0  0  0  0  0  0  0
    9.7545    0.9926   24.7614 H   0  0  0  0  0  0  0  0  0  0  0  0
    9.7178    1.9937   23.3094 H   0  0  0  0  0  0  0  0  0  0  0  0
    7.4898   -1.4163   21.8975 H   0  0  0  0  0  0  0  0  0  0  0  0
    8.7537   -1.7577   20.7019 H   0  0  0  0  0  0  0  0  0  0  0  0
    9.8297   -8.1645   26.1916 H   0  0  0  0  0  0  0  0  0  0  0  0
   10.1142   -6.8997   27.4026 H   0  0  0  0  0  0  0  0  0  0  0  0
    8.4371   -1.0264   18.3897 H   0  0  0  0  0  0  0  0  0  0  0  0
    8.8930   -4.8275   26.7966 H   0  0  0  0  0  0  0  0  0  0  0  0
  1  2  1  0  0  0  0
  1  3  2  0  0  0  0
  2  4  2  0  0  0  0
  3 11  1  0  0  0  0
  4 13  1  0  0  0  0
  5  7  2  0  0  0  0
  5 14  1  0  0  0  0
  6  8  1  0  0  0  0
  6 14  2  0  0  0  0
  7 15  1  0  0  0  0
  8 15  2  0  0  0  0
  9 12  1  0  0  0  0
  9 24  2  0  0  0  0
 10 12  2  0  0  0  0
 10 27  1  0  0  0  0
 11 13  1  0  0  0  0
 11 16  2  0  0  0  0
 12 21  1  0  0  0  0
 13 25  2  0  0  0  0
 14 28  1  0  0  0  0
 15 29  1  0  0  0  0
 16 22  1  0  0  0  0
 16 26  1  0  0  0  0
 17 22  1  0  0  0  0
 17 29  1  0  0  0  0
 17 30  2  0  0  0  0
 18 23  1  0  0  0  0
 18 28  1  0  0  0  0
 18 31  2  0  0  0  0
 19 23  1  0  0  0  0
 20 27  1  0  0  0  0
 21 29  1  0  0  0  0
 24 27  1  0  0  0  0
 25 26  1  0  0  0  0
  1 32  1  0  0  0  0
  2 33  1  0  0  0  0
  3 34  1  0  0  0  0
  4 35  1  0  0  0  0
  5 36  1  0  0  0  0
  6 37  1  0  0  0  0
  7 38  1  0  0  0  0
  8 39  1  0  0  0  0
  9 40  1  0  0  0  0
 10 41  1  0  0  0  0
 19 42  1  0  0  0  0
 19 43  1  0  0  0  0
 19 44  1  0  0  0  0
 20 45  1  0  0  0  0
 20 46  1  0  0  0  0
 20 47  1  0  0  0  0
 21 48  1  0  0  0  0
 21 49  1  0  0  0  0
 22 50  1  0  0  0  0
 22 51  1  0  0  0  0
 23 52  1  0  0  0  0
 23 53  1  0  0  0  0
 26 54  1  0  0  0  0
 28 55  1  0  0  0  0
M  END
> <clash_score>
1.3340772449480107

> <docking_score>
-5.972461700439453

> <overlap_score>
0.9846610426902771

$$$$
BENZO_398_1
  -OEChem-08232013513D

 55 58  0     0  0  0  0  0  0999 V2000
    4.2970    1.6690   20.8430 C   0  0  0  0  0  0  0  0  0  0  0  0
    4.0980    2.1130   19.5350 C   0  0  0  0  0  0  0  0  0  0  0  0
   13.6709    1.7728   22.7242 C   0  0  0  0  0  0  0  0  0  0  0  0
    5.3360    0.8000   21.1530 C   0  0  0  0  0  0  0  0  0  0  0  0
   12.2802    1.8446   22.8027 C   0  0  0  0  0  0  0  0  0  0  0  0
    4.9400    1.7060   18.5060 C   0  0  0  0  0  0  0  0  0  0  0  0
    8.3310   -2.7170   25.3430 C   0  0  0  0  0  0  0  0  0  0  0  0
   10.2570   -3.5000   24.1350 C   0  0  0  0  0  0  0  0  0  0  0  0
    8.3510   -1.5420   24.6110 C   0  0  0  0  0  0  0  0  0  0  0  0
   10.2760   -2.3270   23.4020 C   0  0  0  0  0  0  0  0  0  0  0  0
   14.3640    0.8245   23.4766 C   0  0  0  0  0  0  0  0  0  0  0  0
   12.2754    0.0198   24.3861 C   0  0  0  0  0  0  0  0  0  0  0  0
    6.1600    0.3870   20.1140 C   0  0  0  0  0  0  0  0  0  0  0  0
   11.5824    0.9681   23.6336 C   0  0  0  0  0  0  0  0  0  0  0  0
    5.9810    0.8330   18.8060 C   0  0  0  0  0  0  0  0  0  0  0  0
    9.2850   -3.7090   25.1090 C   0  0  0  0  0  0  0  0  0  0  0  0
    9.3300   -1.3350   23.6390 C   0  0  0  0  0  0  0  0  0  0  0  0
   13.6662   -0.0520   24.3076 C   0  0  0  0  0  0  0  0  0  0  0  0
    7.2210   -0.4620   20.0350 C   0  0  0  0  0  0  0  0  0  0  0  0
    8.9510    0.1280   21.6880 C   0  0  0  0  0  0  0  0  0  0  0  0
    9.6855   -6.1678   25.4393 C   0  0  0  0  0  0  0  0  0  0  0  0
    8.0405   -7.2921   26.9999 C   0  0  0  0  0  0  0  0  0  0  0  0
   10.0855    1.0467   23.7186 C   0  0  0  0  0  0  0  0  0  0  0  0
    8.0810   -0.9750   21.0820 C   0  0  0  0  0  0  0  0  0  0  0  0
    9.4870   -7.1874   26.5510 C   0  0  0  0  0  0  0  0  0  0  0  0
    6.9440    0.2550   18.0100 N   0  0  0  0  0  0  0  0  0  0  0  0
    7.6830   -0.5170   18.7600 N   0  0  0  0  0  0  0  0  0  0  0  0
    9.2630   -4.8902   25.8410 N   0  0  0  0  0  0  0  0  0  0  0  0
    9.4200   -0.0840   22.9530 N   0  0  0  0  0  0  0  0  0  0  0  0
    9.1870    1.1500   21.0630 O   0  0  0  0  0  0  0  0  0  0  0  0
   10.1589   -6.4763   24.3506 O   0  0  0  0  0  0  0  0  0  0  0  0
   14.5219   -1.2210   25.2365 Cl  0  0  0  0  0  0  0  0  0  0  0  0
    3.6362    2.0028   21.6260 H   0  0  0  0  0  0  0  0  0  0  0  0
    3.2801    2.7808   19.3164 H   0  0  0  0  0  0  0  0  0  0  0  0
   14.2139    2.4556   22.0771 H   0  0  0  0  0  0  0  0  0  0  0  0
    5.4892    0.4523   22.2166 H   0  0  0  0  0  0  0  0  0  0  0  0
   11.7484    2.5867   22.2129 H   0  0  0  0  0  0  0  0  0  0  0  0
    4.7762    2.0781   17.4596 H   0  0  0  0  0  0  0  0  0  0  0  0
    7.5639   -2.8621   26.1045 H   0  0  0  0  0  0  0  0  0  0  0  0
   11.0141   -4.2644   23.9422 H   0  0  0  0  0  0  0  0  0  0  0  0
    7.5950   -0.7788   24.8007 H   0  0  0  0  0  0  0  0  0  0  0  0
   11.0408   -2.1861   22.6359 H   0  0  0  0  0  0  0  0  0  0  0  0
   15.4480    0.7802   23.4056 H   0  0  0  0  0  0  0  0  0  0  0  0
   11.7267   -0.6617   25.0321 H   0  0  0  0  0  0  0  0  0  0  0  0
    7.6712   -6.3280   27.3648 H   0  0  0  0  0  0  0  0  0  0  0  0
    7.9444   -8.0232   27.8085 H   0  0  0  0  0  0  0  0  0  0  0  0
    7.3945   -7.6083   26.1743 H   0  0  0  0  0  0  0  0  0  0  0  0
    9.7545    0.9926   24.7614 H   0  0  0  0  0  0  0  0  0  0  0  0
    9.7178    1.9937   23.3094 H   0  0  0  0  0  0  0  0  0  0  0  0
    7.4898   -1.4163   21.8975 H   0  0  0  0  0  0  0  0  0  0  0  0
    8.7537   -1.7577   20.7019 H   0  0  0  0  0  0  0  0  0  0  0  0
    9.8297   -8.1645   26.1916 H   0  0  0  0  0  0  0  0  0  0  0  0
   10.1142   -6.8997   27.4026 H   0  0  0  0  0  0  0  0  0  0  0  0
    8.4371   -1.0264   18.3897 H   0  0  0  0  0  0  0  0  0  0  0  0
    8.8930   -4.8275   26.7966 H   0  0  0  0  0  0  0  0  0  0  0  0
  1  2  1  0  0  0  0
  1  4  2  0  0  0  0
  2  6  2  0  0  0  0
  3  5  2  0  0  0  0
  3 11  1  0  0  0  0
  4 13  1  0  0  0  0
  5 14  1  0  0  0  0
  6 15  1  0  0  0  0
  7  9  2  0  0  0  0
  7 16  1  0  0  0  0
  8 10  1  0  0  0  0
  8 16  2  0  0  0  0
  9 17  1  0  0  0  0
 10 17  2  0  0  0  0
 11 18  2  0  0  0  0
 12 14  2  0  0  0  0
 12 18  1  0  0  0  0
 13 15  1  0  0  0  0
 13 19  2  0  0  0  0
 14 23  1  0  0  0  0
 15 26  2  0  0  0  0
 16 28  1  0  0  0  0
 17 29  1  0  0  0  0
 18 32  1  0  0  0  0
 19 24  1  0  0  0  0
 19 27  1  0  0  0  0
 20 24  1  0  0  0  0
 20 29  1  0  0  0  0
 20 30  2  0  0  0  0
 21 25  1  0  0  0  0
 21 28  1  0  0  0  0
 21 31  2  0  0  0  0
 22 25  1  0  0  0  0
 23 29  1  0  0  0  0
 26 27  1  0  0  0  0
  1 33  1  0  0  0  0
  2 34  1  0  0  0  0
  3 35  1  0  0  0  0
  4 36  1  0  0  0  0
  5 37  1  0  0  0  0
  6 38  1  0  0  0  0
  7 39  1  0  0  0  0
  8 40  1  0  0  0  0
  9 41  1  0  0  0  0
 10 42  1  0  0  0  0
 11 43  1  0  0  0  0
 12 44  1  0  0  0  0
 22 45  1  0  0  0  0
 22 46  1  0  0  0  0
 22 47  1  0  0  0  0
 23 48  1  0  0  0  0
 23 49  1  0  0  0  0
 24 50  1  0  0  0  0
 24 51  1  0  0  0  0
 25 52  1  0  0  0  0
 25 53  1  0  0  0  0
 27 54  1  0  0  0  0
 28 55  1  0  0  0  0
M  END
> <clash_score>
2.145807645115624

> <docking_score>
-5.413450717926025

> <overlap_score>
0.9888630509376526

$$$$
BENZO_401_1
  -OEChem-08232013513D

 60 64  0     0  0  0  0  0  0999 V2000
   14.2727    1.1212   23.8270 C   0  0  0  0  0  0  0  0  0  0  0  0
    4.2970    1.6690   20.8430 C   0  0  0  0  0  0  0  0  0  0  0  0
   13.5688    0.4211   24.8068 C   0  0  0  0  0  0  0  0  0  0  0  0
   13.5821    1.8030   22.8250 C   0  0  0  0  0  0  0  0  0  0  0  0
    4.0980    2.1130   19.5350 C   0  0  0  0  0  0  0  0  0  0  0  0
    5.3360    0.8000   21.1530 C   0  0  0  0  0  0  0  0  0  0  0  0
   12.1743    0.4025   24.7845 C   0  0  0  0  0  0  0  0  0  0  0  0
   12.1875    1.7844   22.8027 C   0  0  0  0  0  0  0  0  0  0  0  0
    4.9400    1.7060   18.5060 C   0  0  0  0  0  0  0  0  0  0  0  0
    8.3310   -2.7170   25.3430 C   0  0  0  0  0  0  0  0  0  0  0  0
   10.2570   -3.5000   24.1350 C   0  0  0  0  0  0  0  0  0  0  0  0
    8.3510   -1.5420   24.6110 C   0  0  0  0  0  0  0  0  0  0  0  0
   10.2760   -2.3270   23.4020 C   0  0  0  0  0  0  0  0  0  0  0  0
    6.1600    0.3870   20.1140 C   0  0  0  0  0  0  0  0  0  0  0  0
   11.4836    1.0842   23.7825 C   0  0  0  0  0  0  0  0  0  0  0  0
    5.9810    0.8330   18.8060 C   0  0  0  0  0  0  0  0  0  0  0  0
    9.2850   -3.7090   25.1090 C   0  0  0  0  0  0  0  0  0  0  0  0
    9.3300   -1.3350   23.6390 C   0  0  0  0  0  0  0  0  0  0  0  0
    7.2210   -0.4620   20.0350 C   0  0  0  0  0  0  0  0  0  0  0  0
    8.9510    0.1280   21.6880 C   0  0  0  0  0  0  0  0  0  0  0  0
    7.3162   -6.8835   26.5210 C   0  0  0  0  0  0  0  0  0  0  0  0
    7.3507   -5.5245   27.2240 C   0  0  0  0  0  0  0  0  0  0  0  0
    7.9375   -6.8069   25.1245 C   0  0  0  0  0  0  0  0  0  0  0  0
    8.7638   -4.9418   27.2163 C   0  0  0  0  0  0  0  0  0  0  0  0
    9.3378   -6.1874   25.1659 C   0  0  0  0  0  0  0  0  0  0  0  0
    9.9825    1.0644   23.7577 C   0  0  0  0  0  0  0  0  0  0  0  0
    8.0810   -0.9750   21.0820 C   0  0  0  0  0  0  0  0  0  0  0  0
    6.9440    0.2550   18.0100 N   0  0  0  0  0  0  0  0  0  0  0  0
    7.6830   -0.5170   18.7600 N   0  0  0  0  0  0  0  0  0  0  0  0
    9.2639   -4.8860   25.8399 N   0  0  0  0  0  0  0  0  0  0  0  0
    9.4200   -0.0840   22.9530 N   0  0  0  0  0  0  0  0  0  0  0  0
    9.1870    1.1500   21.0630 O   0  0  0  0  0  0  0  0  0  0  0  0
   15.3586    1.1367   23.8453 H   0  0  0  0  0  0  0  0  0  0  0  0
    3.6362    2.0028   21.6260 H   0  0  0  0  0  0  0  0  0  0  0  0
   14.1064   -0.1089   25.5877 H   0  0  0  0  0  0  0  0  0  0  0  0
   14.1298    2.3491   22.0627 H   0  0  0  0  0  0  0  0  0  0  0  0
    3.2801    2.7808   19.3164 H   0  0  0  0  0  0  0  0  0  0  0  0
    5.4892    0.4523   22.2166 H   0  0  0  0  0  0  0  0  0  0  0  0
   11.6342   -0.1459   25.5518 H   0  0  0  0  0  0  0  0  0  0  0  0
   11.6579    2.3182   22.0182 H   0  0  0  0  0  0  0  0  0  0  0  0
    4.7762    2.0781   17.4596 H   0  0  0  0  0  0  0  0  0  0  0  0
    7.5647   -2.8621   26.1053 H   0  0  0  0  0  0  0  0  0  0  0  0
   11.0144   -4.2642   23.9425 H   0  0  0  0  0  0  0  0  0  0  0  0
    7.5958   -0.7779   24.8006 H   0  0  0  0  0  0  0  0  0  0  0  0
   11.0406   -2.1848   22.6356 H   0  0  0  0  0  0  0  0  0  0  0  0
    7.8578   -7.6261   27.1266 H   0  0  0  0  0  0  0  0  0  0  0  0
    6.2773   -7.2358   26.4459 H   0  0  0  0  0  0  0  0  0  0  0  0
    6.6663   -4.8351   26.7223 H   0  0  0  0  0  0  0  0  0  0  0  0
    7.0044   -5.6368   28.2534 H   0  0  0  0  0  0  0  0  0  0  0  0
    7.9946   -7.8119   24.6937 H   0  0  0  0  0  0  0  0  0  0  0  0
    7.2929   -6.2123   24.4668 H   0  0  0  0  0  0  0  0  0  0  0  0
    8.7343   -3.9408   27.6542 H   0  0  0  0  0  0  0  0  0  0  0  0
    9.4243   -5.5632   27.8278 H   0  0  0  0  0  0  0  0  0  0  0  0
   10.0200   -6.8490   25.7011 H   0  0  0  0  0  0  0  0  0  0  0  0
    9.6984   -6.0694   24.1436 H   0  0  0  0  0  0  0  0  0  0  0  0
    9.5805    0.9993   24.7746 H   0  0  0  0  0  0  0  0  0  0  0  0
    9.5848    1.9806   23.3087 H   0  0  0  0  0  0  0  0  0  0  0  0
    7.4781   -1.4136   21.8845 H   0  0  0  0  0  0  0  0  0  0  0  0
    8.7420   -1.7550   20.6889 H   0  0  0  0  0  0  0  0  0  0  0  0
    8.4371   -1.0264   18.3897 H   0  0  0  0  0  0  0  0  0  0  0  0
  1  3  1  0  0  0  0
  1  4  2  0  0  0  0
  2  5  1  0  0  0  0
  2  6  2  0  0  0  0
  3  7  2  0  0  0  0
  4  8  1  0  0  0  0
  5  9  2  0  0  0  0
  6 14  1  0  0  0  0
  7 15  1  0  0  0  0
  8 15  2  0  0  0  0
  9 16  1  0  0  0  0
 10 12  2  0  0  0  0
 10 17  1  0  0  0  0
 11 13  1  0  0  0  0
 11 17  2  0  0  0  0
 12 18  1  0  0  0  0
 13 18  2  0  0  0  0
 14 16  1  0  0  0  0
 14 19  2  0  0  0  0
 15 26  1  0  0  0  0
 16 28  2  0  0  0  0
 17 30  1  0  0  0  0
 18 31  1  0  0  0  0
 19 27  1  0  0  0  0
 19 29  1  0  0  0  0
 20 27  1  0  0  0  0
 20 31  1  0  0  0  0
 20 32  2  0  0  0  0
 21 22  1  0  0  0  0
 21 23  1  0  0  0  0
 22 24  1  0  0  0  0
 23 25  1  0  0  0  0
 24 30  1  0  0  0  0
 25 30  1  0  0  0  0
 26 31  1  0  0  0  0
 28 29  1  0  0  0  0
  1 33  1  0  0  0  0
  2 34  1  0  0  0  0
  3 35  1  0  0  0  0
  4 36  1  0  0  0  0
  5 37  1  0  0  0  0
  6 38  1  0  0  0  0
  7 39  1  0  0  0  0
  8 40  1  0  0  0  0
  9 41  1  0  0  0  0
 10 42  1  0  0  0  0
 11 43  1  0  0  0  0
 12 44  1  0  0  0  0
 13 45  1  0  0  0  0
 21 46  1  0  0  0  0
 21 47  1  0  0  0  0
 22 48  1  0  0  0  0
 22 49  1  0  0  0  0
 23 50  1  0  0  0  0
 23 51  1  0  0  0  0
 24 52  1  0  0  0  0
 24 53  1  0  0  0  0
 25 54  1  0  0  0  0
 25 55  1  0  0  0  0
 26 56  1  0  0  0  0
 26 57  1  0  0  0  0
 27 58  1  0  0  0  0
 27 59  1  0  0  0  0
 29 60  1  0  0  0  0
M  END
> <clash_score>
0

> <docking_score>
-8.691144943237305

> <overlap_score>
1.0074560642242432

$$$$
BENZO_400_1
  -OEChem-08232013513D

 57 61  0     0  0  0  0  0  0999 V2000
    4.2970    1.6690   20.8430 C   0  0  0  0  0  0  0  0  0  0  0  0
    4.0980    2.1130   19.5350 C   0  0  0  0  0  0  0  0  0  0  0  0
    5.3360    0.8000   21.1530 C   0  0  0  0  0  0  0  0  0  0  0  0
    4.9400    1.7060   18.5060 C   0  0  0  0  0  0  0  0  0  0  0  0
    8.3310   -2.7170   25.3430 C   0  0  0  0  0  0  0  0  0  0  0  0
   10.2570   -3.5000   24.1350 C   0  0  0  0  0  0  0  0  0  0  0  0
    8.3510   -1.5420   24.6110 C   0  0  0  0  0  0  0  0  0  0  0  0
   10.2760   -2.3270   23.4020 C   0  0  0  0  0  0  0  0  0  0  0  0
   12.2965    1.1638   22.6150 C   0  0  0  0  0  0  0  0  0  0  0  0
   13.6401    1.1644   22.9190 C   0  0  0  0  0  0  0  0  0  0  0  0
   12.2369    1.0266   24.9345 C   0  0  0  0  0  0  0  0  0  0  0  0
    6.1600    0.3870   20.1140 C   0  0  0  0  0  0  0  0  0  0  0  0
   11.4836    1.0842   23.7825 C   0  0  0  0  0  0  0  0  0  0  0  0
    5.9810    0.8330   18.8060 C   0  0  0  0  0  0  0  0  0  0  0  0
    9.2850   -3.7090   25.1090 C   0  0  0  0  0  0  0  0  0  0  0  0
    9.3300   -1.3350   23.6390 C   0  0  0  0  0  0  0  0  0  0  0  0
    7.2210   -0.4620   20.0350 C   0  0  0  0  0  0  0  0  0  0  0  0
    8.9510    0.1280   21.6880 C   0  0  0  0  0  0  0  0  0  0  0  0
    7.3162   -6.8835   26.5210 C   0  0  0  0  0  0  0  0  0  0  0  0
    7.3507   -5.5245   27.2240 C   0  0  0  0  0  0  0  0  0  0  0  0
    7.9375   -6.8069   25.1245 C   0  0  0  0  0  0  0  0  0  0  0  0
    8.7638   -4.9418   27.2163 C   0  0  0  0  0  0  0  0  0  0  0  0
    9.3378   -6.1874   25.1659 C   0  0  0  0  0  0  0  0  0  0  0  0
    9.9825    1.0644   23.7577 C   0  0  0  0  0  0  0  0  0  0  0  0
    8.0810   -0.9750   21.0820 C   0  0  0  0  0  0  0  0  0  0  0  0
    6.9440    0.2550   18.0100 N   0  0  0  0  0  0  0  0  0  0  0  0
    7.6830   -0.5170   18.7600 N   0  0  0  0  0  0  0  0  0  0  0  0
    9.2639   -4.8860   25.8399 N   0  0  0  0  0  0  0  0  0  0  0  0
    9.4200   -0.0840   22.9530 N   0  0  0  0  0  0  0  0  0  0  0  0
    9.1870    1.1500   21.0630 O   0  0  0  0  0  0  0  0  0  0  0  0
   13.9170    1.0690   24.6062 S   0  0  0  0  0  0  0  0  0  0  0  0
    3.6362    2.0028   21.6260 H   0  0  0  0  0  0  0  0  0  0  0  0
    3.2801    2.7808   19.3164 H   0  0  0  0  0  0  0  0  0  0  0  0
    5.4892    0.4523   22.2166 H   0  0  0  0  0  0  0  0  0  0  0  0
    4.7762    2.0781   17.4596 H   0  0  0  0  0  0  0  0  0  0  0  0
    7.5647   -2.8621   26.1053 H   0  0  0  0  0  0  0  0  0  0  0  0
   11.0144   -4.2642   23.9425 H   0  0  0  0  0  0  0  0  0  0  0  0
    7.5958   -0.7779   24.8006 H   0  0  0  0  0  0  0  0  0  0  0  0
   11.0406   -2.1848   22.6356 H   0  0  0  0  0  0  0  0  0  0  0  0
   11.9191    1.2177   21.6016 H   0  0  0  0  0  0  0  0  0  0  0  0
   14.4722    1.2155   22.2312 H   0  0  0  0  0  0  0  0  0  0  0  0
   11.8852    0.9605   25.9547 H   0  0  0  0  0  0  0  0  0  0  0  0
    7.8578   -7.6261   27.1266 H   0  0  0  0  0  0  0  0  0  0  0  0
    6.2773   -7.2358   26.4459 H   0  0  0  0  0  0  0  0  0  0  0  0
    6.6663   -4.8351   26.7223 H   0  0  0  0  0  0  0  0  0  0  0  0
    7.0044   -5.6368   28.2534 H   0  0  0  0  0  0  0  0  0  0  0  0
    7.9946   -7.8119   24.6937 H   0  0  0  0  0  0  0  0  0  0  0  0
    7.2929   -6.2123   24.4668 H   0  0  0  0  0  0  0  0  0  0  0  0
    8.7343   -3.9408   27.6542 H   0  0  0  0  0  0  0  0  0  0  0  0
    9.4243   -5.5632   27.8278 H   0  0  0  0  0  0  0  0  0  0  0  0
   10.0200   -6.8490   25.7011 H   0  0  0  0  0  0  0  0  0  0  0  0
    9.6984   -6.0694   24.1436 H   0  0  0  0  0  0  0  0  0  0  0  0
    9.5805    0.9993   24.7746 H   0  0  0  0  0  0  0  0  0  0  0  0
    9.5848    1.9806   23.3087 H   0  0  0  0  0  0  0  0  0  0  0  0
    7.4781   -1.4136   21.8845 H   0  0  0  0  0  0  0  0  0  0  0  0
    8.7420   -1.7550   20.6889 H   0  0  0  0  0  0  0  0  0  0  0  0
    8.4371   -1.0264   18.3897 H   0  0  0  0  0  0  0  0  0  0  0  0
  1  2  1  0  0  0  0
  1  3  2  0  0  0  0
  2  4  2  0  0  0  0
  3 12  1  0  0  0  0
  4 14  1  0  0  0  0
  5  7  2  0  0  0  0
  5 15  1  0  0  0  0
  6  8  1  0  0  0  0
  6 15  2  0  0  0  0
  7 16  1  0  0  0  0
  8 16  2  0  0  0  0
  9 10  2  0  0  0  0
  9 13  1  0  0  0  0
 10 31  1  0  0  0  0
 11 13  2  0  0  0  0
 11 31  1  0  0  0  0
 12 14  1  0  0  0  0
 12 17  2  0  0  0  0
 13 24  1  0  0  0  0
 14 26  2  0  0  0  0
 15 28  1  0  0  0  0
 16 29  1  0  0  0  0
 17 25  1  0  0  0  0
 17 27  1  0  0  0  0
 18 25  1  0  0  0  0
 18 29  1  0  0  0  0
 18 30  2  0  0  0  0
 19 20  1  0  0  0  0
 19 21  1  0  0  0  0
 20 22  1  0  0  0  0
 21 23  1  0  0  0  0
 22 28  1  0  0  0  0
 23 28  1  0  0  0  0
 24 29  1  0  0  0  0
 26 27  1  0  0  0  0
  1 32  1  0  0  0  0
  2 33  1  0  0  0  0
  3 34  1  0  0  0  0
  4 35  1  0  0  0  0
  5 36  1  0  0  0  0
  6 37  1  0  0  0  0
  7 38  1  0  0  0  0
  8 39  1  0  0  0  0
  9 40  1  0  0  0  0
 10 41  1  0  0  0  0
 11 42  1  0  0  0  0
 19 43  1  0  0  0  0
 19 44  1  0  0  0  0
 20 45  1  0  0  0  0
 20 46  1  0  0  0  0
 21 47  1  0  0  0  0
 21 48  1  0  0  0  0
 22 49  1  0  0  0  0
 22 50  1  0  0  0  0
 23 51  1  0  0  0  0
 23 52  1  0  0  0  0
 24 53  1  0  0  0  0
 24 54  1  0  0  0  0
 25 55  1  0  0  0  0
 25 56  1  0  0  0  0
 27 57  1  0  0  0  0
M  END
> <clash_score>
0

> <docking_score>
-9.053201675415039

> <overlap_score>
0.9859398007392883

$$$$
BENZO_405_1
  -OEChem-08232013513D

 48 51  0     0  0  0  0  0  0999 V2000
   14.3638    0.8223   23.4745 C   0  0  0  0  0  0  0  0  0  0  0  0
    4.2970    1.6690   20.8430 C   0  0  0  0  0  0  0  0  0  0  0  0
   13.6894    0.1733   24.5087 C   0  0  0  0  0  0  0  0  0  0  0  0
   13.6474    1.5443   22.5198 C   0  0  0  0  0  0  0  0  0  0  0  0
    4.0980    2.1130   19.5350 C   0  0  0  0  0  0  0  0  0  0  0  0
    5.3360    0.8000   21.1530 C   0  0  0  0  0  0  0  0  0  0  0  0
   12.2987    0.2462   24.5883 C   0  0  0  0  0  0  0  0  0  0  0  0
   12.2567    1.6172   22.5994 C   0  0  0  0  0  0  0  0  0  0  0  0
    8.3310   -2.7170   25.3430 C   0  0  0  0  0  0  0  0  0  0  0  0
   10.2570   -3.5000   24.1350 C   0  0  0  0  0  0  0  0  0  0  0  0
    4.9400    1.7060   18.5060 C   0  0  0  0  0  0  0  0  0  0  0  0
    8.3510   -1.5420   24.6110 C   0  0  0  0  0  0  0  0  0  0  0  0
   10.2760   -2.3270   23.4020 C   0  0  0  0  0  0  0  0  0  0  0  0
    6.1600    0.3870   20.1140 C   0  0  0  0  0  0  0  0  0  0  0  0
    9.2850   -3.7090   25.1090 C   0  0  0  0  0  0  0  0  0  0  0  0
   11.5824    0.9681   23.6336 C   0  0  0  0  0  0  0  0  0  0  0  0
    5.9810    0.8330   18.8060 C   0  0  0  0  0  0  0  0  0  0  0  0
    9.3300   -1.3350   23.6390 C   0  0  0  0  0  0  0  0  0  0  0  0
    7.2210   -0.4620   20.0350 C   0  0  0  0  0  0  0  0  0  0  0  0
    8.9510    0.1280   21.6880 C   0  0  0  0  0  0  0  0  0  0  0  0
    9.2610   -4.9721   25.8916 C   0  0  0  0  0  0  0  0  0  0  0  0
   10.0855    1.0467   23.7186 C   0  0  0  0  0  0  0  0  0  0  0  0
    8.0810   -0.9750   21.0820 C   0  0  0  0  0  0  0  0  0  0  0  0
    6.9440    0.2550   18.0100 N   0  0  0  0  0  0  0  0  0  0  0  0
    7.6830   -0.5170   18.7600 N   0  0  0  0  0  0  0  0  0  0  0  0
    9.4200   -0.0840   22.9530 N   0  0  0  0  0  0  0  0  0  0  0  0
    9.1870    1.1500   21.0630 O   0  0  0  0  0  0  0  0  0  0  0  0
   15.4467    0.7666   23.4135 H   0  0  0  0  0  0  0  0  0  0  0  0
    3.6362    2.0028   21.6260 H   0  0  0  0  0  0  0  0  0  0  0  0
   14.2471   -0.3880   25.2528 H   0  0  0  0  0  0  0  0  0  0  0  0
   14.1722    2.0506   21.7151 H   0  0  0  0  0  0  0  0  0  0  0  0
    3.2801    2.7808   19.3164 H   0  0  0  0  0  0  0  0  0  0  0  0
    5.4892    0.4523   22.2166 H   0  0  0  0  0  0  0  0  0  0  0  0
   11.7817   -0.2629   25.3975 H   0  0  0  0  0  0  0  0  0  0  0  0
   11.7069    2.1818   21.8511 H   0  0  0  0  0  0  0  0  0  0  0  0
    7.5665   -2.8638   26.1066 H   0  0  0  0  0  0  0  0  0  0  0  0
   11.0137   -4.2652   23.9447 H   0  0  0  0  0  0  0  0  0  0  0  0
    4.7762    2.0781   17.4596 H   0  0  0  0  0  0  0  0  0  0  0  0
    7.5948   -0.7788   24.7997 H   0  0  0  0  0  0  0  0  0  0  0  0
   11.0411   -2.1856   22.6358 H   0  0  0  0  0  0  0  0  0  0  0  0
    8.6398   -5.7223   25.3871 H   0  0  0  0  0  0  0  0  0  0  0  0
   10.2715   -5.3829   26.0145 H   0  0  0  0  0  0  0  0  0  0  0  0
    8.8596   -4.8092   26.9004 H   0  0  0  0  0  0  0  0  0  0  0  0
    9.7545    0.9926   24.7614 H   0  0  0  0  0  0  0  0  0  0  0  0
    9.7178    1.9937   23.3094 H   0  0  0  0  0  0  0  0  0  0  0  0
    7.4898   -1.4163   21.8975 H   0  0  0  0  0  0  0  0  0  0  0  0
    8.7537   -1.7577   20.7019 H   0  0  0  0  0  0  0  0  0  0  0  0
    8.4371   -1.0264   18.3897 H   0  0  0  0  0  0  0  0  0  0  0  0
  1  3  1  0  0  0  0
  1  4  2  0  0  0  0
  2  5  1  0  0  0  0
  2  6  2  0  0  0  0
  3  7  2  0  0  0  0
  4  8  1  0  0  0  0
  5 11  2  0  0  0  0
  6 14  1  0  0  0  0
  7 16  1  0  0  0  0
  8 16  2  0  0  0  0
  9 12  2  0  0  0  0
  9 15  1  0  0  0  0
 10 13  1  0  0  0  0
 10 15  2  0  0  0  0
 11 17  1  0  0  0  0
 12 18  1  0  0  0  0
 13 18  2  0  0  0  0
 14 17  1  0  0  0  0
 14 19  2  0  0  0  0
 15 21  1  0  0  0  0
 16 22  1  0  0  0  0
 17 24  2  0  0  0  0
 18 26  1  0  0  0  0
 19 23  1  0  0  0  0
 19 25  1  0  0  0  0
 20 23  1  0  0  0  0
 20 26  1  0  0  0  0
 20 27  2  0  0  0  0
 22 26  1  0  0  0  0
 24 25  1  0  0  0  0
  1 28  1  0  0  0  0
  2 29  1  0  0  0  0
  3 30  1  0  0  0  0
  4 31  1  0  0  0  0
  5 32  1  0  0  0  0
  6 33  1  0  0  0  0
  7 34  1  0  0  0  0
  8 35  1  0  0  0  0
  9 36  1  0  0  0  0
 10 37  1  0  0  0  0
 11 38  1  0  0  0  0
 12 39  1  0  0  0  0
 13 40  1  0  0  0  0
 21 41  1  0  0  0  0
 21 42  1  0  0  0  0
 21 43  1  0  0  0  0
 22 44  1  0  0  0  0
 22 45  1  0  0  0  0
 23 46  1  0  0  0  0
 23 47  1  0  0  0  0
 25 48  1  0  0  0  0
M  END
> <clash_score>
0

> <docking_score>
-9.42983627319336

> <overlap_score>
0.968899667263031

$$$$
BENZO_404_1
  -OEChem-08232013513D

 45 48  0     0  0  0  0  0  0999 V2000
    4.2970    1.6690   20.8430 C   0  0  0  0  0  0  0  0  0  0  0  0
    4.0980    2.1130   19.5350 C   0  0  0  0  0  0  0  0  0  0  0  0
    5.3360    0.8000   21.1530 C   0  0  0  0  0  0  0  0  0  0  0  0
    8.3310   -2.7170   25.3430 C   0  0  0  0  0  0  0  0  0  0  0  0
   10.2570   -3.5000   24.1350 C   0  0  0  0  0  0  0  0  0  0  0  0
    4.9400    1.7060   18.5060 C   0  0  0  0  0  0  0  0  0  0  0  0
    8.3510   -1.5420   24.6110 C   0  0  0  0  0  0  0  0  0  0  0  0
   10.2760   -2.3270   23.4020 C   0  0  0  0  0  0  0  0  0  0  0  0
   12.3122    1.0123   22.4107 C   0  0  0  0  0  0  0  0  0  0  0  0
   13.6713    0.9205   22.6157 C   0  0  0  0  0  0  0  0  0  0  0  0
   12.4116    0.8440   24.7268 C   0  0  0  0  0  0  0  0  0  0  0  0
    6.1600    0.3870   20.1140 C   0  0  0  0  0  0  0  0  0  0  0  0
    9.2850   -3.7090   25.1090 C   0  0  0  0  0  0  0  0  0  0  0  0
   11.5824    0.9681   23.6336 C   0  0  0  0  0  0  0  0  0  0  0  0
    5.9810    0.8330   18.8060 C   0  0  0  0  0  0  0  0  0  0  0  0
    9.3300   -1.3350   23.6390 C   0  0  0  0  0  0  0  0  0  0  0  0
    7.2210   -0.4620   20.0350 C   0  0  0  0  0  0  0  0  0  0  0  0
    8.9510    0.1280   21.6880 C   0  0  0  0  0  0  0  0  0  0  0  0
    9.2610   -4.9721   25.8916 C   0  0  0  0  0  0  0  0  0  0  0  0
   10.0855    1.0467   23.7186 C   0  0  0  0  0  0  0  0  0  0  0  0
    8.0810   -0.9750   21.0820 C   0  0  0  0  0  0  0  0  0  0  0  0
    6.9440    0.2550   18.0100 N   0  0  0  0  0  0  0  0  0  0  0  0
    7.6830   -0.5170   18.7600 N   0  0  0  0  0  0  0  0  0  0  0  0
    9.4200   -0.0840   22.9530 N   0  0  0  0  0  0  0  0  0  0  0  0
    9.1870    1.1500   21.0630 O   0  0  0  0  0  0  0  0  0  0  0  0
   14.0626    0.7816   24.2770 S   0  0  0  0  0  0  0  0  0  0  0  0
    3.6362    2.0028   21.6260 H   0  0  0  0  0  0  0  0  0  0  0  0
    3.2801    2.7808   19.3164 H   0  0  0  0  0  0  0  0  0  0  0  0
    5.4892    0.4523   22.2166 H   0  0  0  0  0  0  0  0  0  0  0  0
    7.5665   -2.8638   26.1066 H   0  0  0  0  0  0  0  0  0  0  0  0
   11.0137   -4.2652   23.9447 H   0  0  0  0  0  0  0  0  0  0  0  0
    4.7762    2.0781   17.4596 H   0  0  0  0  0  0  0  0  0  0  0  0
    7.5948   -0.7788   24.7997 H   0  0  0  0  0  0  0  0  0  0  0  0
   11.0411   -2.1856   22.6358 H   0  0  0  0  0  0  0  0  0  0  0  0
   11.8670    1.1061   21.4283 H   0  0  0  0  0  0  0  0  0  0  0  0
   14.4532    0.9276   21.8694 H   0  0  0  0  0  0  0  0  0  0  0  0
   12.1309    0.7854   25.7693 H   0  0  0  0  0  0  0  0  0  0  0  0
    8.6398   -5.7223   25.3871 H   0  0  0  0  0  0  0  0  0  0  0  0
   10.2715   -5.3829   26.0145 H   0  0  0  0  0  0  0  0  0  0  0  0
    8.8596   -4.8092   26.9004 H   0  0  0  0  0  0  0  0  0  0  0  0
    9.7545    0.9926   24.7614 H   0  0  0  0  0  0  0  0  0  0  0  0
    9.7178    1.9937   23.3094 H   0  0  0  0  0  0  0  0  0  0  0  0
    7.4898   -1.4163   21.8975 H   0  0  0  0  0  0  0  0  0  0  0  0
    8.7537   -1.7577   20.7019 H   0  0  0  0  0  0  0  0  0  0  0  0
    8.4371   -1.0264   18.3897 H   0  0  0  0  0  0  0  0  0  0  0  0
  1  2  1  0  0  0  0
  1  3  2  0  0  0  0
  2  6  2  0  0  0  0
  3 12  1  0  0  0  0
  4  7  2  0  0  0  0
  4 13  1  0  0  0  0
  5  8  1  0  0  0  0
  5 13  2  0  0  0  0
  6 15  1  0  0  0  0
  7 16  1  0  0  0  0
  8 16  2  0  0  0  0
  9 10  2  0  0  0  0
  9 14  1  0  0  0  0
 10 26  1  0  0  0  0
 11 14  2  0  0  0  0
 11 26  1  0  0  0  0
 12 15  1  0  0  0  0
 12 17  2  0  0  0  0
 13 19  1  0  0  0  0
 14 20  1  0  0  0  0
 15 22  2  0  0  0  0
 16 24  1  0  0  0  0
 17 21  1  0  0  0  0
 17 23  1  0  0  0  0
 18 21  1  0  0  0  0
 18 24  1  0  0  0  0
 18 25  2  0  0  0  0
 20 24  1  0  0  0  0
 22 23  1  0  0  0  0
  1 27  1  0  0  0  0
  2 28  1  0  0  0  0
  3 29  1  0  0  0  0
  4 30  1  0  0  0  0
  5 31  1  0  0  0  0
  6 32  1  0  0  0  0
  7 33  1  0  0  0  0
  8 34  1  0  0  0  0
  9 35  1  0  0  0  0
 10 36  1  0  0  0  0
 11 37  1  0  0  0  0
 19 38  1  0  0  0  0
 19 39  1  0  0  0  0
 19 40  1  0  0  0  0
 20 41  1  0  0  0  0
 20 42  1  0  0  0  0
 21 43  1  0  0  0  0
 21 44  1  0  0  0  0
 23 45  1  0  0  0  0
M  END
> <clash_score>
0

> <docking_score>
-9.75788688659668

> <overlap_score>
0.943376362323761

$$$$
BENZO_402_1
  -OEChem-08232013513D

 60 64  0     0  0  0  0  0  0999 V2000
    4.2970    1.6690   20.8430 C   0  0  0  0  0  0  0  0  0  0  0  0
    4.0980    2.1130   19.5350 C   0  0  0  0  0  0  0  0  0  0  0  0
   13.5761    2.0159   23.0142 C   0  0  0  0  0  0  0  0  0  0  0  0
    5.3360    0.8000   21.1530 C   0  0  0  0  0  0  0  0  0  0  0  0
   12.1816    1.9962   22.9909 C   0  0  0  0  0  0  0  0  0  0  0  0
    4.9400    1.7060   18.5060 C   0  0  0  0  0  0  0  0  0  0  0  0
    8.3310   -2.7170   25.3430 C   0  0  0  0  0  0  0  0  0  0  0  0
   10.2570   -3.5000   24.1350 C   0  0  0  0  0  0  0  0  0  0  0  0
    8.3510   -1.5420   24.6110 C   0  0  0  0  0  0  0  0  0  0  0  0
   10.2760   -2.3270   23.4020 C   0  0  0  0  0  0  0  0  0  0  0  0
   14.2726    1.1234   23.8291 C   0  0  0  0  0  0  0  0  0  0  0  0
   12.1801    0.1917   24.5974 C   0  0  0  0  0  0  0  0  0  0  0  0
    6.1600    0.3870   20.1140 C   0  0  0  0  0  0  0  0  0  0  0  0
   11.4836    1.0842   23.7825 C   0  0  0  0  0  0  0  0  0  0  0  0
    5.9810    0.8330   18.8060 C   0  0  0  0  0  0  0  0  0  0  0  0
    9.2850   -3.7090   25.1090 C   0  0  0  0  0  0  0  0  0  0  0  0
    9.3300   -1.3350   23.6390 C   0  0  0  0  0  0  0  0  0  0  0  0
   13.5747    0.2114   24.6207 C   0  0  0  0  0  0  0  0  0  0  0  0
    7.2210   -0.4620   20.0350 C   0  0  0  0  0  0  0  0  0  0  0  0
    8.9510    0.1280   21.6880 C   0  0  0  0  0  0  0  0  0  0  0  0
    7.3162   -6.8835   26.5210 C   0  0  0  0  0  0  0  0  0  0  0  0
    7.3507   -5.5245   27.2240 C   0  0  0  0  0  0  0  0  0  0  0  0
    7.9375   -6.8069   25.1245 C   0  0  0  0  0  0  0  0  0  0  0  0
    8.7638   -4.9418   27.2163 C   0  0  0  0  0  0  0  0  0  0  0  0
    9.3378   -6.1874   25.1659 C   0  0  0  0  0  0  0  0  0  0  0  0
    9.9825    1.0644   23.7577 C   0  0  0  0  0  0  0  0  0  0  0  0
    8.0810   -0.9750   21.0820 C   0  0  0  0  0  0  0  0  0  0  0  0
    6.9440    0.2550   18.0100 N   0  0  0  0  0  0  0  0  0  0  0  0
    7.6830   -0.5170   18.7600 N   0  0  0  0  0  0  0  0  0  0  0  0
    9.2639   -4.8860   25.8399 N   0  0  0  0  0  0  0  0  0  0  0  0
    9.4200   -0.0840   22.9530 N   0  0  0  0  0  0  0  0  0  0  0  0
    9.1870    1.1500   21.0630 O   0  0  0  0  0  0  0  0  0  0  0  0
   14.4346   -0.8887   25.6267 Cl  0  0  0  0  0  0  0  0  0  0  0  0
    3.6362    2.0028   21.6260 H   0  0  0  0  0  0  0  0  0  0  0  0
    3.2801    2.7808   19.3164 H   0  0  0  0  0  0  0  0  0  0  0  0
   14.1192    2.7264   22.3978 H   0  0  0  0  0  0  0  0  0  0  0  0
    5.4892    0.4523   22.2166 H   0  0  0  0  0  0  0  0  0  0  0  0
   11.6470    2.6953   22.3530 H   0  0  0  0  0  0  0  0  0  0  0  0
    4.7762    2.0781   17.4596 H   0  0  0  0  0  0  0  0  0  0  0  0
    7.5647   -2.8621   26.1053 H   0  0  0  0  0  0  0  0  0  0  0  0
   11.0144   -4.2642   23.9425 H   0  0  0  0  0  0  0  0  0  0  0  0
    7.5958   -0.7779   24.8006 H   0  0  0  0  0  0  0  0  0  0  0  0
   11.0406   -2.1848   22.6356 H   0  0  0  0  0  0  0  0  0  0  0  0
   15.3595    1.1503   23.8374 H   0  0  0  0  0  0  0  0  0  0  0  0
   11.6313   -0.5178   25.2123 H   0  0  0  0  0  0  0  0  0  0  0  0
    7.8578   -7.6261   27.1266 H   0  0  0  0  0  0  0  0  0  0  0  0
    6.2773   -7.2358   26.4459 H   0  0  0  0  0  0  0  0  0  0  0  0
    6.6663   -4.8351   26.7223 H   0  0  0  0  0  0  0  0  0  0  0  0
    7.0044   -5.6368   28.2534 H   0  0  0  0  0  0  0  0  0  0  0  0
    7.9946   -7.8119   24.6937 H   0  0  0  0  0  0  0  0  0  0  0  0
    7.2929   -6.2123   24.4668 H   0  0  0  0  0  0  0  0  0  0  0  0
    8.7343   -3.9408   27.6542 H   0  0  0  0  0  0  0  0  0  0  0  0
    9.4243   -5.5632   27.8278 H   0  0  0  0  0  0  0  0  0  0  0  0
   10.0200   -6.8490   25.7011 H   0  0  0  0  0  0  0  0  0  0  0  0
    9.6984   -6.0694   24.1436 H   0  0  0  0  0  0  0  0  0  0  0  0
    9.5805    0.9993   24.7746 H   0  0  0  0  0  0  0  0  0  0  0  0
    9.5848    1.9806   23.3087 H   0  0  0  0  0  0  0  0  0  0  0  0
    7.4781   -1.4136   21.8845 H   0  0  0  0  0  0  0  0  0  0  0  0
    8.7420   -1.7550   20.6889 H   0  0  0  0  0  0  0  0  0  0  0  0
    8.4371   -1.0264   18.3897 H   0  0  0  0  0  0  0  0  0  0  0  0
  1  2  1  0  0  0  0
  1  4  2  0  0  0  0
  2  6  2  0  0  0  0
  3  5  2  0  0  0  0
  3 11  1  0  0  0  0
  4 13  1  0  0  0  0
  5 14  1  0  0  0  0
  6 15  1  0  0  0  0
  7  9  2  0  0  0  0
  7 16  1  0  0  0  0
  8 10  1  0  0  0  0
  8 16  2  0  0  0  0
  9 17  1  0  0  0  0
 10 17  2  0  0  0  0
 11 18  2  0  0  0  0
 12 14  2  0  0  0  0
 12 18  1  0  0  0  0
 13 15  1  0  0  0  0
 13 19  2  0  0  0  0
 14 26  1  0  0  0  0
 15 28  2  0  0  0  0
 16 30  1  0  0  0  0
 17 31  1  0  0  0  0
 18 33  1  0  0  0  0
 19 27  1  0  0  0  0
 19 29  1  0  0  0  0
 20 27  1  0  0  0  0
 20 31  1  0  0  0  0
 20 32  2  0  0  0  0
 21 22  1  0  0  0  0
 21 23  1  0  0  0  0
 22 24  1  0  0  0  0
 23 25  1  0  0  0  0
 24 30  1  0  0  0  0
 25 30  1  0  0  0  0
 26 31  1  0  0  0  0
 28 29  1  0  0  0  0
  1 34  1  0  0  0  0
  2 35  1  0  0  0  0
  3 36  1  0  0  0  0
  4 37  1  0  0  0  0
  5 38  1  0  0  0  0
  6 39  1  0  0  0  0
  7 40  1  0  0  0  0
  8 41  1  0  0  0  0
  9 42  1  0  0  0  0
 10 43  1  0  0  0  0
 11 44  1  0  0  0  0
 12 45  1  0  0  0  0
 21 46  1  0  0  0  0
 21 47  1  0  0  0  0
 22 48  1  0  0  0  0
 22 49  1  0  0  0  0
 23 50  1  0  0  0  0
 23 51  1  0  0  0  0
 24 52  1  0  0  0  0
 24 53  1  0  0  0  0
 25 54  1  0  0  0  0
 25 55  1  0  0  0  0
 26 56  1  0  0  0  0
 26 57  1  0  0  0  0
 27 58  1  0  0  0  0
 27 59  1  0  0  0  0
 29 60  1  0  0  0  0
M  END
> <clash_score>
0.6948172307864008

> <docking_score>
-7.550624847412109

> <overlap_score>
1.0086195468902588

$$$$
BENZO_403_1
  -OEChem-08232013513D

 60 64  0     0  0  0  0  0  0999 V2000
    4.2970    1.6690   20.8430 C   0  0  0  0  0  0  0  0  0  0  0  0
    4.0980    2.1130   19.5350 C   0  0  0  0  0  0  0  0  0  0  0  0
    5.3360    0.8000   21.1530 C   0  0  0  0  0  0  0  0  0  0  0  0
    4.9400    1.7060   18.5060 C   0  0  0  0  0  0  0  0  0  0  0  0
    8.3310   -2.7170   25.3430 C   0  0  0  0  0  0  0  0  0  0  0  0
   10.2570   -3.5000   24.1350 C   0  0  0  0  0  0  0  0  0  0  0  0
    8.3510   -1.5420   24.6110 C   0  0  0  0  0  0  0  0  0  0  0  0
   10.2760   -2.3270   23.4020 C   0  0  0  0  0  0  0  0  0  0  0  0
   12.3238    1.8341   24.6271 C   0  0  0  0  0  0  0  0  0  0  0  0
   12.3457    0.3708   22.9860 C   0  0  0  0  0  0  0  0  0  0  0  0
    6.1600    0.3870   20.1140 C   0  0  0  0  0  0  0  0  0  0  0  0
   11.4836    1.0842   23.7825 C   0  0  0  0  0  0  0  0  0  0  0  0
    5.9810    0.8330   18.8060 C   0  0  0  0  0  0  0  0  0  0  0  0
    9.2850   -3.7090   25.1090 C   0  0  0  0  0  0  0  0  0  0  0  0
    9.3300   -1.3350   23.6390 C   0  0  0  0  0  0  0  0  0  0  0  0
    7.2210   -0.4620   20.0350 C   0  0  0  0  0  0  0  0  0  0  0  0
    8.9510    0.1280   21.6880 C   0  0  0  0  0  0  0  0  0  0  0  0
    7.3162   -6.8835   26.5210 C   0  0  0  0  0  0  0  0  0  0  0  0
    7.3507   -5.5245   27.2240 C   0  0  0  0  0  0  0  0  0  0  0  0
    7.9375   -6.8069   25.1245 C   0  0  0  0  0  0  0  0  0  0  0  0
    8.7638   -4.9418   27.2163 C   0  0  0  0  0  0  0  0  0  0  0  0
    9.3378   -6.1874   25.1659 C   0  0  0  0  0  0  0  0  0  0  0  0
   14.8433    0.2314   22.8407 C   0  0  0  0  0  0  0  0  0  0  0  0
    9.9825    1.0644   23.7577 C   0  0  0  0  0  0  0  0  0  0  0  0
    8.0810   -0.9750   21.0820 C   0  0  0  0  0  0  0  0  0  0  0  0
   13.6202    1.6173   24.3895 N   0  0  0  0  0  0  0  0  0  0  0  0
    6.9440    0.2550   18.0100 N   0  0  0  0  0  0  0  0  0  0  0  0
    7.6830   -0.5170   18.7600 N   0  0  0  0  0  0  0  0  0  0  0  0
   13.6010    0.7229   23.3866 N   0  0  0  0  0  0  0  0  0  0  0  0
    9.2639   -4.8860   25.8399 N   0  0  0  0  0  0  0  0  0  0  0  0
    9.4200   -0.0840   22.9530 N   0  0  0  0  0  0  0  0  0  0  0  0
    9.1870    1.1500   21.0630 O   0  0  0  0  0  0  0  0  0  0  0  0
    3.6362    2.0028   21.6260 H   0  0  0  0  0  0  0  0  0  0  0  0
    3.2801    2.7808   19.3164 H   0  0  0  0  0  0  0  0  0  0  0  0
    5.4892    0.4523   22.2166 H   0  0  0  0  0  0  0  0  0  0  0  0
    4.7762    2.0781   17.4596 H   0  0  0  0  0  0  0  0  0  0  0  0
    7.5647   -2.8621   26.1053 H   0  0  0  0  0  0  0  0  0  0  0  0
   11.0144   -4.2642   23.9425 H   0  0  0  0  0  0  0  0  0  0  0  0
    7.5958   -0.7779   24.8006 H   0  0  0  0  0  0  0  0  0  0  0  0
   11.0406   -2.1848   22.6356 H   0  0  0  0  0  0  0  0  0  0  0  0
   12.0479    2.5296   25.4071 H   0  0  0  0  0  0  0  0  0  0  0  0
   12.1771   -0.3406   22.1889 H   0  0  0  0  0  0  0  0  0  0  0  0
    7.8578   -7.6261   27.1266 H   0  0  0  0  0  0  0  0  0  0  0  0
    6.2773   -7.2358   26.4459 H   0  0  0  0  0  0  0  0  0  0  0  0
    6.6663   -4.8351   26.7223 H   0  0  0  0  0  0  0  0  0  0  0  0
    7.0044   -5.6368   28.2534 H   0  0  0  0  0  0  0  0  0  0  0  0
    7.9946   -7.8119   24.6937 H   0  0  0  0  0  0  0  0  0  0  0  0
    7.2929   -6.2123   24.4668 H   0  0  0  0  0  0  0  0  0  0  0  0
    8.7343   -3.9408   27.6542 H   0  0  0  0  0  0  0  0  0  0  0  0
    9.4243   -5.5632   27.8278 H   0  0  0  0  0  0  0  0  0  0  0  0
   10.0200   -6.8490   25.7011 H   0  0  0  0  0  0  0  0  0  0  0  0
    9.6984   -6.0694   24.1436 H   0  0  0  0  0  0  0  0  0  0  0  0
   15.1368    0.8927   22.0212 H   0  0  0  0  0  0  0  0  0  0  0  0
   15.6084    0.2282   23.6221 H   0  0  0  0  0  0  0  0  0  0  0  0
   14.6992   -0.7897   22.4766 H   0  0  0  0  0  0  0  0  0  0  0  0
    9.5805    0.9993   24.7746 H   0  0  0  0  0  0  0  0  0  0  0  0
    9.5848    1.9806   23.3087 H   0  0  0  0  0  0  0  0  0  0  0  0
    7.4781   -1.4136   21.8845 H   0  0  0  0  0  0  0  0  0  0  0  0
    8.7420   -1.7550   20.6889 H   0  0  0  0  0  0  0  0  0  0  0  0
    8.4371   -1.0264   18.3897 H   0  0  0  0  0  0  0  0  0  0  0  0
  1  2  1  0  0  0  0
  1  3  2  0  0  0  0
  2  4  2  0  0  0  0
  3 11  1  0  0  0  0
  4 13  1  0  0  0  0
  5  7  2  0  0  0  0
  5 14  1  0  0  0  0
  6  8  1  0  0  0  0
  6 14  2  0  0  0  0
  7 15  1  0  0  0  0
  8 15  2  0  0  0  0
  9 12  1  0  0  0  0
  9 26  2  0  0  0  0
 10 12  2  0  0  0  0
 10 29  1  0  0  0  0
 11 13  1  0  0  0  0
 11 16  2  0  0  0  0
 12 24  1  0  0  0  0
 13 27  2  0  0  0  0
 14 30  1  0  0  0  0
 15 31  1  0  0  0  0
 16 25  1  0  0  0  0
 16 28  1  0  0  0  0
 17 25  1  0  0  0  0
 17 31  1  0  0  0  0
 17 32  2  0  0  0  0
 18 19  1  0  0  0  0
 18 20  1  0  0  0  0
 19 21  1  0  0  0  0
 20 22  1  0  0  0  0
 21 30  1  0  0  0  0
 22 30  1  0  0  0  0
 23 29  1  0  0  0  0
 24 31  1  0  0  0  0
 26 29  1  0  0  0  0
 27 28  1  0  0  0  0
  1 33  1  0  0  0  0
  2 34  1  0  0  0  0
  3 35  1  0  0  0  0
  4 36  1  0  0  0  0
  5 37  1  0  0  0  0
  6 38  1  0  0  0  0
  7 39  1  0  0  0  0
  8 40  1  0  0  0  0
  9 41  1  0  0  0  0
 10 42  1  0  0  0  0
 18 43  1  0  0  0  0
 18 44  1  0  0  0  0
 19 45  1  0  0  0  0
 19 46  1  0  0  0  0
 20 47  1  0  0  0  0
 20 48  1  0  0  0  0
 21 49  1  0  0  0  0
 21 50  1  0  0  0  0
 22 51  1  0  0  0  0
 22 52  1  0  0  0  0
 23 53  1  0  0  0  0
 23 54  1  0  0  0  0
 23 55  1  0  0  0  0
 24 56  1  0  0  0  0
 24 57  1  0  0  0  0
 25 58  1  0  0  0  0
 25 59  1  0  0  0  0
 28 60  1  0  0  0  0
M  END
> <clash_score>
0

> <docking_score>
-8.479815483093262

> <overlap_score>
0.9949105978012085

$$$$
BENZO_407_1
  -OEChem-08232013513D

 48 51  0     0  0  0  0  0  0999 V2000
    4.2970    1.6690   20.8430 C   0  0  0  0  0  0  0  0  0  0  0  0
    4.0980    2.1130   19.5350 C   0  0  0  0  0  0  0  0  0  0  0  0
    5.3360    0.8000   21.1530 C   0  0  0  0  0  0  0  0  0  0  0  0
    8.3310   -2.7170   25.3430 C   0  0  0  0  0  0  0  0  0  0  0  0
   10.2570   -3.5000   24.1350 C   0  0  0  0  0  0  0  0  0  0  0  0
    4.9400    1.7060   18.5060 C   0  0  0  0  0  0  0  0  0  0  0  0
    8.3510   -1.5420   24.6110 C   0  0  0  0  0  0  0  0  0  0  0  0
   10.2760   -2.3270   23.4020 C   0  0  0  0  0  0  0  0  0  0  0  0
   12.4464    1.7627   22.8566 C   0  0  0  0  0  0  0  0  0  0  0  0
   12.4167    0.1045   24.3004 C   0  0  0  0  0  0  0  0  0  0  0  0
    6.1600    0.3870   20.1140 C   0  0  0  0  0  0  0  0  0  0  0  0
    9.2850   -3.7090   25.1090 C   0  0  0  0  0  0  0  0  0  0  0  0
   11.5824    0.9681   23.6336 C   0  0  0  0  0  0  0  0  0  0  0  0
    5.9810    0.8330   18.8060 C   0  0  0  0  0  0  0  0  0  0  0  0
    9.3300   -1.3350   23.6390 C   0  0  0  0  0  0  0  0  0  0  0  0
    7.2210   -0.4620   20.0350 C   0  0  0  0  0  0  0  0  0  0  0  0
    8.9510    0.1280   21.6880 C   0  0  0  0  0  0  0  0  0  0  0  0
    9.2610   -4.9721   25.8916 C   0  0  0  0  0  0  0  0  0  0  0  0
   14.9019   -0.2146   24.3293 C   0  0  0  0  0  0  0  0  0  0  0  0
   10.0855    1.0467   23.7186 C   0  0  0  0  0  0  0  0  0  0  0  0
    8.0810   -0.9750   21.0820 C   0  0  0  0  0  0  0  0  0  0  0  0
   13.7312    1.4333   23.0143 N   0  0  0  0  0  0  0  0  0  0  0  0
    6.9440    0.2550   18.0100 N   0  0  0  0  0  0  0  0  0  0  0  0
    7.6830   -0.5170   18.7600 N   0  0  0  0  0  0  0  0  0  0  0  0
   13.6806    0.4222   23.8981 N   0  0  0  0  0  0  0  0  0  0  0  0
    9.4200   -0.0840   22.9530 N   0  0  0  0  0  0  0  0  0  0  0  0
    9.1870    1.1500   21.0630 O   0  0  0  0  0  0  0  0  0  0  0  0
    3.6362    2.0028   21.6260 H   0  0  0  0  0  0  0  0  0  0  0  0
    3.2801    2.7808   19.3164 H   0  0  0  0  0  0  0  0  0  0  0  0
    5.4892    0.4523   22.2166 H   0  0  0  0  0  0  0  0  0  0  0  0
    7.5665   -2.8638   26.1066 H   0  0  0  0  0  0  0  0  0  0  0  0
   11.0137   -4.2652   23.9447 H   0  0  0  0  0  0  0  0  0  0  0  0
    4.7762    2.0781   17.4596 H   0  0  0  0  0  0  0  0  0  0  0  0
    7.5948   -0.7788   24.7997 H   0  0  0  0  0  0  0  0  0  0  0  0
   11.0411   -2.1856   22.6358 H   0  0  0  0  0  0  0  0  0  0  0  0
   12.1959    2.5692   22.1820 H   0  0  0  0  0  0  0  0  0  0  0  0
   12.2237   -0.6885   25.0102 H   0  0  0  0  0  0  0  0  0  0  0  0
    8.6398   -5.7223   25.3871 H   0  0  0  0  0  0  0  0  0  0  0  0
   10.2715   -5.3829   26.0145 H   0  0  0  0  0  0  0  0  0  0  0  0
    8.8596   -4.8092   26.9004 H   0  0  0  0  0  0  0  0  0  0  0  0
   15.1091   -1.0434   23.6473 H   0  0  0  0  0  0  0  0  0  0  0  0
   15.7189    0.5120   24.3073 H   0  0  0  0  0  0  0  0  0  0  0  0
   14.7766   -0.5816   25.3518 H   0  0  0  0  0  0  0  0  0  0  0  0
    9.7545    0.9926   24.7614 H   0  0  0  0  0  0  0  0  0  0  0  0
    9.7178    1.9937   23.3094 H   0  0  0  0  0  0  0  0  0  0  0  0
    7.4898   -1.4163   21.8975 H   0  0  0  0  0  0  0  0  0  0  0  0
    8.7537   -1.7577   20.7019 H   0  0  0  0  0  0  0  0  0  0  0  0
    8.4371   -1.0264   18.3897 H   0  0  0  0  0  0  0  0  0  0  0  0
  1  2  1  0  0  0  0
  1  3  2  0  0  0  0
  2  6  2  0  0  0  0
  3 11  1  0  0  0  0
  4  7  2  0  0  0  0
  4 12  1  0  0  0  0
  5  8  1  0  0  0  0
  5 12  2  0  0  0  0
  6 14  1  0  0  0  0
  7 15  1  0  0  0  0
  8 15  2  0  0  0  0
  9 13  1  0  0  0  0
  9 22  2  0  0  0  0
 10 13  2  0  0  0  0
 10 25  1  0  0  0  0
 11 14  1  0  0  0  0
 11 16  2  0  0  0  0
 12 18  1  0  0  0  0
 13 20  1  0  0  0  0
 14 23  2  0  0  0  0
 15 26  1  0  0  0  0
 16 21  1  0  0  0  0
 16 24  1  0  0  0  0
 17 21  1  0  0  0  0
 17 26  1  0  0  0  0
 17 27  2  0  0  0  0
 19 25  1  0  0  0  0
 20 26  1  0  0  0  0
 22 25  1  0  0  0  0
 23 24  1  0  0  0  0
  1 28  1  0  0  0  0
  2 29  1  0  0  0  0
  3 30  1  0  0  0  0
  4 31  1  0  0  0  0
  5 32  1  0  0  0  0
  6 33  1  0  0  0  0
  7 34  1  0  0  0  0
  8 35  1  0  0  0  0
  9 36  1  0  0  0  0
 10 37  1  0  0  0  0
 18 38  1  0  0  0  0
 18 39  1  0  0  0  0
 18 40  1  0  0  0  0
 19 41  1  0  0  0  0
 19 42  1  0  0  0  0
 19 43  1  0  0  0  0
 20 44  1  0  0  0  0
 20 45  1  0  0  0  0
 21 46  1  0  0  0  0
 21 47  1  0  0  0  0
 24 48  1  0  0  0  0
M  END
> <clash_score>
0

> <docking_score>
-9.162895202636719

> <overlap_score>
0.9692832827568054

$$$$
BENZO_406_1
  -OEChem-08232013513D

 48 51  0     0  0  0  0  0  0999 V2000
    4.2970    1.6690   20.8430 C   0  0  0  0  0  0  0  0  0  0  0  0
    4.0980    2.1130   19.5350 C   0  0  0  0  0  0  0  0  0  0  0  0
   13.6709    1.7728   22.7242 C   0  0  0  0  0  0  0  0  0  0  0  0
    5.3360    0.8000   21.1530 C   0  0  0  0  0  0  0  0  0  0  0  0
   12.2802    1.8446   22.8027 C   0  0  0  0  0  0  0  0  0  0  0  0
    8.3310   -2.7170   25.3430 C   0  0  0  0  0  0  0  0  0  0  0  0
   10.2570   -3.5000   24.1350 C   0  0  0  0  0  0  0  0  0  0  0  0
    4.9400    1.7060   18.5060 C   0  0  0  0  0  0  0  0  0  0  0  0
    8.3510   -1.5420   24.6110 C   0  0  0  0  0  0  0  0  0  0  0  0
   10.2760   -2.3270   23.4020 C   0  0  0  0  0  0  0  0  0  0  0  0
   14.3640    0.8245   23.4766 C   0  0  0  0  0  0  0  0  0  0  0  0
   12.2754    0.0198   24.3861 C   0  0  0  0  0  0  0  0  0  0  0  0
    6.1600    0.3870   20.1140 C   0  0  0  0  0  0  0  0  0  0  0  0
    9.2850   -3.7090   25.1090 C   0  0  0  0  0  0  0  0  0  0  0  0
   11.5824    0.9681   23.6336 C   0  0  0  0  0  0  0  0  0  0  0  0
    5.9810    0.8330   18.8060 C   0  0  0  0  0  0  0  0  0  0  0  0
    9.3300   -1.3350   23.6390 C   0  0  0  0  0  0  0  0  0  0  0  0
   13.6662   -0.0520   24.3076 C   0  0  0  0  0  0  0  0  0  0  0  0
    7.2210   -0.4620   20.0350 C   0  0  0  0  0  0  0  0  0  0  0  0
    8.9510    0.1280   21.6880 C   0  0  0  0  0  0  0  0  0  0  0  0
    9.2610   -4.9721   25.8916 C   0  0  0  0  0  0  0  0  0  0  0  0
   10.0855    1.0467   23.7186 C   0  0  0  0  0  0  0  0  0  0  0  0
    8.0810   -0.9750   21.0820 C   0  0  0  0  0  0  0  0  0  0  0  0
    6.9440    0.2550   18.0100 N   0  0  0  0  0  0  0  0  0  0  0  0
    7.6830   -0.5170   18.7600 N   0  0  0  0  0  0  0  0  0  0  0  0
    9.4200   -0.0840   22.9530 N   0  0  0  0  0  0  0  0  0  0  0  0
    9.1870    1.1500   21.0630 O   0  0  0  0  0  0  0  0  0  0  0  0
   14.5219   -1.2210   25.2365 Cl  0  0  0  0  0  0  0  0  0  0  0  0
    3.6362    2.0028   21.6260 H   0  0  0  0  0  0  0  0  0  0  0  0
    3.2801    2.7808   19.3164 H   0  0  0  0  0  0  0  0  0  0  0  0
   14.2139    2.4556   22.0771 H   0  0  0  0  0  0  0  0  0  0  0  0
    5.4892    0.4523   22.2166 H   0  0  0  0  0  0  0  0  0  0  0  0
   11.7484    2.5867   22.2129 H   0  0  0  0  0  0  0  0  0  0  0  0
    7.5665   -2.8638   26.1066 H   0  0  0  0  0  0  0  0  0  0  0  0
   11.0137   -4.2652   23.9447 H   0  0  0  0  0  0  0  0  0  0  0  0
    4.7762    2.0781   17.4596 H   0  0  0  0  0  0  0  0  0  0  0  0
    7.5948   -0.7788   24.7997 H   0  0  0  0  0  0  0  0  0  0  0  0
   11.0411   -2.1856   22.6358 H   0  0  0  0  0  0  0  0  0  0  0  0
   15.4480    0.7802   23.4056 H   0  0  0  0  0  0  0  0  0  0  0  0
   11.7267   -0.6617   25.0321 H   0  0  0  0  0  0  0  0  0  0  0  0
    8.6398   -5.7223   25.3871 H   0  0  0  0  0  0  0  0  0  0  0  0
   10.2715   -5.3829   26.0145 H   0  0  0  0  0  0  0  0  0  0  0  0
    8.8596   -4.8092   26.9004 H   0  0  0  0  0  0  0  0  0  0  0  0
    9.7545    0.9926   24.7614 H   0  0  0  0  0  0  0  0  0  0  0  0
    9.7178    1.9937   23.3094 H   0  0  0  0  0  0  0  0  0  0  0  0
    7.4898   -1.4163   21.8975 H   0  0  0  0  0  0  0  0  0  0  0  0
    8.7537   -1.7577   20.7019 H   0  0  0  0  0  0  0  0  0  0  0  0
    8.4371   -1.0264   18.3897 H   0  0  0  0  0  0  0  0  0  0  0  0
  1  2  1  0  0  0  0
  1  4  2  0  0  0  0
  2  8  2  0  0  0  0
  3  5  2  0  0  0  0
  3 11  1  0  0  0  0
  4 13  1  0  0  0  0
  5 15  1  0  0  0  0
  6  9  2  0  0  0  0
  6 14  1  0  0  0  0
  7 10  1  0  0  0  0
  7 14  2  0  0  0  0
  8 16  1  0  0  0  0
  9 17  1  0  0  0  0
 10 17  2  0  0  0  0
 11 18  2  0  0  0  0
 12 15  2  0  0  0  0
 12 18  1  0  0  0  0
 13 16  1  0  0  0  0
 13 19  2  0  0  0  0
 14 21  1  0  0  0  0
 15 22  1  0  0  0  0
 16 24  2  0  0  0  0
 17 26  1  0  0  0  0
 18 28  1  0  0  0  0
 19 23  1  0  0  0  0
 19 25  1  0  0  0  0
 20 23  1  0  0  0  0
 20 26  1  0  0  0  0
 20 27  2  0  0  0  0
 22 26  1  0  0  0  0
 24 25  1  0  0  0  0
  1 29  1  0  0  0  0
  2 30  1  0  0  0  0
  3 31  1  0  0  0  0
  4 32  1  0  0  0  0
  5 33  1  0  0  0  0
  6 34  1  0  0  0  0
  7 35  1  0  0  0  0
  8 36  1  0  0  0  0
  9 37  1  0  0  0  0
 10 38  1  0  0  0  0
 11 39  1  0  0  0  0
 12 40  1  0  0  0  0
 21 41  1  0  0  0  0
 21 42  1  0  0  0  0
 21 43  1  0  0  0  0
 22 44  1  0  0  0  0
 22 45  1  0  0  0  0
 23 46  1  0  0  0  0
 23 47  1  0  0  0  0
 25 48  1  0  0  0  0
M  END
> <clash_score>
0.8117304001676134

> <docking_score>
-8.603885650634766

> <overlap_score>
0.9735320806503296

$$$$
BENZO_408_1
  -OEChem-08232013513D

 46 49  0     0  0  0  0  0  0999 V2000
    4.2970    1.6690   20.8430 C   0  0  0  0  0  0  0  0  0  0  0  0
    4.0980    2.1130   19.5350 C   0  0  0  0  0  0  0  0  0  0  0  0
    5.3360    0.8000   21.1530 C   0  0  0  0  0  0  0  0  0  0  0  0
    4.9400    1.7060   18.5060 C   0  0  0  0  0  0  0  0  0  0  0  0
    8.3510   -1.5420   24.6110 C   0  0  0  0  0  0  0  0  0  0  0  0
   10.2760   -2.3270   23.4020 C   0  0  0  0  0  0  0  0  0  0  0  0
    8.3310   -2.7170   25.3430 C   0  0  0  0  0  0  0  0  0  0  0  0
   10.2570   -3.5000   24.1350 C   0  0  0  0  0  0  0  0  0  0  0  0
   12.3122    1.0123   22.4107 C   0  0  0  0  0  0  0  0  0  0  0  0
   13.6713    0.9205   22.6157 C   0  0  0  0  0  0  0  0  0  0  0  0
   12.4116    0.8440   24.7268 C   0  0  0  0  0  0  0  0  0  0  0  0
    6.1600    0.3870   20.1140 C   0  0  0  0  0  0  0  0  0  0  0  0
   11.5824    0.9681   23.6336 C   0  0  0  0  0  0  0  0  0  0  0  0
    5.9810    0.8330   18.8060 C   0  0  0  0  0  0  0  0  0  0  0  0
    9.3300   -1.3350   23.6390 C   0  0  0  0  0  0  0  0  0  0  0  0
    9.2850   -3.7090   25.1090 C   0  0  0  0  0  0  0  0  0  0  0  0
    7.2210   -0.4620   20.0350 C   0  0  0  0  0  0  0  0  0  0  0  0
    8.9510    0.1280   21.6880 C   0  0  0  0  0  0  0  0  0  0  0  0
    8.2350   -4.9987   26.8026 C   0  0  0  0  0  0  0  0  0  0  0  0
   10.0855    1.0467   23.7186 C   0  0  0  0  0  0  0  0  0  0  0  0
    8.0810   -0.9750   21.0820 C   0  0  0  0  0  0  0  0  0  0  0  0
    6.9440    0.2550   18.0100 N   0  0  0  0  0  0  0  0  0  0  0  0
    7.6830   -0.5170   18.7600 N   0  0  0  0  0  0  0  0  0  0  0  0
    9.4200   -0.0840   22.9530 N   0  0  0  0  0  0  0  0  0  0  0  0
    9.1870    1.1500   21.0630 O   0  0  0  0  0  0  0  0  0  0  0  0
    9.2631   -4.8614   25.8229 O   0  0  0  0  0  0  0  0  0  0  0  0
   14.0626    0.7816   24.2770 S   0  0  0  0  0  0  0  0  0  0  0  0
    3.6362    2.0028   21.6260 H   0  0  0  0  0  0  0  0  0  0  0  0
    3.2801    2.7808   19.3164 H   0  0  0  0  0  0  0  0  0  0  0  0
    5.4892    0.4523   22.2166 H   0  0  0  0  0  0  0  0  0  0  0  0
    4.7762    2.0781   17.4596 H   0  0  0  0  0  0  0  0  0  0  0  0
    7.5951   -0.7786   24.8000 H   0  0  0  0  0  0  0  0  0  0  0  0
   11.0406   -2.1866   22.6351 H   0  0  0  0  0  0  0  0  0  0  0  0
    7.5664   -2.8674   26.1055 H   0  0  0  0  0  0  0  0  0  0  0  0
   11.0119   -4.2671   23.9461 H   0  0  0  0  0  0  0  0  0  0  0  0
   11.8670    1.1061   21.4283 H   0  0  0  0  0  0  0  0  0  0  0  0
   14.4532    0.9276   21.8694 H   0  0  0  0  0  0  0  0  0  0  0  0
   12.1309    0.7854   25.7693 H   0  0  0  0  0  0  0  0  0  0  0  0
    8.3317   -5.9668   27.3002 H   0  0  0  0  0  0  0  0  0  0  0  0
    7.2576   -4.9213   26.3197 H   0  0  0  0  0  0  0  0  0  0  0  0
    8.3386   -4.2001   27.5410 H   0  0  0  0  0  0  0  0  0  0  0  0
    9.7545    0.9926   24.7614 H   0  0  0  0  0  0  0  0  0  0  0  0
    9.7178    1.9937   23.3094 H   0  0  0  0  0  0  0  0  0  0  0  0
    7.4898   -1.4163   21.8975 H   0  0  0  0  0  0  0  0  0  0  0  0
    8.7537   -1.7577   20.7019 H   0  0  0  0  0  0  0  0  0  0  0  0
    8.4371   -1.0264   18.3897 H   0  0  0  0  0  0  0  0  0  0  0  0
  1  2  1  0  0  0  0
  1  3  2  0  0  0  0
  2  4  2  0  0  0  0
  3 12  1  0  0  0  0
  4 14  1  0  0  0  0
  5  7  2  0  0  0  0
  5 15  1  0  0  0  0
  6  8  1  0  0  0  0
  6 15  2  0  0  0  0
  7 16  1  0  0  0  0
  8 16  2  0  0  0  0
  9 10  2  0  0  0  0
  9 13  1  0  0  0  0
 10 27  1  0  0  0  0
 11 13  2  0  0  0  0
 11 27  1  0  0  0  0
 12 14  1  0  0  0  0
 12 17  2  0  0  0  0
 13 20  1  0  0  0  0
 14 22  2  0  0  0  0
 15 24  1  0  0  0  0
 16 26  1  0  0  0  0
 17 21  1  0  0  0  0
 17 23  1  0  0  0  0
 18 21  1  0  0  0  0
 18 24  1  0  0  0  0
 18 25  2  0  0  0  0
 19 26  1  0  0  0  0
 20 24  1  0  0  0  0
 22 23  1  0  0  0  0
  1 28  1  0  0  0  0
  2 29  1  0  0  0  0
  3 30  1  0  0  0  0
  4 31  1  0  0  0  0
  5 32  1  0  0  0  0
  6 33  1  0  0  0  0
  7 34  1  0  0  0  0
  8 35  1  0  0  0  0
  9 36  1  0  0  0  0
 10 37  1  0  0  0  0
 11 38  1  0  0  0  0
 19 39  1  0  0  0  0
 19 40  1  0  0  0  0
 19 41  1  0  0  0  0
 20 42  1  0  0  0  0
 20 43  1  0  0  0  0
 21 44  1  0  0  0  0
 21 45  1  0  0  0  0
 23 46  1  0  0  0  0
M  END
> <clash_score>
0

> <docking_score>
-9.467191696166992

> <overlap_score>
0.9673736095428467

$$$$
BENZO_409_1
  -OEChem-08232013513D

 49 52  0     0  0  0  0  0  0999 V2000
   14.3638    0.8223   23.4745 C   0  0  0  0  0  0  0  0  0  0  0  0
    4.2970    1.6690   20.8430 C   0  0  0  0  0  0  0  0  0  0  0  0
   13.6894    0.1733   24.5087 C   0  0  0  0  0  0  0  0  0  0  0  0
   13.6474    1.5443   22.5198 C   0  0  0  0  0  0  0  0  0  0  0  0
    4.0980    2.1130   19.5350 C   0  0  0  0  0  0  0  0  0  0  0  0
    5.3360    0.8000   21.1530 C   0  0  0  0  0  0  0  0  0  0  0  0
   12.2987    0.2462   24.5883 C   0  0  0  0  0  0  0  0  0  0  0  0
   12.2567    1.6172   22.5994 C   0  0  0  0  0  0  0  0  0  0  0  0
    4.9400    1.7060   18.5060 C   0  0  0  0  0  0  0  0  0  0  0  0
    8.3510   -1.5420   24.6110 C   0  0  0  0  0  0  0  0  0  0  0  0
   10.2760   -2.3270   23.4020 C   0  0  0  0  0  0  0  0  0  0  0  0
    8.3310   -2.7170   25.3430 C   0  0  0  0  0  0  0  0  0  0  0  0
   10.2570   -3.5000   24.1350 C   0  0  0  0  0  0  0  0  0  0  0  0
    6.1600    0.3870   20.1140 C   0  0  0  0  0  0  0  0  0  0  0  0
   11.5824    0.9681   23.6336 C   0  0  0  0  0  0  0  0  0  0  0  0
    5.9810    0.8330   18.8060 C   0  0  0  0  0  0  0  0  0  0  0  0
    9.3300   -1.3350   23.6390 C   0  0  0  0  0  0  0  0  0  0  0  0
    9.2850   -3.7090   25.1090 C   0  0  0  0  0  0  0  0  0  0  0  0
    7.2210   -0.4620   20.0350 C   0  0  0  0  0  0  0  0  0  0  0  0
    8.9510    0.1280   21.6880 C   0  0  0  0  0  0  0  0  0  0  0  0
    8.2350   -4.9987   26.8026 C   0  0  0  0  0  0  0  0  0  0  0  0
   10.0855    1.0467   23.7186 C   0  0  0  0  0  0  0  0  0  0  0  0
    8.0810   -0.9750   21.0820 C   0  0  0  0  0  0  0  0  0  0  0  0
    6.9440    0.2550   18.0100 N   0  0  0  0  0  0  0  0  0  0  0  0
    7.6830   -0.5170   18.7600 N   0  0  0  0  0  0  0  0  0  0  0  0
    9.4200   -0.0840   22.9530 N   0  0  0  0  0  0  0  0  0  0  0  0
    9.1870    1.1500   21.0630 O   0  0  0  0  0  0  0  0  0  0  0  0
    9.2631   -4.8614   25.8229 O   0  0  0  0  0  0  0  0  0  0  0  0
   15.4467    0.7666   23.4135 H   0  0  0  0  0  0  0  0  0  0  0  0
    3.6362    2.0028   21.6260 H   0  0  0  0  0  0  0  0  0  0  0  0
   14.2471   -0.3880   25.2528 H   0  0  0  0  0  0  0  0  0  0  0  0
   14.1722    2.0506   21.7151 H   0  0  0  0  0  0  0  0  0  0  0  0
    3.2801    2.7808   19.3164 H   0  0  0  0  0  0  0  0  0  0  0  0
    5.4892    0.4523   22.2166 H   0  0  0  0  0  0  0  0  0  0  0  0
   11.7817   -0.2629   25.3975 H   0  0  0  0  0  0  0  0  0  0  0  0
   11.7069    2.1818   21.8511 H   0  0  0  0  0  0  0  0  0  0  0  0
    4.7762    2.0781   17.4596 H   0  0  0  0  0  0  0  0  0  0  0  0
    7.5951   -0.7786   24.8000 H   0  0  0  0  0  0  0  0  0  0  0  0
   11.0406   -2.1866   22.6351 H   0  0  0  0  0  0  0  0  0  0  0  0
    7.5664   -2.8674   26.1055 H   0  0  0  0  0  0  0  0  0  0  0  0
   11.0119   -4.2671   23.9461 H   0  0  0  0  0  0  0  0  0  0  0  0
    8.3317   -5.9668   27.3002 H   0  0  0  0  0  0  0  0  0  0  0  0
    7.2576   -4.9213   26.3197 H   0  0  0  0  0  0  0  0  0  0  0  0
    8.3386   -4.2001   27.5410 H   0  0  0  0  0  0  0  0  0  0  0  0
    9.7545    0.9926   24.7614 H   0  0  0  0  0  0  0  0  0  0  0  0
    9.7178    1.9937   23.3094 H   0  0  0  0  0  0  0  0  0  0  0  0
    7.4898   -1.4163   21.8975 H   0  0  0  0  0  0  0  0  0  0  0  0
    8.7537   -1.7577   20.7019 H   0  0  0  0  0  0  0  0  0  0  0  0
    8.4371   -1.0264   18.3897 H   0  0  0  0  0  0  0  0  0  0  0  0
  1  3  1  0  0  0  0
  1  4  2  0  0  0  0
  2  5  1  0  0  0  0
  2  6  2  0  0  0  0
  3  7  2  0  0  0  0
  4  8  1  0  0  0  0
  5  9  2  0  0  0  0
  6 14  1  0  0  0  0
  7 15  1  0  0  0  0
  8 15  2  0  0  0  0
  9 16  1  0  0  0  0
 10 12  2  0  0  0  0
 10 17  1  0  0  0  0
 11 13  1  0  0  0  0
 11 17  2  0  0  0  0
 12 18  1  0  0  0  0
 13 18  2  0  0  0  0
 14 16  1  0  0  0  0
 14 19  2  0  0  0  0
 15 22  1  0  0  0  0
 16 24  2  0  0  0  0
 17 26  1  0  0  0  0
 18 28  1  0  0  0  0
 19 23  1  0  0  0  0
 19 25  1  0  0  0  0
 20 23  1  0  0  0  0
 20 26  1  0  0  0  0
 20 27  2  0  0  0  0
 21 28  1  0  0  0  0
 22 26  1  0  0  0  0
 24 25  1  0  0  0  0
  1 29  1  0  0  0  0
  2 30  1  0  0  0  0
  3 31  1  0  0  0  0
  4 32  1  0  0  0  0
  5 33  1  0  0  0  0
  6 34  1  0  0  0  0
  7 35  1  0  0  0  0
  8 36  1  0  0  0  0
  9 37  1  0  0  0  0
 10 38  1  0  0  0  0
 11 39  1  0  0  0  0
 12 40  1  0  0  0  0
 13 41  1  0  0  0  0
 21 42  1  0  0  0  0
 21 43  1  0  0  0  0
 21 44  1  0  0  0  0
 22 45  1  0  0  0  0
 22 46  1  0  0  0  0
 23 47  1  0  0  0  0
 23 48  1  0  0  0  0
 25 49  1  0  0  0  0
M  END
> <clash_score>
0

> <docking_score>
-9.139141082763672

> <overlap_score>
0.9927905201911926

$$$$
BENZO_411_1
  -OEChem-08232013513D

 49 52  0     0  0  0  0  0  0999 V2000
    4.2970    1.6690   20.8430 C   0  0  0  0  0  0  0  0  0  0  0  0
    4.0980    2.1130   19.5350 C   0  0  0  0  0  0  0  0  0  0  0  0
    5.3360    0.8000   21.1530 C   0  0  0  0  0  0  0  0  0  0  0  0
    4.9400    1.7060   18.5060 C   0  0  0  0  0  0  0  0  0  0  0  0
    8.3510   -1.5420   24.6110 C   0  0  0  0  0  0  0  0  0  0  0  0
   10.2760   -2.3270   23.4020 C   0  0  0  0  0  0  0  0  0  0  0  0
    8.3310   -2.7170   25.3430 C   0  0  0  0  0  0  0  0  0  0  0  0
   10.2570   -3.5000   24.1350 C   0  0  0  0  0  0  0  0  0  0  0  0
   12.5293    1.6487   24.4223 C   0  0  0  0  0  0  0  0  0  0  0  0
   12.3355    0.2122   22.7689 C   0  0  0  0  0  0  0  0  0  0  0  0
    6.1600    0.3870   20.1140 C   0  0  0  0  0  0  0  0  0  0  0  0
   11.5824    0.9681   23.6336 C   0  0  0  0  0  0  0  0  0  0  0  0
    5.9810    0.8330   18.8060 C   0  0  0  0  0  0  0  0  0  0  0  0
    9.3300   -1.3350   23.6390 C   0  0  0  0  0  0  0  0  0  0  0  0
    9.2850   -3.7090   25.1090 C   0  0  0  0  0  0  0  0  0  0  0  0
    7.2210   -0.4620   20.0350 C   0  0  0  0  0  0  0  0  0  0  0  0
    8.9510    0.1280   21.6880 C   0  0  0  0  0  0  0  0  0  0  0  0
   14.8014   -0.0878   22.4399 C   0  0  0  0  0  0  0  0  0  0  0  0
    8.2350   -4.9987   26.8026 C   0  0  0  0  0  0  0  0  0  0  0  0
   10.0855    1.0467   23.7186 C   0  0  0  0  0  0  0  0  0  0  0  0
    8.0810   -0.9750   21.0820 C   0  0  0  0  0  0  0  0  0  0  0  0
   13.7878    1.3513   24.0883 N   0  0  0  0  0  0  0  0  0  0  0  0
    6.9440    0.2550   18.0100 N   0  0  0  0  0  0  0  0  0  0  0  0
    7.6830   -0.5170   18.7600 N   0  0  0  0  0  0  0  0  0  0  0  0
   13.6370    0.4755   23.0802 N   0  0  0  0  0  0  0  0  0  0  0  0
    9.4200   -0.0840   22.9530 N   0  0  0  0  0  0  0  0  0  0  0  0
    9.1870    1.1500   21.0630 O   0  0  0  0  0  0  0  0  0  0  0  0
    9.2631   -4.8614   25.8229 O   0  0  0  0  0  0  0  0  0  0  0  0
    3.6362    2.0028   21.6260 H   0  0  0  0  0  0  0  0  0  0  0  0
    3.2801    2.7808   19.3164 H   0  0  0  0  0  0  0  0  0  0  0  0
    5.4892    0.4523   22.2166 H   0  0  0  0  0  0  0  0  0  0  0  0
    4.7762    2.0781   17.4596 H   0  0  0  0  0  0  0  0  0  0  0  0
    7.5951   -0.7786   24.8000 H   0  0  0  0  0  0  0  0  0  0  0  0
   11.0406   -2.1866   22.6351 H   0  0  0  0  0  0  0  0  0  0  0  0
    7.5664   -2.8674   26.1055 H   0  0  0  0  0  0  0  0  0  0  0  0
   11.0119   -4.2671   23.9461 H   0  0  0  0  0  0  0  0  0  0  0  0
   12.3571    2.3487   25.2276 H   0  0  0  0  0  0  0  0  0  0  0  0
   12.0630   -0.4746   21.9789 H   0  0  0  0  0  0  0  0  0  0  0  0
   15.0779    0.5654   21.6080 H   0  0  0  0  0  0  0  0  0  0  0  0
   15.6190   -0.1528   23.1631 H   0  0  0  0  0  0  0  0  0  0  0  0
   14.5640   -1.0916   22.0766 H   0  0  0  0  0  0  0  0  0  0  0  0
    8.3317   -5.9668   27.3002 H   0  0  0  0  0  0  0  0  0  0  0  0
    7.2576   -4.9213   26.3197 H   0  0  0  0  0  0  0  0  0  0  0  0
    8.3386   -4.2001   27.5410 H   0  0  0  0  0  0  0  0  0  0  0  0
    9.7545    0.9926   24.7614 H   0  0  0  0  0  0  0  0  0  0  0  0
    9.7178    1.9937   23.3094 H   0  0  0  0  0  0  0  0  0  0  0  0
    7.4898   -1.4163   21.8975 H   0  0  0  0  0  0  0  0  0  0  0  0
    8.7537   -1.7577   20.7019 H   0  0  0  0  0  0  0  0  0  0  0  0
    8.4371   -1.0264   18.3897 H   0  0  0  0  0  0  0  0  0  0  0  0
  1  2  1  0  0  0  0
  1  3  2  0  0  0  0
  2  4  2  0  0  0  0
  3 11  1  0  0  0  0
  4 13  1  0  0  0  0
  5  7  2  0  0  0  0
  5 14  1  0  0  0  0
  6  8  1  0  0  0  0
  6 14  2  0  0  0  0
  7 15  1  0  0  0  0
  8 15  2  0  0  0  0
  9 12  1  0  0  0  0
  9 22  2  0  0  0  0
 10 12  2  0  0  0  0
 10 25  1  0  0  0  0
 11 13  1  0  0  0  0
 11 16  2  0  0  0  0
 12 20  1  0  0  0  0
 13 23  2  0  0  0  0
 14 26  1  0  0  0  0
 15 28  1  0  0  0  0
 16 21  1  0  0  0  0
 16 24  1  0  0  0  0
 17 21  1  0  0  0  0
 17 26  1  0  0  0  0
 17 27  2  0  0  0  0
 18 25  1  0  0  0  0
 19 28  1  0  0  0  0
 20 26  1  0  0  0  0
 22 25  1  0  0  0  0
 23 24  1  0  0  0  0
  1 29  1  0  0  0  0
  2 30  1  0  0  0  0
  3 31  1  0  0  0  0
  4 32  1  0  0  0  0
  5 33  1  0  0  0  0
  6 34  1  0  0  0  0
  7 35  1  0  0  0  0
  8 36  1  0  0  0  0
  9 37  1  0  0  0  0
 10 38  1  0  0  0  0
 18 39  1  0  0  0  0
 18 40  1  0  0  0  0
 18 41  1  0  0  0  0
 19 42  1  0  0  0  0
 19 43  1  0  0  0  0
 19 44  1  0  0  0  0
 20 45  1  0  0  0  0
 20 46  1  0  0  0  0
 21 47  1  0  0  0  0
 21 48  1  0  0  0  0
 24 49  1  0  0  0  0
M  END
> <clash_score>
0

> <docking_score>
-9.300058364868164

> <overlap_score>
0.9769278168678284

$$$$
BENZO_410_1
  -OEChem-08232013513D

 49 52  0     0  0  0  0  0  0999 V2000
    4.2970    1.6690   20.8430 C   0  0  0  0  0  0  0  0  0  0  0  0
    4.0980    2.1130   19.5350 C   0  0  0  0  0  0  0  0  0  0  0  0
   13.7609    1.6472   24.4271 C   0  0  0  0  0  0  0  0  0  0  0  0
    5.3360    0.8000   21.1530 C   0  0  0  0  0  0  0  0  0  0  0  0
   12.3702    1.7206   24.5047 C   0  0  0  0  0  0  0  0  0  0  0  0
    4.9400    1.7060   18.5060 C   0  0  0  0  0  0  0  0  0  0  0  0
    8.3510   -1.5420   24.6110 C   0  0  0  0  0  0  0  0  0  0  0  0
   10.2760   -2.3270   23.4020 C   0  0  0  0  0  0  0  0  0  0  0  0
    8.3310   -2.7170   25.3430 C   0  0  0  0  0  0  0  0  0  0  0  0
   10.2570   -3.5000   24.1350 C   0  0  0  0  0  0  0  0  0  0  0  0
   14.3639    0.8213   23.4784 C   0  0  0  0  0  0  0  0  0  0  0  0
   12.1853    0.1421   22.6850 C   0  0  0  0  0  0  0  0  0  0  0  0
    6.1600    0.3870   20.1140 C   0  0  0  0  0  0  0  0  0  0  0  0
   11.5824    0.9681   23.6336 C   0  0  0  0  0  0  0  0  0  0  0  0
    5.9810    0.8330   18.8060 C   0  0  0  0  0  0  0  0  0  0  0  0
    9.3300   -1.3350   23.6390 C   0  0  0  0  0  0  0  0  0  0  0  0
    9.2850   -3.7090   25.1090 C   0  0  0  0  0  0  0  0  0  0  0  0
   13.5761    0.0687   22.6074 C   0  0  0  0  0  0  0  0  0  0  0  0
    7.2210   -0.4620   20.0350 C   0  0  0  0  0  0  0  0  0  0  0  0
    8.9510    0.1280   21.6880 C   0  0  0  0  0  0  0  0  0  0  0  0
    8.2350   -4.9987   26.8026 C   0  0  0  0  0  0  0  0  0  0  0  0
   10.0855    1.0467   23.7186 C   0  0  0  0  0  0  0  0  0  0  0  0
    8.0810   -0.9750   21.0820 C   0  0  0  0  0  0  0  0  0  0  0  0
    6.9440    0.2550   18.0100 N   0  0  0  0  0  0  0  0  0  0  0  0
    7.6830   -0.5170   18.7600 N   0  0  0  0  0  0  0  0  0  0  0  0
    9.4200   -0.0840   22.9530 N   0  0  0  0  0  0  0  0  0  0  0  0
    9.1870    1.1500   21.0630 O   0  0  0  0  0  0  0  0  0  0  0  0
    9.2631   -4.8614   25.8229 O   0  0  0  0  0  0  0  0  0  0  0  0
   14.3206   -0.9510   21.4379 Cl  0  0  0  0  0  0  0  0  0  0  0  0
    3.6362    2.0028   21.6260 H   0  0  0  0  0  0  0  0  0  0  0  0
    3.2801    2.7808   19.3164 H   0  0  0  0  0  0  0  0  0  0  0  0
   14.3740    2.2332   25.1056 H   0  0  0  0  0  0  0  0  0  0  0  0
    5.4892    0.4523   22.2166 H   0  0  0  0  0  0  0  0  0  0  0  0
   11.9089    2.3668   25.2470 H   0  0  0  0  0  0  0  0  0  0  0  0
    4.7762    2.0781   17.4596 H   0  0  0  0  0  0  0  0  0  0  0  0
    7.5951   -0.7786   24.8000 H   0  0  0  0  0  0  0  0  0  0  0  0
   11.0406   -2.1866   22.6351 H   0  0  0  0  0  0  0  0  0  0  0  0
    7.5664   -2.8674   26.1055 H   0  0  0  0  0  0  0  0  0  0  0  0
   11.0119   -4.2671   23.9461 H   0  0  0  0  0  0  0  0  0  0  0  0
   15.4490    0.7737   23.4296 H   0  0  0  0  0  0  0  0  0  0  0  0
   11.5667   -0.4423   22.0078 H   0  0  0  0  0  0  0  0  0  0  0  0
    8.3317   -5.9668   27.3002 H   0  0  0  0  0  0  0  0  0  0  0  0
    7.2576   -4.9213   26.3197 H   0  0  0  0  0  0  0  0  0  0  0  0
    8.3386   -4.2001   27.5410 H   0  0  0  0  0  0  0  0  0  0  0  0
    9.7545    0.9926   24.7614 H   0  0  0  0  0  0  0  0  0  0  0  0
    9.7178    1.9937   23.3094 H   0  0  0  0  0  0  0  0  0  0  0  0
    7.4898   -1.4163   21.8975 H   0  0  0  0  0  0  0  0  0  0  0  0
    8.7537   -1.7577   20.7019 H   0  0  0  0  0  0  0  0  0  0  0  0
    8.4371   -1.0264   18.3897 H   0  0  0  0  0  0  0  0  0  0  0  0
  1  2  1  0  0  0  0
  1  4  2  0  0  0  0
  2  6  2  0  0  0  0
  3  5  2  0  0  0  0
  3 11  1  0  0  0  0
  4 13  1  0  0  0  0
  5 14  1  0  0  0  0
  6 15  1  0  0  0  0
  7  9  2  0  0  0  0
  7 16  1  0  0  0  0
  8 10  1  0  0  0  0
  8 16  2  0  0  0  0
  9 17  1  0  0  0  0
 10 17  2  0  0  0  0
 11 18  2  0  0  0  0
 12 14  2  0  0  0  0
 12 18  1  0  0  0  0
 13 15  1  0  0  0  0
 13 19  2  0  0  0  0
 14 22  1  0  0  0  0
 15 24  2  0  0  0  0
 16 26  1  0  0  0  0
 17 28  1  0  0  0  0
 18 29  1  0  0  0  0
 19 23  1  0  0  0  0
 19 25  1  0  0  0  0
 20 23  1  0  0  0  0
 20 26  1  0  0  0  0
 20 27  2  0  0  0  0
 21 28  1  0  0  0  0
 22 26  1  0  0  0  0
 24 25  1  0  0  0  0
  1 30  1  0  0  0  0
  2 31  1  0  0  0  0
  3 32  1  0  0  0  0
  4 33  1  0  0  0  0
  5 34  1  0  0  0  0
  6 35  1  0  0  0  0
  7 36  1  0  0  0  0
  8 37  1  0  0  0  0
  9 38  1  0  0  0  0
 10 39  1  0  0  0  0
 11 40  1  0  0  0  0
 12 41  1  0  0  0  0
 21 42  1  0  0  0  0
 21 43  1  0  0  0  0
 21 44  1  0  0  0  0
 22 45  1  0  0  0  0
 22 46  1  0  0  0  0
 23 47  1  0  0  0  0
 23 48  1  0  0  0  0
 25 49  1  0  0  0  0
M  END
> <clash_score>
0

> <docking_score>
-8.403881072998047

> <overlap_score>
0.9718526601791382

$$$$
BENZO_413_1
  -OEChem-08232013513D

 59 63  0     0  0  0  0  0  0999 V2000
   14.2722    1.1317   23.8497 C   0  0  0  0  0  0  0  0  0  0  0  0
    4.2970    1.6690   20.8430 C   0  0  0  0  0  0  0  0  0  0  0  0
   13.5648    0.4311   24.8266 C   0  0  0  0  0  0  0  0  0  0  0  0
   13.5852    1.8105   22.8432 C   0  0  0  0  0  0  0  0  0  0  0  0
    4.0980    2.1130   19.5350 C   0  0  0  0  0  0  0  0  0  0  0  0
    5.3360    0.8000   21.1530 C   0  0  0  0  0  0  0  0  0  0  0  0
   12.1704    0.4091   24.7969 C   0  0  0  0  0  0  0  0  0  0  0  0
   12.1908    1.7885   22.8136 C   0  0  0  0  0  0  0  0  0  0  0  0
    4.9400    1.7060   18.5060 C   0  0  0  0  0  0  0  0  0  0  0  0
    8.3310   -2.7170   25.3430 C   0  0  0  0  0  0  0  0  0  0  0  0
   10.2570   -3.5000   24.1350 C   0  0  0  0  0  0  0  0  0  0  0  0
    8.3510   -1.5420   24.6110 C   0  0  0  0  0  0  0  0  0  0  0  0
   10.2760   -2.3270   23.4020 C   0  0  0  0  0  0  0  0  0  0  0  0
    6.1600    0.3870   20.1140 C   0  0  0  0  0  0  0  0  0  0  0  0
   11.4834    1.0878   23.7904 C   0  0  0  0  0  0  0  0  0  0  0  0
    5.9810    0.8330   18.8060 C   0  0  0  0  0  0  0  0  0  0  0  0
    9.2850   -3.7090   25.1090 C   0  0  0  0  0  0  0  0  0  0  0  0
    9.3300   -1.3350   23.6390 C   0  0  0  0  0  0  0  0  0  0  0  0
    7.2210   -0.4620   20.0350 C   0  0  0  0  0  0  0  0  0  0  0  0
    8.0635   -5.4710   26.3667 C   0  0  0  0  0  0  0  0  0  0  0  0
    8.9510    0.1280   21.6880 C   0  0  0  0  0  0  0  0  0  0  0  0
    8.2626   -6.7580   27.1475 C   0  0  0  0  0  0  0  0  0  0  0  0
    9.4048   -6.6156   28.1380 C   0  0  0  0  0  0  0  0  0  0  0  0
   10.6949   -6.1500   27.4702 C   0  0  0  0  0  0  0  0  0  0  0  0
   10.4942   -5.7069   26.0219 C   0  0  0  0  0  0  0  0  0  0  0  0
    9.9825    1.0644   23.7577 C   0  0  0  0  0  0  0  0  0  0  0  0
    8.0810   -0.9750   21.0820 C   0  0  0  0  0  0  0  0  0  0  0  0
    6.9440    0.2550   18.0100 N   0  0  0  0  0  0  0  0  0  0  0  0
    7.6830   -0.5170   18.7600 N   0  0  0  0  0  0  0  0  0  0  0  0
    9.2623   -4.9266   25.8635 N   0  0  0  0  0  0  0  0  0  0  0  0
    9.4200   -0.0840   22.9530 N   0  0  0  0  0  0  0  0  0  0  0  0
    6.9244   -5.0476   26.1739 O   0  0  0  0  0  0  0  0  0  0  0  0
    9.1870    1.1500   21.0630 O   0  0  0  0  0  0  0  0  0  0  0  0
   15.3578    1.1499   23.8738 H   0  0  0  0  0  0  0  0  0  0  0  0
    3.6362    2.0028   21.6259 H   0  0  0  0  0  0  0  0  0  0  0  0
   14.0995   -0.0966   25.6110 H   0  0  0  0  0  0  0  0  0  0  0  0
   14.1356    2.3571   22.0832 H   0  0  0  0  0  0  0  0  0  0  0  0
    3.2801    2.7808   19.3164 H   0  0  0  0  0  0  0  0  0  0  0  0
    5.4892    0.4523   22.2166 H   0  0  0  0  0  0  0  0  0  0  0  0
   11.6275   -0.1397   25.5620 H   0  0  0  0  0  0  0  0  0  0  0  0
   11.6640    2.3202   22.0255 H   0  0  0  0  0  0  0  0  0  0  0  0
    4.7762    2.0781   17.4596 H   0  0  0  0  0  0  0  0  0  0  0  0
    7.5639   -2.8621   26.1045 H   0  0  0  0  0  0  0  0  0  0  0  0
   11.0141   -4.2644   23.9422 H   0  0  0  0  0  0  0  0  0  0  0  0
    7.5950   -0.7788   24.8007 H   0  0  0  0  0  0  0  0  0  0  0  0
   11.0408   -2.1861   22.6359 H   0  0  0  0  0  0  0  0  0  0  0  0
    7.3516   -6.9810   27.6812 H   0  0  0  0  0  0  0  0  0  0  0  0
    8.4757   -7.5428   26.4371 H   0  0  0  0  0  0  0  0  0  0  0  0
    9.1234   -5.9016   28.9400 H   0  0  0  0  0  0  0  0  0  0  0  0
    9.5778   -7.5840   28.6491 H   0  0  0  0  0  0  0  0  0  0  0  0
   11.1305   -5.3108   28.0523 H   0  0  0  0  0  0  0  0  0  0  0  0
   11.4565   -6.9587   27.5131 H   0  0  0  0  0  0  0  0  0  0  0  0
   11.3212   -5.0729   25.7168 H   0  0  0  0  0  0  0  0  0  0  0  0
   10.4483   -6.5796   25.3796 H   0  0  0  0  0  0  0  0  0  0  0  0
    9.5754    0.9911   24.7721 H   0  0  0  0  0  0  0  0  0  0  0  0
    9.5848    1.9827   23.3131 H   0  0  0  0  0  0  0  0  0  0  0  0
    7.4781   -1.4136   21.8845 H   0  0  0  0  0  0  0  0  0  0  0  0
    8.7420   -1.7550   20.6889 H   0  0  0  0  0  0  0  0  0  0  0  0
    8.4371   -1.0264   18.3897 H   0  0  0  0  0  0  0  0  0  0  0  0
  1  3  1  0  0  0  0
  1  4  2  0  0  0  0
  2  5  1  0  0  0  0
  2  6  2  0  0  0  0
  3  7  2  0  0  0  0
  4  8  1  0  0  0  0
  5  9  2  0  0  0  0
  6 14  1  0  0  0  0
  7 15  1  0  0  0  0
  8 15  2  0  0  0  0
  9 16  1  0  0  0  0
 10 12  2  0  0  0  0
 10 17  1  0  0  0  0
 11 13  1  0  0  0  0
 11 17  2  0  0  0  0
 12 18  1  0  0  0  0
 13 18  2  0  0  0  0
 14 16  1  0  0  0  0
 14 19  2  0  0  0  0
 15 26  1  0  0  0  0
 16 28  2  0  0  0  0
 17 30  1  0  0  0  0
 18 31  1  0  0  0  0
 19 27  1  0  0  0  0
 19 29  1  0  0  0  0
 20 22  1  0  0  0  0
 20 30  1  0  0  0  0
 20 32  2  0  0  0  0
 21 27  1  0  0  0  0
 21 31  1  0  0  0  0
 21 33  2  0  0  0  0
 22 23  1  0  0  0  0
 23 24  1  0  0  0  0
 24 25  1  0  0  0  0
 25 30  1  0  0  0  0
 26 31  1  0  0  0  0
 28 29  1  0  0  0  0
  1 34  1  0  0  0  0
  2 35  1  0  0  0  0
  3 36  1  0  0  0  0
  4 37  1  0  0  0  0
  5 38  1  0  0  0  0
  6 39  1  0  0  0  0
  7 40  1  0  0  0  0
  8 41  1  0  0  0  0
  9 42  1  0  0  0  0
 10 43  1  0  0  0  0
 11 44  1  0  0  0  0
 12 45  1  0  0  0  0
 13 46  1  0  0  0  0
 22 47  1  0  0  0  0
 22 48  1  0  0  0  0
 23 49  1  0  0  0  0
 23 50  1  0  0  0  0
 24 51  1  0  0  0  0
 24 52  1  0  0  0  0
 25 53  1  0  0  0  0
 25 54  1  0  0  0  0
 26 55  1  0  0  0  0
 26 56  1  0  0  0  0
 27 57  1  0  0  0  0
 27 58  1  0  0  0  0
 29 59  1  0  0  0  0
M  END
> <clash_score>
1.272782601224562

> <docking_score>
-7.840164661407471

> <overlap_score>
1.0070691108703613

$$$$
BENZO_412_1
  -OEChem-08232013513D

 56 60  0     0  0  0  0  0  0999 V2000
    4.2970    1.6690   20.8430 C   0  0  0  0  0  0  0  0  0  0  0  0
    4.0980    2.1130   19.5350 C   0  0  0  0  0  0  0  0  0  0  0  0
    5.3360    0.8000   21.1530 C   0  0  0  0  0  0  0  0  0  0  0  0
    4.9400    1.7060   18.5060 C   0  0  0  0  0  0  0  0  0  0  0  0
    8.3310   -2.7170   25.3430 C   0  0  0  0  0  0  0  0  0  0  0  0
   10.2570   -3.5000   24.1350 C   0  0  0  0  0  0  0  0  0  0  0  0
    8.3510   -1.5420   24.6110 C   0  0  0  0  0  0  0  0  0  0  0  0
   10.2760   -2.3270   23.4020 C   0  0  0  0  0  0  0  0  0  0  0  0
   12.3021    1.1778   22.6278 C   0  0  0  0  0  0  0  0  0  0  0  0
   13.6441    1.1796   22.9388 C   0  0  0  0  0  0  0  0  0  0  0  0
   12.2309    1.0241   24.9459 C   0  0  0  0  0  0  0  0  0  0  0  0
    6.1600    0.3870   20.1140 C   0  0  0  0  0  0  0  0  0  0  0  0
   11.4834    1.0878   23.7904 C   0  0  0  0  0  0  0  0  0  0  0  0
    5.9810    0.8330   18.8060 C   0  0  0  0  0  0  0  0  0  0  0  0
    9.2850   -3.7090   25.1090 C   0  0  0  0  0  0  0  0  0  0  0  0
    9.3300   -1.3350   23.6390 C   0  0  0  0  0  0  0  0  0  0  0  0
    7.2210   -0.4620   20.0350 C   0  0  0  0  0  0  0  0  0  0  0  0
    8.0635   -5.4710   26.3667 C   0  0  0  0  0  0  0  0  0  0  0  0
    8.9510    0.1280   21.6880 C   0  0  0  0  0  0  0  0  0  0  0  0
    8.2626   -6.7580   27.1475 C   0  0  0  0  0  0  0  0  0  0  0  0
    9.4048   -6.6156   28.1380 C   0  0  0  0  0  0  0  0  0  0  0  0
   10.6949   -6.1500   27.4702 C   0  0  0  0  0  0  0  0  0  0  0  0
   10.4942   -5.7069   26.0219 C   0  0  0  0  0  0  0  0  0  0  0  0
    9.9825    1.0644   23.7577 C   0  0  0  0  0  0  0  0  0  0  0  0
    8.0810   -0.9750   21.0820 C   0  0  0  0  0  0  0  0  0  0  0  0
    6.9440    0.2550   18.0100 N   0  0  0  0  0  0  0  0  0  0  0  0
    7.6830   -0.5170   18.7600 N   0  0  0  0  0  0  0  0  0  0  0  0
    9.2623   -4.9266   25.8635 N   0  0  0  0  0  0  0  0  0  0  0  0
    9.4200   -0.0840   22.9530 N   0  0  0  0  0  0  0  0  0  0  0  0
    6.9244   -5.0476   26.1739 O   0  0  0  0  0  0  0  0  0  0  0  0
    9.1870    1.1500   21.0630 O   0  0  0  0  0  0  0  0  0  0  0  0
   13.9126    1.0731   24.6267 S   0  0  0  0  0  0  0  0  0  0  0  0
    3.6362    2.0028   21.6259 H   0  0  0  0  0  0  0  0  0  0  0  0
    3.2801    2.7808   19.3164 H   0  0  0  0  0  0  0  0  0  0  0  0
    5.4892    0.4523   22.2166 H   0  0  0  0  0  0  0  0  0  0  0  0
    4.7762    2.0781   17.4596 H   0  0  0  0  0  0  0  0  0  0  0  0
    7.5639   -2.8621   26.1045 H   0  0  0  0  0  0  0  0  0  0  0  0
   11.0141   -4.2644   23.9422 H   0  0  0  0  0  0  0  0  0  0  0  0
    7.5950   -0.7788   24.8007 H   0  0  0  0  0  0  0  0  0  0  0  0
   11.0408   -2.1861   22.6359 H   0  0  0  0  0  0  0  0  0  0  0  0
   11.9298    1.2378   21.6128 H   0  0  0  0  0  0  0  0  0  0  0  0
   14.4797    1.2377   22.2557 H   0  0  0  0  0  0  0  0  0  0  0  0
   11.8741    0.9499   25.9638 H   0  0  0  0  0  0  0  0  0  0  0  0
    7.3516   -6.9810   27.6812 H   0  0  0  0  0  0  0  0  0  0  0  0
    8.4757   -7.5428   26.4371 H   0  0  0  0  0  0  0  0  0  0  0  0
    9.1234   -5.9016   28.9400 H   0  0  0  0  0  0  0  0  0  0  0  0
    9.5778   -7.5840   28.6491 H   0  0  0  0  0  0  0  0  0  0  0  0
   11.1305   -5.3108   28.0523 H   0  0  0  0  0  0  0  0  0  0  0  0
   11.4565   -6.9587   27.5131 H   0  0  0  0  0  0  0  0  0  0  0  0
   11.3212   -5.0729   25.7168 H   0  0  0  0  0  0  0  0  0  0  0  0
   10.4483   -6.5796   25.3796 H   0  0  0  0  0  0  0  0  0  0  0  0
    9.5754    0.9911   24.7721 H   0  0  0  0  0  0  0  0  0  0  0  0
    9.5848    1.9827   23.3131 H   0  0  0  0  0  0  0  0  0  0  0  0
    7.4781   -1.4136   21.8845 H   0  0  0  0  0  0  0  0  0  0  0  0
    8.7420   -1.7550   20.6889 H   0  0  0  0  0  0  0  0  0  0  0  0
    8.4371   -1.0264   18.3897 H   0  0  0  0  0  0  0  0  0  0  0  0
  1  2  1  0  0  0  0
  1  3  2  0  0  0  0
  2  4  2  0  0  0  0
  3 12  1  0  0  0  0
  4 14  1  0  0  0  0
  5  7  2  0  0  0  0
  5 15  1  0  0  0  0
  6  8  1  0  0  0  0
  6 15  2  0  0  0  0
  7 16  1  0  0  0  0
  8 16  2  0  0  0  0
  9 10  2  0  0  0  0
  9 13  1  0  0  0  0
 10 32  1  0  0  0  0
 11 13  2  0  0  0  0
 11 32  1  0  0  0  0
 12 14  1  0  0  0  0
 12 17  2  0  0  0  0
 13 24  1  0  0  0  0
 14 26  2  0  0  0  0
 15 28  1  0  0  0  0
 16 29  1  0  0  0  0
 17 25  1  0  0  0  0
 17 27  1  0  0  0  0
 18 20  1  0  0  0  0
 18 28  1  0  0  0  0
 18 30  2  0  0  0  0
 19 25  1  0  0  0  0
 19 29  1  0  0  0  0
 19 31  2  0  0  0  0
 20 21  1  0  0  0  0
 21 22  1  0  0  0  0
 22 23  1  0  0  0  0
 23 28  1  0  0  0  0
 24 29  1  0  0  0  0
 26 27  1  0  0  0  0
  1 33  1  0  0  0  0
  2 34  1  0  0  0  0
  3 35  1  0  0  0  0
  4 36  1  0  0  0  0
  5 37  1  0  0  0  0
  6 38  1  0  0  0  0
  7 39  1  0  0  0  0
  8 40  1  0  0  0  0
  9 41  1  0  0  0  0
 10 42  1  0  0  0  0
 11 43  1  0  0  0  0
 20 44  1  0  0  0  0
 20 45  1  0  0  0  0
 21 46  1  0  0  0  0
 21 47  1  0  0  0  0
 22 48  1  0  0  0  0
 22 49  1  0  0  0  0
 23 50  1  0  0  0  0
 23 51  1  0  0  0  0
 24 52  1  0  0  0  0
 24 53  1  0  0  0  0
 25 54  1  0  0  0  0
 25 55  1  0  0  0  0
 27 56  1  0  0  0  0
M  END
> <clash_score>
1.272782601224562

> <docking_score>
-8.204181671142578

> <overlap_score>
0.9861369132995605

$$$$
BENZO_417_1
  -OEChem-08232013513D

 58 62  0     0  0  0  0  0  0999 V2000
   14.2721    1.1321   23.8535 C   0  0  0  0  0  0  0  0  0  0  0  0
    4.2970    1.6690   20.8430 C   0  0  0  0  0  0  0  0  0  0  0  0
   13.5639    0.4317   24.8299 C   0  0  0  0  0  0  0  0  0  0  0  0
   13.5859    1.8106   22.8462 C   0  0  0  0  0  0  0  0  0  0  0  0
    4.0980    2.1130   19.5350 C   0  0  0  0  0  0  0  0  0  0  0  0
    5.3360    0.8000   21.1530 C   0  0  0  0  0  0  0  0  0  0  0  0
   12.1695    0.4095   24.7990 C   0  0  0  0  0  0  0  0  0  0  0  0
   12.1916    1.7885   22.8153 C   0  0  0  0  0  0  0  0  0  0  0  0
    4.9400    1.7060   18.5060 C   0  0  0  0  0  0  0  0  0  0  0  0
    8.3310   -2.7170   25.3430 C   0  0  0  0  0  0  0  0  0  0  0  0
   10.2570   -3.5000   24.1350 C   0  0  0  0  0  0  0  0  0  0  0  0
    8.3510   -1.5420   24.6110 C   0  0  0  0  0  0  0  0  0  0  0  0
   10.2760   -2.3270   23.4020 C   0  0  0  0  0  0  0  0  0  0  0  0
    6.1600    0.3870   20.1140 C   0  0  0  0  0  0  0  0  0  0  0  0
   11.4834    1.0880   23.7917 C   0  0  0  0  0  0  0  0  0  0  0  0
    5.9810    0.8330   18.8060 C   0  0  0  0  0  0  0  0  0  0  0  0
    9.2850   -3.7090   25.1090 C   0  0  0  0  0  0  0  0  0  0  0  0
    9.3300   -1.3350   23.6390 C   0  0  0  0  0  0  0  0  0  0  0  0
    7.2210   -0.4620   20.0350 C   0  0  0  0  0  0  0  0  0  0  0  0
    8.9510    0.1280   21.6880 C   0  0  0  0  0  0  0  0  0  0  0  0
    8.7666   -4.9523   27.2147 C   0  0  0  0  0  0  0  0  0  0  0  0
    9.3034   -6.1866   25.1651 C   0  0  0  0  0  0  0  0  0  0  0  0
    7.3827   -5.5925   27.1999 C   0  0  0  0  0  0  0  0  0  0  0  0
    7.9024   -6.7967   25.2263 C   0  0  0  0  0  0  0  0  0  0  0  0
    9.9825    1.0644   23.7577 C   0  0  0  0  0  0  0  0  0  0  0  0
    8.0810   -0.9750   21.0820 C   0  0  0  0  0  0  0  0  0  0  0  0
    6.9440    0.2550   18.0100 N   0  0  0  0  0  0  0  0  0  0  0  0
    7.6830   -0.5170   18.7600 N   0  0  0  0  0  0  0  0  0  0  0  0
    9.2640   -4.8844   25.8389 N   0  0  0  0  0  0  0  0  0  0  0  0
    9.4200   -0.0840   22.9530 N   0  0  0  0  0  0  0  0  0  0  0  0
    9.1870    1.1500   21.0630 O   0  0  0  0  0  0  0  0  0  0  0  0
    7.4483   -6.8833   26.5817 O   0  0  0  0  0  0  0  0  0  0  0  0
   15.3577    1.1504   23.8785 H   0  0  0  0  0  0  0  0  0  0  0  0
    3.6362    2.0028   21.6260 H   0  0  0  0  0  0  0  0  0  0  0  0
   14.0979   -0.0958   25.6150 H   0  0  0  0  0  0  0  0  0  0  0  0
   14.1370    2.3569   22.0865 H   0  0  0  0  0  0  0  0  0  0  0  0
    3.2801    2.7808   19.3164 H   0  0  0  0  0  0  0  0  0  0  0  0
    5.4892    0.4523   22.2166 H   0  0  0  0  0  0  0  0  0  0  0  0
   11.6260   -0.1390   25.5638 H   0  0  0  0  0  0  0  0  0  0  0  0
   11.6655    2.3198   22.0267 H   0  0  0  0  0  0  0  0  0  0  0  0
    4.7762    2.0781   17.4596 H   0  0  0  0  0  0  0  0  0  0  0  0
    7.5647   -2.8621   26.1053 H   0  0  0  0  0  0  0  0  0  0  0  0
   11.0144   -4.2642   23.9425 H   0  0  0  0  0  0  0  0  0  0  0  0
    7.5958   -0.7779   24.8006 H   0  0  0  0  0  0  0  0  0  0  0  0
   11.0406   -2.1848   22.6356 H   0  0  0  0  0  0  0  0  0  0  0  0
    8.7030   -3.9561   27.6574 H   0  0  0  0  0  0  0  0  0  0  0  0
    9.4460   -5.5639   27.8143 H   0  0  0  0  0  0  0  0  0  0  0  0
   10.0083   -6.8392   25.6817 H   0  0  0  0  0  0  0  0  0  0  0  0
    9.6089   -6.0802   24.1251 H   0  0  0  0  0  0  0  0  0  0  0  0
    7.0281   -5.7334   28.2231 H   0  0  0  0  0  0  0  0  0  0  0  0
    6.6541   -4.9678   26.6754 H   0  0  0  0  0  0  0  0  0  0  0  0
    7.1860   -6.2177   24.6318 H   0  0  0  0  0  0  0  0  0  0  0  0
    7.9246   -7.8119   24.8187 H   0  0  0  0  0  0  0  0  0  0  0  0
    9.5745    0.9898   24.7716 H   0  0  0  0  0  0  0  0  0  0  0  0
    9.5850    1.9832   23.3140 H   0  0  0  0  0  0  0  0  0  0  0  0
    7.4781   -1.4136   21.8845 H   0  0  0  0  0  0  0  0  0  0  0  0
    8.7420   -1.7550   20.6889 H   0  0  0  0  0  0  0  0  0  0  0  0
    8.4371   -1.0264   18.3897 H   0  0  0  0  0  0  0  0  0  0  0  0
  1  3  1  0  0  0  0
  1  4  2  0  0  0  0
  2  5  1  0  0  0  0
  2  6  2  0  0  0  0
  3  7  2  0  0  0  0
  4  8  1  0  0  0  0
  5  9  2  0  0  0  0
  6 14  1  0  0  0  0
  7 15  1  0  0  0  0
  8 15  2  0  0  0  0
  9 16  1  0  0  0  0
 10 12  2  0  0  0  0
 10 17  1  0  0  0  0
 11 13  1  0  0  0  0
 11 17  2  0  0  0  0
 12 18  1  0  0  0  0
 13 18  2  0  0  0  0
 14 16  1  0  0  0  0
 14 19  2  0  0  0  0
 15 25  1  0  0  0  0
 16 27  2  0  0  0  0
 17 29  1  0  0  0  0
 18 30  1  0  0  0  0
 19 26  1  0  0  0  0
 19 28  1  0  0  0  0
 20 26  1  0  0  0  0
 20 30  1  0  0  0  0
 20 31  2  0  0  0  0
 21 23  1  0  0  0  0
 21 29  1  0  0  0  0
 22 24  1  0  0  0  0
 22 29  1  0  0  0  0
 23 32  1  0  0  0  0
 24 32  1  0  0  0  0
 25 30  1  0  0  0  0
 27 28  1  0  0  0  0
  1 33  1  0  0  0  0
  2 34  1  0  0  0  0
  3 35  1  0  0  0  0
  4 36  1  0  0  0  0
  5 37  1  0  0  0  0
  6 38  1  0  0  0  0
  7 39  1  0  0  0  0
  8 40  1  0  0  0  0
  9 41  1  0  0  0  0
 10 42  1  0  0  0  0
 11 43  1  0  0  0  0
 12 44  1  0  0  0  0
 13 45  1  0  0  0  0
 21 46  1  0  0  0  0
 21 47  1  0  0  0  0
 22 48  1  0  0  0  0
 22 49  1  0  0  0  0
 23 50  1  0  0  0  0
 23 51  1  0  0  0  0
 24 52  1  0  0  0  0
 24 53  1  0  0  0  0
 25 54  1  0  0  0  0
 25 55  1  0  0  0  0
 26 56  1  0  0  0  0
 26 57  1  0  0  0  0
 28 58  1  0  0  0  0
M  END
> <clash_score>
0

> <docking_score>
-9.08286190032959

> <overlap_score>
1.0075167417526245

$$$$
BENZO_415_1
  -OEChem-08232013513D

 59 63  0     0  0  0  0  0  0999 V2000
    4.2970    1.6690   20.8430 C   0  0  0  0  0  0  0  0  0  0  0  0
    4.0980    2.1130   19.5350 C   0  0  0  0  0  0  0  0  0  0  0  0
    5.3360    0.8000   21.1530 C   0  0  0  0  0  0  0  0  0  0  0  0
    4.9400    1.7060   18.5060 C   0  0  0  0  0  0  0  0  0  0  0  0
    8.3310   -2.7170   25.3430 C   0  0  0  0  0  0  0  0  0  0  0  0
   10.2570   -3.5000   24.1350 C   0  0  0  0  0  0  0  0  0  0  0  0
    8.3510   -1.5420   24.6110 C   0  0  0  0  0  0  0  0  0  0  0  0
   10.2760   -2.3270   23.4020 C   0  0  0  0  0  0  0  0  0  0  0  0
   12.3172    1.8340   24.6446 C   0  0  0  0  0  0  0  0  0  0  0  0
   12.3515    0.3823   22.9934 C   0  0  0  0  0  0  0  0  0  0  0  0
    6.1600    0.3870   20.1140 C   0  0  0  0  0  0  0  0  0  0  0  0
   11.4834    1.0878   23.7904 C   0  0  0  0  0  0  0  0  0  0  0  0
    5.9810    0.8330   18.8060 C   0  0  0  0  0  0  0  0  0  0  0  0
    9.2850   -3.7090   25.1090 C   0  0  0  0  0  0  0  0  0  0  0  0
    9.3300   -1.3350   23.6390 C   0  0  0  0  0  0  0  0  0  0  0  0
    7.2210   -0.4620   20.0350 C   0  0  0  0  0  0  0  0  0  0  0  0
    8.2930   -5.1714   26.8572 C   0  0  0  0  0  0  0  0  0  0  0  0
    8.9510    0.1280   21.6880 C   0  0  0  0  0  0  0  0  0  0  0  0
    8.4551   -6.5156   27.5444 C   0  0  0  0  0  0  0  0  0  0  0  0
    9.9019   -6.7444   27.9450 C   0  0  0  0  0  0  0  0  0  0  0  0
   10.8596   -6.5882   26.7680 C   0  0  0  0  0  0  0  0  0  0  0  0
   10.1895   -6.0108   25.5223 C   0  0  0  0  0  0  0  0  0  0  0  0
   14.8502    0.2503   22.8602 C   0  0  0  0  0  0  0  0  0  0  0  0
    9.9825    1.0644   23.7577 C   0  0  0  0  0  0  0  0  0  0  0  0
    8.0810   -0.9750   21.0820 C   0  0  0  0  0  0  0  0  0  0  0  0
   13.6154    1.6222   24.4122 N   0  0  0  0  0  0  0  0  0  0  0  0
    6.9440    0.2550   18.0100 N   0  0  0  0  0  0  0  0  0  0  0  0
    7.6830   -0.5170   18.7600 N   0  0  0  0  0  0  0  0  0  0  0  0
   13.6037    0.7348   23.4030 N   0  0  0  0  0  0  0  0  0  0  0  0
    9.2623   -4.9266   25.8635 N   0  0  0  0  0  0  0  0  0  0  0  0
    9.4200   -0.0840   22.9530 N   0  0  0  0  0  0  0  0  0  0  0  0
    7.3370   -4.4527   27.1463 O   0  0  0  0  0  0  0  0  0  0  0  0
    9.1870    1.1500   21.0630 O   0  0  0  0  0  0  0  0  0  0  0  0
    3.6362    2.0028   21.6259 H   0  0  0  0  0  0  0  0  0  0  0  0
    3.2801    2.7808   19.3164 H   0  0  0  0  0  0  0  0  0  0  0  0
    5.4892    0.4523   22.2166 H   0  0  0  0  0  0  0  0  0  0  0  0
    4.7762    2.0781   17.4596 H   0  0  0  0  0  0  0  0  0  0  0  0
    7.5639   -2.8621   26.1045 H   0  0  0  0  0  0  0  0  0  0  0  0
   11.0141   -4.2644   23.9422 H   0  0  0  0  0  0  0  0  0  0  0  0
    7.5950   -0.7788   24.8007 H   0  0  0  0  0  0  0  0  0  0  0  0
   11.0408   -2.1861   22.6359 H   0  0  0  0  0  0  0  0  0  0  0  0
   12.0355    2.5233   25.4280 H   0  0  0  0  0  0  0  0  0  0  0  0
   12.1888   -0.3240   22.1906 H   0  0  0  0  0  0  0  0  0  0  0  0
    7.8332   -6.5283   28.4263 H   0  0  0  0  0  0  0  0  0  0  0  0
    8.1305   -7.2787   26.8530 H   0  0  0  0  0  0  0  0  0  0  0  0
   10.1875   -6.0379   28.7521 H   0  0  0  0  0  0  0  0  0  0  0  0
   10.0116   -7.7568   28.3834 H   0  0  0  0  0  0  0  0  0  0  0  0
   11.7061   -5.9337   27.0644 H   0  0  0  0  0  0  0  0  0  0  0  0
   11.3230   -7.5689   26.5243 H   0  0  0  0  0  0  0  0  0  0  0  0
   10.9445   -5.5959   24.8614 H   0  0  0  0  0  0  0  0  0  0  0  0
    9.6461   -6.7954   25.0072 H   0  0  0  0  0  0  0  0  0  0  0  0
   15.1461    0.9181   22.0469 H   0  0  0  0  0  0  0  0  0  0  0  0
   15.6112    0.2436   23.6455 H   0  0  0  0  0  0  0  0  0  0  0  0
   14.7106   -0.7685   22.4882 H   0  0  0  0  0  0  0  0  0  0  0  0
    9.5754    0.9911   24.7721 H   0  0  0  0  0  0  0  0  0  0  0  0
    9.5848    1.9827   23.3131 H   0  0  0  0  0  0  0  0  0  0  0  0
    7.4781   -1.4136   21.8845 H   0  0  0  0  0  0  0  0  0  0  0  0
    8.7420   -1.7550   20.6889 H   0  0  0  0  0  0  0  0  0  0  0  0
    8.4371   -1.0264   18.3897 H   0  0  0  0  0  0  0  0  0  0  0  0
  1  2  1  0  0  0  0
  1  3  2  0  0  0  0
  2  4  2  0  0  0  0
  3 11  1  0  0  0  0
  4 13  1  0  0  0  0
  5  7  2  0  0  0  0
  5 14  1  0  0  0  0
  6  8  1  0  0  0  0
  6 14  2  0  0  0  0
  7 15  1  0  0  0  0
  8 15  2  0  0  0  0
  9 12  1  0  0  0  0
  9 26  2  0  0  0  0
 10 12  2  0  0  0  0
 10 29  1  0  0  0  0
 11 13  1  0  0  0  0
 11 16  2  0  0  0  0
 12 24  1  0  0  0  0
 13 27  2  0  0  0  0
 14 30  1  0  0  0  0
 15 31  1  0  0  0  0
 16 25  1  0  0  0  0
 16 28  1  0  0  0  0
 17 19  1  0  0  0  0
 17 30  1  0  0  0  0
 17 32  2  0  0  0  0
 18 25  1  0  0  0  0
 18 31  1  0  0  0  0
 18 33  2  0  0  0  0
 19 20  1  0  0  0  0
 20 21  1  0  0  0  0
 21 22  1  0  0  0  0
 22 30  1  0  0  0  0
 23 29  1  0  0  0  0
 24 31  1  0  0  0  0
 26 29  1  0  0  0  0
 27 28  1  0  0  0  0
  1 34  1  0  0  0  0
  2 35  1  0  0  0  0
  3 36  1  0  0  0  0
  4 37  1  0  0  0  0
  5 38  1  0  0  0  0
  6 39  1  0  0  0  0
  7 40  1  0  0  0  0
  8 41  1  0  0  0  0
  9 42  1  0  0  0  0
 10 43  1  0  0  0  0
 19 44  1  0  0  0  0
 19 45  1  0  0  0  0
 20 46  1  0  0  0  0
 20 47  1  0  0  0  0
 21 48  1  0  0  0  0
 21 49  1  0  0  0  0
 22 50  1  0  0  0  0
 22 51  1  0  0  0  0
 23 52  1  0  0  0  0
 23 53  1  0  0  0  0
 23 54  1  0  0  0  0
 24 55  1  0  0  0  0
 24 56  1  0  0  0  0
 25 57  1  0  0  0  0
 25 58  1  0  0  0  0
 28 59  1  0  0  0  0
M  END
> <clash_score>
2.0596949410317893

> <docking_score>
-7.627673149108887

> <overlap_score>
0.9955232739448547

$$$$
BENZO_414_1
  -OEChem-08232013513D

 59 63  0     0  0  0  0  0  0999 V2000
    4.2970    1.6690   20.8430 C   0  0  0  0  0  0  0  0  0  0  0  0
    4.0980    2.1130   19.5350 C   0  0  0  0  0  0  0  0  0  0  0  0
   13.5774    2.0303   23.0396 C   0  0  0  0  0  0  0  0  0  0  0  0
    5.3360    0.8000   21.1530 C   0  0  0  0  0  0  0  0  0  0  0  0
   12.1831    2.0072   23.0089 C   0  0  0  0  0  0  0  0  0  0  0  0
    4.9400    1.7060   18.5060 C   0  0  0  0  0  0  0  0  0  0  0  0
    8.3310   -2.7170   25.3430 C   0  0  0  0  0  0  0  0  0  0  0  0
   10.2570   -3.5000   24.1350 C   0  0  0  0  0  0  0  0  0  0  0  0
    8.3510   -1.5420   24.6110 C   0  0  0  0  0  0  0  0  0  0  0  0
   10.2760   -2.3270   23.4020 C   0  0  0  0  0  0  0  0  0  0  0  0
   14.2721    1.1339   23.8518 C   0  0  0  0  0  0  0  0  0  0  0  0
   12.1780    0.1915   24.6027 C   0  0  0  0  0  0  0  0  0  0  0  0
    6.1600    0.3870   20.1140 C   0  0  0  0  0  0  0  0  0  0  0  0
   11.4834    1.0878   23.7904 C   0  0  0  0  0  0  0  0  0  0  0  0
    5.9810    0.8330   18.8060 C   0  0  0  0  0  0  0  0  0  0  0  0
    9.2850   -3.7090   25.1090 C   0  0  0  0  0  0  0  0  0  0  0  0
    9.3300   -1.3350   23.6390 C   0  0  0  0  0  0  0  0  0  0  0  0
   13.5724    0.2145   24.6334 C   0  0  0  0  0  0  0  0  0  0  0  0
    7.2210   -0.4620   20.0350 C   0  0  0  0  0  0  0  0  0  0  0  0
    8.2930   -5.1714   26.8572 C   0  0  0  0  0  0  0  0  0  0  0  0
    8.9510    0.1280   21.6880 C   0  0  0  0  0  0  0  0  0  0  0  0
    8.4551   -6.5156   27.5444 C   0  0  0  0  0  0  0  0  0  0  0  0
    9.9019   -6.7444   27.9450 C   0  0  0  0  0  0  0  0  0  0  0  0
   10.8596   -6.5882   26.7680 C   0  0  0  0  0  0  0  0  0  0  0  0
   10.1895   -6.0108   25.5223 C   0  0  0  0  0  0  0  0  0  0  0  0
    9.9825    1.0644   23.7577 C   0  0  0  0  0  0  0  0  0  0  0  0
    8.0810   -0.9750   21.0820 C   0  0  0  0  0  0  0  0  0  0  0  0
    6.9440    0.2550   18.0100 N   0  0  0  0  0  0  0  0  0  0  0  0
    7.6830   -0.5170   18.7600 N   0  0  0  0  0  0  0  0  0  0  0  0
    9.2623   -4.9266   25.8635 N   0  0  0  0  0  0  0  0  0  0  0  0
    9.4200   -0.0840   22.9530 N   0  0  0  0  0  0  0  0  0  0  0  0
    7.3370   -4.4527   27.1463 O   0  0  0  0  0  0  0  0  0  0  0  0
    9.1870    1.1500   21.0630 O   0  0  0  0  0  0  0  0  0  0  0  0
   14.4299   -0.8903   25.6361 Cl  0  0  0  0  0  0  0  0  0  0  0  0
    3.6362    2.0028   21.6259 H   0  0  0  0  0  0  0  0  0  0  0  0
    3.2801    2.7808   19.3164 H   0  0  0  0  0  0  0  0  0  0  0  0
   14.1219    2.7465   22.4310 H   0  0  0  0  0  0  0  0  0  0  0  0
    5.4892    0.4523   22.2166 H   0  0  0  0  0  0  0  0  0  0  0  0
   11.6501    2.7094   22.3731 H   0  0  0  0  0  0  0  0  0  0  0  0
    4.7762    2.0781   17.4596 H   0  0  0  0  0  0  0  0  0  0  0  0
    7.5639   -2.8621   26.1045 H   0  0  0  0  0  0  0  0  0  0  0  0
   11.0141   -4.2644   23.9422 H   0  0  0  0  0  0  0  0  0  0  0  0
    7.5950   -0.7788   24.8007 H   0  0  0  0  0  0  0  0  0  0  0  0
   11.0408   -2.1861   22.6359 H   0  0  0  0  0  0  0  0  0  0  0  0
   15.3588    1.1635   23.8660 H   0  0  0  0  0  0  0  0  0  0  0  0
   11.6279   -0.5238   25.2098 H   0  0  0  0  0  0  0  0  0  0  0  0
    7.8332   -6.5283   28.4263 H   0  0  0  0  0  0  0  0  0  0  0  0
    8.1305   -7.2787   26.8530 H   0  0  0  0  0  0  0  0  0  0  0  0
   10.1875   -6.0379   28.7521 H   0  0  0  0  0  0  0  0  0  0  0  0
   10.0116   -7.7568   28.3834 H   0  0  0  0  0  0  0  0  0  0  0  0
   11.7061   -5.9337   27.0644 H   0  0  0  0  0  0  0  0  0  0  0  0
   11.3230   -7.5689   26.5243 H   0  0  0  0  0  0  0  0  0  0  0  0
   10.9445   -5.5959   24.8614 H   0  0  0  0  0  0  0  0  0  0  0  0
    9.6461   -6.7954   25.0072 H   0  0  0  0  0  0  0  0  0  0  0  0
    9.5754    0.9911   24.7721 H   0  0  0  0  0  0  0  0  0  0  0  0
    9.5848    1.9827   23.3131 H   0  0  0  0  0  0  0  0  0  0  0  0
    7.4781   -1.4136   21.8845 H   0  0  0  0  0  0  0  0  0  0  0  0
    8.7420   -1.7550   20.6889 H   0  0  0  0  0  0  0  0  0  0  0  0
    8.4371   -1.0264   18.3897 H   0  0  0  0  0  0  0  0  0  0  0  0
  1  2  1  0  0  0  0
  1  4  2  0  0  0  0
  2  6  2  0  0  0  0
  3  5  2  0  0  0  0
  3 11  1  0  0  0  0
  4 13  1  0  0  0  0
  5 14  1  0  0  0  0
  6 15  1  0  0  0  0
  7  9  2  0  0  0  0
  7 16  1  0  0  0  0
  8 10  1  0  0  0  0
  8 16  2  0  0  0  0
  9 17  1  0  0  0  0
 10 17  2  0  0  0  0
 11 18  2  0  0  0  0
 12 14  2  0  0  0  0
 12 18  1  0  0  0  0
 13 15  1  0  0  0  0
 13 19  2  0  0  0  0
 14 26  1  0  0  0  0
 15 28  2  0  0  0  0
 16 30  1  0  0  0  0
 17 31  1  0  0  0  0
 18 34  1  0  0  0  0
 19 27  1  0  0  0  0
 19 29  1  0  0  0  0
 20 22  1  0  0  0  0
 20 30  1  0  0  0  0
 20 32  2  0  0  0  0
 21 27  1  0  0  0  0
 21 31  1  0  0  0  0
 21 33  2  0  0  0  0
 22 23  1  0  0  0  0
 23 24  1  0  0  0  0
 24 25  1  0  0  0  0
 25 30  1  0  0  0  0
 26 31  1  0  0  0  0
 28 29  1  0  0  0  0
  1 35  1  0  0  0  0
  2 36  1  0  0  0  0
  3 37  1  0  0  0  0
  4 38  1  0  0  0  0
  5 39  1  0  0  0  0
  6 40  1  0  0  0  0
  7 41  1  0  0  0  0
  8 42  1  0  0  0  0
  9 43  1  0  0  0  0
 10 44  1  0  0  0  0
 11 45  1  0  0  0  0
 12 46  1  0  0  0  0
 22 47  1  0  0  0  0
 22 48  1  0  0  0  0
 23 49  1  0  0  0  0
 23 50  1  0  0  0  0
 24 51  1  0  0  0  0
 24 52  1  0  0  0  0
 25 53  1  0  0  0  0
 25 54  1  0  0  0  0
 26 55  1  0  0  0  0
 26 56  1  0  0  0  0
 27 57  1  0  0  0  0
 27 58  1  0  0  0  0
 29 59  1  0  0  0  0
M  END
> <clash_score>
2.753745569912888

> <docking_score>
-6.675741195678711

> <overlap_score>
1.0087746381759644

$$$$
BENZO_416_1
  -OEChem-08232013513D

 55 59  0     0  0  0  0  0  0999 V2000
    4.2970    1.6690   20.8430 C   0  0  0  0  0  0  0  0  0  0  0  0
    4.0980    2.1130   19.5350 C   0  0  0  0  0  0  0  0  0  0  0  0
    5.3360    0.8000   21.1530 C   0  0  0  0  0  0  0  0  0  0  0  0
    4.9400    1.7060   18.5060 C   0  0  0  0  0  0  0  0  0  0  0  0
    8.3310   -2.7170   25.3430 C   0  0  0  0  0  0  0  0  0  0  0  0
   10.2570   -3.5000   24.1350 C   0  0  0  0  0  0  0  0  0  0  0  0
    8.3510   -1.5420   24.6110 C   0  0  0  0  0  0  0  0  0  0  0  0
   10.2760   -2.3270   23.4020 C   0  0  0  0  0  0  0  0  0  0  0  0
   12.3031    1.1795   22.6299 C   0  0  0  0  0  0  0  0  0  0  0  0
   13.6448    1.1811   22.9421 C   0  0  0  0  0  0  0  0  0  0  0  0
   12.2299    1.0228   24.9478 C   0  0  0  0  0  0  0  0  0  0  0  0
    6.1600    0.3870   20.1140 C   0  0  0  0  0  0  0  0  0  0  0  0
   11.4834    1.0880   23.7917 C   0  0  0  0  0  0  0  0  0  0  0  0
    5.9810    0.8330   18.8060 C   0  0  0  0  0  0  0  0  0  0  0  0
    9.2850   -3.7090   25.1090 C   0  0  0  0  0  0  0  0  0  0  0  0
    9.3300   -1.3350   23.6390 C   0  0  0  0  0  0  0  0  0  0  0  0
    7.2210   -0.4620   20.0350 C   0  0  0  0  0  0  0  0  0  0  0  0
    8.9510    0.1280   21.6880 C   0  0  0  0  0  0  0  0  0  0  0  0
    8.7666   -4.9523   27.2147 C   0  0  0  0  0  0  0  0  0  0  0  0
    9.3034   -6.1866   25.1651 C   0  0  0  0  0  0  0  0  0  0  0  0
    7.3827   -5.5925   27.1999 C   0  0  0  0  0  0  0  0  0  0  0  0
    7.9024   -6.7967   25.2263 C   0  0  0  0  0  0  0  0  0  0  0  0
    9.9825    1.0644   23.7577 C   0  0  0  0  0  0  0  0  0  0  0  0
    8.0810   -0.9750   21.0820 C   0  0  0  0  0  0  0  0  0  0  0  0
    6.9440    0.2550   18.0100 N   0  0  0  0  0  0  0  0  0  0  0  0
    7.6830   -0.5170   18.7600 N   0  0  0  0  0  0  0  0  0  0  0  0
    9.2640   -4.8844   25.8389 N   0  0  0  0  0  0  0  0  0  0  0  0
    9.4200   -0.0840   22.9530 N   0  0  0  0  0  0  0  0  0  0  0  0
    9.1870    1.1500   21.0630 O   0  0  0  0  0  0  0  0  0  0  0  0
    7.4483   -6.8833   26.5817 O   0  0  0  0  0  0  0  0  0  0  0  0
   13.9118    1.0724   24.6301 S   0  0  0  0  0  0  0  0  0  0  0  0
    3.6362    2.0028   21.6260 H   0  0  0  0  0  0  0  0  0  0  0  0
    3.2801    2.7808   19.3164 H   0  0  0  0  0  0  0  0  0  0  0  0
    5.4892    0.4523   22.2166 H   0  0  0  0  0  0  0  0  0  0  0  0
    4.7762    2.0781   17.4596 H   0  0  0  0  0  0  0  0  0  0  0  0
    7.5647   -2.8621   26.1053 H   0  0  0  0  0  0  0  0  0  0  0  0
   11.0144   -4.2642   23.9425 H   0  0  0  0  0  0  0  0  0  0  0  0
    7.5958   -0.7779   24.8006 H   0  0  0  0  0  0  0  0  0  0  0  0
   11.0406   -2.1848   22.6356 H   0  0  0  0  0  0  0  0  0  0  0  0
   11.9317    1.2409   21.6147 H   0  0  0  0  0  0  0  0  0  0  0  0
   14.4809    1.2402   22.2598 H   0  0  0  0  0  0  0  0  0  0  0  0
   11.8722    0.9472   25.9653 H   0  0  0  0  0  0  0  0  0  0  0  0
    8.7030   -3.9561   27.6574 H   0  0  0  0  0  0  0  0  0  0  0  0
    9.4460   -5.5639   27.8143 H   0  0  0  0  0  0  0  0  0  0  0  0
   10.0083   -6.8392   25.6817 H   0  0  0  0  0  0  0  0  0  0  0  0
    9.6089   -6.0802   24.1251 H   0  0  0  0  0  0  0  0  0  0  0  0
    7.0281   -5.7334   28.2231 H   0  0  0  0  0  0  0  0  0  0  0  0
    6.6541   -4.9678   26.6754 H   0  0  0  0  0  0  0  0  0  0  0  0
    7.1860   -6.2177   24.6318 H   0  0  0  0  0  0  0  0  0  0  0  0
    7.9246   -7.8119   24.8187 H   0  0  0  0  0  0  0  0  0  0  0  0
    9.5745    0.9898   24.7716 H   0  0  0  0  0  0  0  0  0  0  0  0
    9.5850    1.9832   23.3140 H   0  0  0  0  0  0  0  0  0  0  0  0
    7.4781   -1.4136   21.8845 H   0  0  0  0  0  0  0  0  0  0  0  0
    8.7420   -1.7550   20.6889 H   0  0  0  0  0  0  0  0  0  0  0  0
    8.4371   -1.0264   18.3897 H   0  0  0  0  0  0  0  0  0  0  0  0
  1  2  1  0  0  0  0
  1  3  2  0  0  0  0
  2  4  2  0  0  0  0
  3 12  1  0  0  0  0
  4 14  1  0  0  0  0
  5  7  2  0  0  0  0
  5 15  1  0  0  0  0
  6  8  1  0  0  0  0
  6 15  2  0  0  0  0
  7 16  1  0  0  0  0
  8 16  2  0  0  0  0
  9 10  2  0  0  0  0
  9 13  1  0  0  0  0
 10 31  1  0  0  0  0
 11 13  2  0  0  0  0
 11 31  1  0  0  0  0
 12 14  1  0  0  0  0
 12 17  2  0  0  0  0
 13 23  1  0  0  0  0
 14 25  2  0  0  0  0
 15 27  1  0  0  0  0
 16 28  1  0  0  0  0
 17 24  1  0  0  0  0
 17 26  1  0  0  0  0
 18 24  1  0  0  0  0
 18 28  1  0  0  0  0
 18 29  2  0  0  0  0
 19 21  1  0  0  0  0
 19 27  1  0  0  0  0
 20 22  1  0  0  0  0
 20 27  1  0  0  0  0
 21 30  1  0  0  0  0
 22 30  1  0  0  0  0
 23 28  1  0  0  0  0
 25 26  1  0  0  0  0
  1 32  1  0  0  0  0
  2 33  1  0  0  0  0
  3 34  1  0  0  0  0
  4 35  1  0  0  0  0
  5 36  1  0  0  0  0
  6 37  1  0  0  0  0
  7 38  1  0  0  0  0
  8 39  1  0  0  0  0
  9 40  1  0  0  0  0
 10 41  1  0  0  0  0
 11 42  1  0  0  0  0
 19 43  1  0  0  0  0
 19 44  1  0  0  0  0
 20 45  1  0  0  0  0
 20 46  1  0  0  0  0
 21 47  1  0  0  0  0
 21 48  1  0  0  0  0
 22 49  1  0  0  0  0
 22 50  1  0  0  0  0
 23 51  1  0  0  0  0
 23 52  1  0  0  0  0
 24 53  1  0  0  0  0
 24 54  1  0  0  0  0
 26 55  1  0  0  0  0
M  END
> <clash_score>
0

> <docking_score>
-9.44971752166748

> <overlap_score>
0.9866338968276978

$$$$
BENZO_421_1
  -OEChem-08232013513D

 52 55  0     0  0  0  0  0  0999 V2000
   14.3667    0.8669   23.4897 C   0  0  0  0  0  0  0  0  0  0  0  0
   13.6954    0.2093   24.5205 C   0  0  0  0  0  0  0  0  0  0  0  0
   13.6464    1.5830   22.5336 C   0  0  0  0  0  0  0  0  0  0  0  0
   12.3037    0.2677   24.5951 C   0  0  0  0  0  0  0  0  0  0  0  0
   12.2548    1.6414   22.6082 C   0  0  0  0  0  0  0  0  0  0  0  0
    8.3510   -1.5420   24.6110 C   0  0  0  0  0  0  0  0  0  0  0  0
   10.2760   -2.3270   23.4020 C   0  0  0  0  0  0  0  0  0  0  0  0
    8.3310   -2.7170   25.3430 C   0  0  0  0  0  0  0  0  0  0  0  0
   10.2570   -3.5000   24.1350 C   0  0  0  0  0  0  0  0  0  0  0  0
   11.5834    0.9837   23.6390 C   0  0  0  0  0  0  0  0  0  0  0  0
    9.3300   -1.3350   23.6390 C   0  0  0  0  0  0  0  0  0  0  0  0
    9.2850   -3.7090   25.1090 C   0  0  0  0  0  0  0  0  0  0  0  0
    6.1600    0.3870   20.1140 C   0  0  0  0  0  0  0  0  0  0  0  0
    7.2210   -0.4620   20.0350 C   0  0  0  0  0  0  0  0  0  0  0  0
    5.3360    0.8000   21.1530 C   0  0  0  0  0  0  0  0  0  0  0  0
    4.2970    1.6690   20.8430 C   0  0  0  0  0  0  0  0  0  0  0  0
    4.0980    2.1130   19.5350 C   0  0  0  0  0  0  0  0  0  0  0  0
    4.9400    1.7060   18.5060 C   0  0  0  0  0  0  0  0  0  0  0  0
    8.9510    0.1280   21.6880 C   0  0  0  0  0  0  0  0  0  0  0  0
    8.2493   -5.1167   26.8639 C   0  0  0  0  0  0  0  0  0  0  0  0
   10.2421   -5.9414   25.6002 C   0  0  0  0  0  0  0  0  0  0  0  0
   10.0855    1.0467   23.7186 C   0  0  0  0  0  0  0  0  0  0  0  0
    8.0810   -0.9750   21.0820 C   0  0  0  0  0  0  0  0  0  0  0  0
    7.6830   -0.5170   18.7600 N   0  0  0  0  0  0  0  0  0  0  0  0
    6.9440    0.2550   18.0100 N   0  0  0  0  0  0  0  0  0  0  0  0
    5.9810    0.8330   18.8060 N   0  0  0  0  0  0  0  0  0  0  0  0
    9.4200   -0.0840   22.9530 N   0  0  0  0  0  0  0  0  0  0  0  0
    9.2624   -4.9028   25.8498 N   0  0  0  0  0  0  0  0  0  0  0  0
    9.1870    1.1500   21.0630 O   0  0  0  0  0  0  0  0  0  0  0  0
   15.4504    0.8225   23.4325 H   0  0  0  0  0  0  0  0  0  0  0  0
   14.2561   -0.3474   25.2656 H   0  0  0  0  0  0  0  0  0  0  0  0
   14.1688    2.0960   21.7316 H   0  0  0  0  0  0  0  0  0  0  0  0
   11.7891   -0.2480   25.4016 H   0  0  0  0  0  0  0  0  0  0  0  0
   11.7019    2.2015   21.8588 H   0  0  0  0  0  0  0  0  0  0  0  0
    7.5947   -0.7787   24.7997 H   0  0  0  0  0  0  0  0  0  0  0  0
   11.0404   -2.1861   22.6352 H   0  0  0  0  0  0  0  0  0  0  0  0
    7.5641   -2.8632   26.1047 H   0  0  0  0  0  0  0  0  0  0  0  0
   11.0135   -4.2647   23.9425 H   0  0  0  0  0  0  0  0  0  0  0  0
    5.4740    0.4765   22.1644 H   0  0  0  0  0  0  0  0  0  0  0  0
    3.6415    1.9966   21.6411 H   0  0  0  0  0  0  0  0  0  0  0  0
    3.2723    2.7926   19.2922 H   0  0  0  0  0  0  0  0  0  0  0  0
    4.8122    2.0412   17.5001 H   0  0  0  0  0  0  0  0  0  0  0  0
    8.3978   -6.1024   27.3290 H   0  0  0  0  0  0  0  0  0  0  0  0
    8.3284   -4.3333   27.6320 H   0  0  0  0  0  0  0  0  0  0  0  0
    7.2525   -5.0765   26.4004 H   0  0  0  0  0  0  0  0  0  0  0  0
   10.0583   -6.7896   26.2760 H   0  0  0  0  0  0  0  0  0  0  0  0
   10.1600   -6.2796   24.5567 H   0  0  0  0  0  0  0  0  0  0  0  0
   11.2520   -5.5432   25.7781 H   0  0  0  0  0  0  0  0  0  0  0  0
    9.7513    0.9881   24.7602 H   0  0  0  0  0  0  0  0  0  0  0  0
    9.7095    1.9902   23.3091 H   0  0  0  0  0  0  0  0  0  0  0  0
    7.4909   -1.4166   21.8987 H   0  0  0  0  0  0  0  0  0  0  0  0
    8.7548   -1.7579   20.7032 H   0  0  0  0  0  0  0  0  0  0  0  0
  1  2  1  0  0  0  0
  1  3  2  0  0  0  0
  2  4  2  0  0  0  0
  3  5  1  0  0  0  0
  4 10  1  0  0  0  0
  5 10  2  0  0  0  0
  6  8  2  0  0  0  0
  6 11  1  0  0  0  0
  7  9  1  0  0  0  0
  7 11  2  0  0  0  0
  8 12  1  0  0  0  0
  9 12  2  0  0  0  0
 10 22  1  0  0  0  0
 11 27  1  0  0  0  0
 12 28  1  0  0  0  0
 13 14  2  0  0  0  0
 13 15  1  0  0  0  0
 13 26  1  0  0  0  0
 14 23  1  0  0  0  0
 14 24  1  0  0  0  0
 15 16  2  0  0  0  0
 16 17  1  0  0  0  0
 17 18  2  0  0  0  0
 18 26  1  0  0  0  0
 19 23  1  0  0  0  0
 19 27  1  0  0  0  0
 19 29  2  0  0  0  0
 20 28  1  0  0  0  0
 21 28  1  0  0  0  0
 22 27  1  0  0  0  0
 24 25  2  0  0  0  0
 25 26  1  0  0  0  0
  1 30  1  0  0  0  0
  2 31  1  0  0  0  0
  3 32  1  0  0  0  0
  4 33  1  0  0  0  0
  5 34  1  0  0  0  0
  6 35  1  0  0  0  0
  7 36  1  0  0  0  0
  8 37  1  0  0  0  0
  9 38  1  0  0  0  0
 15 39  1  0  0  0  0
 16 40  1  0  0  0  0
 17 41  1  0  0  0  0
 18 42  1  0  0  0  0
 20 43  1  0  0  0  0
 20 44  1  0  0  0  0
 20 45  1  0  0  0  0
 21 46  1  0  0  0  0
 21 47  1  0  0  0  0
 21 48  1  0  0  0  0
 22 49  1  0  0  0  0
 22 50  1  0  0  0  0
 23 51  1  0  0  0  0
 23 52  1  0  0  0  0
M  END
> <clash_score>
0

> <docking_score>
-9.720471382141113

> <overlap_score>
1.0005228519439697

$$$$
BENZO_420_1
  -OEChem-08232013513D

 49 52  0     0  0  0  0  0  0999 V2000
    8.3510   -1.5420   24.6110 C   0  0  0  0  0  0  0  0  0  0  0  0
   10.2760   -2.3270   23.4020 C   0  0  0  0  0  0  0  0  0  0  0  0
    8.3310   -2.7170   25.3430 C   0  0  0  0  0  0  0  0  0  0  0  0
   10.2570   -3.5000   24.1350 C   0  0  0  0  0  0  0  0  0  0  0  0
   12.3172    1.0367   22.4188 C   0  0  0  0  0  0  0  0  0  0  0  0
   13.6764    0.9588   22.6285 C   0  0  0  0  0  0  0  0  0  0  0  0
   12.4099    0.8670   24.7350 C   0  0  0  0  0  0  0  0  0  0  0  0
   11.5834    0.9837   23.6390 C   0  0  0  0  0  0  0  0  0  0  0  0
    9.3300   -1.3350   23.6390 C   0  0  0  0  0  0  0  0  0  0  0  0
    9.2850   -3.7090   25.1090 C   0  0  0  0  0  0  0  0  0  0  0  0
    6.1600    0.3870   20.1140 C   0  0  0  0  0  0  0  0  0  0  0  0
    7.2210   -0.4620   20.0350 C   0  0  0  0  0  0  0  0  0  0  0  0
    5.3360    0.8000   21.1530 C   0  0  0  0  0  0  0  0  0  0  0  0
    4.2970    1.6690   20.8430 C   0  0  0  0  0  0  0  0  0  0  0  0
    4.0980    2.1130   19.5350 C   0  0  0  0  0  0  0  0  0  0  0  0
    4.9400    1.7060   18.5060 C   0  0  0  0  0  0  0  0  0  0  0  0
    8.9510    0.1280   21.6880 C   0  0  0  0  0  0  0  0  0  0  0  0
    8.2493   -5.1167   26.8639 C   0  0  0  0  0  0  0  0  0  0  0  0
   10.2421   -5.9414   25.6002 C   0  0  0  0  0  0  0  0  0  0  0  0
   10.0855    1.0467   23.7186 C   0  0  0  0  0  0  0  0  0  0  0  0
    8.0810   -0.9750   21.0820 C   0  0  0  0  0  0  0  0  0  0  0  0
    7.6830   -0.5170   18.7600 N   0  0  0  0  0  0  0  0  0  0  0  0
    6.9440    0.2550   18.0100 N   0  0  0  0  0  0  0  0  0  0  0  0
    5.9810    0.8330   18.8060 N   0  0  0  0  0  0  0  0  0  0  0  0
    9.4200   -0.0840   22.9530 N   0  0  0  0  0  0  0  0  0  0  0  0
    9.2624   -4.9028   25.8498 N   0  0  0  0  0  0  0  0  0  0  0  0
    9.1870    1.1500   21.0630 O   0  0  0  0  0  0  0  0  0  0  0  0
   14.0631    0.8222   24.2911 S   0  0  0  0  0  0  0  0  0  0  0  0
    7.5947   -0.7787   24.7997 H   0  0  0  0  0  0  0  0  0  0  0  0
   11.0404   -2.1861   22.6352 H   0  0  0  0  0  0  0  0  0  0  0  0
    7.5641   -2.8632   26.1047 H   0  0  0  0  0  0  0  0  0  0  0  0
   11.0135   -4.2647   23.9425 H   0  0  0  0  0  0  0  0  0  0  0  0
   11.8745    1.1270   21.4348 H   0  0  0  0  0  0  0  0  0  0  0  0
   14.4608    0.9748   21.8851 H   0  0  0  0  0  0  0  0  0  0  0  0
   12.1261    0.8045   25.7764 H   0  0  0  0  0  0  0  0  0  0  0  0
    5.4740    0.4765   22.1644 H   0  0  0  0  0  0  0  0  0  0  0  0
    3.6415    1.9966   21.6411 H   0  0  0  0  0  0  0  0  0  0  0  0
    3.2723    2.7926   19.2922 H   0  0  0  0  0  0  0  0  0  0  0  0
    4.8122    2.0412   17.5001 H   0  0  0  0  0  0  0  0  0  0  0  0
    8.3978   -6.1024   27.3290 H   0  0  0  0  0  0  0  0  0  0  0  0
    8.3284   -4.3333   27.6320 H   0  0  0  0  0  0  0  0  0  0  0  0
    7.2525   -5.0765   26.4004 H   0  0  0  0  0  0  0  0  0  0  0  0
   10.0583   -6.7896   26.2760 H   0  0  0  0  0  0  0  0  0  0  0  0
   10.1600   -6.2796   24.5567 H   0  0  0  0  0  0  0  0  0  0  0  0
   11.2520   -5.5432   25.7781 H   0  0  0  0  0  0  0  0  0  0  0  0
    9.7513    0.9881   24.7602 H   0  0  0  0  0  0  0  0  0  0  0  0
    9.7095    1.9902   23.3091 H   0  0  0  0  0  0  0  0  0  0  0  0
    7.4909   -1.4166   21.8987 H   0  0  0  0  0  0  0  0  0  0  0  0
    8.7548   -1.7579   20.7032 H   0  0  0  0  0  0  0  0  0  0  0  0
  1  3  2  0  0  0  0
  1  9  1  0  0  0  0
  2  4  1  0  0  0  0
  2  9  2  0  0  0  0
  3 10  1  0  0  0  0
  4 10  2  0  0  0  0
  5  6  2  0  0  0  0
  5  8  1  0  0  0  0
  6 28  1  0  0  0  0
  7  8  2  0  0  0  0
  7 28  1  0  0  0  0
  8 20  1  0  0  0  0
  9 25  1  0  0  0  0
 10 26  1  0  0  0  0
 11 12  2  0  0  0  0
 11 13  1  0  0  0  0
 11 24  1  0  0  0  0
 12 21  1  0  0  0  0
 12 22  1  0  0  0  0
 13 14  2  0  0  0  0
 14 15  1  0  0  0  0
 15 16  2  0  0  0  0
 16 24  1  0  0  0  0
 17 21  1  0  0  0  0
 17 25  1  0  0  0  0
 17 27  2  0  0  0  0
 18 26  1  0  0  0  0
 19 26  1  0  0  0  0
 20 25  1  0  0  0  0
 22 23  2  0  0  0  0
 23 24  1  0  0  0  0
  1 29  1  0  0  0  0
  2 30  1  0  0  0  0
  3 31  1  0  0  0  0
  4 32  1  0  0  0  0
  5 33  1  0  0  0  0
  6 34  1  0  0  0  0
  7 35  1  0  0  0  0
 13 36  1  0  0  0  0
 14 37  1  0  0  0  0
 15 38  1  0  0  0  0
 16 39  1  0  0  0  0
 18 40  1  0  0  0  0
 18 41  1  0  0  0  0
 18 42  1  0  0  0  0
 19 43  1  0  0  0  0
 19 44  1  0  0  0  0
 19 45  1  0  0  0  0
 20 46  1  0  0  0  0
 20 47  1  0  0  0  0
 21 48  1  0  0  0  0
 21 49  1  0  0  0  0
M  END
> <clash_score>
0

> <docking_score>
-10.058404922485352

> <overlap_score>
0.9752758741378784

$$$$
BENZO_418_1
  -OEChem-08232013513D

 58 62  0     0  0  0  0  0  0999 V2000
    4.2970    1.6690   20.8430 C   0  0  0  0  0  0  0  0  0  0  0  0
    4.0980    2.1130   19.5350 C   0  0  0  0  0  0  0  0  0  0  0  0
   13.5779    2.0317   23.0440 C   0  0  0  0  0  0  0  0  0  0  0  0
    5.3360    0.8000   21.1530 C   0  0  0  0  0  0  0  0  0  0  0  0
   12.1836    2.0085   23.0120 C   0  0  0  0  0  0  0  0  0  0  0  0
    4.9400    1.7060   18.5060 C   0  0  0  0  0  0  0  0  0  0  0  0
    8.3310   -2.7170   25.3430 C   0  0  0  0  0  0  0  0  0  0  0  0
   10.2570   -3.5000   24.1350 C   0  0  0  0  0  0  0  0  0  0  0  0
    8.3510   -1.5420   24.6110 C   0  0  0  0  0  0  0  0  0  0  0  0
   10.2760   -2.3270   23.4020 C   0  0  0  0  0  0  0  0  0  0  0  0
   14.2720    1.1343   23.8556 C   0  0  0  0  0  0  0  0  0  0  0  0
   12.1774    0.1906   24.6034 C   0  0  0  0  0  0  0  0  0  0  0  0
    6.1600    0.3870   20.1140 C   0  0  0  0  0  0  0  0  0  0  0  0
   11.4834    1.0880   23.7917 C   0  0  0  0  0  0  0  0  0  0  0  0
    5.9810    0.8330   18.8060 C   0  0  0  0  0  0  0  0  0  0  0  0
    9.2850   -3.7090   25.1090 C   0  0  0  0  0  0  0  0  0  0  0  0
    9.3300   -1.3350   23.6390 C   0  0  0  0  0  0  0  0  0  0  0  0
   13.5717    0.2138   24.6353 C   0  0  0  0  0  0  0  0  0  0  0  0
    7.2210   -0.4620   20.0350 C   0  0  0  0  0  0  0  0  0  0  0  0
    8.9510    0.1280   21.6880 C   0  0  0  0  0  0  0  0  0  0  0  0
    8.7666   -4.9523   27.2147 C   0  0  0  0  0  0  0  0  0  0  0  0
    9.3034   -6.1866   25.1651 C   0  0  0  0  0  0  0  0  0  0  0  0
    7.3827   -5.5925   27.1999 C   0  0  0  0  0  0  0  0  0  0  0  0
    7.9024   -6.7967   25.2263 C   0  0  0  0  0  0  0  0  0  0  0  0
    9.9825    1.0644   23.7577 C   0  0  0  0  0  0  0  0  0  0  0  0
    8.0810   -0.9750   21.0820 C   0  0  0  0  0  0  0  0  0  0  0  0
    6.9440    0.2550   18.0100 N   0  0  0  0  0  0  0  0  0  0  0  0
    7.6830   -0.5170   18.7600 N   0  0  0  0  0  0  0  0  0  0  0  0
    9.2640   -4.8844   25.8389 N   0  0  0  0  0  0  0  0  0  0  0  0
    9.4200   -0.0840   22.9530 N   0  0  0  0  0  0  0  0  0  0  0  0
    9.1870    1.1500   21.0630 O   0  0  0  0  0  0  0  0  0  0  0  0
    7.4483   -6.8833   26.5817 O   0  0  0  0  0  0  0  0  0  0  0  0
   14.4285   -0.8923   25.6374 Cl  0  0  0  0  0  0  0  0  0  0  0  0
    3.6362    2.0028   21.6260 H   0  0  0  0  0  0  0  0  0  0  0  0
    3.2801    2.7808   19.3164 H   0  0  0  0  0  0  0  0  0  0  0  0
   14.1228    2.7487   22.4368 H   0  0  0  0  0  0  0  0  0  0  0  0
    5.4892    0.4523   22.2166 H   0  0  0  0  0  0  0  0  0  0  0  0
   11.6511    2.7114   22.3768 H   0  0  0  0  0  0  0  0  0  0  0  0
    4.7762    2.0781   17.4596 H   0  0  0  0  0  0  0  0  0  0  0  0
    7.5647   -2.8621   26.1053 H   0  0  0  0  0  0  0  0  0  0  0  0
   11.0144   -4.2642   23.9425 H   0  0  0  0  0  0  0  0  0  0  0  0
    7.5958   -0.7779   24.8006 H   0  0  0  0  0  0  0  0  0  0  0  0
   11.0406   -2.1848   22.6356 H   0  0  0  0  0  0  0  0  0  0  0  0
   15.3587    1.1640   23.8707 H   0  0  0  0  0  0  0  0  0  0  0  0
   11.6268   -0.5255   25.2091 H   0  0  0  0  0  0  0  0  0  0  0  0
    8.7030   -3.9561   27.6574 H   0  0  0  0  0  0  0  0  0  0  0  0
    9.4460   -5.5639   27.8143 H   0  0  0  0  0  0  0  0  0  0  0  0
   10.0083   -6.8392   25.6817 H   0  0  0  0  0  0  0  0  0  0  0  0
    9.6089   -6.0802   24.1251 H   0  0  0  0  0  0  0  0  0  0  0  0
    7.0281   -5.7334   28.2231 H   0  0  0  0  0  0  0  0  0  0  0  0
    6.6541   -4.9678   26.6754 H   0  0  0  0  0  0  0  0  0  0  0  0
    7.1860   -6.2177   24.6318 H   0  0  0  0  0  0  0  0  0  0  0  0
    7.9246   -7.8119   24.8187 H   0  0  0  0  0  0  0  0  0  0  0  0
    9.5745    0.9898   24.7716 H   0  0  0  0  0  0  0  0  0  0  0  0
    9.5850    1.9832   23.3140 H   0  0  0  0  0  0  0  0  0  0  0  0
    7.4781   -1.4136   21.8845 H   0  0  0  0  0  0  0  0  0  0  0  0
    8.7420   -1.7550   20.6889 H   0  0  0  0  0  0  0  0  0  0  0  0
    8.4371   -1.0264   18.3897 H   0  0  0  0  0  0  0  0  0  0  0  0
  1  2  1  0  0  0  0
  1  4  2  0  0  0  0
  2  6  2  0  0  0  0
  3  5  2  0  0  0  0
  3 11  1  0  0  0  0
  4 13  1  0  0  0  0
  5 14  1  0  0  0  0
  6 15  1  0  0  0  0
  7  9  2  0  0  0  0
  7 16  1  0  0  0  0
  8 10  1  0  0  0  0
  8 16  2  0  0  0  0
  9 17  1  0  0  0  0
 10 17  2  0  0  0  0
 11 18  2  0  0  0  0
 12 14  2  0  0  0  0
 12 18  1  0  0  0  0
 13 15  1  0  0  0  0
 13 19  2  0  0  0  0
 14 25  1  0  0  0  0
 15 27  2  0  0  0  0
 16 29  1  0  0  0  0
 17 30  1  0  0  0  0
 18 33  1  0  0  0  0
 19 26  1  0  0  0  0
 19 28  1  0  0  0  0
 20 26  1  0  0  0  0
 20 30  1  0  0  0  0
 20 31  2  0  0  0  0
 21 23  1  0  0  0  0
 21 29  1  0  0  0  0
 22 24  1  0  0  0  0
 22 29  1  0  0  0  0
 23 32  1  0  0  0  0
 24 32  1  0  0  0  0
 25 30  1  0  0  0  0
 27 28  1  0  0  0  0
  1 34  1  0  0  0  0
  2 35  1  0  0  0  0
  3 36  1  0  0  0  0
  4 37  1  0  0  0  0
  5 38  1  0  0  0  0
  6 39  1  0  0  0  0
  7 40  1  0  0  0  0
  8 41  1  0  0  0  0
  9 42  1  0  0  0  0
 10 43  1  0  0  0  0
 11 44  1  0  0  0  0
 12 45  1  0  0  0  0
 21 46  1  0  0  0  0
 21 47  1  0  0  0  0
 22 48  1  0  0  0  0
 22 49  1  0  0  0  0
 23 50  1  0  0  0  0
 23 51  1  0  0  0  0
 24 52  1  0  0  0  0
 24 53  1  0  0  0  0
 25 54  1  0  0  0  0
 25 55  1  0  0  0  0
 26 56  1  0  0  0  0
 26 57  1  0  0  0  0
 28 58  1  0  0  0  0
M  END
> <clash_score>
0.6944094687284152

> <docking_score>
-7.90433406829834

> <overlap_score>
1.0084718465805054

$$$$
BENZO_419_1
  -OEChem-08232013513D

 58 62  0     0  0  0  0  0  0999 V2000
    4.2970    1.6690   20.8430 C   0  0  0  0  0  0  0  0  0  0  0  0
    4.0980    2.1130   19.5350 C   0  0  0  0  0  0  0  0  0  0  0  0
    5.3360    0.8000   21.1530 C   0  0  0  0  0  0  0  0  0  0  0  0
    4.9400    1.7060   18.5060 C   0  0  0  0  0  0  0  0  0  0  0  0
    8.3310   -2.7170   25.3430 C   0  0  0  0  0  0  0  0  0  0  0  0
   10.2570   -3.5000   24.1350 C   0  0  0  0  0  0  0  0  0  0  0  0
    8.3510   -1.5420   24.6110 C   0  0  0  0  0  0  0  0  0  0  0  0
   10.2760   -2.3270   23.4020 C   0  0  0  0  0  0  0  0  0  0  0  0
   12.3164    1.8331   24.6476 C   0  0  0  0  0  0  0  0  0  0  0  0
   12.3522    0.3836   22.9946 C   0  0  0  0  0  0  0  0  0  0  0  0
    6.1600    0.3870   20.1140 C   0  0  0  0  0  0  0  0  0  0  0  0
   11.4834    1.0880   23.7917 C   0  0  0  0  0  0  0  0  0  0  0  0
    5.9810    0.8330   18.8060 C   0  0  0  0  0  0  0  0  0  0  0  0
    9.2850   -3.7090   25.1090 C   0  0  0  0  0  0  0  0  0  0  0  0
    9.3300   -1.3350   23.6390 C   0  0  0  0  0  0  0  0  0  0  0  0
    7.2210   -0.4620   20.0350 C   0  0  0  0  0  0  0  0  0  0  0  0
    8.9510    0.1280   21.6880 C   0  0  0  0  0  0  0  0  0  0  0  0
    8.7666   -4.9523   27.2147 C   0  0  0  0  0  0  0  0  0  0  0  0
    9.3034   -6.1866   25.1651 C   0  0  0  0  0  0  0  0  0  0  0  0
    7.3827   -5.5925   27.1999 C   0  0  0  0  0  0  0  0  0  0  0  0
    7.9024   -6.7967   25.2263 C   0  0  0  0  0  0  0  0  0  0  0  0
   14.8510    0.2521   22.8633 C   0  0  0  0  0  0  0  0  0  0  0  0
    9.9825    1.0644   23.7577 C   0  0  0  0  0  0  0  0  0  0  0  0
    8.0810   -0.9750   21.0820 C   0  0  0  0  0  0  0  0  0  0  0  0
   13.6147    1.6217   24.4161 N   0  0  0  0  0  0  0  0  0  0  0  0
    6.9440    0.2550   18.0100 N   0  0  0  0  0  0  0  0  0  0  0  0
    7.6830   -0.5170   18.7600 N   0  0  0  0  0  0  0  0  0  0  0  0
   13.6041    0.7357   23.4057 N   0  0  0  0  0  0  0  0  0  0  0  0
    9.2640   -4.8844   25.8389 N   0  0  0  0  0  0  0  0  0  0  0  0
    9.4200   -0.0840   22.9530 N   0  0  0  0  0  0  0  0  0  0  0  0
    9.1870    1.1500   21.0630 O   0  0  0  0  0  0  0  0  0  0  0  0
    7.4483   -6.8833   26.5817 O   0  0  0  0  0  0  0  0  0  0  0  0
    3.6362    2.0028   21.6260 H   0  0  0  0  0  0  0  0  0  0  0  0
    3.2801    2.7808   19.3164 H   0  0  0  0  0  0  0  0  0  0  0  0
    5.4892    0.4523   22.2166 H   0  0  0  0  0  0  0  0  0  0  0  0
    4.7762    2.0781   17.4596 H   0  0  0  0  0  0  0  0  0  0  0  0
    7.5647   -2.8621   26.1053 H   0  0  0  0  0  0  0  0  0  0  0  0
   11.0144   -4.2642   23.9425 H   0  0  0  0  0  0  0  0  0  0  0  0
    7.5958   -0.7779   24.8006 H   0  0  0  0  0  0  0  0  0  0  0  0
   11.0406   -2.1848   22.6356 H   0  0  0  0  0  0  0  0  0  0  0  0
   12.0338    2.5213   25.4317 H   0  0  0  0  0  0  0  0  0  0  0  0
   12.1903   -0.3216   22.1906 H   0  0  0  0  0  0  0  0  0  0  0  0
    8.7030   -3.9561   27.6574 H   0  0  0  0  0  0  0  0  0  0  0  0
    9.4460   -5.5639   27.8143 H   0  0  0  0  0  0  0  0  0  0  0  0
   10.0083   -6.8392   25.6817 H   0  0  0  0  0  0  0  0  0  0  0  0
    9.6089   -6.0802   24.1251 H   0  0  0  0  0  0  0  0  0  0  0  0
    7.0281   -5.7334   28.2231 H   0  0  0  0  0  0  0  0  0  0  0  0
    6.6541   -4.9678   26.6754 H   0  0  0  0  0  0  0  0  0  0  0  0
    7.1860   -6.2177   24.6318 H   0  0  0  0  0  0  0  0  0  0  0  0
    7.9246   -7.8119   24.8187 H   0  0  0  0  0  0  0  0  0  0  0  0
   15.1476    0.9210   22.0511 H   0  0  0  0  0  0  0  0  0  0  0  0
   15.6114    0.2444   23.6493 H   0  0  0  0  0  0  0  0  0  0  0  0
   14.7119   -0.7663   22.4898 H   0  0  0  0  0  0  0  0  0  0  0  0
    9.5745    0.9898   24.7716 H   0  0  0  0  0  0  0  0  0  0  0  0
    9.5850    1.9832   23.3140 H   0  0  0  0  0  0  0  0  0  0  0  0
    7.4781   -1.4136   21.8845 H   0  0  0  0  0  0  0  0  0  0  0  0
    8.7420   -1.7550   20.6889 H   0  0  0  0  0  0  0  0  0  0  0  0
    8.4371   -1.0264   18.3897 H   0  0  0  0  0  0  0  0  0  0  0  0
  1  2  1  0  0  0  0
  1  3  2  0  0  0  0
  2  4  2  0  0  0  0
  3 11  1  0  0  0  0
  4 13  1  0  0  0  0
  5  7  2  0  0  0  0
  5 14  1  0  0  0  0
  6  8  1  0  0  0  0
  6 14  2  0  0  0  0
  7 15  1  0  0  0  0
  8 15  2  0  0  0  0
  9 12  1  0  0  0  0
  9 25  2  0  0  0  0
 10 12  2  0  0  0  0
 10 28  1  0  0  0  0
 11 13  1  0  0  0  0
 11 16  2  0  0  0  0
 12 23  1  0  0  0  0
 13 26  2  0  0  0  0
 14 29  1  0  0  0  0
 15 30  1  0  0  0  0
 16 24  1  0  0  0  0
 16 27  1  0  0  0  0
 17 24  1  0  0  0  0
 17 30  1  0  0  0  0
 17 31  2  0  0  0  0
 18 20  1  0  0  0  0
 18 29  1  0  0  0  0
 19 21  1  0  0  0  0
 19 29  1  0  0  0  0
 20 32  1  0  0  0  0
 21 32  1  0  0  0  0
 22 28  1  0  0  0  0
 23 30  1  0  0  0  0
 25 28  1  0  0  0  0
 26 27  1  0  0  0  0
  1 33  1  0  0  0  0
  2 34  1  0  0  0  0
  3 35  1  0  0  0  0
  4 36  1  0  0  0  0
  5 37  1  0  0  0  0
  6 38  1  0  0  0  0
  7 39  1  0  0  0  0
  8 40  1  0  0  0  0
  9 41  1  0  0  0  0
 10 42  1  0  0  0  0
 18 43  1  0  0  0  0
 18 44  1  0  0  0  0
 19 45  1  0  0  0  0
 19 46  1  0  0  0  0
 20 47  1  0  0  0  0
 20 48  1  0  0  0  0
 21 49  1  0  0  0  0
 21 50  1  0  0  0  0
 22 51  1  0  0  0  0
 22 52  1  0  0  0  0
 22 53  1  0  0  0  0
 23 54  1  0  0  0  0
 23 55  1  0  0  0  0
 24 56  1  0  0  0  0
 24 57  1  0  0  0  0
 27 58  1  0  0  0  0
M  END
> <clash_score>
0

> <docking_score>
-8.860614776611328

> <overlap_score>
0.9952516555786133

$$$$
BENZO_423_1
  -OEChem-08232013513D

 52 55  0     0  0  0  0  0  0999 V2000
    8.3510   -1.5420   24.6110 C   0  0  0  0  0  0  0  0  0  0  0  0
   10.2760   -2.3270   23.4020 C   0  0  0  0  0  0  0  0  0  0  0  0
    8.3310   -2.7170   25.3430 C   0  0  0  0  0  0  0  0  0  0  0  0
   10.2570   -3.5000   24.1350 C   0  0  0  0  0  0  0  0  0  0  0  0
   12.5203    1.6732   24.4318 C   0  0  0  0  0  0  0  0  0  0  0  0
   12.3475    0.2366   22.7761 C   0  0  0  0  0  0  0  0  0  0  0  0
   11.5834    0.9837   23.6390 C   0  0  0  0  0  0  0  0  0  0  0  0
    9.3300   -1.3350   23.6390 C   0  0  0  0  0  0  0  0  0  0  0  0
    9.2850   -3.7090   25.1090 C   0  0  0  0  0  0  0  0  0  0  0  0
    6.1600    0.3870   20.1140 C   0  0  0  0  0  0  0  0  0  0  0  0
    7.2210   -0.4620   20.0350 C   0  0  0  0  0  0  0  0  0  0  0  0
    5.3360    0.8000   21.1530 C   0  0  0  0  0  0  0  0  0  0  0  0
    4.2970    1.6690   20.8430 C   0  0  0  0  0  0  0  0  0  0  0  0
    4.0980    2.1130   19.5350 C   0  0  0  0  0  0  0  0  0  0  0  0
    4.9400    1.7060   18.5060 C   0  0  0  0  0  0  0  0  0  0  0  0
    8.9510    0.1280   21.6880 C   0  0  0  0  0  0  0  0  0  0  0  0
   14.8175   -0.0375   22.4558 C   0  0  0  0  0  0  0  0  0  0  0  0
    8.2493   -5.1167   26.8639 C   0  0  0  0  0  0  0  0  0  0  0  0
   10.2421   -5.9414   25.6002 C   0  0  0  0  0  0  0  0  0  0  0  0
   10.0855    1.0467   23.7186 C   0  0  0  0  0  0  0  0  0  0  0  0
    8.0810   -0.9750   21.0820 C   0  0  0  0  0  0  0  0  0  0  0  0
   13.7831    1.3893   24.1020 N   0  0  0  0  0  0  0  0  0  0  0  0
    7.6830   -0.5170   18.7600 N   0  0  0  0  0  0  0  0  0  0  0  0
    6.9440    0.2550   18.0100 N   0  0  0  0  0  0  0  0  0  0  0  0
   13.6450    0.5130   23.0925 N   0  0  0  0  0  0  0  0  0  0  0  0
    5.9810    0.8330   18.8060 N   0  0  0  0  0  0  0  0  0  0  0  0
    9.4200   -0.0840   22.9530 N   0  0  0  0  0  0  0  0  0  0  0  0
    9.2624   -4.9028   25.8498 N   0  0  0  0  0  0  0  0  0  0  0  0
    9.1870    1.1500   21.0630 O   0  0  0  0  0  0  0  0  0  0  0  0
    7.5947   -0.7787   24.7997 H   0  0  0  0  0  0  0  0  0  0  0  0
   11.0404   -2.1861   22.6352 H   0  0  0  0  0  0  0  0  0  0  0  0
    7.5641   -2.8632   26.1047 H   0  0  0  0  0  0  0  0  0  0  0  0
   11.0135   -4.2647   23.9425 H   0  0  0  0  0  0  0  0  0  0  0  0
   12.3380    2.3706   25.2372 H   0  0  0  0  0  0  0  0  0  0  0  0
   12.0849   -0.4521   21.9845 H   0  0  0  0  0  0  0  0  0  0  0  0
    5.4740    0.4765   22.1644 H   0  0  0  0  0  0  0  0  0  0  0  0
    3.6415    1.9966   21.6411 H   0  0  0  0  0  0  0  0  0  0  0  0
    3.2723    2.7926   19.2922 H   0  0  0  0  0  0  0  0  0  0  0  0
    4.8122    2.0412   17.5001 H   0  0  0  0  0  0  0  0  0  0  0  0
   15.0902    0.6194   21.6256 H   0  0  0  0  0  0  0  0  0  0  0  0
   15.6331   -0.0947   23.1819 H   0  0  0  0  0  0  0  0  0  0  0  0
   14.5918   -1.0433   22.0906 H   0  0  0  0  0  0  0  0  0  0  0  0
    8.3978   -6.1024   27.3290 H   0  0  0  0  0  0  0  0  0  0  0  0
    8.3284   -4.3333   27.6320 H   0  0  0  0  0  0  0  0  0  0  0  0
    7.2525   -5.0765   26.4004 H   0  0  0  0  0  0  0  0  0  0  0  0
   10.0583   -6.7896   26.2760 H   0  0  0  0  0  0  0  0  0  0  0  0
   10.1600   -6.2796   24.5567 H   0  0  0  0  0  0  0  0  0  0  0  0
   11.2520   -5.5432   25.7781 H   0  0  0  0  0  0  0  0  0  0  0  0
    9.7513    0.9881   24.7602 H   0  0  0  0  0  0  0  0  0  0  0  0
    9.7095    1.9902   23.3091 H   0  0  0  0  0  0  0  0  0  0  0  0
    7.4909   -1.4166   21.8987 H   0  0  0  0  0  0  0  0  0  0  0  0
    8.7548   -1.7579   20.7032 H   0  0  0  0  0  0  0  0  0  0  0  0
  1  3  2  0  0  0  0
  1  8  1  0  0  0  0
  2  4  1  0  0  0  0
  2  8  2  0  0  0  0
  3  9  1  0  0  0  0
  4  9  2  0  0  0  0
  5  7  1  0  0  0  0
  5 22  2  0  0  0  0
  6  7  2  0  0  0  0
  6 25  1  0  0  0  0
  7 20  1  0  0  0  0
  8 27  1  0  0  0  0
  9 28  1  0  0  0  0
 10 11  2  0  0  0  0
 10 12  1  0  0  0  0
 10 26  1  0  0  0  0
 11 21  1  0  0  0  0
 11 23  1  0  0  0  0
 12 13  2  0  0  0  0
 13 14  1  0  0  0  0
 14 15  2  0  0  0  0
 15 26  1  0  0  0  0
 16 21  1  0  0  0  0
 16 27  1  0  0  0  0
 16 29  2  0  0  0  0
 17 25  1  0  0  0  0
 18 28  1  0  0  0  0
 19 28  1  0  0  0  0
 20 27  1  0  0  0  0
 22 25  1  0  0  0  0
 23 24  2  0  0  0  0
 24 26  1  0  0  0  0
  1 30  1  0  0  0  0
  2 31  1  0  0  0  0
  3 32  1  0  0  0  0
  4 33  1  0  0  0  0
  5 34  1  0  0  0  0
  6 35  1  0  0  0  0
 12 36  1  0  0  0  0
 13 37  1  0  0  0  0
 14 38  1  0  0  0  0
 15 39  1  0  0  0  0
 17 40  1  0  0  0  0
 17 41  1  0  0  0  0
 17 42  1  0  0  0  0
 18 43  1  0  0  0  0
 18 44  1  0  0  0  0
 18 45  1  0  0  0  0
 19 46  1  0  0  0  0
 19 47  1  0  0  0  0
 19 48  1  0  0  0  0
 20 49  1  0  0  0  0
 20 50  1  0  0  0  0
 21 51  1  0  0  0  0
 21 52  1  0  0  0  0
M  END
> <clash_score>
0

> <docking_score>
-9.881361961364746

> <overlap_score>
0.9848436117172241

$$$$
BENZO_422_1
  -OEChem-08232013513D

 52 55  0     0  0  0  0  0  0999 V2000
   13.6668    1.8110   22.7379 C   0  0  0  0  0  0  0  0  0  0  0  0
   12.2750    1.8683   22.8114 C   0  0  0  0  0  0  0  0  0  0  0  0
    8.3510   -1.5420   24.6110 C   0  0  0  0  0  0  0  0  0  0  0  0
   10.2760   -2.3270   23.4020 C   0  0  0  0  0  0  0  0  0  0  0  0
    8.3310   -2.7170   25.3430 C   0  0  0  0  0  0  0  0  0  0  0  0
   10.2570   -3.5000   24.1350 C   0  0  0  0  0  0  0  0  0  0  0  0
   14.3669    0.8691   23.4918 C   0  0  0  0  0  0  0  0  0  0  0  0
   12.2835    0.0418   24.3930 C   0  0  0  0  0  0  0  0  0  0  0  0
   11.5834    0.9837   23.6390 C   0  0  0  0  0  0  0  0  0  0  0  0
    9.3300   -1.3350   23.6390 C   0  0  0  0  0  0  0  0  0  0  0  0
    9.2850   -3.7090   25.1090 C   0  0  0  0  0  0  0  0  0  0  0  0
   13.6752   -0.0154   24.3194 C   0  0  0  0  0  0  0  0  0  0  0  0
    6.1600    0.3870   20.1140 C   0  0  0  0  0  0  0  0  0  0  0  0
    7.2210   -0.4620   20.0350 C   0  0  0  0  0  0  0  0  0  0  0  0
    5.3360    0.8000   21.1530 C   0  0  0  0  0  0  0  0  0  0  0  0
    4.2970    1.6690   20.8430 C   0  0  0  0  0  0  0  0  0  0  0  0
    4.0980    2.1130   19.5350 C   0  0  0  0  0  0  0  0  0  0  0  0
    4.9400    1.7060   18.5060 C   0  0  0  0  0  0  0  0  0  0  0  0
    8.9510    0.1280   21.6880 C   0  0  0  0  0  0  0  0  0  0  0  0
    8.2493   -5.1167   26.8639 C   0  0  0  0  0  0  0  0  0  0  0  0
   10.2421   -5.9414   25.6002 C   0  0  0  0  0  0  0  0  0  0  0  0
   10.0855    1.0467   23.7186 C   0  0  0  0  0  0  0  0  0  0  0  0
    8.0810   -0.9750   21.0820 C   0  0  0  0  0  0  0  0  0  0  0  0
    7.6830   -0.5170   18.7600 N   0  0  0  0  0  0  0  0  0  0  0  0
    6.9440    0.2550   18.0100 N   0  0  0  0  0  0  0  0  0  0  0  0
    5.9810    0.8330   18.8060 N   0  0  0  0  0  0  0  0  0  0  0  0
    9.4200   -0.0840   22.9530 N   0  0  0  0  0  0  0  0  0  0  0  0
    9.2624   -4.9028   25.8498 N   0  0  0  0  0  0  0  0  0  0  0  0
    9.1870    1.1500   21.0630 O   0  0  0  0  0  0  0  0  0  0  0  0
   14.5396   -1.1765   25.2502 Cl  0  0  0  0  0  0  0  0  0  0  0  0
   14.2050    2.5001   22.0935 H   0  0  0  0  0  0  0  0  0  0  0  0
   11.7377    2.6055   22.2205 H   0  0  0  0  0  0  0  0  0  0  0  0
    7.5947   -0.7787   24.7997 H   0  0  0  0  0  0  0  0  0  0  0  0
   11.0404   -2.1861   22.6352 H   0  0  0  0  0  0  0  0  0  0  0  0
    7.5641   -2.8632   26.1047 H   0  0  0  0  0  0  0  0  0  0  0  0
   11.0135   -4.2647   23.9425 H   0  0  0  0  0  0  0  0  0  0  0  0
   15.4515    0.8362   23.4248 H   0  0  0  0  0  0  0  0  0  0  0  0
   11.7396   -0.6460   25.0363 H   0  0  0  0  0  0  0  0  0  0  0  0
    5.4740    0.4765   22.1644 H   0  0  0  0  0  0  0  0  0  0  0  0
    3.6415    1.9966   21.6411 H   0  0  0  0  0  0  0  0  0  0  0  0
    3.2723    2.7926   19.2922 H   0  0  0  0  0  0  0  0  0  0  0  0
    4.8122    2.0412   17.5001 H   0  0  0  0  0  0  0  0  0  0  0  0
    8.3978   -6.1024   27.3290 H   0  0  0  0  0  0  0  0  0  0  0  0
    8.3284   -4.3333   27.6320 H   0  0  0  0  0  0  0  0  0  0  0  0
    7.2525   -5.0765   26.4004 H   0  0  0  0  0  0  0  0  0  0  0  0
   10.0583   -6.7896   26.2760 H   0  0  0  0  0  0  0  0  0  0  0  0
   10.1600   -6.2796   24.5567 H   0  0  0  0  0  0  0  0  0  0  0  0
   11.2520   -5.5432   25.7781 H   0  0  0  0  0  0  0  0  0  0  0  0
    9.7513    0.9881   24.7602 H   0  0  0  0  0  0  0  0  0  0  0  0
    9.7095    1.9902   23.3091 H   0  0  0  0  0  0  0  0  0  0  0  0
    7.4909   -1.4166   21.8987 H   0  0  0  0  0  0  0  0  0  0  0  0
    8.7548   -1.7579   20.7032 H   0  0  0  0  0  0  0  0  0  0  0  0
  1  2  2  0  0  0  0
  1  7  1  0  0  0  0
  2  9  1  0  0  0  0
  3  5  2  0  0  0  0
  3 10  1  0  0  0  0
  4  6  1  0  0  0  0
  4 10  2  0  0  0  0
  5 11  1  0  0  0  0
  6 11  2  0  0  0  0
  7 12  2  0  0  0  0
  8  9  2  0  0  0  0
  8 12  1  0  0  0  0
  9 22  1  0  0  0  0
 10 27  1  0  0  0  0
 11 28  1  0  0  0  0
 12 30  1  0  0  0  0
 13 14  2  0  0  0  0
 13 15  1  0  0  0  0
 13 26  1  0  0  0  0
 14 23  1  0  0  0  0
 14 24  1  0  0  0  0
 15 16  2  0  0  0  0
 16 17  1  0  0  0  0
 17 18  2  0  0  0  0
 18 26  1  0  0  0  0
 19 23  1  0  0  0  0
 19 27  1  0  0  0  0
 19 29  2  0  0  0  0
 20 28  1  0  0  0  0
 21 28  1  0  0  0  0
 22 27  1  0  0  0  0
 24 25  2  0  0  0  0
 25 26  1  0  0  0  0
  1 31  1  0  0  0  0
  2 32  1  0  0  0  0
  3 33  1  0  0  0  0
  4 34  1  0  0  0  0
  5 35  1  0  0  0  0
  6 36  1  0  0  0  0
  7 37  1  0  0  0  0
  8 38  1  0  0  0  0
 15 39  1  0  0  0  0
 16 40  1  0  0  0  0
 17 41  1  0  0  0  0
 18 42  1  0  0  0  0
 20 43  1  0  0  0  0
 20 44  1  0  0  0  0
 20 45  1  0  0  0  0
 21 46  1  0  0  0  0
 21 47  1  0  0  0  0
 21 48  1  0  0  0  0
 22 49  1  0  0  0  0
 22 50  1  0  0  0  0
 23 51  1  0  0  0  0
 23 52  1  0  0  0  0
M  END
> <clash_score>
0.799019016979202

> <docking_score>
-8.880898475646973

> <overlap_score>
1.0049229860305786

$$$$
BENZO_425_1
  -OEChem-08232013513D

 54 57  0     0  0  0  0  0  0999 V2000
   14.3667    0.8669   23.4897 C   0  0  0  0  0  0  0  0  0  0  0  0
   13.6954    0.2093   24.5205 C   0  0  0  0  0  0  0  0  0  0  0  0
   13.6464    1.5830   22.5336 C   0  0  0  0  0  0  0  0  0  0  0  0
   12.3037    0.2677   24.5951 C   0  0  0  0  0  0  0  0  0  0  0  0
   12.2548    1.6414   22.6082 C   0  0  0  0  0  0  0  0  0  0  0  0
    8.3310   -2.7170   25.3430 C   0  0  0  0  0  0  0  0  0  0  0  0
   10.2570   -3.5000   24.1350 C   0  0  0  0  0  0  0  0  0  0  0  0
    8.3510   -1.5420   24.6110 C   0  0  0  0  0  0  0  0  0  0  0  0
   10.2760   -2.3270   23.4020 C   0  0  0  0  0  0  0  0  0  0  0  0
   11.5834    0.9837   23.6390 C   0  0  0  0  0  0  0  0  0  0  0  0
    9.2850   -3.7090   25.1090 C   0  0  0  0  0  0  0  0  0  0  0  0
    9.3300   -1.3350   23.6390 C   0  0  0  0  0  0  0  0  0  0  0  0
    6.1600    0.3870   20.1140 C   0  0  0  0  0  0  0  0  0  0  0  0
    7.2210   -0.4620   20.0350 C   0  0  0  0  0  0  0  0  0  0  0  0
    5.3360    0.8000   21.1530 C   0  0  0  0  0  0  0  0  0  0  0  0
    4.2970    1.6690   20.8430 C   0  0  0  0  0  0  0  0  0  0  0  0
    4.0980    2.1130   19.5350 C   0  0  0  0  0  0  0  0  0  0  0  0
    4.9400    1.7060   18.5060 C   0  0  0  0  0  0  0  0  0  0  0  0
    8.9510    0.1280   21.6880 C   0  0  0  0  0  0  0  0  0  0  0  0
    9.6848   -6.1688   25.4417 C   0  0  0  0  0  0  0  0  0  0  0  0
    8.0385   -7.2892   27.0037 C   0  0  0  0  0  0  0  0  0  0  0  0
   10.0855    1.0467   23.7186 C   0  0  0  0  0  0  0  0  0  0  0  0
    8.0810   -0.9750   21.0820 C   0  0  0  0  0  0  0  0  0  0  0  0
    9.4852   -7.1862   26.5551 C   0  0  0  0  0  0  0  0  0  0  0  0
    7.6830   -0.5170   18.7600 N   0  0  0  0  0  0  0  0  0  0  0  0
    6.9440    0.2550   18.0100 N   0  0  0  0  0  0  0  0  0  0  0  0
    5.9810    0.8330   18.8060 N   0  0  0  0  0  0  0  0  0  0  0  0
    9.2630   -4.8902   25.8410 N   0  0  0  0  0  0  0  0  0  0  0  0
    9.4200   -0.0840   22.9530 N   0  0  0  0  0  0  0  0  0  0  0  0
    9.1870    1.1500   21.0630 O   0  0  0  0  0  0  0  0  0  0  0  0
   10.1584   -6.4795   24.3537 O   0  0  0  0  0  0  0  0  0  0  0  0
   15.4504    0.8225   23.4325 H   0  0  0  0  0  0  0  0  0  0  0  0
   14.2561   -0.3474   25.2656 H   0  0  0  0  0  0  0  0  0  0  0  0
   14.1688    2.0960   21.7316 H   0  0  0  0  0  0  0  0  0  0  0  0
   11.7891   -0.2480   25.4016 H   0  0  0  0  0  0  0  0  0  0  0  0
   11.7019    2.2015   21.8588 H   0  0  0  0  0  0  0  0  0  0  0  0
    7.5639   -2.8621   26.1045 H   0  0  0  0  0  0  0  0  0  0  0  0
   11.0141   -4.2644   23.9422 H   0  0  0  0  0  0  0  0  0  0  0  0
    7.5950   -0.7788   24.8007 H   0  0  0  0  0  0  0  0  0  0  0  0
   11.0408   -2.1861   22.6359 H   0  0  0  0  0  0  0  0  0  0  0  0
    5.4740    0.4765   22.1644 H   0  0  0  0  0  0  0  0  0  0  0  0
    3.6415    1.9966   21.6411 H   0  0  0  0  0  0  0  0  0  0  0  0
    3.2723    2.7926   19.2922 H   0  0  0  0  0  0  0  0  0  0  0  0
    4.8122    2.0412   17.5001 H   0  0  0  0  0  0  0  0  0  0  0  0
    7.6697   -6.3242   27.3667 H   0  0  0  0  0  0  0  0  0  0  0  0
    7.9416   -8.0189   27.8135 H   0  0  0  0  0  0  0  0  0  0  0  0
    7.3926   -7.6064   26.1784 H   0  0  0  0  0  0  0  0  0  0  0  0
    9.7513    0.9881   24.7602 H   0  0  0  0  0  0  0  0  0  0  0  0
    9.7095    1.9902   23.3091 H   0  0  0  0  0  0  0  0  0  0  0  0
    7.4909   -1.4166   21.8987 H   0  0  0  0  0  0  0  0  0  0  0  0
    8.7548   -1.7579   20.7032 H   0  0  0  0  0  0  0  0  0  0  0  0
    9.8274   -8.1642   26.1976 H   0  0  0  0  0  0  0  0  0  0  0  0
   10.1123   -6.8975   27.4065 H   0  0  0  0  0  0  0  0  0  0  0  0
    8.8927   -4.8256   26.7964 H   0  0  0  0  0  0  0  0  0  0  0  0
  1  2  1  0  0  0  0
  1  3  2  0  0  0  0
  2  4  2  0  0  0  0
  3  5  1  0  0  0  0
  4 10  1  0  0  0  0
  5 10  2  0  0  0  0
  6  8  2  0  0  0  0
  6 11  1  0  0  0  0
  7  9  1  0  0  0  0
  7 11  2  0  0  0  0
  8 12  1  0  0  0  0
  9 12  2  0  0  0  0
 10 22  1  0  0  0  0
 11 28  1  0  0  0  0
 12 29  1  0  0  0  0
 13 14  2  0  0  0  0
 13 15  1  0  0  0  0
 13 27  1  0  0  0  0
 14 23  1  0  0  0  0
 14 25  1  0  0  0  0
 15 16  2  0  0  0  0
 16 17  1  0  0  0  0
 17 18  2  0  0  0  0
 18 27  1  0  0  0  0
 19 23  1  0  0  0  0
 19 29  1  0  0  0  0
 19 30  2  0  0  0  0
 20 24  1  0  0  0  0
 20 28  1  0  0  0  0
 20 31  2  0  0  0  0
 21 24  1  0  0  0  0
 22 29  1  0  0  0  0
 25 26  2  0  0  0  0
 26 27  1  0  0  0  0
  1 32  1  0  0  0  0
  2 33  1  0  0  0  0
  3 34  1  0  0  0  0
  4 35  1  0  0  0  0
  5 36  1  0  0  0  0
  6 37  1  0  0  0  0
  7 38  1  0  0  0  0
  8 39  1  0  0  0  0
  9 40  1  0  0  0  0
 15 41  1  0  0  0  0
 16 42  1  0  0  0  0
 17 43  1  0  0  0  0
 18 44  1  0  0  0  0
 21 45  1  0  0  0  0
 21 46  1  0  0  0  0
 21 47  1  0  0  0  0
 22 48  1  0  0  0  0
 22 49  1  0  0  0  0
 23 50  1  0  0  0  0
 23 51  1  0  0  0  0
 24 52  1  0  0  0  0
 24 53  1  0  0  0  0
 28 54  1  0  0  0  0
M  END
> <clash_score>
1.3336338752298933

> <docking_score>
-6.198037147521973

> <overlap_score>
0.984592854976654

$$$$
BENZO_424_1
  -OEChem-08232013513D

 51 54  0     0  0  0  0  0  0999 V2000
    8.3310   -2.7170   25.3430 C   0  0  0  0  0  0  0  0  0  0  0  0
   10.2570   -3.5000   24.1350 C   0  0  0  0  0  0  0  0  0  0  0  0
    8.3510   -1.5420   24.6110 C   0  0  0  0  0  0  0  0  0  0  0  0
   10.2760   -2.3270   23.4020 C   0  0  0  0  0  0  0  0  0  0  0  0
   12.3172    1.0367   22.4188 C   0  0  0  0  0  0  0  0  0  0  0  0
   13.6764    0.9588   22.6285 C   0  0  0  0  0  0  0  0  0  0  0  0
   12.4099    0.8670   24.7350 C   0  0  0  0  0  0  0  0  0  0  0  0
   11.5834    0.9837   23.6390 C   0  0  0  0  0  0  0  0  0  0  0  0
    9.2850   -3.7090   25.1090 C   0  0  0  0  0  0  0  0  0  0  0  0
    9.3300   -1.3350   23.6390 C   0  0  0  0  0  0  0  0  0  0  0  0
    6.1600    0.3870   20.1140 C   0  0  0  0  0  0  0  0  0  0  0  0
    7.2210   -0.4620   20.0350 C   0  0  0  0  0  0  0  0  0  0  0  0
    5.3360    0.8000   21.1530 C   0  0  0  0  0  0  0  0  0  0  0  0
    4.2970    1.6690   20.8430 C   0  0  0  0  0  0  0  0  0  0  0  0
    4.0980    2.1130   19.5350 C   0  0  0  0  0  0  0  0  0  0  0  0
    4.9400    1.7060   18.5060 C   0  0  0  0  0  0  0  0  0  0  0  0
    8.9510    0.1280   21.6880 C   0  0  0  0  0  0  0  0  0  0  0  0
    9.6848   -6.1688   25.4417 C   0  0  0  0  0  0  0  0  0  0  0  0
    8.0385   -7.2892   27.0037 C   0  0  0  0  0  0  0  0  0  0  0  0
   10.0855    1.0467   23.7186 C   0  0  0  0  0  0  0  0  0  0  0  0
    8.0810   -0.9750   21.0820 C   0  0  0  0  0  0  0  0  0  0  0  0
    9.4852   -7.1862   26.5551 C   0  0  0  0  0  0  0  0  0  0  0  0
    7.6830   -0.5170   18.7600 N   0  0  0  0  0  0  0  0  0  0  0  0
    6.9440    0.2550   18.0100 N   0  0  0  0  0  0  0  0  0  0  0  0
    5.9810    0.8330   18.8060 N   0  0  0  0  0  0  0  0  0  0  0  0
    9.2630   -4.8902   25.8410 N   0  0  0  0  0  0  0  0  0  0  0  0
    9.4200   -0.0840   22.9530 N   0  0  0  0  0  0  0  0  0  0  0  0
    9.1870    1.1500   21.0630 O   0  0  0  0  0  0  0  0  0  0  0  0
   10.1584   -6.4795   24.3537 O   0  0  0  0  0  0  0  0  0  0  0  0
   14.0631    0.8222   24.2911 S   0  0  0  0  0  0  0  0  0  0  0  0
    7.5639   -2.8621   26.1045 H   0  0  0  0  0  0  0  0  0  0  0  0
   11.0141   -4.2644   23.9422 H   0  0  0  0  0  0  0  0  0  0  0  0
    7.5950   -0.7788   24.8007 H   0  0  0  0  0  0  0  0  0  0  0  0
   11.0408   -2.1861   22.6359 H   0  0  0  0  0  0  0  0  0  0  0  0
   11.8745    1.1270   21.4348 H   0  0  0  0  0  0  0  0  0  0  0  0
   14.4608    0.9748   21.8851 H   0  0  0  0  0  0  0  0  0  0  0  0
   12.1261    0.8045   25.7764 H   0  0  0  0  0  0  0  0  0  0  0  0
    5.4740    0.4765   22.1644 H   0  0  0  0  0  0  0  0  0  0  0  0
    3.6415    1.9966   21.6411 H   0  0  0  0  0  0  0  0  0  0  0  0
    3.2723    2.7926   19.2922 H   0  0  0  0  0  0  0  0  0  0  0  0
    4.8122    2.0412   17.5001 H   0  0  0  0  0  0  0  0  0  0  0  0
    7.6697   -6.3242   27.3667 H   0  0  0  0  0  0  0  0  0  0  0  0
    7.9416   -8.0189   27.8135 H   0  0  0  0  0  0  0  0  0  0  0  0
    7.3926   -7.6064   26.1784 H   0  0  0  0  0  0  0  0  0  0  0  0
    9.7513    0.9881   24.7602 H   0  0  0  0  0  0  0  0  0  0  0  0
    9.7095    1.9902   23.3091 H   0  0  0  0  0  0  0  0  0  0  0  0
    7.4909   -1.4166   21.8987 H   0  0  0  0  0  0  0  0  0  0  0  0
    8.7548   -1.7579   20.7032 H   0  0  0  0  0  0  0  0  0  0  0  0
    9.8274   -8.1642   26.1976 H   0  0  0  0  0  0  0  0  0  0  0  0
   10.1123   -6.8975   27.4065 H   0  0  0  0  0  0  0  0  0  0  0  0
    8.8927   -4.8256   26.7964 H   0  0  0  0  0  0  0  0  0  0  0  0
  1  3  2  0  0  0  0
  1  9  1  0  0  0  0
  2  4  1  0  0  0  0
  2  9  2  0  0  0  0
  3 10  1  0  0  0  0
  4 10  2  0  0  0  0
  5  6  2  0  0  0  0
  5  8  1  0  0  0  0
  6 30  1  0  0  0  0
  7  8  2  0  0  0  0
  7 30  1  0  0  0  0
  8 20  1  0  0  0  0
  9 26  1  0  0  0  0
 10 27  1  0  0  0  0
 11 12  2  0  0  0  0
 11 13  1  0  0  0  0
 11 25  1  0  0  0  0
 12 21  1  0  0  0  0
 12 23  1  0  0  0  0
 13 14  2  0  0  0  0
 14 15  1  0  0  0  0
 15 16  2  0  0  0  0
 16 25  1  0  0  0  0
 17 21  1  0  0  0  0
 17 27  1  0  0  0  0
 17 28  2  0  0  0  0
 18 22  1  0  0  0  0
 18 26  1  0  0  0  0
 18 29  2  0  0  0  0
 19 22  1  0  0  0  0
 20 27  1  0  0  0  0
 23 24  2  0  0  0  0
 24 25  1  0  0  0  0
  1 31  1  0  0  0  0
  2 32  1  0  0  0  0
  3 33  1  0  0  0  0
  4 34  1  0  0  0  0
  5 35  1  0  0  0  0
  6 36  1  0  0  0  0
  7 37  1  0  0  0  0
 13 38  1  0  0  0  0
 14 39  1  0  0  0  0
 15 40  1  0  0  0  0
 16 41  1  0  0  0  0
 19 42  1  0  0  0  0
 19 43  1  0  0  0  0
 19 44  1  0  0  0  0
 20 45  1  0  0  0  0
 20 46  1  0  0  0  0
 21 47  1  0  0  0  0
 21 48  1  0  0  0  0
 22 49  1  0  0  0  0
 22 50  1  0  0  0  0
 26 51  1  0  0  0  0
M  END
> <clash_score>
1.3336338752298933

> <docking_score>
-6.5359697341918945

> <overlap_score>
0.9593943953514099

$$$$
BENZO_429_1
  -OEChem-08232013513D

 59 63  0     0  0  0  0  0  0999 V2000
   14.2727    1.1212   23.8270 C   0  0  0  0  0  0  0  0  0  0  0  0
   13.5688    0.4211   24.8068 C   0  0  0  0  0  0  0  0  0  0  0  0
   13.5821    1.8030   22.8250 C   0  0  0  0  0  0  0  0  0  0  0  0
   12.1743    0.4025   24.7845 C   0  0  0  0  0  0  0  0  0  0  0  0
   12.1875    1.7844   22.8027 C   0  0  0  0  0  0  0  0  0  0  0  0
    8.3310   -2.7170   25.3430 C   0  0  0  0  0  0  0  0  0  0  0  0
   10.2570   -3.5000   24.1350 C   0  0  0  0  0  0  0  0  0  0  0  0
    8.3510   -1.5420   24.6110 C   0  0  0  0  0  0  0  0  0  0  0  0
   10.2760   -2.3270   23.4020 C   0  0  0  0  0  0  0  0  0  0  0  0
   11.4836    1.0842   23.7825 C   0  0  0  0  0  0  0  0  0  0  0  0
    9.2850   -3.7090   25.1090 C   0  0  0  0  0  0  0  0  0  0  0  0
    9.3300   -1.3350   23.6390 C   0  0  0  0  0  0  0  0  0  0  0  0
    6.1600    0.3870   20.1140 C   0  0  0  0  0  0  0  0  0  0  0  0
    7.2210   -0.4620   20.0350 C   0  0  0  0  0  0  0  0  0  0  0  0
    5.3360    0.8000   21.1530 C   0  0  0  0  0  0  0  0  0  0  0  0
    4.2970    1.6690   20.8430 C   0  0  0  0  0  0  0  0  0  0  0  0
    4.0980    2.1130   19.5350 C   0  0  0  0  0  0  0  0  0  0  0  0
    4.9400    1.7060   18.5060 C   0  0  0  0  0  0  0  0  0  0  0  0
    8.9510    0.1280   21.6880 C   0  0  0  0  0  0  0  0  0  0  0  0
    7.3162   -6.8835   26.5210 C   0  0  0  0  0  0  0  0  0  0  0  0
    7.3507   -5.5245   27.2240 C   0  0  0  0  0  0  0  0  0  0  0  0
    7.9375   -6.8069   25.1245 C   0  0  0  0  0  0  0  0  0  0  0  0
    8.7638   -4.9418   27.2163 C   0  0  0  0  0  0  0  0  0  0  0  0
    9.3378   -6.1874   25.1659 C   0  0  0  0  0  0  0  0  0  0  0  0
    9.9825    1.0644   23.7577 C   0  0  0  0  0  0  0  0  0  0  0  0
    8.0810   -0.9750   21.0820 C   0  0  0  0  0  0  0  0  0  0  0  0
    7.6830   -0.5170   18.7600 N   0  0  0  0  0  0  0  0  0  0  0  0
    6.9440    0.2550   18.0100 N   0  0  0  0  0  0  0  0  0  0  0  0
    5.9810    0.8330   18.8060 N   0  0  0  0  0  0  0  0  0  0  0  0
    9.2639   -4.8860   25.8399 N   0  0  0  0  0  0  0  0  0  0  0  0
    9.4200   -0.0840   22.9530 N   0  0  0  0  0  0  0  0  0  0  0  0
    9.1870    1.1500   21.0630 O   0  0  0  0  0  0  0  0  0  0  0  0
   15.3586    1.1367   23.8453 H   0  0  0  0  0  0  0  0  0  0  0  0
   14.1064   -0.1089   25.5877 H   0  0  0  0  0  0  0  0  0  0  0  0
   14.1298    2.3491   22.0627 H   0  0  0  0  0  0  0  0  0  0  0  0
   11.6342   -0.1459   25.5518 H   0  0  0  0  0  0  0  0  0  0  0  0
   11.6579    2.3182   22.0182 H   0  0  0  0  0  0  0  0  0  0  0  0
    7.5647   -2.8621   26.1053 H   0  0  0  0  0  0  0  0  0  0  0  0
   11.0144   -4.2642   23.9425 H   0  0  0  0  0  0  0  0  0  0  0  0
    7.5958   -0.7779   24.8006 H   0  0  0  0  0  0  0  0  0  0  0  0
   11.0406   -2.1848   22.6356 H   0  0  0  0  0  0  0  0  0  0  0  0
    5.4740    0.4765   22.1644 H   0  0  0  0  0  0  0  0  0  0  0  0
    3.6415    1.9966   21.6411 H   0  0  0  0  0  0  0  0  0  0  0  0
    3.2723    2.7926   19.2922 H   0  0  0  0  0  0  0  0  0  0  0  0
    4.8122    2.0412   17.5001 H   0  0  0  0  0  0  0  0  0  0  0  0
    7.8578   -7.6261   27.1266 H   0  0  0  0  0  0  0  0  0  0  0  0
    6.2773   -7.2358   26.4459 H   0  0  0  0  0  0  0  0  0  0  0  0
    6.6663   -4.8351   26.7223 H   0  0  0  0  0  0  0  0  0  0  0  0
    7.0044   -5.6368   28.2534 H   0  0  0  0  0  0  0  0  0  0  0  0
    7.9946   -7.8119   24.6937 H   0  0  0  0  0  0  0  0  0  0  0  0
    7.2929   -6.2123   24.4668 H   0  0  0  0  0  0  0  0  0  0  0  0
    8.7343   -3.9408   27.6542 H   0  0  0  0  0  0  0  0  0  0  0  0
    9.4243   -5.5632   27.8278 H   0  0  0  0  0  0  0  0  0  0  0  0
   10.0200   -6.8490   25.7011 H   0  0  0  0  0  0  0  0  0  0  0  0
    9.6984   -6.0694   24.1436 H   0  0  0  0  0  0  0  0  0  0  0  0
    9.5805    0.9993   24.7746 H   0  0  0  0  0  0  0  0  0  0  0  0
    9.5848    1.9806   23.3087 H   0  0  0  0  0  0  0  0  0  0  0  0
    7.4781   -1.4136   21.8845 H   0  0  0  0  0  0  0  0  0  0  0  0
    8.7420   -1.7550   20.6889 H   0  0  0  0  0  0  0  0  0  0  0  0
  1  2  1  0  0  0  0
  1  3  2  0  0  0  0
  2  4  2  0  0  0  0
  3  5  1  0  0  0  0
  4 10  1  0  0  0  0
  5 10  2  0  0  0  0
  6  8  2  0  0  0  0
  6 11  1  0  0  0  0
  7  9  1  0  0  0  0
  7 11  2  0  0  0  0
  8 12  1  0  0  0  0
  9 12  2  0  0  0  0
 10 25  1  0  0  0  0
 11 30  1  0  0  0  0
 12 31  1  0  0  0  0
 13 14  2  0  0  0  0
 13 15  1  0  0  0  0
 13 29  1  0  0  0  0
 14 26  1  0  0  0  0
 14 27  1  0  0  0  0
 15 16  2  0  0  0  0
 16 17  1  0  0  0  0
 17 18  2  0  0  0  0
 18 29  1  0  0  0  0
 19 26  1  0  0  0  0
 19 31  1  0  0  0  0
 19 32  2  0  0  0  0
 20 21  1  0  0  0  0
 20 22  1  0  0  0  0
 21 23  1  0  0  0  0
 22 24  1  0  0  0  0
 23 30  1  0  0  0  0
 24 30  1  0  0  0  0
 25 31  1  0  0  0  0
 27 28  2  0  0  0  0
 28 29  1  0  0  0  0
  1 33  1  0  0  0  0
  2 34  1  0  0  0  0
  3 35  1  0  0  0  0
  4 36  1  0  0  0  0
  5 37  1  0  0  0  0
  6 38  1  0  0  0  0
  7 39  1  0  0  0  0
  8 40  1  0  0  0  0
  9 41  1  0  0  0  0
 15 42  1  0  0  0  0
 16 43  1  0  0  0  0
 17 44  1  0  0  0  0
 18 45  1  0  0  0  0
 20 46  1  0  0  0  0
 20 47  1  0  0  0  0
 21 48  1  0  0  0  0
 21 49  1  0  0  0  0
 22 50  1  0  0  0  0
 22 51  1  0  0  0  0
 23 52  1  0  0  0  0
 23 53  1  0  0  0  0
 24 54  1  0  0  0  0
 24 55  1  0  0  0  0
 25 56  1  0  0  0  0
 25 57  1  0  0  0  0
 26 58  1  0  0  0  0
 26 59  1  0  0  0  0
M  END
> <clash_score>
0

> <docking_score>
-8.648377418518066

> <overlap_score>
1.0074560642242432

$$$$
BENZO_428_1
  -OEChem-08232013513D

 56 60  0     0  0  0  0  0  0999 V2000
    8.3310   -2.7170   25.3430 C   0  0  0  0  0  0  0  0  0  0  0  0
   10.2570   -3.5000   24.1350 C   0  0  0  0  0  0  0  0  0  0  0  0
    8.3510   -1.5420   24.6110 C   0  0  0  0  0  0  0  0  0  0  0  0
   10.2760   -2.3270   23.4020 C   0  0  0  0  0  0  0  0  0  0  0  0
   12.2965    1.1638   22.6150 C   0  0  0  0  0  0  0  0  0  0  0  0
   13.6401    1.1644   22.9190 C   0  0  0  0  0  0  0  0  0  0  0  0
   12.2369    1.0266   24.9345 C   0  0  0  0  0  0  0  0  0  0  0  0
   11.4836    1.0842   23.7825 C   0  0  0  0  0  0  0  0  0  0  0  0
    9.2850   -3.7090   25.1090 C   0  0  0  0  0  0  0  0  0  0  0  0
    9.3300   -1.3350   23.6390 C   0  0  0  0  0  0  0  0  0  0  0  0
    6.1600    0.3870   20.1140 C   0  0  0  0  0  0  0  0  0  0  0  0
    7.2210   -0.4620   20.0350 C   0  0  0  0  0  0  0  0  0  0  0  0
    5.3360    0.8000   21.1530 C   0  0  0  0  0  0  0  0  0  0  0  0
    4.2970    1.6690   20.8430 C   0  0  0  0  0  0  0  0  0  0  0  0
    4.0980    2.1130   19.5350 C   0  0  0  0  0  0  0  0  0  0  0  0
    4.9400    1.7060   18.5060 C   0  0  0  0  0  0  0  0  0  0  0  0
    8.9510    0.1280   21.6880 C   0  0  0  0  0  0  0  0  0  0  0  0
    7.3162   -6.8835   26.5210 C   0  0  0  0  0  0  0  0  0  0  0  0
    7.3507   -5.5245   27.2240 C   0  0  0  0  0  0  0  0  0  0  0  0
    7.9375   -6.8069   25.1245 C   0  0  0  0  0  0  0  0  0  0  0  0
    8.7638   -4.9418   27.2163 C   0  0  0  0  0  0  0  0  0  0  0  0
    9.3378   -6.1874   25.1659 C   0  0  0  0  0  0  0  0  0  0  0  0
    9.9825    1.0644   23.7577 C   0  0  0  0  0  0  0  0  0  0  0  0
    8.0810   -0.9750   21.0820 C   0  0  0  0  0  0  0  0  0  0  0  0
    7.6830   -0.5170   18.7600 N   0  0  0  0  0  0  0  0  0  0  0  0
    6.9440    0.2550   18.0100 N   0  0  0  0  0  0  0  0  0  0  0  0
    5.9810    0.8330   18.8060 N   0  0  0  0  0  0  0  0  0  0  0  0
    9.2639   -4.8860   25.8399 N   0  0  0  0  0  0  0  0  0  0  0  0
    9.4200   -0.0840   22.9530 N   0  0  0  0  0  0  0  0  0  0  0  0
    9.1870    1.1500   21.0630 O   0  0  0  0  0  0  0  0  0  0  0  0
   13.9170    1.0690   24.6062 S   0  0  0  0  0  0  0  0  0  0  0  0
    7.5647   -2.8621   26.1053 H   0  0  0  0  0  0  0  0  0  0  0  0
   11.0144   -4.2642   23.9425 H   0  0  0  0  0  0  0  0  0  0  0  0
    7.5958   -0.7779   24.8006 H   0  0  0  0  0  0  0  0  0  0  0  0
   11.0406   -2.1848   22.6356 H   0  0  0  0  0  0  0  0  0  0  0  0
   11.9191    1.2177   21.6016 H   0  0  0  0  0  0  0  0  0  0  0  0
   14.4722    1.2155   22.2312 H   0  0  0  0  0  0  0  0  0  0  0  0
   11.8852    0.9605   25.9547 H   0  0  0  0  0  0  0  0  0  0  0  0
    5.4740    0.4765   22.1644 H   0  0  0  0  0  0  0  0  0  0  0  0
    3.6415    1.9966   21.6411 H   0  0  0  0  0  0  0  0  0  0  0  0
    3.2723    2.7926   19.2922 H   0  0  0  0  0  0  0  0  0  0  0  0
    4.8122    2.0412   17.5001 H   0  0  0  0  0  0  0  0  0  0  0  0
    7.8578   -7.6261   27.1266 H   0  0  0  0  0  0  0  0  0  0  0  0
    6.2773   -7.2358   26.4459 H   0  0  0  0  0  0  0  0  0  0  0  0
    6.6663   -4.8351   26.7223 H   0  0  0  0  0  0  0  0  0  0  0  0
    7.0044   -5.6368   28.2534 H   0  0  0  0  0  0  0  0  0  0  0  0
    7.9946   -7.8119   24.6937 H   0  0  0  0  0  0  0  0  0  0  0  0
    7.2929   -6.2123   24.4668 H   0  0  0  0  0  0  0  0  0  0  0  0
    8.7343   -3.9408   27.6542 H   0  0  0  0  0  0  0  0  0  0  0  0
    9.4243   -5.5632   27.8278 H   0  0  0  0  0  0  0  0  0  0  0  0
   10.0200   -6.8490   25.7011 H   0  0  0  0  0  0  0  0  0  0  0  0
    9.6984   -6.0694   24.1436 H   0  0  0  0  0  0  0  0  0  0  0  0
    9.5805    0.9993   24.7746 H   0  0  0  0  0  0  0  0  0  0  0  0
    9.5848    1.9806   23.3087 H   0  0  0  0  0  0  0  0  0  0  0  0
    7.4781   -1.4136   21.8845 H   0  0  0  0  0  0  0  0  0  0  0  0
    8.7420   -1.7550   20.6889 H   0  0  0  0  0  0  0  0  0  0  0  0
  1  3  2  0  0  0  0
  1  9  1  0  0  0  0
  2  4  1  0  0  0  0
  2  9  2  0  0  0  0
  3 10  1  0  0  0  0
  4 10  2  0  0  0  0
  5  6  2  0  0  0  0
  5  8  1  0  0  0  0
  6 31  1  0  0  0  0
  7  8  2  0  0  0  0
  7 31  1  0  0  0  0
  8 23  1  0  0  0  0
  9 28  1  0  0  0  0
 10 29  1  0  0  0  0
 11 12  2  0  0  0  0
 11 13  1  0  0  0  0
 11 27  1  0  0  0  0
 12 24  1  0  0  0  0
 12 25  1  0  0  0  0
 13 14  2  0  0  0  0
 14 15  1  0  0  0  0
 15 16  2  0  0  0  0
 16 27  1  0  0  0  0
 17 24  1  0  0  0  0
 17 29  1  0  0  0  0
 17 30  2  0  0  0  0
 18 19  1  0  0  0  0
 18 20  1  0  0  0  0
 19 21  1  0  0  0  0
 20 22  1  0  0  0  0
 21 28  1  0  0  0  0
 22 28  1  0  0  0  0
 23 29  1  0  0  0  0
 25 26  2  0  0  0  0
 26 27  1  0  0  0  0
  1 32  1  0  0  0  0
  2 33  1  0  0  0  0
  3 34  1  0  0  0  0
  4 35  1  0  0  0  0
  5 36  1  0  0  0  0
  6 37  1  0  0  0  0
  7 38  1  0  0  0  0
 13 39  1  0  0  0  0
 14 40  1  0  0  0  0
 15 41  1  0  0  0  0
 16 42  1  0  0  0  0
 18 43  1  0  0  0  0
 18 44  1  0  0  0  0
 19 45  1  0  0  0  0
 19 46  1  0  0  0  0
 20 47  1  0  0  0  0
 20 48  1  0  0  0  0
 21 49  1  0  0  0  0
 21 50  1  0  0  0  0
 22 51  1  0  0  0  0
 22 52  1  0  0  0  0
 23 53  1  0  0  0  0
 23 54  1  0  0  0  0
 24 55  1  0  0  0  0
 24 56  1  0  0  0  0
M  END
> <clash_score>
0

> <docking_score>
-9.010433197021484

> <overlap_score>
0.9859398007392883

$$$$
BENZO_426_1
  -OEChem-08232013513D

 54 57  0     0  0  0  0  0  0999 V2000
   13.6668    1.8110   22.7379 C   0  0  0  0  0  0  0  0  0  0  0  0
   12.2750    1.8683   22.8114 C   0  0  0  0  0  0  0  0  0  0  0  0
    8.3310   -2.7170   25.3430 C   0  0  0  0  0  0  0  0  0  0  0  0
   10.2570   -3.5000   24.1350 C   0  0  0  0  0  0  0  0  0  0  0  0
    8.3510   -1.5420   24.6110 C   0  0  0  0  0  0  0  0  0  0  0  0
   10.2760   -2.3270   23.4020 C   0  0  0  0  0  0  0  0  0  0  0  0
   14.3669    0.8691   23.4918 C   0  0  0  0  0  0  0  0  0  0  0  0
   12.2835    0.0418   24.3930 C   0  0  0  0  0  0  0  0  0  0  0  0
   11.5834    0.9837   23.6390 C   0  0  0  0  0  0  0  0  0  0  0  0
    9.2850   -3.7090   25.1090 C   0  0  0  0  0  0  0  0  0  0  0  0
    9.3300   -1.3350   23.6390 C   0  0  0  0  0  0  0  0  0  0  0  0
   13.6752   -0.0154   24.3194 C   0  0  0  0  0  0  0  0  0  0  0  0
    6.1600    0.3870   20.1140 C   0  0  0  0  0  0  0  0  0  0  0  0
    7.2210   -0.4620   20.0350 C   0  0  0  0  0  0  0  0  0  0  0  0
    5.3360    0.8000   21.1530 C   0  0  0  0  0  0  0  0  0  0  0  0
    4.2970    1.6690   20.8430 C   0  0  0  0  0  0  0  0  0  0  0  0
    4.0980    2.1130   19.5350 C   0  0  0  0  0  0  0  0  0  0  0  0
    4.9400    1.7060   18.5060 C   0  0  0  0  0  0  0  0  0  0  0  0
    8.9510    0.1280   21.6880 C   0  0  0  0  0  0  0  0  0  0  0  0
    9.6848   -6.1688   25.4417 C   0  0  0  0  0  0  0  0  0  0  0  0
    8.0385   -7.2892   27.0037 C   0  0  0  0  0  0  0  0  0  0  0  0
   10.0855    1.0467   23.7186 C   0  0  0  0  0  0  0  0  0  0  0  0
    8.0810   -0.9750   21.0820 C   0  0  0  0  0  0  0  0  0  0  0  0
    9.4852   -7.1862   26.5551 C   0  0  0  0  0  0  0  0  0  0  0  0
    7.6830   -0.5170   18.7600 N   0  0  0  0  0  0  0  0  0  0  0  0
    6.9440    0.2550   18.0100 N   0  0  0  0  0  0  0  0  0  0  0  0
    5.9810    0.8330   18.8060 N   0  0  0  0  0  0  0  0  0  0  0  0
    9.2630   -4.8902   25.8410 N   0  0  0  0  0  0  0  0  0  0  0  0
    9.4200   -0.0840   22.9530 N   0  0  0  0  0  0  0  0  0  0  0  0
    9.1870    1.1500   21.0630 O   0  0  0  0  0  0  0  0  0  0  0  0
   10.1584   -6.4795   24.3537 O   0  0  0  0  0  0  0  0  0  0  0  0
   14.5396   -1.1765   25.2502 Cl  0  0  0  0  0  0  0  0  0  0  0  0
   14.2050    2.5001   22.0935 H   0  0  0  0  0  0  0  0  0  0  0  0
   11.7377    2.6055   22.2205 H   0  0  0  0  0  0  0  0  0  0  0  0
    7.5639   -2.8621   26.1045 H   0  0  0  0  0  0  0  0  0  0  0  0
   11.0141   -4.2644   23.9422 H   0  0  0  0  0  0  0  0  0  0  0  0
    7.5950   -0.7788   24.8007 H   0  0  0  0  0  0  0  0  0  0  0  0
   11.0408   -2.1861   22.6359 H   0  0  0  0  0  0  0  0  0  0  0  0
   15.4515    0.8362   23.4248 H   0  0  0  0  0  0  0  0  0  0  0  0
   11.7396   -0.6460   25.0363 H   0  0  0  0  0  0  0  0  0  0  0  0
    5.4740    0.4765   22.1644 H   0  0  0  0  0  0  0  0  0  0  0  0
    3.6415    1.9966   21.6411 H   0  0  0  0  0  0  0  0  0  0  0  0
    3.2723    2.7926   19.2922 H   0  0  0  0  0  0  0  0  0  0  0  0
    4.8122    2.0412   17.5001 H   0  0  0  0  0  0  0  0  0  0  0  0
    7.6697   -6.3242   27.3667 H   0  0  0  0  0  0  0  0  0  0  0  0
    7.9416   -8.0189   27.8135 H   0  0  0  0  0  0  0  0  0  0  0  0
    7.3926   -7.6064   26.1784 H   0  0  0  0  0  0  0  0  0  0  0  0
    9.7513    0.9881   24.7602 H   0  0  0  0  0  0  0  0  0  0  0  0
    9.7095    1.9902   23.3091 H   0  0  0  0  0  0  0  0  0  0  0  0
    7.4909   -1.4166   21.8987 H   0  0  0  0  0  0  0  0  0  0  0  0
    8.7548   -1.7579   20.7032 H   0  0  0  0  0  0  0  0  0  0  0  0
    9.8274   -8.1642   26.1976 H   0  0  0  0  0  0  0  0  0  0  0  0
   10.1123   -6.8975   27.4065 H   0  0  0  0  0  0  0  0  0  0  0  0
    8.8927   -4.8256   26.7964 H   0  0  0  0  0  0  0  0  0  0  0  0
  1  2  2  0  0  0  0
  1  7  1  0  0  0  0
  2  9  1  0  0  0  0
  3  5  2  0  0  0  0
  3 10  1  0  0  0  0
  4  6  1  0  0  0  0
  4 10  2  0  0  0  0
  5 11  1  0  0  0  0
  6 11  2  0  0  0  0
  7 12  2  0  0  0  0
  8  9  2  0  0  0  0
  8 12  1  0  0  0  0
  9 22  1  0  0  0  0
 10 28  1  0  0  0  0
 11 29  1  0  0  0  0
 12 32  1  0  0  0  0
 13 14  2  0  0  0  0
 13 15  1  0  0  0  0
 13 27  1  0  0  0  0
 14 23  1  0  0  0  0
 14 25  1  0  0  0  0
 15 16  2  0  0  0  0
 16 17  1  0  0  0  0
 17 18  2  0  0  0  0
 18 27  1  0  0  0  0
 19 23  1  0  0  0  0
 19 29  1  0  0  0  0
 19 30  2  0  0  0  0
 20 24  1  0  0  0  0
 20 28  1  0  0  0  0
 20 31  2  0  0  0  0
 21 24  1  0  0  0  0
 22 29  1  0  0  0  0
 25 26  2  0  0  0  0
 26 27  1  0  0  0  0
  1 33  1  0  0  0  0
  2 34  1  0  0  0  0
  3 35  1  0  0  0  0
  4 36  1  0  0  0  0
  5 37  1  0  0  0  0
  6 38  1  0  0  0  0
  7 39  1  0  0  0  0
  8 40  1  0  0  0  0
 15 41  1  0  0  0  0
 16 42  1  0  0  0  0
 17 43  1  0  0  0  0
 18 44  1  0  0  0  0
 21 45  1  0  0  0  0
 21 46  1  0  0  0  0
 21 47  1  0  0  0  0
 22 48  1  0  0  0  0
 22 49  1  0  0  0  0
 23 50  1  0  0  0  0
 23 51  1  0  0  0  0
 24 52  1  0  0  0  0
 24 53  1  0  0  0  0
 28 54  1  0  0  0  0
M  END
> <clash_score>
2.1326528922090953

> <docking_score>
-5.358465671539307

> <overlap_score>
0.9890007972717285

$$$$
BENZO_427_1
  -OEChem-08232013513D

 54 57  0     0  0  0  0  0  0999 V2000
    8.3310   -2.7170   25.3430 C   0  0  0  0  0  0  0  0  0  0  0  0
   10.2570   -3.5000   24.1350 C   0  0  0  0  0  0  0  0  0  0  0  0
    8.3510   -1.5420   24.6110 C   0  0  0  0  0  0  0  0  0  0  0  0
   10.2760   -2.3270   23.4020 C   0  0  0  0  0  0  0  0  0  0  0  0
   12.4420    1.7881   22.8659 C   0  0  0  0  0  0  0  0  0  0  0  0
   12.4243    0.1281   24.3078 C   0  0  0  0  0  0  0  0  0  0  0  0
   11.5834    0.9837   23.6390 C   0  0  0  0  0  0  0  0  0  0  0  0
    9.2850   -3.7090   25.1090 C   0  0  0  0  0  0  0  0  0  0  0  0
    9.3300   -1.3350   23.6390 C   0  0  0  0  0  0  0  0  0  0  0  0
    6.1600    0.3870   20.1140 C   0  0  0  0  0  0  0  0  0  0  0  0
    7.2210   -0.4620   20.0350 C   0  0  0  0  0  0  0  0  0  0  0  0
    5.3360    0.8000   21.1530 C   0  0  0  0  0  0  0  0  0  0  0  0
    4.2970    1.6690   20.8430 C   0  0  0  0  0  0  0  0  0  0  0  0
    4.0980    2.1130   19.5350 C   0  0  0  0  0  0  0  0  0  0  0  0
    4.9400    1.7060   18.5060 C   0  0  0  0  0  0  0  0  0  0  0  0
    8.9510    0.1280   21.6880 C   0  0  0  0  0  0  0  0  0  0  0  0
    9.6848   -6.1688   25.4417 C   0  0  0  0  0  0  0  0  0  0  0  0
    8.0385   -7.2892   27.0037 C   0  0  0  0  0  0  0  0  0  0  0  0
   14.9125   -0.1653   24.3454 C   0  0  0  0  0  0  0  0  0  0  0  0
   10.0855    1.0467   23.7186 C   0  0  0  0  0  0  0  0  0  0  0  0
    8.0810   -0.9750   21.0820 C   0  0  0  0  0  0  0  0  0  0  0  0
    9.4852   -7.1862   26.5551 C   0  0  0  0  0  0  0  0  0  0  0  0
   13.7295    1.4719   23.0278 N   0  0  0  0  0  0  0  0  0  0  0  0
    7.6830   -0.5170   18.7600 N   0  0  0  0  0  0  0  0  0  0  0  0
    6.9440    0.2550   18.0100 N   0  0  0  0  0  0  0  0  0  0  0  0
   13.6862    0.4593   23.9105 N   0  0  0  0  0  0  0  0  0  0  0  0
    5.9810    0.8330   18.8060 N   0  0  0  0  0  0  0  0  0  0  0  0
    9.2630   -4.8902   25.8410 N   0  0  0  0  0  0  0  0  0  0  0  0
    9.4200   -0.0840   22.9530 N   0  0  0  0  0  0  0  0  0  0  0  0
    9.1870    1.1500   21.0630 O   0  0  0  0  0  0  0  0  0  0  0  0
   10.1584   -6.4795   24.3537 O   0  0  0  0  0  0  0  0  0  0  0  0
    7.5639   -2.8621   26.1045 H   0  0  0  0  0  0  0  0  0  0  0  0
   11.0141   -4.2644   23.9422 H   0  0  0  0  0  0  0  0  0  0  0  0
    7.5950   -0.7788   24.8007 H   0  0  0  0  0  0  0  0  0  0  0  0
   11.0408   -2.1861   22.6359 H   0  0  0  0  0  0  0  0  0  0  0  0
   12.1855    2.5926   22.1913 H   0  0  0  0  0  0  0  0  0  0  0  0
   12.2369   -0.6676   25.0161 H   0  0  0  0  0  0  0  0  0  0  0  0
    5.4740    0.4765   22.1644 H   0  0  0  0  0  0  0  0  0  0  0  0
    3.6415    1.9966   21.6411 H   0  0  0  0  0  0  0  0  0  0  0  0
    3.2723    2.7926   19.2922 H   0  0  0  0  0  0  0  0  0  0  0  0
    4.8122    2.0412   17.5001 H   0  0  0  0  0  0  0  0  0  0  0  0
    7.6697   -6.3242   27.3667 H   0  0  0  0  0  0  0  0  0  0  0  0
    7.9416   -8.0189   27.8135 H   0  0  0  0  0  0  0  0  0  0  0  0
    7.3926   -7.6064   26.1784 H   0  0  0  0  0  0  0  0  0  0  0  0
   15.1307   -0.9912   23.6633 H   0  0  0  0  0  0  0  0  0  0  0  0
   15.7220    0.5698   24.3271 H   0  0  0  0  0  0  0  0  0  0  0  0
   14.7873   -0.5347   25.3671 H   0  0  0  0  0  0  0  0  0  0  0  0
    9.7513    0.9881   24.7602 H   0  0  0  0  0  0  0  0  0  0  0  0
    9.7095    1.9902   23.3091 H   0  0  0  0  0  0  0  0  0  0  0  0
    7.4909   -1.4166   21.8987 H   0  0  0  0  0  0  0  0  0  0  0  0
    8.7548   -1.7579   20.7032 H   0  0  0  0  0  0  0  0  0  0  0  0
    9.8274   -8.1642   26.1976 H   0  0  0  0  0  0  0  0  0  0  0  0
   10.1123   -6.8975   27.4065 H   0  0  0  0  0  0  0  0  0  0  0  0
    8.8927   -4.8256   26.7964 H   0  0  0  0  0  0  0  0  0  0  0  0
  1  3  2  0  0  0  0
  1  8  1  0  0  0  0
  2  4  1  0  0  0  0
  2  8  2  0  0  0  0
  3  9  1  0  0  0  0
  4  9  2  0  0  0  0
  5  7  1  0  0  0  0
  5 23  2  0  0  0  0
  6  7  2  0  0  0  0
  6 26  1  0  0  0  0
  7 20  1  0  0  0  0
  8 28  1  0  0  0  0
  9 29  1  0  0  0  0
 10 11  2  0  0  0  0
 10 12  1  0  0  0  0
 10 27  1  0  0  0  0
 11 21  1  0  0  0  0
 11 24  1  0  0  0  0
 12 13  2  0  0  0  0
 13 14  1  0  0  0  0
 14 15  2  0  0  0  0
 15 27  1  0  0  0  0
 16 21  1  0  0  0  0
 16 29  1  0  0  0  0
 16 30  2  0  0  0  0
 17 22  1  0  0  0  0
 17 28  1  0  0  0  0
 17 31  2  0  0  0  0
 18 22  1  0  0  0  0
 19 26  1  0  0  0  0
 20 29  1  0  0  0  0
 23 26  1  0  0  0  0
 24 25  2  0  0  0  0
 25 27  1  0  0  0  0
  1 32  1  0  0  0  0
  2 33  1  0  0  0  0
  3 34  1  0  0  0  0
  4 35  1  0  0  0  0
  5 36  1  0  0  0  0
  6 37  1  0  0  0  0
 12 38  1  0  0  0  0
 13 39  1  0  0  0  0
 14 40  1  0  0  0  0
 15 41  1  0  0  0  0
 18 42  1  0  0  0  0
 18 43  1  0  0  0  0
 18 44  1  0  0  0  0
 19 45  1  0  0  0  0
 19 46  1  0  0  0  0
 19 47  1  0  0  0  0
 20 48  1  0  0  0  0
 20 49  1  0  0  0  0
 21 50  1  0  0  0  0
 21 51  1  0  0  0  0
 22 52  1  0  0  0  0
 22 53  1  0  0  0  0
 28 54  1  0  0  0  0
M  END
> <clash_score>
1.3336338752298933

> <docking_score>
-5.954225540161133

> <overlap_score>
0.9848214983940125

$$$$
BENZO_433_1
  -OEChem-08232013513D

 47 50  0     0  0  0  0  0  0999 V2000
   14.3667    0.8669   23.4897 C   0  0  0  0  0  0  0  0  0  0  0  0
   13.6954    0.2093   24.5205 C   0  0  0  0  0  0  0  0  0  0  0  0
   13.6464    1.5830   22.5336 C   0  0  0  0  0  0  0  0  0  0  0  0
   12.3037    0.2677   24.5951 C   0  0  0  0  0  0  0  0  0  0  0  0
   12.2548    1.6414   22.6082 C   0  0  0  0  0  0  0  0  0  0  0  0
    8.3310   -2.7170   25.3430 C   0  0  0  0  0  0  0  0  0  0  0  0
   10.2570   -3.5000   24.1350 C   0  0  0  0  0  0  0  0  0  0  0  0
    8.3510   -1.5420   24.6110 C   0  0  0  0  0  0  0  0  0  0  0  0
   10.2760   -2.3270   23.4020 C   0  0  0  0  0  0  0  0  0  0  0  0
    9.2850   -3.7090   25.1090 C   0  0  0  0  0  0  0  0  0  0  0  0
   11.5834    0.9837   23.6390 C   0  0  0  0  0  0  0  0  0  0  0  0
    9.3300   -1.3350   23.6390 C   0  0  0  0  0  0  0  0  0  0  0  0
    6.1600    0.3870   20.1140 C   0  0  0  0  0  0  0  0  0  0  0  0
    7.2210   -0.4620   20.0350 C   0  0  0  0  0  0  0  0  0  0  0  0
    5.3360    0.8000   21.1530 C   0  0  0  0  0  0  0  0  0  0  0  0
    4.2970    1.6690   20.8430 C   0  0  0  0  0  0  0  0  0  0  0  0
    4.0980    2.1130   19.5350 C   0  0  0  0  0  0  0  0  0  0  0  0
    4.9400    1.7060   18.5060 C   0  0  0  0  0  0  0  0  0  0  0  0
    8.9510    0.1280   21.6880 C   0  0  0  0  0  0  0  0  0  0  0  0
    9.2610   -4.9721   25.8916 C   0  0  0  0  0  0  0  0  0  0  0  0
   10.0855    1.0467   23.7186 C   0  0  0  0  0  0  0  0  0  0  0  0
    8.0810   -0.9750   21.0820 C   0  0  0  0  0  0  0  0  0  0  0  0
    7.6830   -0.5170   18.7600 N   0  0  0  0  0  0  0  0  0  0  0  0
    6.9440    0.2550   18.0100 N   0  0  0  0  0  0  0  0  0  0  0  0
    5.9810    0.8330   18.8060 N   0  0  0  0  0  0  0  0  0  0  0  0
    9.4200   -0.0840   22.9530 N   0  0  0  0  0  0  0  0  0  0  0  0
    9.1870    1.1500   21.0630 O   0  0  0  0  0  0  0  0  0  0  0  0
   15.4504    0.8225   23.4325 H   0  0  0  0  0  0  0  0  0  0  0  0
   14.2561   -0.3474   25.2656 H   0  0  0  0  0  0  0  0  0  0  0  0
   14.1688    2.0960   21.7316 H   0  0  0  0  0  0  0  0  0  0  0  0
   11.7891   -0.2480   25.4016 H   0  0  0  0  0  0  0  0  0  0  0  0
   11.7019    2.2015   21.8588 H   0  0  0  0  0  0  0  0  0  0  0  0
    7.5665   -2.8638   26.1066 H   0  0  0  0  0  0  0  0  0  0  0  0
   11.0137   -4.2652   23.9447 H   0  0  0  0  0  0  0  0  0  0  0  0
    7.5948   -0.7788   24.7997 H   0  0  0  0  0  0  0  0  0  0  0  0
   11.0411   -2.1856   22.6358 H   0  0  0  0  0  0  0  0  0  0  0  0
    5.4740    0.4765   22.1644 H   0  0  0  0  0  0  0  0  0  0  0  0
    3.6415    1.9966   21.6411 H   0  0  0  0  0  0  0  0  0  0  0  0
    3.2723    2.7926   19.2922 H   0  0  0  0  0  0  0  0  0  0  0  0
    4.8122    2.0412   17.5001 H   0  0  0  0  0  0  0  0  0  0  0  0
    8.6398   -5.7223   25.3871 H   0  0  0  0  0  0  0  0  0  0  0  0
   10.2715   -5.3829   26.0145 H   0  0  0  0  0  0  0  0  0  0  0  0
    8.8596   -4.8092   26.9004 H   0  0  0  0  0  0  0  0  0  0  0  0
    9.7513    0.9881   24.7602 H   0  0  0  0  0  0  0  0  0  0  0  0
    9.7095    1.9902   23.3091 H   0  0  0  0  0  0  0  0  0  0  0  0
    7.4909   -1.4166   21.8987 H   0  0  0  0  0  0  0  0  0  0  0  0
    8.7548   -1.7579   20.7032 H   0  0  0  0  0  0  0  0  0  0  0  0
  1  2  1  0  0  0  0
  1  3  2  0  0  0  0
  2  4  2  0  0  0  0
  3  5  1  0  0  0  0
  4 11  1  0  0  0  0
  5 11  2  0  0  0  0
  6  8  2  0  0  0  0
  6 10  1  0  0  0  0
  7  9  1  0  0  0  0
  7 10  2  0  0  0  0
  8 12  1  0  0  0  0
  9 12  2  0  0  0  0
 10 20  1  0  0  0  0
 11 21  1  0  0  0  0
 12 26  1  0  0  0  0
 13 14  2  0  0  0  0
 13 15  1  0  0  0  0
 13 25  1  0  0  0  0
 14 22  1  0  0  0  0
 14 23  1  0  0  0  0
 15 16  2  0  0  0  0
 16 17  1  0  0  0  0
 17 18  2  0  0  0  0
 18 25  1  0  0  0  0
 19 22  1  0  0  0  0
 19 26  1  0  0  0  0
 19 27  2  0  0  0  0
 21 26  1  0  0  0  0
 23 24  2  0  0  0  0
 24 25  1  0  0  0  0
  1 28  1  0  0  0  0
  2 29  1  0  0  0  0
  3 30  1  0  0  0  0
  4 31  1  0  0  0  0
  5 32  1  0  0  0  0
  6 33  1  0  0  0  0
  7 34  1  0  0  0  0
  8 35  1  0  0  0  0
  9 36  1  0  0  0  0
 15 37  1  0  0  0  0
 16 38  1  0  0  0  0
 17 39  1  0  0  0  0
 18 40  1  0  0  0  0
 20 41  1  0  0  0  0
 20 42  1  0  0  0  0
 20 43  1  0  0  0  0
 21 44  1  0  0  0  0
 21 45  1  0  0  0  0
 22 46  1  0  0  0  0
 22 47  1  0  0  0  0
M  END
> <clash_score>
0

> <docking_score>
-9.390310287475586

> <overlap_score>
0.9691954255104065

$$$$
BENZO_432_1
  -OEChem-08232013513D

 44 47  0     0  0  0  0  0  0999 V2000
    8.3310   -2.7170   25.3430 C   0  0  0  0  0  0  0  0  0  0  0  0
   10.2570   -3.5000   24.1350 C   0  0  0  0  0  0  0  0  0  0  0  0
    8.3510   -1.5420   24.6110 C   0  0  0  0  0  0  0  0  0  0  0  0
   10.2760   -2.3270   23.4020 C   0  0  0  0  0  0  0  0  0  0  0  0
   12.3172    1.0367   22.4188 C   0  0  0  0  0  0  0  0  0  0  0  0
   13.6764    0.9588   22.6285 C   0  0  0  0  0  0  0  0  0  0  0  0
   12.4099    0.8670   24.7350 C   0  0  0  0  0  0  0  0  0  0  0  0
    9.2850   -3.7090   25.1090 C   0  0  0  0  0  0  0  0  0  0  0  0
   11.5834    0.9837   23.6390 C   0  0  0  0  0  0  0  0  0  0  0  0
    9.3300   -1.3350   23.6390 C   0  0  0  0  0  0  0  0  0  0  0  0
    6.1600    0.3870   20.1140 C   0  0  0  0  0  0  0  0  0  0  0  0
    7.2210   -0.4620   20.0350 C   0  0  0  0  0  0  0  0  0  0  0  0
    5.3360    0.8000   21.1530 C   0  0  0  0  0  0  0  0  0  0  0  0
    4.2970    1.6690   20.8430 C   0  0  0  0  0  0  0  0  0  0  0  0
    4.0980    2.1130   19.5350 C   0  0  0  0  0  0  0  0  0  0  0  0
    4.9400    1.7060   18.5060 C   0  0  0  0  0  0  0  0  0  0  0  0
    8.9510    0.1280   21.6880 C   0  0  0  0  0  0  0  0  0  0  0  0
    9.2610   -4.9721   25.8916 C   0  0  0  0  0  0  0  0  0  0  0  0
   10.0855    1.0467   23.7186 C   0  0  0  0  0  0  0  0  0  0  0  0
    8.0810   -0.9750   21.0820 C   0  0  0  0  0  0  0  0  0  0  0  0
    7.6830   -0.5170   18.7600 N   0  0  0  0  0  0  0  0  0  0  0  0
    6.9440    0.2550   18.0100 N   0  0  0  0  0  0  0  0  0  0  0  0
    5.9810    0.8330   18.8060 N   0  0  0  0  0  0  0  0  0  0  0  0
    9.4200   -0.0840   22.9530 N   0  0  0  0  0  0  0  0  0  0  0  0
    9.1870    1.1500   21.0630 O   0  0  0  0  0  0  0  0  0  0  0  0
   14.0631    0.8222   24.2911 S   0  0  0  0  0  0  0  0  0  0  0  0
    7.5665   -2.8638   26.1066 H   0  0  0  0  0  0  0  0  0  0  0  0
   11.0137   -4.2652   23.9447 H   0  0  0  0  0  0  0  0  0  0  0  0
    7.5948   -0.7788   24.7997 H   0  0  0  0  0  0  0  0  0  0  0  0
   11.0411   -2.1856   22.6358 H   0  0  0  0  0  0  0  0  0  0  0  0
   11.8745    1.1270   21.4348 H   0  0  0  0  0  0  0  0  0  0  0  0
   14.4608    0.9748   21.8851 H   0  0  0  0  0  0  0  0  0  0  0  0
   12.1261    0.8045   25.7764 H   0  0  0  0  0  0  0  0  0  0  0  0
    5.4740    0.4765   22.1644 H   0  0  0  0  0  0  0  0  0  0  0  0
    3.6415    1.9966   21.6411 H   0  0  0  0  0  0  0  0  0  0  0  0
    3.2723    2.7926   19.2922 H   0  0  0  0  0  0  0  0  0  0  0  0
    4.8122    2.0412   17.5001 H   0  0  0  0  0  0  0  0  0  0  0  0
    8.6398   -5.7223   25.3871 H   0  0  0  0  0  0  0  0  0  0  0  0
   10.2715   -5.3829   26.0145 H   0  0  0  0  0  0  0  0  0  0  0  0
    8.8596   -4.8092   26.9004 H   0  0  0  0  0  0  0  0  0  0  0  0
    9.7513    0.9881   24.7602 H   0  0  0  0  0  0  0  0  0  0  0  0
    9.7095    1.9902   23.3091 H   0  0  0  0  0  0  0  0  0  0  0  0
    7.4909   -1.4166   21.8987 H   0  0  0  0  0  0  0  0  0  0  0  0
    8.7548   -1.7579   20.7032 H   0  0  0  0  0  0  0  0  0  0  0  0
  1  3  2  0  0  0  0
  1  8  1  0  0  0  0
  2  4  1  0  0  0  0
  2  8  2  0  0  0  0
  3 10  1  0  0  0  0
  4 10  2  0  0  0  0
  5  6  2  0  0  0  0
  5  9  1  0  0  0  0
  6 26  1  0  0  0  0
  7  9  2  0  0  0  0
  7 26  1  0  0  0  0
  8 18  1  0  0  0  0
  9 19  1  0  0  0  0
 10 24  1  0  0  0  0
 11 12  2  0  0  0  0
 11 13  1  0  0  0  0
 11 23  1  0  0  0  0
 12 20  1  0  0  0  0
 12 21  1  0  0  0  0
 13 14  2  0  0  0  0
 14 15  1  0  0  0  0
 15 16  2  0  0  0  0
 16 23  1  0  0  0  0
 17 20  1  0  0  0  0
 17 24  1  0  0  0  0
 17 25  2  0  0  0  0
 19 24  1  0  0  0  0
 21 22  2  0  0  0  0
 22 23  1  0  0  0  0
  1 27  1  0  0  0  0
  2 28  1  0  0  0  0
  3 29  1  0  0  0  0
  4 30  1  0  0  0  0
  5 31  1  0  0  0  0
  6 32  1  0  0  0  0
  7 33  1  0  0  0  0
 13 34  1  0  0  0  0
 14 35  1  0  0  0  0
 15 36  1  0  0  0  0
 16 37  1  0  0  0  0
 18 38  1  0  0  0  0
 18 39  1  0  0  0  0
 18 40  1  0  0  0  0
 19 41  1  0  0  0  0
 19 42  1  0  0  0  0
 20 43  1  0  0  0  0
 20 44  1  0  0  0  0
M  END
> <clash_score>
0

> <docking_score>
-9.728245735168457

> <overlap_score>
0.9437825679779053

$$$$
BENZO_430_1
  -OEChem-08232013513D

 59 63  0     0  0  0  0  0  0999 V2000
   13.5761    2.0159   23.0142 C   0  0  0  0  0  0  0  0  0  0  0  0
   12.1816    1.9962   22.9909 C   0  0  0  0  0  0  0  0  0  0  0  0
    8.3310   -2.7170   25.3430 C   0  0  0  0  0  0  0  0  0  0  0  0
   10.2570   -3.5000   24.1350 C   0  0  0  0  0  0  0  0  0  0  0  0
    8.3510   -1.5420   24.6110 C   0  0  0  0  0  0  0  0  0  0  0  0
   10.2760   -2.3270   23.4020 C   0  0  0  0  0  0  0  0  0  0  0  0
   14.2726    1.1234   23.8291 C   0  0  0  0  0  0  0  0  0  0  0  0
   12.1801    0.1917   24.5974 C   0  0  0  0  0  0  0  0  0  0  0  0
   11.4836    1.0842   23.7825 C   0  0  0  0  0  0  0  0  0  0  0  0
    9.2850   -3.7090   25.1090 C   0  0  0  0  0  0  0  0  0  0  0  0
    9.3300   -1.3350   23.6390 C   0  0  0  0  0  0  0  0  0  0  0  0
   13.5747    0.2114   24.6207 C   0  0  0  0  0  0  0  0  0  0  0  0
    6.1600    0.3870   20.1140 C   0  0  0  0  0  0  0  0  0  0  0  0
    7.2210   -0.4620   20.0350 C   0  0  0  0  0  0  0  0  0  0  0  0
    5.3360    0.8000   21.1530 C   0  0  0  0  0  0  0  0  0  0  0  0
    4.2970    1.6690   20.8430 C   0  0  0  0  0  0  0  0  0  0  0  0
    4.0980    2.1130   19.5350 C   0  0  0  0  0  0  0  0  0  0  0  0
    4.9400    1.7060   18.5060 C   0  0  0  0  0  0  0  0  0  0  0  0
    8.9510    0.1280   21.6880 C   0  0  0  0  0  0  0  0  0  0  0  0
    7.3162   -6.8835   26.5210 C   0  0  0  0  0  0  0  0  0  0  0  0
    7.3507   -5.5245   27.2240 C   0  0  0  0  0  0  0  0  0  0  0  0
    7.9375   -6.8069   25.1245 C   0  0  0  0  0  0  0  0  0  0  0  0
    8.7638   -4.9418   27.2163 C   0  0  0  0  0  0  0  0  0  0  0  0
    9.3378   -6.1874   25.1659 C   0  0  0  0  0  0  0  0  0  0  0  0
    9.9825    1.0644   23.7577 C   0  0  0  0  0  0  0  0  0  0  0  0
    8.0810   -0.9750   21.0820 C   0  0  0  0  0  0  0  0  0  0  0  0
    7.6830   -0.5170   18.7600 N   0  0  0  0  0  0  0  0  0  0  0  0
    6.9440    0.2550   18.0100 N   0  0  0  0  0  0  0  0  0  0  0  0
    5.9810    0.8330   18.8060 N   0  0  0  0  0  0  0  0  0  0  0  0
    9.2639   -4.8860   25.8399 N   0  0  0  0  0  0  0  0  0  0  0  0
    9.4200   -0.0840   22.9530 N   0  0  0  0  0  0  0  0  0  0  0  0
    9.1870    1.1500   21.0630 O   0  0  0  0  0  0  0  0  0  0  0  0
   14.4346   -0.8887   25.6267 Cl  0  0  0  0  0  0  0  0  0  0  0  0
   14.1192    2.7264   22.3978 H   0  0  0  0  0  0  0  0  0  0  0  0
   11.6470    2.6953   22.3530 H   0  0  0  0  0  0  0  0  0  0  0  0
    7.5647   -2.8621   26.1053 H   0  0  0  0  0  0  0  0  0  0  0  0
   11.0144   -4.2642   23.9425 H   0  0  0  0  0  0  0  0  0  0  0  0
    7.5958   -0.7779   24.8006 H   0  0  0  0  0  0  0  0  0  0  0  0
   11.0406   -2.1848   22.6356 H   0  0  0  0  0  0  0  0  0  0  0  0
   15.3595    1.1503   23.8374 H   0  0  0  0  0  0  0  0  0  0  0  0
   11.6313   -0.5178   25.2123 H   0  0  0  0  0  0  0  0  0  0  0  0
    5.4740    0.4765   22.1644 H   0  0  0  0  0  0  0  0  0  0  0  0
    3.6415    1.9966   21.6411 H   0  0  0  0  0  0  0  0  0  0  0  0
    3.2723    2.7926   19.2922 H   0  0  0  0  0  0  0  0  0  0  0  0
    4.8122    2.0412   17.5001 H   0  0  0  0  0  0  0  0  0  0  0  0
    7.8578   -7.6261   27.1266 H   0  0  0  0  0  0  0  0  0  0  0  0
    6.2773   -7.2358   26.4459 H   0  0  0  0  0  0  0  0  0  0  0  0
    6.6663   -4.8351   26.7223 H   0  0  0  0  0  0  0  0  0  0  0  0
    7.0044   -5.6368   28.2534 H   0  0  0  0  0  0  0  0  0  0  0  0
    7.9946   -7.8119   24.6937 H   0  0  0  0  0  0  0  0  0  0  0  0
    7.2929   -6.2123   24.4668 H   0  0  0  0  0  0  0  0  0  0  0  0
    8.7343   -3.9408   27.6542 H   0  0  0  0  0  0  0  0  0  0  0  0
    9.4243   -5.5632   27.8278 H   0  0  0  0  0  0  0  0  0  0  0  0
   10.0200   -6.8490   25.7011 H   0  0  0  0  0  0  0  0  0  0  0  0
    9.6984   -6.0694   24.1436 H   0  0  0  0  0  0  0  0  0  0  0  0
    9.5805    0.9993   24.7746 H   0  0  0  0  0  0  0  0  0  0  0  0
    9.5848    1.9806   23.3087 H   0  0  0  0  0  0  0  0  0  0  0  0
    7.4781   -1.4136   21.8845 H   0  0  0  0  0  0  0  0  0  0  0  0
    8.7420   -1.7550   20.6889 H   0  0  0  0  0  0  0  0  0  0  0  0
  1  2  2  0  0  0  0
  1  7  1  0  0  0  0
  2  9  1  0  0  0  0
  3  5  2  0  0  0  0
  3 10  1  0  0  0  0
  4  6  1  0  0  0  0
  4 10  2  0  0  0  0
  5 11  1  0  0  0  0
  6 11  2  0  0  0  0
  7 12  2  0  0  0  0
  8  9  2  0  0  0  0
  8 12  1  0  0  0  0
  9 25  1  0  0  0  0
 10 30  1  0  0  0  0
 11 31  1  0  0  0  0
 12 33  1  0  0  0  0
 13 14  2  0  0  0  0
 13 15  1  0  0  0  0
 13 29  1  0  0  0  0
 14 26  1  0  0  0  0
 14 27  1  0  0  0  0
 15 16  2  0  0  0  0
 16 17  1  0  0  0  0
 17 18  2  0  0  0  0
 18 29  1  0  0  0  0
 19 26  1  0  0  0  0
 19 31  1  0  0  0  0
 19 32  2  0  0  0  0
 20 21  1  0  0  0  0
 20 22  1  0  0  0  0
 21 23  1  0  0  0  0
 22 24  1  0  0  0  0
 23 30  1  0  0  0  0
 24 30  1  0  0  0  0
 25 31  1  0  0  0  0
 27 28  2  0  0  0  0
 28 29  1  0  0  0  0
  1 34  1  0  0  0  0
  2 35  1  0  0  0  0
  3 36  1  0  0  0  0
  4 37  1  0  0  0  0
  5 38  1  0  0  0  0
  6 39  1  0  0  0  0
  7 40  1  0  0  0  0
  8 41  1  0  0  0  0
 15 42  1  0  0  0  0
 16 43  1  0  0  0  0
 17 44  1  0  0  0  0
 18 45  1  0  0  0  0
 20 46  1  0  0  0  0
 20 47  1  0  0  0  0
 21 48  1  0  0  0  0
 21 49  1  0  0  0  0
 22 50  1  0  0  0  0
 22 51  1  0  0  0  0
 23 52  1  0  0  0  0
 23 53  1  0  0  0  0
 24 54  1  0  0  0  0
 24 55  1  0  0  0  0
 25 56  1  0  0  0  0
 25 57  1  0  0  0  0
 26 58  1  0  0  0  0
 26 59  1  0  0  0  0
M  END
> <clash_score>
0.6948172307864008

> <docking_score>
-7.507857322692871

> <overlap_score>
1.0086195468902588

$$$$
BENZO_431_1
  -OEChem-08232013513D

 59 63  0     0  0  0  0  0  0999 V2000
    8.3310   -2.7170   25.3430 C   0  0  0  0  0  0  0  0  0  0  0  0
   10.2570   -3.5000   24.1350 C   0  0  0  0  0  0  0  0  0  0  0  0
    8.3510   -1.5420   24.6110 C   0  0  0  0  0  0  0  0  0  0  0  0
   10.2760   -2.3270   23.4020 C   0  0  0  0  0  0  0  0  0  0  0  0
   12.3238    1.8341   24.6271 C   0  0  0  0  0  0  0  0  0  0  0  0
   12.3457    0.3708   22.9860 C   0  0  0  0  0  0  0  0  0  0  0  0
   11.4836    1.0842   23.7825 C   0  0  0  0  0  0  0  0  0  0  0  0
    9.2850   -3.7090   25.1090 C   0  0  0  0  0  0  0  0  0  0  0  0
    9.3300   -1.3350   23.6390 C   0  0  0  0  0  0  0  0  0  0  0  0
    6.1600    0.3870   20.1140 C   0  0  0  0  0  0  0  0  0  0  0  0
    7.2210   -0.4620   20.0350 C   0  0  0  0  0  0  0  0  0  0  0  0
    5.3360    0.8000   21.1530 C   0  0  0  0  0  0  0  0  0  0  0  0
    4.2970    1.6690   20.8430 C   0  0  0  0  0  0  0  0  0  0  0  0
    4.0980    2.1130   19.5350 C   0  0  0  0  0  0  0  0  0  0  0  0
    4.9400    1.7060   18.5060 C   0  0  0  0  0  0  0  0  0  0  0  0
    8.9510    0.1280   21.6880 C   0  0  0  0  0  0  0  0  0  0  0  0
    7.3162   -6.8835   26.5210 C   0  0  0  0  0  0  0  0  0  0  0  0
    7.3507   -5.5245   27.2240 C   0  0  0  0  0  0  0  0  0  0  0  0
    7.9375   -6.8069   25.1245 C   0  0  0  0  0  0  0  0  0  0  0  0
    8.7638   -4.9418   27.2163 C   0  0  0  0  0  0  0  0  0  0  0  0
    9.3378   -6.1874   25.1659 C   0  0  0  0  0  0  0  0  0  0  0  0
   14.8433    0.2314   22.8407 C   0  0  0  0  0  0  0  0  0  0  0  0
    9.9825    1.0644   23.7577 C   0  0  0  0  0  0  0  0  0  0  0  0
    8.0810   -0.9750   21.0820 C   0  0  0  0  0  0  0  0  0  0  0  0
   13.6202    1.6173   24.3895 N   0  0  0  0  0  0  0  0  0  0  0  0
    7.6830   -0.5170   18.7600 N   0  0  0  0  0  0  0  0  0  0  0  0
    6.9440    0.2550   18.0100 N   0  0  0  0  0  0  0  0  0  0  0  0
   13.6010    0.7229   23.3866 N   0  0  0  0  0  0  0  0  0  0  0  0
    5.9810    0.8330   18.8060 N   0  0  0  0  0  0  0  0  0  0  0  0
    9.2639   -4.8860   25.8399 N   0  0  0  0  0  0  0  0  0  0  0  0
    9.4200   -0.0840   22.9530 N   0  0  0  0  0  0  0  0  0  0  0  0
    9.1870    1.1500   21.0630 O   0  0  0  0  0  0  0  0  0  0  0  0
    7.5647   -2.8621   26.1053 H   0  0  0  0  0  0  0  0  0  0  0  0
   11.0144   -4.2642   23.9425 H   0  0  0  0  0  0  0  0  0  0  0  0
    7.5958   -0.7779   24.8006 H   0  0  0  0  0  0  0  0  0  0  0  0
   11.0406   -2.1848   22.6356 H   0  0  0  0  0  0  0  0  0  0  0  0
   12.0479    2.5296   25.4071 H   0  0  0  0  0  0  0  0  0  0  0  0
   12.1771   -0.3406   22.1889 H   0  0  0  0  0  0  0  0  0  0  0  0
    5.4740    0.4765   22.1644 H   0  0  0  0  0  0  0  0  0  0  0  0
    3.6415    1.9966   21.6411 H   0  0  0  0  0  0  0  0  0  0  0  0
    3.2723    2.7926   19.2922 H   0  0  0  0  0  0  0  0  0  0  0  0
    4.8122    2.0412   17.5001 H   0  0  0  0  0  0  0  0  0  0  0  0
    7.8578   -7.6261   27.1266 H   0  0  0  0  0  0  0  0  0  0  0  0
    6.2773   -7.2358   26.4459 H   0  0  0  0  0  0  0  0  0  0  0  0
    6.6663   -4.8351   26.7223 H   0  0  0  0  0  0  0  0  0  0  0  0
    7.0044   -5.6368   28.2534 H   0  0  0  0  0  0  0  0  0  0  0  0
    7.9946   -7.8119   24.6937 H   0  0  0  0  0  0  0  0  0  0  0  0
    7.2929   -6.2123   24.4668 H   0  0  0  0  0  0  0  0  0  0  0  0
    8.7343   -3.9408   27.6542 H   0  0  0  0  0  0  0  0  0  0  0  0
    9.4243   -5.5632   27.8278 H   0  0  0  0  0  0  0  0  0  0  0  0
   10.0200   -6.8490   25.7011 H   0  0  0  0  0  0  0  0  0  0  0  0
    9.6984   -6.0694   24.1436 H   0  0  0  0  0  0  0  0  0  0  0  0
   15.1368    0.8927   22.0212 H   0  0  0  0  0  0  0  0  0  0  0  0
   15.6084    0.2282   23.6221 H   0  0  0  0  0  0  0  0  0  0  0  0
   14.6992   -0.7897   22.4766 H   0  0  0  0  0  0  0  0  0  0  0  0
    9.5805    0.9993   24.7746 H   0  0  0  0  0  0  0  0  0  0  0  0
    9.5848    1.9806   23.3087 H   0  0  0  0  0  0  0  0  0  0  0  0
    7.4781   -1.4136   21.8845 H   0  0  0  0  0  0  0  0  0  0  0  0
    8.7420   -1.7550   20.6889 H   0  0  0  0  0  0  0  0  0  0  0  0
  1  3  2  0  0  0  0
  1  8  1  0  0  0  0
  2  4  1  0  0  0  0
  2  8  2  0  0  0  0
  3  9  1  0  0  0  0
  4  9  2  0  0  0  0
  5  7  1  0  0  0  0
  5 25  2  0  0  0  0
  6  7  2  0  0  0  0
  6 28  1  0  0  0  0
  7 23  1  0  0  0  0
  8 30  1  0  0  0  0
  9 31  1  0  0  0  0
 10 11  2  0  0  0  0
 10 12  1  0  0  0  0
 10 29  1  0  0  0  0
 11 24  1  0  0  0  0
 11 26  1  0  0  0  0
 12 13  2  0  0  0  0
 13 14  1  0  0  0  0
 14 15  2  0  0  0  0
 15 29  1  0  0  0  0
 16 24  1  0  0  0  0
 16 31  1  0  0  0  0
 16 32  2  0  0  0  0
 17 18  1  0  0  0  0
 17 19  1  0  0  0  0
 18 20  1  0  0  0  0
 19 21  1  0  0  0  0
 20 30  1  0  0  0  0
 21 30  1  0  0  0  0
 22 28  1  0  0  0  0
 23 31  1  0  0  0  0
 25 28  1  0  0  0  0
 26 27  2  0  0  0  0
 27 29  1  0  0  0  0
  1 33  1  0  0  0  0
  2 34  1  0  0  0  0
  3 35  1  0  0  0  0
  4 36  1  0  0  0  0
  5 37  1  0  0  0  0
  6 38  1  0  0  0  0
 12 39  1  0  0  0  0
 13 40  1  0  0  0  0
 14 41  1  0  0  0  0
 15 42  1  0  0  0  0
 17 43  1  0  0  0  0
 17 44  1  0  0  0  0
 18 45  1  0  0  0  0
 18 46  1  0  0  0  0
 19 47  1  0  0  0  0
 19 48  1  0  0  0  0
 20 49  1  0  0  0  0
 20 50  1  0  0  0  0
 21 51  1  0  0  0  0
 21 52  1  0  0  0  0
 22 53  1  0  0  0  0
 22 54  1  0  0  0  0
 22 55  1  0  0  0  0
 23 56  1  0  0  0  0
 23 57  1  0  0  0  0
 24 58  1  0  0  0  0
 24 59  1  0  0  0  0
M  END
> <clash_score>
0

> <docking_score>
-8.437049865722656

> <overlap_score>
0.9949105978012085

$$$$
BENZO_435_1
  -OEChem-08232013513D

 47 50  0     0  0  0  0  0  0999 V2000
    8.3310   -2.7170   25.3430 C   0  0  0  0  0  0  0  0  0  0  0  0
   10.2570   -3.5000   24.1350 C   0  0  0  0  0  0  0  0  0  0  0  0
    8.3510   -1.5420   24.6110 C   0  0  0  0  0  0  0  0  0  0  0  0
   10.2760   -2.3270   23.4020 C   0  0  0  0  0  0  0  0  0  0  0  0
   12.4420    1.7881   22.8659 C   0  0  0  0  0  0  0  0  0  0  0  0
   12.4243    0.1281   24.3078 C   0  0  0  0  0  0  0  0  0  0  0  0
    9.2850   -3.7090   25.1090 C   0  0  0  0  0  0  0  0  0  0  0  0
   11.5834    0.9837   23.6390 C   0  0  0  0  0  0  0  0  0  0  0  0
    9.3300   -1.3350   23.6390 C   0  0  0  0  0  0  0  0  0  0  0  0
    6.1600    0.3870   20.1140 C   0  0  0  0  0  0  0  0  0  0  0  0
    7.2210   -0.4620   20.0350 C   0  0  0  0  0  0  0  0  0  0  0  0
    5.3360    0.8000   21.1530 C   0  0  0  0  0  0  0  0  0  0  0  0
    4.2970    1.6690   20.8430 C   0  0  0  0  0  0  0  0  0  0  0  0
    4.0980    2.1130   19.5350 C   0  0  0  0  0  0  0  0  0  0  0  0
    4.9400    1.7060   18.5060 C   0  0  0  0  0  0  0  0  0  0  0  0
    8.9510    0.1280   21.6880 C   0  0  0  0  0  0  0  0  0  0  0  0
    9.2610   -4.9721   25.8916 C   0  0  0  0  0  0  0  0  0  0  0  0
   14.9125   -0.1653   24.3454 C   0  0  0  0  0  0  0  0  0  0  0  0
   10.0855    1.0467   23.7186 C   0  0  0  0  0  0  0  0  0  0  0  0
    8.0810   -0.9750   21.0820 C   0  0  0  0  0  0  0  0  0  0  0  0
   13.7295    1.4719   23.0278 N   0  0  0  0  0  0  0  0  0  0  0  0
    7.6830   -0.5170   18.7600 N   0  0  0  0  0  0  0  0  0  0  0  0
    6.9440    0.2550   18.0100 N   0  0  0  0  0  0  0  0  0  0  0  0
   13.6862    0.4593   23.9105 N   0  0  0  0  0  0  0  0  0  0  0  0
    5.9810    0.8330   18.8060 N   0  0  0  0  0  0  0  0  0  0  0  0
    9.4200   -0.0840   22.9530 N   0  0  0  0  0  0  0  0  0  0  0  0
    9.1870    1.1500   21.0630 O   0  0  0  0  0  0  0  0  0  0  0  0
    7.5665   -2.8638   26.1066 H   0  0  0  0  0  0  0  0  0  0  0  0
   11.0137   -4.2652   23.9447 H   0  0  0  0  0  0  0  0  0  0  0  0
    7.5948   -0.7788   24.7997 H   0  0  0  0  0  0  0  0  0  0  0  0
   11.0411   -2.1856   22.6358 H   0  0  0  0  0  0  0  0  0  0  0  0
   12.1855    2.5926   22.1913 H   0  0  0  0  0  0  0  0  0  0  0  0
   12.2369   -0.6676   25.0161 H   0  0  0  0  0  0  0  0  0  0  0  0
    5.4740    0.4765   22.1644 H   0  0  0  0  0  0  0  0  0  0  0  0
    3.6415    1.9966   21.6411 H   0  0  0  0  0  0  0  0  0  0  0  0
    3.2723    2.7926   19.2922 H   0  0  0  0  0  0  0  0  0  0  0  0
    4.8122    2.0412   17.5001 H   0  0  0  0  0  0  0  0  0  0  0  0
    8.6398   -5.7223   25.3871 H   0  0  0  0  0  0  0  0  0  0  0  0
   10.2715   -5.3829   26.0145 H   0  0  0  0  0  0  0  0  0  0  0  0
    8.8596   -4.8092   26.9004 H   0  0  0  0  0  0  0  0  0  0  0  0
   15.1307   -0.9912   23.6633 H   0  0  0  0  0  0  0  0  0  0  0  0
   15.7220    0.5698   24.3271 H   0  0  0  0  0  0  0  0  0  0  0  0
   14.7873   -0.5347   25.3671 H   0  0  0  0  0  0  0  0  0  0  0  0
    9.7513    0.9881   24.7602 H   0  0  0  0  0  0  0  0  0  0  0  0
    9.7095    1.9902   23.3091 H   0  0  0  0  0  0  0  0  0  0  0  0
    7.4909   -1.4166   21.8987 H   0  0  0  0  0  0  0  0  0  0  0  0
    8.7548   -1.7579   20.7032 H   0  0  0  0  0  0  0  0  0  0  0  0
  1  3  2  0  0  0  0
  1  7  1  0  0  0  0
  2  4  1  0  0  0  0
  2  7  2  0  0  0  0
  3  9  1  0  0  0  0
  4  9  2  0  0  0  0
  5  8  1  0  0  0  0
  5 21  2  0  0  0  0
  6  8  2  0  0  0  0
  6 24  1  0  0  0  0
  7 17  1  0  0  0  0
  8 19  1  0  0  0  0
  9 26  1  0  0  0  0
 10 11  2  0  0  0  0
 10 12  1  0  0  0  0
 10 25  1  0  0  0  0
 11 20  1  0  0  0  0
 11 22  1  0  0  0  0
 12 13  2  0  0  0  0
 13 14  1  0  0  0  0
 14 15  2  0  0  0  0
 15 25  1  0  0  0  0
 16 20  1  0  0  0  0
 16 26  1  0  0  0  0
 16 27  2  0  0  0  0
 18 24  1  0  0  0  0
 19 26  1  0  0  0  0
 21 24  1  0  0  0  0
 22 23  2  0  0  0  0
 23 25  1  0  0  0  0
  1 28  1  0  0  0  0
  2 29  1  0  0  0  0
  3 30  1  0  0  0  0
  4 31  1  0  0  0  0
  5 32  1  0  0  0  0
  6 33  1  0  0  0  0
 12 34  1  0  0  0  0
 13 35  1  0  0  0  0
 14 36  1  0  0  0  0
 15 37  1  0  0  0  0
 17 38  1  0  0  0  0
 17 39  1  0  0  0  0
 17 40  1  0  0  0  0
 18 41  1  0  0  0  0
 18 42  1  0  0  0  0
 18 43  1  0  0  0  0
 19 44  1  0  0  0  0
 19 45  1  0  0  0  0
 20 46  1  0  0  0  0
 20 47  1  0  0  0  0
M  END
> <clash_score>
0

> <docking_score>
-9.146502494812012

> <overlap_score>
0.9694310426712036

$$$$
BENZO_434_1
  -OEChem-08232013513D

 47 50  0     0  0  0  0  0  0999 V2000
   13.6668    1.8110   22.7379 C   0  0  0  0  0  0  0  0  0  0  0  0
   12.2750    1.8683   22.8114 C   0  0  0  0  0  0  0  0  0  0  0  0
    8.3310   -2.7170   25.3430 C   0  0  0  0  0  0  0  0  0  0  0  0
   10.2570   -3.5000   24.1350 C   0  0  0  0  0  0  0  0  0  0  0  0
    8.3510   -1.5420   24.6110 C   0  0  0  0  0  0  0  0  0  0  0  0
   10.2760   -2.3270   23.4020 C   0  0  0  0  0  0  0  0  0  0  0  0
   14.3669    0.8691   23.4918 C   0  0  0  0  0  0  0  0  0  0  0  0
   12.2835    0.0418   24.3930 C   0  0  0  0  0  0  0  0  0  0  0  0
    9.2850   -3.7090   25.1090 C   0  0  0  0  0  0  0  0  0  0  0  0
   11.5834    0.9837   23.6390 C   0  0  0  0  0  0  0  0  0  0  0  0
    9.3300   -1.3350   23.6390 C   0  0  0  0  0  0  0  0  0  0  0  0
   13.6752   -0.0154   24.3194 C   0  0  0  0  0  0  0  0  0  0  0  0
    6.1600    0.3870   20.1140 C   0  0  0  0  0  0  0  0  0  0  0  0
    7.2210   -0.4620   20.0350 C   0  0  0  0  0  0  0  0  0  0  0  0
    5.3360    0.8000   21.1530 C   0  0  0  0  0  0  0  0  0  0  0  0
    4.2970    1.6690   20.8430 C   0  0  0  0  0  0  0  0  0  0  0  0
    4.0980    2.1130   19.5350 C   0  0  0  0  0  0  0  0  0  0  0  0
    4.9400    1.7060   18.5060 C   0  0  0  0  0  0  0  0  0  0  0  0
    8.9510    0.1280   21.6880 C   0  0  0  0  0  0  0  0  0  0  0  0
    9.2610   -4.9721   25.8916 C   0  0  0  0  0  0  0  0  0  0  0  0
   10.0855    1.0467   23.7186 C   0  0  0  0  0  0  0  0  0  0  0  0
    8.0810   -0.9750   21.0820 C   0  0  0  0  0  0  0  0  0  0  0  0
    7.6830   -0.5170   18.7600 N   0  0  0  0  0  0  0  0  0  0  0  0
    6.9440    0.2550   18.0100 N   0  0  0  0  0  0  0  0  0  0  0  0
    5.9810    0.8330   18.8060 N   0  0  0  0  0  0  0  0  0  0  0  0
    9.4200   -0.0840   22.9530 N   0  0  0  0  0  0  0  0  0  0  0  0
    9.1870    1.1500   21.0630 O   0  0  0  0  0  0  0  0  0  0  0  0
   14.5396   -1.1765   25.2502 Cl  0  0  0  0  0  0  0  0  0  0  0  0
   14.2050    2.5001   22.0935 H   0  0  0  0  0  0  0  0  0  0  0  0
   11.7377    2.6055   22.2205 H   0  0  0  0  0  0  0  0  0  0  0  0
    7.5665   -2.8638   26.1066 H   0  0  0  0  0  0  0  0  0  0  0  0
   11.0137   -4.2652   23.9447 H   0  0  0  0  0  0  0  0  0  0  0  0
    7.5948   -0.7788   24.7997 H   0  0  0  0  0  0  0  0  0  0  0  0
   11.0411   -2.1856   22.6358 H   0  0  0  0  0  0  0  0  0  0  0  0
   15.4515    0.8362   23.4248 H   0  0  0  0  0  0  0  0  0  0  0  0
   11.7396   -0.6460   25.0363 H   0  0  0  0  0  0  0  0  0  0  0  0
    5.4740    0.4765   22.1644 H   0  0  0  0  0  0  0  0  0  0  0  0
    3.6415    1.9966   21.6411 H   0  0  0  0  0  0  0  0  0  0  0  0
    3.2723    2.7926   19.2922 H   0  0  0  0  0  0  0  0  0  0  0  0
    4.8122    2.0412   17.5001 H   0  0  0  0  0  0  0  0  0  0  0  0
    8.6398   -5.7223   25.3871 H   0  0  0  0  0  0  0  0  0  0  0  0
   10.2715   -5.3829   26.0145 H   0  0  0  0  0  0  0  0  0  0  0  0
    8.8596   -4.8092   26.9004 H   0  0  0  0  0  0  0  0  0  0  0  0
    9.7513    0.9881   24.7602 H   0  0  0  0  0  0  0  0  0  0  0  0
    9.7095    1.9902   23.3091 H   0  0  0  0  0  0  0  0  0  0  0  0
    7.4909   -1.4166   21.8987 H   0  0  0  0  0  0  0  0  0  0  0  0
    8.7548   -1.7579   20.7032 H   0  0  0  0  0  0  0  0  0  0  0  0
  1  2  2  0  0  0  0
  1  7  1  0  0  0  0
  2 10  1  0  0  0  0
  3  5  2  0  0  0  0
  3  9  1  0  0  0  0
  4  6  1  0  0  0  0
  4  9  2  0  0  0  0
  5 11  1  0  0  0  0
  6 11  2  0  0  0  0
  7 12  2  0  0  0  0
  8 10  2  0  0  0  0
  8 12  1  0  0  0  0
  9 20  1  0  0  0  0
 10 21  1  0  0  0  0
 11 26  1  0  0  0  0
 12 28  1  0  0  0  0
 13 14  2  0  0  0  0
 13 15  1  0  0  0  0
 13 25  1  0  0  0  0
 14 22  1  0  0  0  0
 14 23  1  0  0  0  0
 15 16  2  0  0  0  0
 16 17  1  0  0  0  0
 17 18  2  0  0  0  0
 18 25  1  0  0  0  0
 19 22  1  0  0  0  0
 19 26  1  0  0  0  0
 19 27  2  0  0  0  0
 21 26  1  0  0  0  0
 23 24  2  0  0  0  0
 24 25  1  0  0  0  0
  1 29  1  0  0  0  0
  2 30  1  0  0  0  0
  3 31  1  0  0  0  0
  4 32  1  0  0  0  0
  5 33  1  0  0  0  0
  6 34  1  0  0  0  0
  7 35  1  0  0  0  0
  8 36  1  0  0  0  0
 15 37  1  0  0  0  0
 16 38  1  0  0  0  0
 17 39  1  0  0  0  0
 18 40  1  0  0  0  0
 20 41  1  0  0  0  0
 20 42  1  0  0  0  0
 20 43  1  0  0  0  0
 21 44  1  0  0  0  0
 21 45  1  0  0  0  0
 22 46  1  0  0  0  0
 22 47  1  0  0  0  0
M  END
> <clash_score>
0.799019016979202

> <docking_score>
-8.550738334655762

> <overlap_score>
0.9736567735671997

$$$$
BENZO_437_1
  -OEChem-08232013513D

 48 51  0     0  0  0  0  0  0999 V2000
   14.3667    0.8669   23.4897 C   0  0  0  0  0  0  0  0  0  0  0  0
   13.6954    0.2093   24.5205 C   0  0  0  0  0  0  0  0  0  0  0  0
   13.6464    1.5830   22.5336 C   0  0  0  0  0  0  0  0  0  0  0  0
   12.3037    0.2677   24.5951 C   0  0  0  0  0  0  0  0  0  0  0  0
   12.2548    1.6414   22.6082 C   0  0  0  0  0  0  0  0  0  0  0  0
    8.3510   -1.5420   24.6110 C   0  0  0  0  0  0  0  0  0  0  0  0
   10.2760   -2.3270   23.4020 C   0  0  0  0  0  0  0  0  0  0  0  0
    8.3310   -2.7170   25.3430 C   0  0  0  0  0  0  0  0  0  0  0  0
   10.2570   -3.5000   24.1350 C   0  0  0  0  0  0  0  0  0  0  0  0
   11.5834    0.9837   23.6390 C   0  0  0  0  0  0  0  0  0  0  0  0
    9.3300   -1.3350   23.6390 C   0  0  0  0  0  0  0  0  0  0  0  0
    9.2850   -3.7090   25.1090 C   0  0  0  0  0  0  0  0  0  0  0  0
    6.1600    0.3870   20.1140 C   0  0  0  0  0  0  0  0  0  0  0  0
    7.2210   -0.4620   20.0350 C   0  0  0  0  0  0  0  0  0  0  0  0
    5.3360    0.8000   21.1530 C   0  0  0  0  0  0  0  0  0  0  0  0
    4.2970    1.6690   20.8430 C   0  0  0  0  0  0  0  0  0  0  0  0
    4.0980    2.1130   19.5350 C   0  0  0  0  0  0  0  0  0  0  0  0
    4.9400    1.7060   18.5060 C   0  0  0  0  0  0  0  0  0  0  0  0
    8.9510    0.1280   21.6880 C   0  0  0  0  0  0  0  0  0  0  0  0
    8.2346   -4.9976   26.8023 C   0  0  0  0  0  0  0  0  0  0  0  0
   10.0855    1.0467   23.7186 C   0  0  0  0  0  0  0  0  0  0  0  0
    8.0810   -0.9750   21.0820 C   0  0  0  0  0  0  0  0  0  0  0  0
    7.6830   -0.5170   18.7600 N   0  0  0  0  0  0  0  0  0  0  0  0
    6.9440    0.2550   18.0100 N   0  0  0  0  0  0  0  0  0  0  0  0
    5.9810    0.8330   18.8060 N   0  0  0  0  0  0  0  0  0  0  0  0
    9.4200   -0.0840   22.9530 N   0  0  0  0  0  0  0  0  0  0  0  0
    9.1870    1.1500   21.0630 O   0  0  0  0  0  0  0  0  0  0  0  0
    9.2631   -4.8614   25.8229 O   0  0  0  0  0  0  0  0  0  0  0  0
   15.4504    0.8225   23.4325 H   0  0  0  0  0  0  0  0  0  0  0  0
   14.2561   -0.3474   25.2656 H   0  0  0  0  0  0  0  0  0  0  0  0
   14.1688    2.0960   21.7316 H   0  0  0  0  0  0  0  0  0  0  0  0
   11.7891   -0.2480   25.4016 H   0  0  0  0  0  0  0  0  0  0  0  0
   11.7019    2.2015   21.8588 H   0  0  0  0  0  0  0  0  0  0  0  0
    7.5951   -0.7786   24.8000 H   0  0  0  0  0  0  0  0  0  0  0  0
   11.0406   -2.1866   22.6351 H   0  0  0  0  0  0  0  0  0  0  0  0
    7.5664   -2.8674   26.1055 H   0  0  0  0  0  0  0  0  0  0  0  0
   11.0119   -4.2671   23.9461 H   0  0  0  0  0  0  0  0  0  0  0  0
    5.4740    0.4765   22.1644 H   0  0  0  0  0  0  0  0  0  0  0  0
    3.6415    1.9966   21.6411 H   0  0  0  0  0  0  0  0  0  0  0  0
    3.2723    2.7926   19.2922 H   0  0  0  0  0  0  0  0  0  0  0  0
    4.8122    2.0412   17.5001 H   0  0  0  0  0  0  0  0  0  0  0  0
    8.3309   -5.9652   27.3009 H   0  0  0  0  0  0  0  0  0  0  0  0
    7.2574   -4.9205   26.3189 H   0  0  0  0  0  0  0  0  0  0  0  0
    8.3380   -4.1983   27.5400 H   0  0  0  0  0  0  0  0  0  0  0  0
    9.7513    0.9881   24.7602 H   0  0  0  0  0  0  0  0  0  0  0  0
    9.7095    1.9902   23.3091 H   0  0  0  0  0  0  0  0  0  0  0  0
    7.4909   -1.4166   21.8987 H   0  0  0  0  0  0  0  0  0  0  0  0
    8.7548   -1.7579   20.7032 H   0  0  0  0  0  0  0  0  0  0  0  0
  1  2  1  0  0  0  0
  1  3  2  0  0  0  0
  2  4  2  0  0  0  0
  3  5  1  0  0  0  0
  4 10  1  0  0  0  0
  5 10  2  0  0  0  0
  6  8  2  0  0  0  0
  6 11  1  0  0  0  0
  7  9  1  0  0  0  0
  7 11  2  0  0  0  0
  8 12  1  0  0  0  0
  9 12  2  0  0  0  0
 10 21  1  0  0  0  0
 11 26  1  0  0  0  0
 12 28  1  0  0  0  0
 13 14  2  0  0  0  0
 13 15  1  0  0  0  0
 13 25  1  0  0  0  0
 14 22  1  0  0  0  0
 14 23  1  0  0  0  0
 15 16  2  0  0  0  0
 16 17  1  0  0  0  0
 17 18  2  0  0  0  0
 18 25  1  0  0  0  0
 19 22  1  0  0  0  0
 19 26  1  0  0  0  0
 19 27  2  0  0  0  0
 20 28  1  0  0  0  0
 21 26  1  0  0  0  0
 23 24  2  0  0  0  0
 24 25  1  0  0  0  0
  1 29  1  0  0  0  0
  2 30  1  0  0  0  0
  3 31  1  0  0  0  0
  4 32  1  0  0  0  0
  5 33  1  0  0  0  0
  6 34  1  0  0  0  0
  7 35  1  0  0  0  0
  8 36  1  0  0  0  0
  9 37  1  0  0  0  0
 15 38  1  0  0  0  0
 16 39  1  0  0  0  0
 17 40  1  0  0  0  0
 18 41  1  0  0  0  0
 20 42  1  0  0  0  0
 20 43  1  0  0  0  0
 20 44  1  0  0  0  0
 21 45  1  0  0  0  0
 21 46  1  0  0  0  0
 22 47  1  0  0  0  0
 22 48  1  0  0  0  0
M  END
> <clash_score>
0

> <docking_score>
-9.099333763122559

> <overlap_score>
0.9930858612060547

$$$$
BENZO_436_1
  -OEChem-08232013513D

 45 48  0     0  0  0  0  0  0999 V2000
    8.3510   -1.5420   24.6110 C   0  0  0  0  0  0  0  0  0  0  0  0
   10.2760   -2.3270   23.4020 C   0  0  0  0  0  0  0  0  0  0  0  0
    8.3310   -2.7170   25.3430 C   0  0  0  0  0  0  0  0  0  0  0  0
   10.2570   -3.5000   24.1350 C   0  0  0  0  0  0  0  0  0  0  0  0
   12.3172    1.0367   22.4188 C   0  0  0  0  0  0  0  0  0  0  0  0
   13.6764    0.9588   22.6285 C   0  0  0  0  0  0  0  0  0  0  0  0
   12.4099    0.8670   24.7350 C   0  0  0  0  0  0  0  0  0  0  0  0
   11.5834    0.9837   23.6390 C   0  0  0  0  0  0  0  0  0  0  0  0
    9.3300   -1.3350   23.6390 C   0  0  0  0  0  0  0  0  0  0  0  0
    9.2850   -3.7090   25.1090 C   0  0  0  0  0  0  0  0  0  0  0  0
    6.1600    0.3870   20.1140 C   0  0  0  0  0  0  0  0  0  0  0  0
    7.2210   -0.4620   20.0350 C   0  0  0  0  0  0  0  0  0  0  0  0
    5.3360    0.8000   21.1530 C   0  0  0  0  0  0  0  0  0  0  0  0
    4.2970    1.6690   20.8430 C   0  0  0  0  0  0  0  0  0  0  0  0
    4.0980    2.1130   19.5350 C   0  0  0  0  0  0  0  0  0  0  0  0
    4.9400    1.7060   18.5060 C   0  0  0  0  0  0  0  0  0  0  0  0
    8.9510    0.1280   21.6880 C   0  0  0  0  0  0  0  0  0  0  0  0
    8.2346   -4.9976   26.8023 C   0  0  0  0  0  0  0  0  0  0  0  0
   10.0855    1.0467   23.7186 C   0  0  0  0  0  0  0  0  0  0  0  0
    8.0810   -0.9750   21.0820 C   0  0  0  0  0  0  0  0  0  0  0  0
    7.6830   -0.5170   18.7600 N   0  0  0  0  0  0  0  0  0  0  0  0
    6.9440    0.2550   18.0100 N   0  0  0  0  0  0  0  0  0  0  0  0
    5.9810    0.8330   18.8060 N   0  0  0  0  0  0  0  0  0  0  0  0
    9.4200   -0.0840   22.9530 N   0  0  0  0  0  0  0  0  0  0  0  0
    9.1870    1.1500   21.0630 O   0  0  0  0  0  0  0  0  0  0  0  0
    9.2631   -4.8614   25.8229 O   0  0  0  0  0  0  0  0  0  0  0  0
   14.0631    0.8222   24.2911 S   0  0  0  0  0  0  0  0  0  0  0  0
    7.5951   -0.7786   24.8000 H   0  0  0  0  0  0  0  0  0  0  0  0
   11.0406   -2.1866   22.6351 H   0  0  0  0  0  0  0  0  0  0  0  0
    7.5664   -2.8674   26.1055 H   0  0  0  0  0  0  0  0  0  0  0  0
   11.0119   -4.2671   23.9461 H   0  0  0  0  0  0  0  0  0  0  0  0
   11.8745    1.1270   21.4348 H   0  0  0  0  0  0  0  0  0  0  0  0
   14.4608    0.9748   21.8851 H   0  0  0  0  0  0  0  0  0  0  0  0
   12.1261    0.8045   25.7764 H   0  0  0  0  0  0  0  0  0  0  0  0
    5.4740    0.4765   22.1644 H   0  0  0  0  0  0  0  0  0  0  0  0
    3.6415    1.9966   21.6411 H   0  0  0  0  0  0  0  0  0  0  0  0
    3.2723    2.7926   19.2922 H   0  0  0  0  0  0  0  0  0  0  0  0
    4.8122    2.0412   17.5001 H   0  0  0  0  0  0  0  0  0  0  0  0
    8.3309   -5.9652   27.3009 H   0  0  0  0  0  0  0  0  0  0  0  0
    7.2574   -4.9205   26.3189 H   0  0  0  0  0  0  0  0  0  0  0  0
    8.3380   -4.1983   27.5400 H   0  0  0  0  0  0  0  0  0  0  0  0
    9.7513    0.9881   24.7602 H   0  0  0  0  0  0  0  0  0  0  0  0
    9.7095    1.9902   23.3091 H   0  0  0  0  0  0  0  0  0  0  0  0
    7.4909   -1.4166   21.8987 H   0  0  0  0  0  0  0  0  0  0  0  0
    8.7548   -1.7579   20.7032 H   0  0  0  0  0  0  0  0  0  0  0  0
  1  3  2  0  0  0  0
  1  9  1  0  0  0  0
  2  4  1  0  0  0  0
  2  9  2  0  0  0  0
  3 10  1  0  0  0  0
  4 10  2  0  0  0  0
  5  6  2  0  0  0  0
  5  8  1  0  0  0  0
  6 27  1  0  0  0  0
  7  8  2  0  0  0  0
  7 27  1  0  0  0  0
  8 19  1  0  0  0  0
  9 24  1  0  0  0  0
 10 26  1  0  0  0  0
 11 12  2  0  0  0  0
 11 13  1  0  0  0  0
 11 23  1  0  0  0  0
 12 20  1  0  0  0  0
 12 21  1  0  0  0  0
 13 14  2  0  0  0  0
 14 15  1  0  0  0  0
 15 16  2  0  0  0  0
 16 23  1  0  0  0  0
 17 20  1  0  0  0  0
 17 24  1  0  0  0  0
 17 25  2  0  0  0  0
 18 26  1  0  0  0  0
 19 24  1  0  0  0  0
 21 22  2  0  0  0  0
 22 23  1  0  0  0  0
  1 28  1  0  0  0  0
  2 29  1  0  0  0  0
  3 30  1  0  0  0  0
  4 31  1  0  0  0  0
  5 32  1  0  0  0  0
  6 33  1  0  0  0  0
  7 34  1  0  0  0  0
 13 35  1  0  0  0  0
 14 36  1  0  0  0  0
 15 37  1  0  0  0  0
 16 38  1  0  0  0  0
 18 39  1  0  0  0  0
 18 40  1  0  0  0  0
 18 41  1  0  0  0  0
 19 42  1  0  0  0  0
 19 43  1  0  0  0  0
 20 44  1  0  0  0  0
 20 45  1  0  0  0  0
M  END
> <clash_score>
0

> <docking_score>
-9.43726634979248

> <overlap_score>
0.9677792191505432

$$$$
BENZO_438_1
  -OEChem-08232013513D

 48 51  0     0  0  0  0  0  0999 V2000
   13.7519    1.6845   24.4410 C   0  0  0  0  0  0  0  0  0  0  0  0
   12.3602    1.7434   24.5136 C   0  0  0  0  0  0  0  0  0  0  0  0
    8.3510   -1.5420   24.6110 C   0  0  0  0  0  0  0  0  0  0  0  0
   10.2760   -2.3270   23.4020 C   0  0  0  0  0  0  0  0  0  0  0  0
    8.3310   -2.7170   25.3430 C   0  0  0  0  0  0  0  0  0  0  0  0
   10.2570   -3.5000   24.1350 C   0  0  0  0  0  0  0  0  0  0  0  0
   14.3668    0.8659   23.4936 C   0  0  0  0  0  0  0  0  0  0  0  0
   12.1983    0.1650   22.6916 C   0  0  0  0  0  0  0  0  0  0  0  0
   11.5834    0.9837   23.6390 C   0  0  0  0  0  0  0  0  0  0  0  0
    9.3300   -1.3350   23.6390 C   0  0  0  0  0  0  0  0  0  0  0  0
    9.2850   -3.7090   25.1090 C   0  0  0  0  0  0  0  0  0  0  0  0
   13.5900    0.1061   22.6190 C   0  0  0  0  0  0  0  0  0  0  0  0
    6.1600    0.3870   20.1140 C   0  0  0  0  0  0  0  0  0  0  0  0
    7.2210   -0.4620   20.0350 C   0  0  0  0  0  0  0  0  0  0  0  0
    5.3360    0.8000   21.1530 C   0  0  0  0  0  0  0  0  0  0  0  0
    4.2970    1.6690   20.8430 C   0  0  0  0  0  0  0  0  0  0  0  0
    4.0980    2.1130   19.5350 C   0  0  0  0  0  0  0  0  0  0  0  0
    4.9400    1.7060   18.5060 C   0  0  0  0  0  0  0  0  0  0  0  0
    8.9510    0.1280   21.6880 C   0  0  0  0  0  0  0  0  0  0  0  0
    8.2346   -4.9976   26.8023 C   0  0  0  0  0  0  0  0  0  0  0  0
   10.0855    1.0467   23.7186 C   0  0  0  0  0  0  0  0  0  0  0  0
    8.0810   -0.9750   21.0820 C   0  0  0  0  0  0  0  0  0  0  0  0
    7.6830   -0.5170   18.7600 N   0  0  0  0  0  0  0  0  0  0  0  0
    6.9440    0.2550   18.0100 N   0  0  0  0  0  0  0  0  0  0  0  0
    5.9810    0.8330   18.8060 N   0  0  0  0  0  0  0  0  0  0  0  0
    9.4200   -0.0840   22.9530 N   0  0  0  0  0  0  0  0  0  0  0  0
    9.1870    1.1500   21.0630 O   0  0  0  0  0  0  0  0  0  0  0  0
    9.2631   -4.8614   25.8229 O   0  0  0  0  0  0  0  0  0  0  0  0
   14.3492   -0.9046   21.4512 Cl  0  0  0  0  0  0  0  0  0  0  0  0
   14.3565    2.2761   25.1223 H   0  0  0  0  0  0  0  0  0  0  0  0
   11.8896    2.3840   25.2550 H   0  0  0  0  0  0  0  0  0  0  0  0
    7.5951   -0.7786   24.8000 H   0  0  0  0  0  0  0  0  0  0  0  0
   11.0406   -2.1866   22.6351 H   0  0  0  0  0  0  0  0  0  0  0  0
    7.5664   -2.8674   26.1055 H   0  0  0  0  0  0  0  0  0  0  0  0
   11.0119   -4.2671   23.9461 H   0  0  0  0  0  0  0  0  0  0  0  0
   15.4525    0.8296   23.4487 H   0  0  0  0  0  0  0  0  0  0  0  0
   11.5882   -0.4250   22.0116 H   0  0  0  0  0  0  0  0  0  0  0  0
    5.4740    0.4765   22.1644 H   0  0  0  0  0  0  0  0  0  0  0  0
    3.6415    1.9966   21.6411 H   0  0  0  0  0  0  0  0  0  0  0  0
    3.2723    2.7926   19.2922 H   0  0  0  0  0  0  0  0  0  0  0  0
    4.8122    2.0412   17.5001 H   0  0  0  0  0  0  0  0  0  0  0  0
    8.3309   -5.9652   27.3009 H   0  0  0  0  0  0  0  0  0  0  0  0
    7.2574   -4.9205   26.3189 H   0  0  0  0  0  0  0  0  0  0  0  0
    8.3380   -4.1983   27.5400 H   0  0  0  0  0  0  0  0  0  0  0  0
    9.7513    0.9881   24.7602 H   0  0  0  0  0  0  0  0  0  0  0  0
    9.7095    1.9902   23.3091 H   0  0  0  0  0  0  0  0  0  0  0  0
    7.4909   -1.4166   21.8987 H   0  0  0  0  0  0  0  0  0  0  0  0
    8.7548   -1.7579   20.7032 H   0  0  0  0  0  0  0  0  0  0  0  0
  1  2  2  0  0  0  0
  1  7  1  0  0  0  0
  2  9  1  0  0  0  0
  3  5  2  0  0  0  0
  3 10  1  0  0  0  0
  4  6  1  0  0  0  0
  4 10  2  0  0  0  0
  5 11  1  0  0  0  0
  6 11  2  0  0  0  0
  7 12  2  0  0  0  0
  8  9  2  0  0  0  0
  8 12  1  0  0  0  0
  9 21  1  0  0  0  0
 10 26  1  0  0  0  0
 11 28  1  0  0  0  0
 12 29  1  0  0  0  0
 13 14  2  0  0  0  0
 13 15  1  0  0  0  0
 13 25  1  0  0  0  0
 14 22  1  0  0  0  0
 14 23  1  0  0  0  0
 15 16  2  0  0  0  0
 16 17  1  0  0  0  0
 17 18  2  0  0  0  0
 18 25  1  0  0  0  0
 19 22  1  0  0  0  0
 19 26  1  0  0  0  0
 19 27  2  0  0  0  0
 20 28  1  0  0  0  0
 21 26  1  0  0  0  0
 23 24  2  0  0  0  0
 24 25  1  0  0  0  0
  1 30  1  0  0  0  0
  2 31  1  0  0  0  0
  3 32  1  0  0  0  0
  4 33  1  0  0  0  0
  5 34  1  0  0  0  0
  6 35  1  0  0  0  0
  7 36  1  0  0  0  0
  8 37  1  0  0  0  0
 15 38  1  0  0  0  0
 16 39  1  0  0  0  0
 17 40  1  0  0  0  0
 18 41  1  0  0  0  0
 20 42  1  0  0  0  0
 20 43  1  0  0  0  0
 20 44  1  0  0  0  0
 21 45  1  0  0  0  0
 21 46  1  0  0  0  0
 22 47  1  0  0  0  0
 22 48  1  0  0  0  0
M  END
> <clash_score>
0

> <docking_score>
-8.317392349243164

> <overlap_score>
0.9722847938537598

$$$$
BENZO_439_1
  -OEChem-08232013513D

 48 51  0     0  0  0  0  0  0999 V2000
    8.3510   -1.5420   24.6110 C   0  0  0  0  0  0  0  0  0  0  0  0
   10.2760   -2.3270   23.4020 C   0  0  0  0  0  0  0  0  0  0  0  0
    8.3310   -2.7170   25.3430 C   0  0  0  0  0  0  0  0  0  0  0  0
   10.2570   -3.5000   24.1350 C   0  0  0  0  0  0  0  0  0  0  0  0
   12.5203    1.6732   24.4318 C   0  0  0  0  0  0  0  0  0  0  0  0
   12.3475    0.2366   22.7761 C   0  0  0  0  0  0  0  0  0  0  0  0
   11.5834    0.9837   23.6390 C   0  0  0  0  0  0  0  0  0  0  0  0
    9.3300   -1.3350   23.6390 C   0  0  0  0  0  0  0  0  0  0  0  0
    9.2850   -3.7090   25.1090 C   0  0  0  0  0  0  0  0  0  0  0  0
    6.1600    0.3870   20.1140 C   0  0  0  0  0  0  0  0  0  0  0  0
    7.2210   -0.4620   20.0350 C   0  0  0  0  0  0  0  0  0  0  0  0
    5.3360    0.8000   21.1530 C   0  0  0  0  0  0  0  0  0  0  0  0
    4.2970    1.6690   20.8430 C   0  0  0  0  0  0  0  0  0  0  0  0
    4.0980    2.1130   19.5350 C   0  0  0  0  0  0  0  0  0  0  0  0
    4.9400    1.7060   18.5060 C   0  0  0  0  0  0  0  0  0  0  0  0
    8.9510    0.1280   21.6880 C   0  0  0  0  0  0  0  0  0  0  0  0
   14.8175   -0.0375   22.4558 C   0  0  0  0  0  0  0  0  0  0  0  0
    8.2346   -4.9976   26.8023 C   0  0  0  0  0  0  0  0  0  0  0  0
   10.0855    1.0467   23.7186 C   0  0  0  0  0  0  0  0  0  0  0  0
    8.0810   -0.9750   21.0820 C   0  0  0  0  0  0  0  0  0  0  0  0
   13.7831    1.3893   24.1020 N   0  0  0  0  0  0  0  0  0  0  0  0
    7.6830   -0.5170   18.7600 N   0  0  0  0  0  0  0  0  0  0  0  0
    6.9440    0.2550   18.0100 N   0  0  0  0  0  0  0  0  0  0  0  0
   13.6450    0.5130   23.0925 N   0  0  0  0  0  0  0  0  0  0  0  0
    5.9810    0.8330   18.8060 N   0  0  0  0  0  0  0  0  0  0  0  0
    9.4200   -0.0840   22.9530 N   0  0  0  0  0  0  0  0  0  0  0  0
    9.1870    1.1500   21.0630 O   0  0  0  0  0  0  0  0  0  0  0  0
    9.2631   -4.8614   25.8229 O   0  0  0  0  0  0  0  0  0  0  0  0
    7.5951   -0.7786   24.8000 H   0  0  0  0  0  0  0  0  0  0  0  0
   11.0406   -2.1866   22.6351 H   0  0  0  0  0  0  0  0  0  0  0  0
    7.5664   -2.8674   26.1055 H   0  0  0  0  0  0  0  0  0  0  0  0
   11.0119   -4.2671   23.9461 H   0  0  0  0  0  0  0  0  0  0  0  0
   12.3380    2.3706   25.2372 H   0  0  0  0  0  0  0  0  0  0  0  0
   12.0849   -0.4521   21.9845 H   0  0  0  0  0  0  0  0  0  0  0  0
    5.4740    0.4765   22.1644 H   0  0  0  0  0  0  0  0  0  0  0  0
    3.6415    1.9966   21.6411 H   0  0  0  0  0  0  0  0  0  0  0  0
    3.2723    2.7926   19.2922 H   0  0  0  0  0  0  0  0  0  0  0  0
    4.8122    2.0412   17.5001 H   0  0  0  0  0  0  0  0  0  0  0  0
   15.0902    0.6194   21.6256 H   0  0  0  0  0  0  0  0  0  0  0  0
   15.6331   -0.0947   23.1819 H   0  0  0  0  0  0  0  0  0  0  0  0
   14.5918   -1.0433   22.0906 H   0  0  0  0  0  0  0  0  0  0  0  0
    8.3309   -5.9652   27.3009 H   0  0  0  0  0  0  0  0  0  0  0  0
    7.2574   -4.9205   26.3189 H   0  0  0  0  0  0  0  0  0  0  0  0
    8.3380   -4.1983   27.5400 H   0  0  0  0  0  0  0  0  0  0  0  0
    9.7513    0.9881   24.7602 H   0  0  0  0  0  0  0  0  0  0  0  0
    9.7095    1.9902   23.3091 H   0  0  0  0  0  0  0  0  0  0  0  0
    7.4909   -1.4166   21.8987 H   0  0  0  0  0  0  0  0  0  0  0  0
    8.7548   -1.7579   20.7032 H   0  0  0  0  0  0  0  0  0  0  0  0
  1  3  2  0  0  0  0
  1  8  1  0  0  0  0
  2  4  1  0  0  0  0
  2  8  2  0  0  0  0
  3  9  1  0  0  0  0
  4  9  2  0  0  0  0
  5  7  1  0  0  0  0
  5 21  2  0  0  0  0
  6  7  2  0  0  0  0
  6 24  1  0  0  0  0
  7 19  1  0  0  0  0
  8 26  1  0  0  0  0
  9 28  1  0  0  0  0
 10 11  2  0  0  0  0
 10 12  1  0  0  0  0
 10 25  1  0  0  0  0
 11 20  1  0  0  0  0
 11 22  1  0  0  0  0
 12 13  2  0  0  0  0
 13 14  1  0  0  0  0
 14 15  2  0  0  0  0
 15 25  1  0  0  0  0
 16 20  1  0  0  0  0
 16 26  1  0  0  0  0
 16 27  2  0  0  0  0
 17 24  1  0  0  0  0
 18 28  1  0  0  0  0
 19 26  1  0  0  0  0
 21 24  1  0  0  0  0
 22 23  2  0  0  0  0
 23 25  1  0  0  0  0
  1 29  1  0  0  0  0
  2 30  1  0  0  0  0
  3 31  1  0  0  0  0
  4 32  1  0  0  0  0
  5 33  1  0  0  0  0
  6 34  1  0  0  0  0
 12 35  1  0  0  0  0
 13 36  1  0  0  0  0
 14 37  1  0  0  0  0
 15 38  1  0  0  0  0
 17 39  1  0  0  0  0
 17 40  1  0  0  0  0
 17 41  1  0  0  0  0
 18 42  1  0  0  0  0
 18 43  1  0  0  0  0
 18 44  1  0  0  0  0
 19 45  1  0  0  0  0
 19 46  1  0  0  0  0
 20 47  1  0  0  0  0
 20 48  1  0  0  0  0
M  END
> <clash_score>
0

> <docking_score>
-9.260223388671875

> <overlap_score>
0.9773834943771362

$$$$
BENZO_441_1
  -OEChem-08232013513D

 58 62  0     0  0  0  0  0  0999 V2000
   14.2722    1.1317   23.8497 C   0  0  0  0  0  0  0  0  0  0  0  0
   13.5648    0.4311   24.8266 C   0  0  0  0  0  0  0  0  0  0  0  0
   13.5852    1.8105   22.8432 C   0  0  0  0  0  0  0  0  0  0  0  0
   12.1704    0.4091   24.7969 C   0  0  0  0  0  0  0  0  0  0  0  0
   12.1908    1.7885   22.8136 C   0  0  0  0  0  0  0  0  0  0  0  0
    8.3310   -2.7170   25.3430 C   0  0  0  0  0  0  0  0  0  0  0  0
   10.2570   -3.5000   24.1350 C   0  0  0  0  0  0  0  0  0  0  0  0
    8.3510   -1.5420   24.6110 C   0  0  0  0  0  0  0  0  0  0  0  0
   10.2760   -2.3270   23.4020 C   0  0  0  0  0  0  0  0  0  0  0  0
   11.4834    1.0878   23.7904 C   0  0  0  0  0  0  0  0  0  0  0  0
    9.2850   -3.7090   25.1090 C   0  0  0  0  0  0  0  0  0  0  0  0
    9.3300   -1.3350   23.6390 C   0  0  0  0  0  0  0  0  0  0  0  0
    6.1600    0.3870   20.1140 C   0  0  0  0  0  0  0  0  0  0  0  0
    7.2210   -0.4620   20.0350 C   0  0  0  0  0  0  0  0  0  0  0  0
    5.3360    0.8000   21.1530 C   0  0  0  0  0  0  0  0  0  0  0  0
    4.2970    1.6690   20.8430 C   0  0  0  0  0  0  0  0  0  0  0  0
    4.0980    2.1130   19.5350 C   0  0  0  0  0  0  0  0  0  0  0  0
    4.9400    1.7060   18.5060 C   0  0  0  0  0  0  0  0  0  0  0  0
    8.0635   -5.4710   26.3667 C   0  0  0  0  0  0  0  0  0  0  0  0
    8.9510    0.1280   21.6880 C   0  0  0  0  0  0  0  0  0  0  0  0
    8.2626   -6.7580   27.1475 C   0  0  0  0  0  0  0  0  0  0  0  0
    9.4048   -6.6156   28.1380 C   0  0  0  0  0  0  0  0  0  0  0  0
   10.6949   -6.1500   27.4702 C   0  0  0  0  0  0  0  0  0  0  0  0
   10.4942   -5.7069   26.0219 C   0  0  0  0  0  0  0  0  0  0  0  0
    9.9825    1.0644   23.7577 C   0  0  0  0  0  0  0  0  0  0  0  0
    8.0810   -0.9750   21.0820 C   0  0  0  0  0  0  0  0  0  0  0  0
    7.6830   -0.5170   18.7600 N   0  0  0  0  0  0  0  0  0  0  0  0
    6.9440    0.2550   18.0100 N   0  0  0  0  0  0  0  0  0  0  0  0
    5.9810    0.8330   18.8060 N   0  0  0  0  0  0  0  0  0  0  0  0
    9.2623   -4.9266   25.8635 N   0  0  0  0  0  0  0  0  0  0  0  0
    9.4200   -0.0840   22.9530 N   0  0  0  0  0  0  0  0  0  0  0  0
    6.9244   -5.0476   26.1739 O   0  0  0  0  0  0  0  0  0  0  0  0
    9.1870    1.1500   21.0630 O   0  0  0  0  0  0  0  0  0  0  0  0
   15.3578    1.1499   23.8738 H   0  0  0  0  0  0  0  0  0  0  0  0
   14.0995   -0.0966   25.6110 H   0  0  0  0  0  0  0  0  0  0  0  0
   14.1356    2.3571   22.0832 H   0  0  0  0  0  0  0  0  0  0  0  0
   11.6275   -0.1397   25.5620 H   0  0  0  0  0  0  0  0  0  0  0  0
   11.6640    2.3202   22.0255 H   0  0  0  0  0  0  0  0  0  0  0  0
    7.5639   -2.8621   26.1045 H   0  0  0  0  0  0  0  0  0  0  0  0
   11.0141   -4.2644   23.9422 H   0  0  0  0  0  0  0  0  0  0  0  0
    7.5950   -0.7788   24.8007 H   0  0  0  0  0  0  0  0  0  0  0  0
   11.0408   -2.1861   22.6359 H   0  0  0  0  0  0  0  0  0  0  0  0
    5.4740    0.4765   22.1644 H   0  0  0  0  0  0  0  0  0  0  0  0
    3.6415    1.9966   21.6411 H   0  0  0  0  0  0  0  0  0  0  0  0
    3.2723    2.7926   19.2922 H   0  0  0  0  0  0  0  0  0  0  0  0
    4.8122    2.0412   17.5001 H   0  0  0  0  0  0  0  0  0  0  0  0
    7.3516   -6.9810   27.6812 H   0  0  0  0  0  0  0  0  0  0  0  0
    8.4757   -7.5428   26.4371 H   0  0  0  0  0  0  0  0  0  0  0  0
    9.1234   -5.9016   28.9400 H   0  0  0  0  0  0  0  0  0  0  0  0
    9.5778   -7.5840   28.6491 H   0  0  0  0  0  0  0  0  0  0  0  0
   11.1305   -5.3108   28.0523 H   0  0  0  0  0  0  0  0  0  0  0  0
   11.4565   -6.9587   27.5131 H   0  0  0  0  0  0  0  0  0  0  0  0
   11.3212   -5.0729   25.7168 H   0  0  0  0  0  0  0  0  0  0  0  0
   10.4483   -6.5796   25.3796 H   0  0  0  0  0  0  0  0  0  0  0  0
    9.5754    0.9911   24.7721 H   0  0  0  0  0  0  0  0  0  0  0  0
    9.5848    1.9827   23.3131 H   0  0  0  0  0  0  0  0  0  0  0  0
    7.4781   -1.4136   21.8845 H   0  0  0  0  0  0  0  0  0  0  0  0
    8.7420   -1.7550   20.6889 H   0  0  0  0  0  0  0  0  0  0  0  0
  1  2  1  0  0  0  0
  1  3  2  0  0  0  0
  2  4  2  0  0  0  0
  3  5  1  0  0  0  0
  4 10  1  0  0  0  0
  5 10  2  0  0  0  0
  6  8  2  0  0  0  0
  6 11  1  0  0  0  0
  7  9  1  0  0  0  0
  7 11  2  0  0  0  0
  8 12  1  0  0  0  0
  9 12  2  0  0  0  0
 10 25  1  0  0  0  0
 11 30  1  0  0  0  0
 12 31  1  0  0  0  0
 13 14  2  0  0  0  0
 13 15  1  0  0  0  0
 13 29  1  0  0  0  0
 14 26  1  0  0  0  0
 14 27  1  0  0  0  0
 15 16  2  0  0  0  0
 16 17  1  0  0  0  0
 17 18  2  0  0  0  0
 18 29  1  0  0  0  0
 19 21  1  0  0  0  0
 19 30  1  0  0  0  0
 19 32  2  0  0  0  0
 20 26  1  0  0  0  0
 20 31  1  0  0  0  0
 20 33  2  0  0  0  0
 21 22  1  0  0  0  0
 22 23  1  0  0  0  0
 23 24  1  0  0  0  0
 24 30  1  0  0  0  0
 25 31  1  0  0  0  0
 27 28  2  0  0  0  0
 28 29  1  0  0  0  0
  1 34  1  0  0  0  0
  2 35  1  0  0  0  0
  3 36  1  0  0  0  0
  4 37  1  0  0  0  0
  5 38  1  0  0  0  0
  6 39  1  0  0  0  0
  7 40  1  0  0  0  0
  8 41  1  0  0  0  0
  9 42  1  0  0  0  0
 15 43  1  0  0  0  0
 16 44  1  0  0  0  0
 17 45  1  0  0  0  0
 18 46  1  0  0  0  0
 21 47  1  0  0  0  0
 21 48  1  0  0  0  0
 22 49  1  0  0  0  0
 22 50  1  0  0  0  0
 23 51  1  0  0  0  0
 23 52  1  0  0  0  0
 24 53  1  0  0  0  0
 24 54  1  0  0  0  0
 25 55  1  0  0  0  0
 25 56  1  0  0  0  0
 26 57  1  0  0  0  0
 26 58  1  0  0  0  0
M  END
> <clash_score>
1.272782601224562

> <docking_score>
-7.797398567199707

> <overlap_score>
1.0070691108703613

$$$$
BENZO_440_1
  -OEChem-08232013513D

 55 59  0     0  0  0  0  0  0999 V2000
    8.3310   -2.7170   25.3430 C   0  0  0  0  0  0  0  0  0  0  0  0
   10.2570   -3.5000   24.1350 C   0  0  0  0  0  0  0  0  0  0  0  0
    8.3510   -1.5420   24.6110 C   0  0  0  0  0  0  0  0  0  0  0  0
   10.2760   -2.3270   23.4020 C   0  0  0  0  0  0  0  0  0  0  0  0
   12.3021    1.1778   22.6278 C   0  0  0  0  0  0  0  0  0  0  0  0
   13.6441    1.1796   22.9388 C   0  0  0  0  0  0  0  0  0  0  0  0
   12.2309    1.0241   24.9459 C   0  0  0  0  0  0  0  0  0  0  0  0
   11.4834    1.0878   23.7904 C   0  0  0  0  0  0  0  0  0  0  0  0
    9.2850   -3.7090   25.1090 C   0  0  0  0  0  0  0  0  0  0  0  0
    9.3300   -1.3350   23.6390 C   0  0  0  0  0  0  0  0  0  0  0  0
    6.1600    0.3870   20.1140 C   0  0  0  0  0  0  0  0  0  0  0  0
    7.2210   -0.4620   20.0350 C   0  0  0  0  0  0  0  0  0  0  0  0
    5.3360    0.8000   21.1530 C   0  0  0  0  0  0  0  0  0  0  0  0
    4.2970    1.6690   20.8430 C   0  0  0  0  0  0  0  0  0  0  0  0
    4.0980    2.1130   19.5350 C   0  0  0  0  0  0  0  0  0  0  0  0
    4.9400    1.7060   18.5060 C   0  0  0  0  0  0  0  0  0  0  0  0
    8.0635   -5.4710   26.3667 C   0  0  0  0  0  0  0  0  0  0  0  0
    8.9510    0.1280   21.6880 C   0  0  0  0  0  0  0  0  0  0  0  0
    8.2626   -6.7580   27.1475 C   0  0  0  0  0  0  0  0  0  0  0  0
    9.4048   -6.6156   28.1380 C   0  0  0  0  0  0  0  0  0  0  0  0
   10.6949   -6.1500   27.4702 C   0  0  0  0  0  0  0  0  0  0  0  0
   10.4942   -5.7069   26.0219 C   0  0  0  0  0  0  0  0  0  0  0  0
    9.9825    1.0644   23.7577 C   0  0  0  0  0  0  0  0  0  0  0  0
    8.0810   -0.9750   21.0820 C   0  0  0  0  0  0  0  0  0  0  0  0
    7.6830   -0.5170   18.7600 N   0  0  0  0  0  0  0  0  0  0  0  0
    6.9440    0.2550   18.0100 N   0  0  0  0  0  0  0  0  0  0  0  0
    5.9810    0.8330   18.8060 N   0  0  0  0  0  0  0  0  0  0  0  0
    9.2623   -4.9266   25.8635 N   0  0  0  0  0  0  0  0  0  0  0  0
    9.4200   -0.0840   22.9530 N   0  0  0  0  0  0  0  0  0  0  0  0
    6.9244   -5.0476   26.1739 O   0  0  0  0  0  0  0  0  0  0  0  0
    9.1870    1.1500   21.0630 O   0  0  0  0  0  0  0  0  0  0  0  0
   13.9126    1.0731   24.6267 S   0  0  0  0  0  0  0  0  0  0  0  0
    7.5639   -2.8621   26.1045 H   0  0  0  0  0  0  0  0  0  0  0  0
   11.0141   -4.2644   23.9422 H   0  0  0  0  0  0  0  0  0  0  0  0
    7.5950   -0.7788   24.8007 H   0  0  0  0  0  0  0  0  0  0  0  0
   11.0408   -2.1861   22.6359 H   0  0  0  0  0  0  0  0  0  0  0  0
   11.9298    1.2378   21.6128 H   0  0  0  0  0  0  0  0  0  0  0  0
   14.4797    1.2377   22.2557 H   0  0  0  0  0  0  0  0  0  0  0  0
   11.8741    0.9499   25.9638 H   0  0  0  0  0  0  0  0  0  0  0  0
    5.4740    0.4765   22.1644 H   0  0  0  0  0  0  0  0  0  0  0  0
    3.6415    1.9966   21.6411 H   0  0  0  0  0  0  0  0  0  0  0  0
    3.2723    2.7926   19.2922 H   0  0  0  0  0  0  0  0  0  0  0  0
    4.8122    2.0412   17.5001 H   0  0  0  0  0  0  0  0  0  0  0  0
    7.3516   -6.9810   27.6812 H   0  0  0  0  0  0  0  0  0  0  0  0
    8.4757   -7.5428   26.4371 H   0  0  0  0  0  0  0  0  0  0  0  0
    9.1234   -5.9016   28.9400 H   0  0  0  0  0  0  0  0  0  0  0  0
    9.5778   -7.5840   28.6491 H   0  0  0  0  0  0  0  0  0  0  0  0
   11.1305   -5.3108   28.0523 H   0  0  0  0  0  0  0  0  0  0  0  0
   11.4565   -6.9587   27.5131 H   0  0  0  0  0  0  0  0  0  0  0  0
   11.3212   -5.0729   25.7168 H   0  0  0  0  0  0  0  0  0  0  0  0
   10.4483   -6.5796   25.3796 H   0  0  0  0  0  0  0  0  0  0  0  0
    9.5754    0.9911   24.7721 H   0  0  0  0  0  0  0  0  0  0  0  0
    9.5848    1.9827   23.3131 H   0  0  0  0  0  0  0  0  0  0  0  0
    7.4781   -1.4136   21.8845 H   0  0  0  0  0  0  0  0  0  0  0  0
    8.7420   -1.7550   20.6889 H   0  0  0  0  0  0  0  0  0  0  0  0
  1  3  2  0  0  0  0
  1  9  1  0  0  0  0
  2  4  1  0  0  0  0
  2  9  2  0  0  0  0
  3 10  1  0  0  0  0
  4 10  2  0  0  0  0
  5  6  2  0  0  0  0
  5  8  1  0  0  0  0
  6 32  1  0  0  0  0
  7  8  2  0  0  0  0
  7 32  1  0  0  0  0
  8 23  1  0  0  0  0
  9 28  1  0  0  0  0
 10 29  1  0  0  0  0
 11 12  2  0  0  0  0
 11 13  1  0  0  0  0
 11 27  1  0  0  0  0
 12 24  1  0  0  0  0
 12 25  1  0  0  0  0
 13 14  2  0  0  0  0
 14 15  1  0  0  0  0
 15 16  2  0  0  0  0
 16 27  1  0  0  0  0
 17 19  1  0  0  0  0
 17 28  1  0  0  0  0
 17 30  2  0  0  0  0
 18 24  1  0  0  0  0
 18 29  1  0  0  0  0
 18 31  2  0  0  0  0
 19 20  1  0  0  0  0
 20 21  1  0  0  0  0
 21 22  1  0  0  0  0
 22 28  1  0  0  0  0
 23 29  1  0  0  0  0
 25 26  2  0  0  0  0
 26 27  1  0  0  0  0
  1 33  1  0  0  0  0
  2 34  1  0  0  0  0
  3 35  1  0  0  0  0
  4 36  1  0  0  0  0
  5 37  1  0  0  0  0
  6 38  1  0  0  0  0
  7 39  1  0  0  0  0
 13 40  1  0  0  0  0
 14 41  1  0  0  0  0
 15 42  1  0  0  0  0
 16 43  1  0  0  0  0
 19 44  1  0  0  0  0
 19 45  1  0  0  0  0
 20 46  1  0  0  0  0
 20 47  1  0  0  0  0
 21 48  1  0  0  0  0
 21 49  1  0  0  0  0
 22 50  1  0  0  0  0
 22 51  1  0  0  0  0
 23 52  1  0  0  0  0
 23 53  1  0  0  0  0
 24 54  1  0  0  0  0
 24 55  1  0  0  0  0
M  END
> <clash_score>
1.272782601224562

> <docking_score>
-8.161415100097656

> <overlap_score>
0.9861369132995605

$$$$
BENZO_445_1
  -OEChem-08232013513D

 57 61  0     0  0  0  0  0  0999 V2000
   14.2721    1.1321   23.8535 C   0  0  0  0  0  0  0  0  0  0  0  0
   13.5639    0.4317   24.8299 C   0  0  0  0  0  0  0  0  0  0  0  0
   13.5859    1.8106   22.8462 C   0  0  0  0  0  0  0  0  0  0  0  0
   12.1695    0.4095   24.7990 C   0  0  0  0  0  0  0  0  0  0  0  0
   12.1916    1.7885   22.8153 C   0  0  0  0  0  0  0  0  0  0  0  0
    8.3310   -2.7170   25.3430 C   0  0  0  0  0  0  0  0  0  0  0  0
   10.2570   -3.5000   24.1350 C   0  0  0  0  0  0  0  0  0  0  0  0
    8.3510   -1.5420   24.6110 C   0  0  0  0  0  0  0  0  0  0  0  0
   10.2760   -2.3270   23.4020 C   0  0  0  0  0  0  0  0  0  0  0  0
   11.4834    1.0880   23.7917 C   0  0  0  0  0  0  0  0  0  0  0  0
    9.2850   -3.7090   25.1090 C   0  0  0  0  0  0  0  0  0  0  0  0
    9.3300   -1.3350   23.6390 C   0  0  0  0  0  0  0  0  0  0  0  0
    6.1600    0.3870   20.1140 C   0  0  0  0  0  0  0  0  0  0  0  0
    7.2210   -0.4620   20.0350 C   0  0  0  0  0  0  0  0  0  0  0  0
    5.3360    0.8000   21.1530 C   0  0  0  0  0  0  0  0  0  0  0  0
    4.2970    1.6690   20.8430 C   0  0  0  0  0  0  0  0  0  0  0  0
    4.0980    2.1130   19.5350 C   0  0  0  0  0  0  0  0  0  0  0  0
    4.9400    1.7060   18.5060 C   0  0  0  0  0  0  0  0  0  0  0  0
    8.9510    0.1280   21.6880 C   0  0  0  0  0  0  0  0  0  0  0  0
    8.7666   -4.9523   27.2147 C   0  0  0  0  0  0  0  0  0  0  0  0
    9.3034   -6.1866   25.1651 C   0  0  0  0  0  0  0  0  0  0  0  0
    7.3827   -5.5925   27.1999 C   0  0  0  0  0  0  0  0  0  0  0  0
    7.9024   -6.7967   25.2263 C   0  0  0  0  0  0  0  0  0  0  0  0
    9.9825    1.0644   23.7577 C   0  0  0  0  0  0  0  0  0  0  0  0
    8.0810   -0.9750   21.0820 C   0  0  0  0  0  0  0  0  0  0  0  0
    7.6830   -0.5170   18.7600 N   0  0  0  0  0  0  0  0  0  0  0  0
    6.9440    0.2550   18.0100 N   0  0  0  0  0  0  0  0  0  0  0  0
    5.9810    0.8330   18.8060 N   0  0  0  0  0  0  0  0  0  0  0  0
    9.2640   -4.8844   25.8389 N   0  0  0  0  0  0  0  0  0  0  0  0
    9.4200   -0.0840   22.9530 N   0  0  0  0  0  0  0  0  0  0  0  0
    9.1870    1.1500   21.0630 O   0  0  0  0  0  0  0  0  0  0  0  0
    7.4483   -6.8833   26.5817 O   0  0  0  0  0  0  0  0  0  0  0  0
   15.3577    1.1504   23.8785 H   0  0  0  0  0  0  0  0  0  0  0  0
   14.0979   -0.0958   25.6150 H   0  0  0  0  0  0  0  0  0  0  0  0
   14.1370    2.3569   22.0865 H   0  0  0  0  0  0  0  0  0  0  0  0
   11.6260   -0.1390   25.5638 H   0  0  0  0  0  0  0  0  0  0  0  0
   11.6655    2.3198   22.0267 H   0  0  0  0  0  0  0  0  0  0  0  0
    7.5647   -2.8621   26.1053 H   0  0  0  0  0  0  0  0  0  0  0  0
   11.0144   -4.2642   23.9425 H   0  0  0  0  0  0  0  0  0  0  0  0
    7.5958   -0.7779   24.8006 H   0  0  0  0  0  0  0  0  0  0  0  0
   11.0406   -2.1848   22.6356 H   0  0  0  0  0  0  0  0  0  0  0  0
    5.4740    0.4765   22.1644 H   0  0  0  0  0  0  0  0  0  0  0  0
    3.6415    1.9966   21.6411 H   0  0  0  0  0  0  0  0  0  0  0  0
    3.2723    2.7926   19.2922 H   0  0  0  0  0  0  0  0  0  0  0  0
    4.8122    2.0412   17.5001 H   0  0  0  0  0  0  0  0  0  0  0  0
    8.7030   -3.9561   27.6574 H   0  0  0  0  0  0  0  0  0  0  0  0
    9.4460   -5.5639   27.8143 H   0  0  0  0  0  0  0  0  0  0  0  0
   10.0083   -6.8392   25.6817 H   0  0  0  0  0  0  0  0  0  0  0  0
    9.6089   -6.0802   24.1251 H   0  0  0  0  0  0  0  0  0  0  0  0
    7.0281   -5.7334   28.2231 H   0  0  0  0  0  0  0  0  0  0  0  0
    6.6541   -4.9678   26.6754 H   0  0  0  0  0  0  0  0  0  0  0  0
    7.1860   -6.2177   24.6318 H   0  0  0  0  0  0  0  0  0  0  0  0
    7.9246   -7.8119   24.8187 H   0  0  0  0  0  0  0  0  0  0  0  0
    9.5745    0.9898   24.7716 H   0  0  0  0  0  0  0  0  0  0  0  0
    9.5850    1.9832   23.3140 H   0  0  0  0  0  0  0  0  0  0  0  0
    7.4781   -1.4136   21.8845 H   0  0  0  0  0  0  0  0  0  0  0  0
    8.7420   -1.7550   20.6889 H   0  0  0  0  0  0  0  0  0  0  0  0
  1  2  1  0  0  0  0
  1  3  2  0  0  0  0
  2  4  2  0  0  0  0
  3  5  1  0  0  0  0
  4 10  1  0  0  0  0
  5 10  2  0  0  0  0
  6  8  2  0  0  0  0
  6 11  1  0  0  0  0
  7  9  1  0  0  0  0
  7 11  2  0  0  0  0
  8 12  1  0  0  0  0
  9 12  2  0  0  0  0
 10 24  1  0  0  0  0
 11 29  1  0  0  0  0
 12 30  1  0  0  0  0
 13 14  2  0  0  0  0
 13 15  1  0  0  0  0
 13 28  1  0  0  0  0
 14 25  1  0  0  0  0
 14 26  1  0  0  0  0
 15 16  2  0  0  0  0
 16 17  1  0  0  0  0
 17 18  2  0  0  0  0
 18 28  1  0  0  0  0
 19 25  1  0  0  0  0
 19 30  1  0  0  0  0
 19 31  2  0  0  0  0
 20 22  1  0  0  0  0
 20 29  1  0  0  0  0
 21 23  1  0  0  0  0
 21 29  1  0  0  0  0
 22 32  1  0  0  0  0
 23 32  1  0  0  0  0
 24 30  1  0  0  0  0
 26 27  2  0  0  0  0
 27 28  1  0  0  0  0
  1 33  1  0  0  0  0
  2 34  1  0  0  0  0
  3 35  1  0  0  0  0
  4 36  1  0  0  0  0
  5 37  1  0  0  0  0
  6 38  1  0  0  0  0
  7 39  1  0  0  0  0
  8 40  1  0  0  0  0
  9 41  1  0  0  0  0
 15 42  1  0  0  0  0
 16 43  1  0  0  0  0
 17 44  1  0  0  0  0
 18 45  1  0  0  0  0
 20 46  1  0  0  0  0
 20 47  1  0  0  0  0
 21 48  1  0  0  0  0
 21 49  1  0  0  0  0
 22 50  1  0  0  0  0
 22 51  1  0  0  0  0
 23 52  1  0  0  0  0
 23 53  1  0  0  0  0
 24 54  1  0  0  0  0
 24 55  1  0  0  0  0
 25 56  1  0  0  0  0
 25 57  1  0  0  0  0
M  END
> <clash_score>
0

> <docking_score>
-9.040094375610352

> <overlap_score>
1.0075167417526245

$$$$
BENZO_442_1
  -OEChem-08232013513D

 58 62  0     0  0  0  0  0  0999 V2000
   13.5774    2.0303   23.0396 C   0  0  0  0  0  0  0  0  0  0  0  0
   12.1831    2.0072   23.0089 C   0  0  0  0  0  0  0  0  0  0  0  0
    8.3310   -2.7170   25.3430 C   0  0  0  0  0  0  0  0  0  0  0  0
   10.2570   -3.5000   24.1350 C   0  0  0  0  0  0  0  0  0  0  0  0
    8.3510   -1.5420   24.6110 C   0  0  0  0  0  0  0  0  0  0  0  0
   10.2760   -2.3270   23.4020 C   0  0  0  0  0  0  0  0  0  0  0  0
   14.2721    1.1339   23.8518 C   0  0  0  0  0  0  0  0  0  0  0  0
   12.1780    0.1915   24.6027 C   0  0  0  0  0  0  0  0  0  0  0  0
   11.4834    1.0878   23.7904 C   0  0  0  0  0  0  0  0  0  0  0  0
    9.2850   -3.7090   25.1090 C   0  0  0  0  0  0  0  0  0  0  0  0
    9.3300   -1.3350   23.6390 C   0  0  0  0  0  0  0  0  0  0  0  0
   13.5724    0.2145   24.6334 C   0  0  0  0  0  0  0  0  0  0  0  0
    6.1600    0.3870   20.1140 C   0  0  0  0  0  0  0  0  0  0  0  0
    7.2210   -0.4620   20.0350 C   0  0  0  0  0  0  0  0  0  0  0  0
    5.3360    0.8000   21.1530 C   0  0  0  0  0  0  0  0  0  0  0  0
    4.2970    1.6690   20.8430 C   0  0  0  0  0  0  0  0  0  0  0  0
    4.0980    2.1130   19.5350 C   0  0  0  0  0  0  0  0  0  0  0  0
    4.9400    1.7060   18.5060 C   0  0  0  0  0  0  0  0  0  0  0  0
    8.2930   -5.1714   26.8572 C   0  0  0  0  0  0  0  0  0  0  0  0
    8.9510    0.1280   21.6880 C   0  0  0  0  0  0  0  0  0  0  0  0
    8.4551   -6.5156   27.5444 C   0  0  0  0  0  0  0  0  0  0  0  0
    9.9019   -6.7444   27.9450 C   0  0  0  0  0  0  0  0  0  0  0  0
   10.8596   -6.5882   26.7680 C   0  0  0  0  0  0  0  0  0  0  0  0
   10.1895   -6.0108   25.5223 C   0  0  0  0  0  0  0  0  0  0  0  0
    9.9825    1.0644   23.7577 C   0  0  0  0  0  0  0  0  0  0  0  0
    8.0810   -0.9750   21.0820 C   0  0  0  0  0  0  0  0  0  0  0  0
    7.6830   -0.5170   18.7600 N   0  0  0  0  0  0  0  0  0  0  0  0
    6.9440    0.2550   18.0100 N   0  0  0  0  0  0  0  0  0  0  0  0
    5.9810    0.8330   18.8060 N   0  0  0  0  0  0  0  0  0  0  0  0
    9.2623   -4.9266   25.8635 N   0  0  0  0  0  0  0  0  0  0  0  0
    9.4200   -0.0840   22.9530 N   0  0  0  0  0  0  0  0  0  0  0  0
    7.3370   -4.4527   27.1463 O   0  0  0  0  0  0  0  0  0  0  0  0
    9.1870    1.1500   21.0630 O   0  0  0  0  0  0  0  0  0  0  0  0
   14.4299   -0.8903   25.6361 Cl  0  0  0  0  0  0  0  0  0  0  0  0
   14.1219    2.7465   22.4310 H   0  0  0  0  0  0  0  0  0  0  0  0
   11.6501    2.7094   22.3731 H   0  0  0  0  0  0  0  0  0  0  0  0
    7.5639   -2.8621   26.1045 H   0  0  0  0  0  0  0  0  0  0  0  0
   11.0141   -4.2644   23.9422 H   0  0  0  0  0  0  0  0  0  0  0  0
    7.5950   -0.7788   24.8007 H   0  0  0  0  0  0  0  0  0  0  0  0
   11.0408   -2.1861   22.6359 H   0  0  0  0  0  0  0  0  0  0  0  0
   15.3588    1.1635   23.8660 H   0  0  0  0  0  0  0  0  0  0  0  0
   11.6279   -0.5238   25.2098 H   0  0  0  0  0  0  0  0  0  0  0  0
    5.4740    0.4765   22.1644 H   0  0  0  0  0  0  0  0  0  0  0  0
    3.6415    1.9966   21.6411 H   0  0  0  0  0  0  0  0  0  0  0  0
    3.2723    2.7926   19.2922 H   0  0  0  0  0  0  0  0  0  0  0  0
    4.8122    2.0412   17.5001 H   0  0  0  0  0  0  0  0  0  0  0  0
    7.8332   -6.5283   28.4263 H   0  0  0  0  0  0  0  0  0  0  0  0
    8.1305   -7.2787   26.8530 H   0  0  0  0  0  0  0  0  0  0  0  0
   10.1875   -6.0379   28.7521 H   0  0  0  0  0  0  0  0  0  0  0  0
   10.0116   -7.7568   28.3834 H   0  0  0  0  0  0  0  0  0  0  0  0
   11.7061   -5.9337   27.0644 H   0  0  0  0  0  0  0  0  0  0  0  0
   11.3230   -7.5689   26.5243 H   0  0  0  0  0  0  0  0  0  0  0  0
   10.9445   -5.5959   24.8614 H   0  0  0  0  0  0  0  0  0  0  0  0
    9.6461   -6.7954   25.0072 H   0  0  0  0  0  0  0  0  0  0  0  0
    9.5754    0.9911   24.7721 H   0  0  0  0  0  0  0  0  0  0  0  0
    9.5848    1.9827   23.3131 H   0  0  0  0  0  0  0  0  0  0  0  0
    7.4781   -1.4136   21.8845 H   0  0  0  0  0  0  0  0  0  0  0  0
    8.7420   -1.7550   20.6889 H   0  0  0  0  0  0  0  0  0  0  0  0
  1  2  2  0  0  0  0
  1  7  1  0  0  0  0
  2  9  1  0  0  0  0
  3  5  2  0  0  0  0
  3 10  1  0  0  0  0
  4  6  1  0  0  0  0
  4 10  2  0  0  0  0
  5 11  1  0  0  0  0
  6 11  2  0  0  0  0
  7 12  2  0  0  0  0
  8  9  2  0  0  0  0
  8 12  1  0  0  0  0
  9 25  1  0  0  0  0
 10 30  1  0  0  0  0
 11 31  1  0  0  0  0
 12 34  1  0  0  0  0
 13 14  2  0  0  0  0
 13 15  1  0  0  0  0
 13 29  1  0  0  0  0
 14 26  1  0  0  0  0
 14 27  1  0  0  0  0
 15 16  2  0  0  0  0
 16 17  1  0  0  0  0
 17 18  2  0  0  0  0
 18 29  1  0  0  0  0
 19 21  1  0  0  0  0
 19 30  1  0  0  0  0
 19 32  2  0  0  0  0
 20 26  1  0  0  0  0
 20 31  1  0  0  0  0
 20 33  2  0  0  0  0
 21 22  1  0  0  0  0
 22 23  1  0  0  0  0
 23 24  1  0  0  0  0
 24 30  1  0  0  0  0
 25 31  1  0  0  0  0
 27 28  2  0  0  0  0
 28 29  1  0  0  0  0
  1 35  1  0  0  0  0
  2 36  1  0  0  0  0
  3 37  1  0  0  0  0
  4 38  1  0  0  0  0
  5 39  1  0  0  0  0
  6 40  1  0  0  0  0
  7 41  1  0  0  0  0
  8 42  1  0  0  0  0
 15 43  1  0  0  0  0
 16 44  1  0  0  0  0
 17 45  1  0  0  0  0
 18 46  1  0  0  0  0
 21 47  1  0  0  0  0
 21 48  1  0  0  0  0
 22 49  1  0  0  0  0
 22 50  1  0  0  0  0
 23 51  1  0  0  0  0
 23 52  1  0  0  0  0
 24 53  1  0  0  0  0
 24 54  1  0  0  0  0
 25 55  1  0  0  0  0
 25 56  1  0  0  0  0
 26 57  1  0  0  0  0
 26 58  1  0  0  0  0
M  END
> <clash_score>
2.753745569912888

> <docking_score>
-6.632974147796631

> <overlap_score>
1.0087746381759644

$$$$
BENZO_443_1
  -OEChem-08232013513D

 58 62  0     0  0  0  0  0  0999 V2000
    8.3310   -2.7170   25.3430 C   0  0  0  0  0  0  0  0  0  0  0  0
   10.2570   -3.5000   24.1350 C   0  0  0  0  0  0  0  0  0  0  0  0
    8.3510   -1.5420   24.6110 C   0  0  0  0  0  0  0  0  0  0  0  0
   10.2760   -2.3270   23.4020 C   0  0  0  0  0  0  0  0  0  0  0  0
   12.3172    1.8340   24.6446 C   0  0  0  0  0  0  0  0  0  0  0  0
   12.3515    0.3823   22.9934 C   0  0  0  0  0  0  0  0  0  0  0  0
   11.4834    1.0878   23.7904 C   0  0  0  0  0  0  0  0  0  0  0  0
    9.2850   -3.7090   25.1090 C   0  0  0  0  0  0  0  0  0  0  0  0
    9.3300   -1.3350   23.6390 C   0  0  0  0  0  0  0  0  0  0  0  0
    6.1600    0.3870   20.1140 C   0  0  0  0  0  0  0  0  0  0  0  0
    7.2210   -0.4620   20.0350 C   0  0  0  0  0  0  0  0  0  0  0  0
    5.3360    0.8000   21.1530 C   0  0  0  0  0  0  0  0  0  0  0  0
    4.2970    1.6690   20.8430 C   0  0  0  0  0  0  0  0  0  0  0  0
    4.0980    2.1130   19.5350 C   0  0  0  0  0  0  0  0  0  0  0  0
    4.9400    1.7060   18.5060 C   0  0  0  0  0  0  0  0  0  0  0  0
    8.2930   -5.1714   26.8572 C   0  0  0  0  0  0  0  0  0  0  0  0
    8.9510    0.1280   21.6880 C   0  0  0  0  0  0  0  0  0  0  0  0
    8.4551   -6.5156   27.5444 C   0  0  0  0  0  0  0  0  0  0  0  0
    9.9019   -6.7444   27.9450 C   0  0  0  0  0  0  0  0  0  0  0  0
   10.8596   -6.5882   26.7680 C   0  0  0  0  0  0  0  0  0  0  0  0
   10.1895   -6.0108   25.5223 C   0  0  0  0  0  0  0  0  0  0  0  0
   14.8502    0.2503   22.8602 C   0  0  0  0  0  0  0  0  0  0  0  0
    9.9825    1.0644   23.7577 C   0  0  0  0  0  0  0  0  0  0  0  0
    8.0810   -0.9750   21.0820 C   0  0  0  0  0  0  0  0  0  0  0  0
   13.6154    1.6222   24.4122 N   0  0  0  0  0  0  0  0  0  0  0  0
    7.6830   -0.5170   18.7600 N   0  0  0  0  0  0  0  0  0  0  0  0
    6.9440    0.2550   18.0100 N   0  0  0  0  0  0  0  0  0  0  0  0
   13.6037    0.7348   23.4030 N   0  0  0  0  0  0  0  0  0  0  0  0
    5.9810    0.8330   18.8060 N   0  0  0  0  0  0  0  0  0  0  0  0
    9.2623   -4.9266   25.8635 N   0  0  0  0  0  0  0  0  0  0  0  0
    9.4200   -0.0840   22.9530 N   0  0  0  0  0  0  0  0  0  0  0  0
    7.3370   -4.4527   27.1463 O   0  0  0  0  0  0  0  0  0  0  0  0
    9.1870    1.1500   21.0630 O   0  0  0  0  0  0  0  0  0  0  0  0
    7.5639   -2.8621   26.1045 H   0  0  0  0  0  0  0  0  0  0  0  0
   11.0141   -4.2644   23.9422 H   0  0  0  0  0  0  0  0  0  0  0  0
    7.5950   -0.7788   24.8007 H   0  0  0  0  0  0  0  0  0  0  0  0
   11.0408   -2.1861   22.6359 H   0  0  0  0  0  0  0  0  0  0  0  0
   12.0355    2.5233   25.4280 H   0  0  0  0  0  0  0  0  0  0  0  0
   12.1888   -0.3240   22.1906 H   0  0  0  0  0  0  0  0  0  0  0  0
    5.4740    0.4765   22.1644 H   0  0  0  0  0  0  0  0  0  0  0  0
    3.6415    1.9966   21.6411 H   0  0  0  0  0  0  0  0  0  0  0  0
    3.2723    2.7926   19.2922 H   0  0  0  0  0  0  0  0  0  0  0  0
    4.8122    2.0412   17.5001 H   0  0  0  0  0  0  0  0  0  0  0  0
    7.8332   -6.5283   28.4263 H   0  0  0  0  0  0  0  0  0  0  0  0
    8.1305   -7.2787   26.8530 H   0  0  0  0  0  0  0  0  0  0  0  0
   10.1875   -6.0379   28.7521 H   0  0  0  0  0  0  0  0  0  0  0  0
   10.0116   -7.7568   28.3834 H   0  0  0  0  0  0  0  0  0  0  0  0
   11.7061   -5.9337   27.0644 H   0  0  0  0  0  0  0  0  0  0  0  0
   11.3230   -7.5689   26.5243 H   0  0  0  0  0  0  0  0  0  0  0  0
   10.9445   -5.5959   24.8614 H   0  0  0  0  0  0  0  0  0  0  0  0
    9.6461   -6.7954   25.0072 H   0  0  0  0  0  0  0  0  0  0  0  0
   15.1461    0.9181   22.0469 H   0  0  0  0  0  0  0  0  0  0  0  0
   15.6112    0.2436   23.6455 H   0  0  0  0  0  0  0  0  0  0  0  0
   14.7106   -0.7685   22.4882 H   0  0  0  0  0  0  0  0  0  0  0  0
    9.5754    0.9911   24.7721 H   0  0  0  0  0  0  0  0  0  0  0  0
    9.5848    1.9827   23.3131 H   0  0  0  0  0  0  0  0  0  0  0  0
    7.4781   -1.4136   21.8845 H   0  0  0  0  0  0  0  0  0  0  0  0
    8.7420   -1.7550   20.6889 H   0  0  0  0  0  0  0  0  0  0  0  0
  1  3  2  0  0  0  0
  1  8  1  0  0  0  0
  2  4  1  0  0  0  0
  2  8  2  0  0  0  0
  3  9  1  0  0  0  0
  4  9  2  0  0  0  0
  5  7  1  0  0  0  0
  5 25  2  0  0  0  0
  6  7  2  0  0  0  0
  6 28  1  0  0  0  0
  7 23  1  0  0  0  0
  8 30  1  0  0  0  0
  9 31  1  0  0  0  0
 10 11  2  0  0  0  0
 10 12  1  0  0  0  0
 10 29  1  0  0  0  0
 11 24  1  0  0  0  0
 11 26  1  0  0  0  0
 12 13  2  0  0  0  0
 13 14  1  0  0  0  0
 14 15  2  0  0  0  0
 15 29  1  0  0  0  0
 16 18  1  0  0  0  0
 16 30  1  0  0  0  0
 16 32  2  0  0  0  0
 17 24  1  0  0  0  0
 17 31  1  0  0  0  0
 17 33  2  0  0  0  0
 18 19  1  0  0  0  0
 19 20  1  0  0  0  0
 20 21  1  0  0  0  0
 21 30  1  0  0  0  0
 22 28  1  0  0  0  0
 23 31  1  0  0  0  0
 25 28  1  0  0  0  0
 26 27  2  0  0  0  0
 27 29  1  0  0  0  0
  1 34  1  0  0  0  0
  2 35  1  0  0  0  0
  3 36  1  0  0  0  0
  4 37  1  0  0  0  0
  5 38  1  0  0  0  0
  6 39  1  0  0  0  0
 12 40  1  0  0  0  0
 13 41  1  0  0  0  0
 14 42  1  0  0  0  0
 15 43  1  0  0  0  0
 18 44  1  0  0  0  0
 18 45  1  0  0  0  0
 19 46  1  0  0  0  0
 19 47  1  0  0  0  0
 20 48  1  0  0  0  0
 20 49  1  0  0  0  0
 21 50  1  0  0  0  0
 21 51  1  0  0  0  0
 22 52  1  0  0  0  0
 22 53  1  0  0  0  0
 22 54  1  0  0  0  0
 23 55  1  0  0  0  0
 23 56  1  0  0  0  0
 24 57  1  0  0  0  0
 24 58  1  0  0  0  0
M  END
> <clash_score>
2.0596949410317893

> <docking_score>
-7.584907054901123

> <overlap_score>
0.9955232739448547

$$$$
BENZO_444_1
  -OEChem-08232013513D

 54 58  0     0  0  0  0  0  0999 V2000
    8.3310   -2.7170   25.3430 C   0  0  0  0  0  0  0  0  0  0  0  0
   10.2570   -3.5000   24.1350 C   0  0  0  0  0  0  0  0  0  0  0  0
    8.3510   -1.5420   24.6110 C   0  0  0  0  0  0  0  0  0  0  0  0
   10.2760   -2.3270   23.4020 C   0  0  0  0  0  0  0  0  0  0  0  0
   12.3031    1.1795   22.6299 C   0  0  0  0  0  0  0  0  0  0  0  0
   13.6448    1.1811   22.9421 C   0  0  0  0  0  0  0  0  0  0  0  0
   12.2299    1.0228   24.9478 C   0  0  0  0  0  0  0  0  0  0  0  0
   11.4834    1.0880   23.7917 C   0  0  0  0  0  0  0  0  0  0  0  0
    9.2850   -3.7090   25.1090 C   0  0  0  0  0  0  0  0  0  0  0  0
    9.3300   -1.3350   23.6390 C   0  0  0  0  0  0  0  0  0  0  0  0
    6.1600    0.3870   20.1140 C   0  0  0  0  0  0  0  0  0  0  0  0
    7.2210   -0.4620   20.0350 C   0  0  0  0  0  0  0  0  0  0  0  0
    5.3360    0.8000   21.1530 C   0  0  0  0  0  0  0  0  0  0  0  0
    4.2970    1.6690   20.8430 C   0  0  0  0  0  0  0  0  0  0  0  0
    4.0980    2.1130   19.5350 C   0  0  0  0  0  0  0  0  0  0  0  0
    4.9400    1.7060   18.5060 C   0  0  0  0  0  0  0  0  0  0  0  0
    8.9510    0.1280   21.6880 C   0  0  0  0  0  0  0  0  0  0  0  0
    8.7666   -4.9523   27.2147 C   0  0  0  0  0  0  0  0  0  0  0  0
    9.3034   -6.1866   25.1651 C   0  0  0  0  0  0  0  0  0  0  0  0
    7.3827   -5.5925   27.1999 C   0  0  0  0  0  0  0  0  0  0  0  0
    7.9024   -6.7967   25.2263 C   0  0  0  0  0  0  0  0  0  0  0  0
    9.9825    1.0644   23.7577 C   0  0  0  0  0  0  0  0  0  0  0  0
    8.0810   -0.9750   21.0820 C   0  0  0  0  0  0  0  0  0  0  0  0
    7.6830   -0.5170   18.7600 N   0  0  0  0  0  0  0  0  0  0  0  0
    6.9440    0.2550   18.0100 N   0  0  0  0  0  0  0  0  0  0  0  0
    5.9810    0.8330   18.8060 N   0  0  0  0  0  0  0  0  0  0  0  0
    9.2640   -4.8844   25.8389 N   0  0  0  0  0  0  0  0  0  0  0  0
    9.4200   -0.0840   22.9530 N   0  0  0  0  0  0  0  0  0  0  0  0
    9.1870    1.1500   21.0630 O   0  0  0  0  0  0  0  0  0  0  0  0
    7.4483   -6.8833   26.5817 O   0  0  0  0  0  0  0  0  0  0  0  0
   13.9118    1.0724   24.6301 S   0  0  0  0  0  0  0  0  0  0  0  0
    7.5647   -2.8621   26.1053 H   0  0  0  0  0  0  0  0  0  0  0  0
   11.0144   -4.2642   23.9425 H   0  0  0  0  0  0  0  0  0  0  0  0
    7.5958   -0.7779   24.8006 H   0  0  0  0  0  0  0  0  0  0  0  0
   11.0406   -2.1848   22.6356 H   0  0  0  0  0  0  0  0  0  0  0  0
   11.9317    1.2409   21.6147 H   0  0  0  0  0  0  0  0  0  0  0  0
   14.4809    1.2402   22.2598 H   0  0  0  0  0  0  0  0  0  0  0  0
   11.8722    0.9472   25.9653 H   0  0  0  0  0  0  0  0  0  0  0  0
    5.4740    0.4765   22.1644 H   0  0  0  0  0  0  0  0  0  0  0  0
    3.6415    1.9966   21.6411 H   0  0  0  0  0  0  0  0  0  0  0  0
    3.2723    2.7926   19.2922 H   0  0  0  0  0  0  0  0  0  0  0  0
    4.8122    2.0412   17.5001 H   0  0  0  0  0  0  0  0  0  0  0  0
    8.7030   -3.9561   27.6574 H   0  0  0  0  0  0  0  0  0  0  0  0
    9.4460   -5.5639   27.8143 H   0  0  0  0  0  0  0  0  0  0  0  0
   10.0083   -6.8392   25.6817 H   0  0  0  0  0  0  0  0  0  0  0  0
    9.6089   -6.0802   24.1251 H   0  0  0  0  0  0  0  0  0  0  0  0
    7.0281   -5.7334   28.2231 H   0  0  0  0  0  0  0  0  0  0  0  0
    6.6541   -4.9678   26.6754 H   0  0  0  0  0  0  0  0  0  0  0  0
    7.1860   -6.2177   24.6318 H   0  0  0  0  0  0  0  0  0  0  0  0
    7.9246   -7.8119   24.8187 H   0  0  0  0  0  0  0  0  0  0  0  0
    9.5745    0.9898   24.7716 H   0  0  0  0  0  0  0  0  0  0  0  0
    9.5850    1.9832   23.3140 H   0  0  0  0  0  0  0  0  0  0  0  0
    7.4781   -1.4136   21.8845 H   0  0  0  0  0  0  0  0  0  0  0  0
    8.7420   -1.7550   20.6889 H   0  0  0  0  0  0  0  0  0  0  0  0
  1  3  2  0  0  0  0
  1  9  1  0  0  0  0
  2  4  1  0  0  0  0
  2  9  2  0  0  0  0
  3 10  1  0  0  0  0
  4 10  2  0  0  0  0
  5  6  2  0  0  0  0
  5  8  1  0  0  0  0
  6 31  1  0  0  0  0
  7  8  2  0  0  0  0
  7 31  1  0  0  0  0
  8 22  1  0  0  0  0
  9 27  1  0  0  0  0
 10 28  1  0  0  0  0
 11 12  2  0  0  0  0
 11 13  1  0  0  0  0
 11 26  1  0  0  0  0
 12 23  1  0  0  0  0
 12 24  1  0  0  0  0
 13 14  2  0  0  0  0
 14 15  1  0  0  0  0
 15 16  2  0  0  0  0
 16 26  1  0  0  0  0
 17 23  1  0  0  0  0
 17 28  1  0  0  0  0
 17 29  2  0  0  0  0
 18 20  1  0  0  0  0
 18 27  1  0  0  0  0
 19 21  1  0  0  0  0
 19 27  1  0  0  0  0
 20 30  1  0  0  0  0
 21 30  1  0  0  0  0
 22 28  1  0  0  0  0
 24 25  2  0  0  0  0
 25 26  1  0  0  0  0
  1 32  1  0  0  0  0
  2 33  1  0  0  0  0
  3 34  1  0  0  0  0
  4 35  1  0  0  0  0
  5 36  1  0  0  0  0
  6 37  1  0  0  0  0
  7 38  1  0  0  0  0
 13 39  1  0  0  0  0
 14 40  1  0  0  0  0
 15 41  1  0  0  0  0
 16 42  1  0  0  0  0
 18 43  1  0  0  0  0
 18 44  1  0  0  0  0
 19 45  1  0  0  0  0
 19 46  1  0  0  0  0
 20 47  1  0  0  0  0
 20 48  1  0  0  0  0
 21 49  1  0  0  0  0
 21 50  1  0  0  0  0
 22 51  1  0  0  0  0
 22 52  1  0  0  0  0
 23 53  1  0  0  0  0
 23 54  1  0  0  0  0
M  END
> <clash_score>
0

> <docking_score>
-9.406950950622559

> <overlap_score>
0.9866338968276978

$$$$
BENZO_446_1
  -OEChem-08232013513D

 57 61  0     0  0  0  0  0  0999 V2000
   13.5779    2.0317   23.0440 C   0  0  0  0  0  0  0  0  0  0  0  0
   12.1836    2.0085   23.0120 C   0  0  0  0  0  0  0  0  0  0  0  0
    8.3310   -2.7170   25.3430 C   0  0  0  0  0  0  0  0  0  0  0  0
   10.2570   -3.5000   24.1350 C   0  0  0  0  0  0  0  0  0  0  0  0
    8.3510   -1.5420   24.6110 C   0  0  0  0  0  0  0  0  0  0  0  0
   10.2760   -2.3270   23.4020 C   0  0  0  0  0  0  0  0  0  0  0  0
   14.2720    1.1343   23.8556 C   0  0  0  0  0  0  0  0  0  0  0  0
   12.1774    0.1906   24.6034 C   0  0  0  0  0  0  0  0  0  0  0  0
   11.4834    1.0880   23.7917 C   0  0  0  0  0  0  0  0  0  0  0  0
    9.2850   -3.7090   25.1090 C   0  0  0  0  0  0  0  0  0  0  0  0
    9.3300   -1.3350   23.6390 C   0  0  0  0  0  0  0  0  0  0  0  0
   13.5717    0.2138   24.6353 C   0  0  0  0  0  0  0  0  0  0  0  0
    6.1600    0.3870   20.1140 C   0  0  0  0  0  0  0  0  0  0  0  0
    7.2210   -0.4620   20.0350 C   0  0  0  0  0  0  0  0  0  0  0  0
    5.3360    0.8000   21.1530 C   0  0  0  0  0  0  0  0  0  0  0  0
    4.2970    1.6690   20.8430 C   0  0  0  0  0  0  0  0  0  0  0  0
    4.0980    2.1130   19.5350 C   0  0  0  0  0  0  0  0  0  0  0  0
    4.9400    1.7060   18.5060 C   0  0  0  0  0  0  0  0  0  0  0  0
    8.9510    0.1280   21.6880 C   0  0  0  0  0  0  0  0  0  0  0  0
    8.7666   -4.9523   27.2147 C   0  0  0  0  0  0  0  0  0  0  0  0
    9.3034   -6.1866   25.1651 C   0  0  0  0  0  0  0  0  0  0  0  0
    7.3827   -5.5925   27.1999 C   0  0  0  0  0  0  0  0  0  0  0  0
    7.9024   -6.7967   25.2263 C   0  0  0  0  0  0  0  0  0  0  0  0
    9.9825    1.0644   23.7577 C   0  0  0  0  0  0  0  0  0  0  0  0
    8.0810   -0.9750   21.0820 C   0  0  0  0  0  0  0  0  0  0  0  0
    7.6830   -0.5170   18.7600 N   0  0  0  0  0  0  0  0  0  0  0  0
    6.9440    0.2550   18.0100 N   0  0  0  0  0  0  0  0  0  0  0  0
    5.9810    0.8330   18.8060 N   0  0  0  0  0  0  0  0  0  0  0  0
    9.2640   -4.8844   25.8389 N   0  0  0  0  0  0  0  0  0  0  0  0
    9.4200   -0.0840   22.9530 N   0  0  0  0  0  0  0  0  0  0  0  0
    9.1870    1.1500   21.0630 O   0  0  0  0  0  0  0  0  0  0  0  0
    7.4483   -6.8833   26.5817 O   0  0  0  0  0  0  0  0  0  0  0  0
   14.4285   -0.8923   25.6374 Cl  0  0  0  0  0  0  0  0  0  0  0  0
   14.1228    2.7487   22.4368 H   0  0  0  0  0  0  0  0  0  0  0  0
   11.6511    2.7114   22.3768 H   0  0  0  0  0  0  0  0  0  0  0  0
    7.5647   -2.8621   26.1053 H   0  0  0  0  0  0  0  0  0  0  0  0
   11.0144   -4.2642   23.9425 H   0  0  0  0  0  0  0  0  0  0  0  0
    7.5958   -0.7779   24.8006 H   0  0  0  0  0  0  0  0  0  0  0  0
   11.0406   -2.1848   22.6356 H   0  0  0  0  0  0  0  0  0  0  0  0
   15.3587    1.1640   23.8707 H   0  0  0  0  0  0  0  0  0  0  0  0
   11.6268   -0.5255   25.2091 H   0  0  0  0  0  0  0  0  0  0  0  0
    5.4740    0.4765   22.1644 H   0  0  0  0  0  0  0  0  0  0  0  0
    3.6415    1.9966   21.6411 H   0  0  0  0  0  0  0  0  0  0  0  0
    3.2723    2.7926   19.2922 H   0  0  0  0  0  0  0  0  0  0  0  0
    4.8122    2.0412   17.5001 H   0  0  0  0  0  0  0  0  0  0  0  0
    8.7030   -3.9561   27.6574 H   0  0  0  0  0  0  0  0  0  0  0  0
    9.4460   -5.5639   27.8143 H   0  0  0  0  0  0  0  0  0  0  0  0
   10.0083   -6.8392   25.6817 H   0  0  0  0  0  0  0  0  0  0  0  0
    9.6089   -6.0802   24.1251 H   0  0  0  0  0  0  0  0  0  0  0  0
    7.0281   -5.7334   28.2231 H   0  0  0  0  0  0  0  0  0  0  0  0
    6.6541   -4.9678   26.6754 H   0  0  0  0  0  0  0  0  0  0  0  0
    7.1860   -6.2177   24.6318 H   0  0  0  0  0  0  0  0  0  0  0  0
    7.9246   -7.8119   24.8187 H   0  0  0  0  0  0  0  0  0  0  0  0
    9.5745    0.9898   24.7716 H   0  0  0  0  0  0  0  0  0  0  0  0
    9.5850    1.9832   23.3140 H   0  0  0  0  0  0  0  0  0  0  0  0
    7.4781   -1.4136   21.8845 H   0  0  0  0  0  0  0  0  0  0  0  0
    8.7420   -1.7550   20.6889 H   0  0  0  0  0  0  0  0  0  0  0  0
  1  2  2  0  0  0  0
  1  7  1  0  0  0  0
  2  9  1  0  0  0  0
  3  5  2  0  0  0  0
  3 10  1  0  0  0  0
  4  6  1  0  0  0  0
  4 10  2  0  0  0  0
  5 11  1  0  0  0  0
  6 11  2  0  0  0  0
  7 12  2  0  0  0  0
  8  9  2  0  0  0  0
  8 12  1  0  0  0  0
  9 24  1  0  0  0  0
 10 29  1  0  0  0  0
 11 30  1  0  0  0  0
 12 33  1  0  0  0  0
 13 14  2  0  0  0  0
 13 15  1  0  0  0  0
 13 28  1  0  0  0  0
 14 25  1  0  0  0  0
 14 26  1  0  0  0  0
 15 16  2  0  0  0  0
 16 17  1  0  0  0  0
 17 18  2  0  0  0  0
 18 28  1  0  0  0  0
 19 25  1  0  0  0  0
 19 30  1  0  0  0  0
 19 31  2  0  0  0  0
 20 22  1  0  0  0  0
 20 29  1  0  0  0  0
 21 23  1  0  0  0  0
 21 29  1  0  0  0  0
 22 32  1  0  0  0  0
 23 32  1  0  0  0  0
 24 30  1  0  0  0  0
 26 27  2  0  0  0  0
 27 28  1  0  0  0  0
  1 34  1  0  0  0  0
  2 35  1  0  0  0  0
  3 36  1  0  0  0  0
  4 37  1  0  0  0  0
  5 38  1  0  0  0  0
  6 39  1  0  0  0  0
  7 40  1  0  0  0  0
  8 41  1  0  0  0  0
 15 42  1  0  0  0  0
 16 43  1  0  0  0  0
 17 44  1  0  0  0  0
 18 45  1  0  0  0  0
 20 46  1  0  0  0  0
 20 47  1  0  0  0  0
 21 48  1  0  0  0  0
 21 49  1  0  0  0  0
 22 50  1  0  0  0  0
 22 51  1  0  0  0  0
 23 52  1  0  0  0  0
 23 53  1  0  0  0  0
 24 54  1  0  0  0  0
 24 55  1  0  0  0  0
 25 56  1  0  0  0  0
 25 57  1  0  0  0  0
M  END
> <clash_score>
0.6944094687284152

> <docking_score>
-7.861567497253418

> <overlap_score>
1.0084718465805054

$$$$
BENZO_447_1
  -OEChem-08232013513D

 57 61  0     0  0  0  0  0  0999 V2000
    8.3310   -2.7170   25.3430 C   0  0  0  0  0  0  0  0  0  0  0  0
   10.2570   -3.5000   24.1350 C   0  0  0  0  0  0  0  0  0  0  0  0
    8.3510   -1.5420   24.6110 C   0  0  0  0  0  0  0  0  0  0  0  0
   10.2760   -2.3270   23.4020 C   0  0  0  0  0  0  0  0  0  0  0  0
   12.3164    1.8331   24.6476 C   0  0  0  0  0  0  0  0  0  0  0  0
   12.3522    0.3836   22.9946 C   0  0  0  0  0  0  0  0  0  0  0  0
   11.4834    1.0880   23.7917 C   0  0  0  0  0  0  0  0  0  0  0  0
    9.2850   -3.7090   25.1090 C   0  0  0  0  0  0  0  0  0  0  0  0
    9.3300   -1.3350   23.6390 C   0  0  0  0  0  0  0  0  0  0  0  0
    6.1600    0.3870   20.1140 C   0  0  0  0  0  0  0  0  0  0  0  0
    7.2210   -0.4620   20.0350 C   0  0  0  0  0  0  0  0  0  0  0  0
    5.3360    0.8000   21.1530 C   0  0  0  0  0  0  0  0  0  0  0  0
    4.2970    1.6690   20.8430 C   0  0  0  0  0  0  0  0  0  0  0  0
    4.0980    2.1130   19.5350 C   0  0  0  0  0  0  0  0  0  0  0  0
    4.9400    1.7060   18.5060 C   0  0  0  0  0  0  0  0  0  0  0  0
    8.9510    0.1280   21.6880 C   0  0  0  0  0  0  0  0  0  0  0  0
    8.7666   -4.9523   27.2147 C   0  0  0  0  0  0  0  0  0  0  0  0
    9.3034   -6.1866   25.1651 C   0  0  0  0  0  0  0  0  0  0  0  0
    7.3827   -5.5925   27.1999 C   0  0  0  0  0  0  0  0  0  0  0  0
    7.9024   -6.7967   25.2263 C   0  0  0  0  0  0  0  0  0  0  0  0
   14.8510    0.2521   22.8633 C   0  0  0  0  0  0  0  0  0  0  0  0
    9.9825    1.0644   23.7577 C   0  0  0  0  0  0  0  0  0  0  0  0
    8.0810   -0.9750   21.0820 C   0  0  0  0  0  0  0  0  0  0  0  0
   13.6147    1.6217   24.4161 N   0  0  0  0  0  0  0  0  0  0  0  0
    7.6830   -0.5170   18.7600 N   0  0  0  0  0  0  0  0  0  0  0  0
    6.9440    0.2550   18.0100 N   0  0  0  0  0  0  0  0  0  0  0  0
   13.6041    0.7357   23.4057 N   0  0  0  0  0  0  0  0  0  0  0  0
    5.9810    0.8330   18.8060 N   0  0  0  0  0  0  0  0  0  0  0  0
    9.2640   -4.8844   25.8389 N   0  0  0  0  0  0  0  0  0  0  0  0
    9.4200   -0.0840   22.9530 N   0  0  0  0  0  0  0  0  0  0  0  0
    9.1870    1.1500   21.0630 O   0  0  0  0  0  0  0  0  0  0  0  0
    7.4483   -6.8833   26.5817 O   0  0  0  0  0  0  0  0  0  0  0  0
    7.5647   -2.8621   26.1053 H   0  0  0  0  0  0  0  0  0  0  0  0
   11.0144   -4.2642   23.9425 H   0  0  0  0  0  0  0  0  0  0  0  0
    7.5958   -0.7779   24.8006 H   0  0  0  0  0  0  0  0  0  0  0  0
   11.0406   -2.1848   22.6356 H   0  0  0  0  0  0  0  0  0  0  0  0
   12.0338    2.5213   25.4317 H   0  0  0  0  0  0  0  0  0  0  0  0
   12.1903   -0.3216   22.1906 H   0  0  0  0  0  0  0  0  0  0  0  0
    5.4740    0.4765   22.1644 H   0  0  0  0  0  0  0  0  0  0  0  0
    3.6415    1.9966   21.6411 H   0  0  0  0  0  0  0  0  0  0  0  0
    3.2723    2.7926   19.2922 H   0  0  0  0  0  0  0  0  0  0  0  0
    4.8122    2.0412   17.5001 H   0  0  0  0  0  0  0  0  0  0  0  0
    8.7030   -3.9561   27.6574 H   0  0  0  0  0  0  0  0  0  0  0  0
    9.4460   -5.5639   27.8143 H   0  0  0  0  0  0  0  0  0  0  0  0
   10.0083   -6.8392   25.6817 H   0  0  0  0  0  0  0  0  0  0  0  0
    9.6089   -6.0802   24.1251 H   0  0  0  0  0  0  0  0  0  0  0  0
    7.0281   -5.7334   28.2231 H   0  0  0  0  0  0  0  0  0  0  0  0
    6.6541   -4.9678   26.6754 H   0  0  0  0  0  0  0  0  0  0  0  0
    7.1860   -6.2177   24.6318 H   0  0  0  0  0  0  0  0  0  0  0  0
    7.9246   -7.8119   24.8187 H   0  0  0  0  0  0  0  0  0  0  0  0
   15.1476    0.9210   22.0511 H   0  0  0  0  0  0  0  0  0  0  0  0
   15.6114    0.2444   23.6493 H   0  0  0  0  0  0  0  0  0  0  0  0
   14.7119   -0.7663   22.4898 H   0  0  0  0  0  0  0  0  0  0  0  0
    9.5745    0.9898   24.7716 H   0  0  0  0  0  0  0  0  0  0  0  0
    9.5850    1.9832   23.3140 H   0  0  0  0  0  0  0  0  0  0  0  0
    7.4781   -1.4136   21.8845 H   0  0  0  0  0  0  0  0  0  0  0  0
    8.7420   -1.7550   20.6889 H   0  0  0  0  0  0  0  0  0  0  0  0
  1  3  2  0  0  0  0
  1  8  1  0  0  0  0
  2  4  1  0  0  0  0
  2  8  2  0  0  0  0
  3  9  1  0  0  0  0
  4  9  2  0  0  0  0
  5  7  1  0  0  0  0
  5 24  2  0  0  0  0
  6  7  2  0  0  0  0
  6 27  1  0  0  0  0
  7 22  1  0  0  0  0
  8 29  1  0  0  0  0
  9 30  1  0  0  0  0
 10 11  2  0  0  0  0
 10 12  1  0  0  0  0
 10 28  1  0  0  0  0
 11 23  1  0  0  0  0
 11 25  1  0  0  0  0
 12 13  2  0  0  0  0
 13 14  1  0  0  0  0
 14 15  2  0  0  0  0
 15 28  1  0  0  0  0
 16 23  1  0  0  0  0
 16 30  1  0  0  0  0
 16 31  2  0  0  0  0
 17 19  1  0  0  0  0
 17 29  1  0  0  0  0
 18 20  1  0  0  0  0
 18 29  1  0  0  0  0
 19 32  1  0  0  0  0
 20 32  1  0  0  0  0
 21 27  1  0  0  0  0
 22 30  1  0  0  0  0
 24 27  1  0  0  0  0
 25 26  2  0  0  0  0
 26 28  1  0  0  0  0
  1 33  1  0  0  0  0
  2 34  1  0  0  0  0
  3 35  1  0  0  0  0
  4 36  1  0  0  0  0
  5 37  1  0  0  0  0
  6 38  1  0  0  0  0
 12 39  1  0  0  0  0
 13 40  1  0  0  0  0
 14 41  1  0  0  0  0
 15 42  1  0  0  0  0
 17 43  1  0  0  0  0
 17 44  1  0  0  0  0
 18 45  1  0  0  0  0
 18 46  1  0  0  0  0
 19 47  1  0  0  0  0
 19 48  1  0  0  0  0
 20 49  1  0  0  0  0
 20 50  1  0  0  0  0
 21 51  1  0  0  0  0
 21 52  1  0  0  0  0
 21 53  1  0  0  0  0
 22 54  1  0  0  0  0
 22 55  1  0  0  0  0
 23 56  1  0  0  0  0
 23 57  1  0  0  0  0
M  END
> <clash_score>
0

> <docking_score>
-8.817849159240723

> <overlap_score>
0.9952516555786133

$$$$
BENZO_448_1
  -OEChem-08232013513D

 51 54  0     0  0  0  0  0  0999 V2000
    4.2970    1.6690   20.8430 C   0  0  0  0  0  0  0  0  0  0  0  0
    4.0980    2.1130   19.5350 C   0  0  0  0  0  0  0  0  0  0  0  0
    5.3360    0.8000   21.1530 C   0  0  0  0  0  0  0  0  0  0  0  0
    4.9400    1.7060   18.5060 C   0  0  0  0  0  0  0  0  0  0  0  0
    8.3510   -1.5420   24.6110 C   0  0  0  0  0  0  0  0  0  0  0  0
   10.2760   -2.3270   23.4020 C   0  0  0  0  0  0  0  0  0  0  0  0
    8.3310   -2.7170   25.3430 C   0  0  0  0  0  0  0  0  0  0  0  0
   10.2570   -3.5000   24.1350 C   0  0  0  0  0  0  0  0  0  0  0  0
   12.3137    1.0303   22.4129 C   0  0  0  0  0  0  0  0  0  0  0  0
    7.6830   -0.5170   18.7600 C   0  0  0  0  0  0  0  0  0  0  0  0
   13.6734    0.9519   22.6194 C   0  0  0  0  0  0  0  0  0  0  0  0
   12.4124    0.8684   24.7295 C   0  0  0  0  0  0  0  0  0  0  0  0
    6.1600    0.3870   20.1140 C   0  0  0  0  0  0  0  0  0  0  0  0
   11.5831    0.9821   23.6352 C   0  0  0  0  0  0  0  0  0  0  0  0
    7.2210   -0.4620   20.0350 C   0  0  0  0  0  0  0  0  0  0  0  0
    5.9810    0.8330   18.8060 C   0  0  0  0  0  0  0  0  0  0  0  0
    9.3300   -1.3350   23.6390 C   0  0  0  0  0  0  0  0  0  0  0  0
    9.2850   -3.7090   25.1090 C   0  0  0  0  0  0  0  0  0  0  0  0
    8.9510    0.1280   21.6880 C   0  0  0  0  0  0  0  0  0  0  0  0
    8.2497   -5.1176   26.8641 C   0  0  0  0  0  0  0  0  0  0  0  0
   10.2420   -5.9412   25.5988 C   0  0  0  0  0  0  0  0  0  0  0  0
    8.0810   -0.9750   21.0820 C   0  0  0  0  0  0  0  0  0  0  0  0
   10.0855    1.0467   23.7186 C   0  0  0  0  0  0  0  0  0  0  0  0
    6.9440    0.2550   18.0100 N   0  0  0  0  0  0  0  0  0  0  0  0
    9.4200   -0.0840   22.9530 N   0  0  0  0  0  0  0  0  0  0  0  0
    9.2624   -4.9028   25.8498 N   0  0  0  0  0  0  0  0  0  0  0  0
    9.1870    1.1500   21.0630 O   0  0  0  0  0  0  0  0  0  0  0  0
   14.0644    0.8206   24.2814 S   0  0  0  0  0  0  0  0  0  0  0  0
    3.6260    2.0115   21.6299 H   0  0  0  0  0  0  0  0  0  0  0  0
    3.2721    2.7866   19.3205 H   0  0  0  0  0  0  0  0  0  0  0  0
    5.4862    0.4667   22.1694 H   0  0  0  0  0  0  0  0  0  0  0  0
    4.7828    2.0658   17.4849 H   0  0  0  0  0  0  0  0  0  0  0  0
    7.5947   -0.7787   24.7997 H   0  0  0  0  0  0  0  0  0  0  0  0
   11.0404   -2.1861   22.6352 H   0  0  0  0  0  0  0  0  0  0  0  0
    7.5641   -2.8632   26.1047 H   0  0  0  0  0  0  0  0  0  0  0  0
   11.0135   -4.2647   23.9425 H   0  0  0  0  0  0  0  0  0  0  0  0
   11.8685    1.1176   21.4299 H   0  0  0  0  0  0  0  0  0  0  0  0
    8.5287   -1.0850   18.3402 H   0  0  0  0  0  0  0  0  0  0  0  0
   14.4559    0.9647   21.8738 H   0  0  0  0  0  0  0  0  0  0  0  0
   12.1313    0.8097   25.7719 H   0  0  0  0  0  0  0  0  0  0  0  0
    8.3983   -6.1037   27.3283 H   0  0  0  0  0  0  0  0  0  0  0  0
    8.3291   -4.3349   27.6329 H   0  0  0  0  0  0  0  0  0  0  0  0
    7.2528   -5.0769   26.4011 H   0  0  0  0  0  0  0  0  0  0  0  0
   10.0584   -6.7901   26.2740 H   0  0  0  0  0  0  0  0  0  0  0  0
   10.1594   -6.2785   24.5551 H   0  0  0  0  0  0  0  0  0  0  0  0
   11.2519   -5.5432   25.7767 H   0  0  0  0  0  0  0  0  0  0  0  0
    7.4884   -1.4160   21.8960 H   0  0  0  0  0  0  0  0  0  0  0  0
    8.7523   -1.7574   20.7004 H   0  0  0  0  0  0  0  0  0  0  0  0
    9.7540    0.9919   24.7613 H   0  0  0  0  0  0  0  0  0  0  0  0
    9.7093    1.9892   23.3069 H   0  0  0  0  0  0  0  0  0  0  0  0
    7.0329    0.4233   17.0175 H   0  0  0  0  0  0  0  0  0  0  0  0
  1  2  1  0  0  0  0
  1  3  2  0  0  0  0
  2  4  2  0  0  0  0
  3 13  1  0  0  0  0
  4 16  1  0  0  0  0
  5  7  2  0  0  0  0
  5 17  1  0  0  0  0
  6  8  1  0  0  0  0
  6 17  2  0  0  0  0
  7 18  1  0  0  0  0
  8 18  2  0  0  0  0
  9 11  2  0  0  0  0
  9 14  1  0  0  0  0
 10 15  2  0  0  0  0
 10 24  1  0  0  0  0
 11 28  1  0  0  0  0
 12 14  2  0  0  0  0
 12 28  1  0  0  0  0
 13 15  1  0  0  0  0
 13 16  2  0  0  0  0
 14 23  1  0  0  0  0
 15 22  1  0  0  0  0
 16 24  1  0  0  0  0
 17 25  1  0  0  0  0
 18 26  1  0  0  0  0
 19 22  1  0  0  0  0
 19 25  1  0  0  0  0
 19 27  2  0  0  0  0
 20 26  1  0  0  0  0
 21 26  1  0  0  0  0
 23 25  1  0  0  0  0
  1 29  1  0  0  0  0
  2 30  1  0  0  0  0
  3 31  1  0  0  0  0
  4 32  1  0  0  0  0
  5 33  1  0  0  0  0
  6 34  1  0  0  0  0
  7 35  1  0  0  0  0
  8 36  1  0  0  0  0
  9 37  1  0  0  0  0
 10 38  1  0  0  0  0
 11 39  1  0  0  0  0
 12 40  1  0  0  0  0
 20 41  1  0  0  0  0
 20 42  1  0  0  0  0
 20 43  1  0  0  0  0
 21 44  1  0  0  0  0
 21 45  1  0  0  0  0
 21 46  1  0  0  0  0
 22 47  1  0  0  0  0
 22 48  1  0  0  0  0
 23 49  1  0  0  0  0
 23 50  1  0  0  0  0
 24 51  1  0  0  0  0
M  END
> <clash_score>
0

> <docking_score>
-9.192276000976562

> <overlap_score>
0.9752528667449951

$$$$
BENZO_449_1
  -OEChem-08232013513D

 54 57  0     0  0  0  0  0  0999 V2000
   14.3659    0.8623   23.4791 C   0  0  0  0  0  0  0  0  0  0  0  0
    4.2970    1.6690   20.8430 C   0  0  0  0  0  0  0  0  0  0  0  0
   13.6964    0.2048   24.5110 C   0  0  0  0  0  0  0  0  0  0  0  0
   13.6441    1.5798   22.5252 C   0  0  0  0  0  0  0  0  0  0  0  0
    4.0980    2.1130   19.5350 C   0  0  0  0  0  0  0  0  0  0  0  0
    5.3360    0.8000   21.1530 C   0  0  0  0  0  0  0  0  0  0  0  0
   12.3050    0.2647   24.5891 C   0  0  0  0  0  0  0  0  0  0  0  0
   12.2527    1.6397   22.6033 C   0  0  0  0  0  0  0  0  0  0  0  0
    4.9400    1.7060   18.5060 C   0  0  0  0  0  0  0  0  0  0  0  0
    8.3510   -1.5420   24.6110 C   0  0  0  0  0  0  0  0  0  0  0  0
   10.2760   -2.3270   23.4020 C   0  0  0  0  0  0  0  0  0  0  0  0
    8.3310   -2.7170   25.3430 C   0  0  0  0  0  0  0  0  0  0  0  0
   10.2570   -3.5000   24.1350 C   0  0  0  0  0  0  0  0  0  0  0  0
    7.6830   -0.5170   18.7600 C   0  0  0  0  0  0  0  0  0  0  0  0
    6.1600    0.3870   20.1140 C   0  0  0  0  0  0  0  0  0  0  0  0
   11.5831    0.9821   23.6352 C   0  0  0  0  0  0  0  0  0  0  0  0
    7.2210   -0.4620   20.0350 C   0  0  0  0  0  0  0  0  0  0  0  0
    5.9810    0.8330   18.8060 C   0  0  0  0  0  0  0  0  0  0  0  0
    9.3300   -1.3350   23.6390 C   0  0  0  0  0  0  0  0  0  0  0  0
    9.2850   -3.7090   25.1090 C   0  0  0  0  0  0  0  0  0  0  0  0
    8.9510    0.1280   21.6880 C   0  0  0  0  0  0  0  0  0  0  0  0
    8.2497   -5.1176   26.8641 C   0  0  0  0  0  0  0  0  0  0  0  0
   10.2420   -5.9412   25.5988 C   0  0  0  0  0  0  0  0  0  0  0  0
    8.0810   -0.9750   21.0820 C   0  0  0  0  0  0  0  0  0  0  0  0
   10.0855    1.0467   23.7186 C   0  0  0  0  0  0  0  0  0  0  0  0
    6.9440    0.2550   18.0100 N   0  0  0  0  0  0  0  0  0  0  0  0
    9.4200   -0.0840   22.9530 N   0  0  0  0  0  0  0  0  0  0  0  0
    9.2624   -4.9028   25.8498 N   0  0  0  0  0  0  0  0  0  0  0  0
    9.1870    1.1500   21.0630 O   0  0  0  0  0  0  0  0  0  0  0  0
   15.4494    0.8167   23.4192 H   0  0  0  0  0  0  0  0  0  0  0  0
    3.6260    2.0115   21.6299 H   0  0  0  0  0  0  0  0  0  0  0  0
   14.2584   -0.3530   25.2545 H   0  0  0  0  0  0  0  0  0  0  0  0
   14.1651    2.0928   21.7222 H   0  0  0  0  0  0  0  0  0  0  0  0
    3.2721    2.7866   19.3205 H   0  0  0  0  0  0  0  0  0  0  0  0
    5.4862    0.4667   22.1694 H   0  0  0  0  0  0  0  0  0  0  0  0
   11.7918   -0.2509   25.3966 H   0  0  0  0  0  0  0  0  0  0  0  0
   11.6985    2.2009   21.8556 H   0  0  0  0  0  0  0  0  0  0  0  0
    4.7828    2.0658   17.4849 H   0  0  0  0  0  0  0  0  0  0  0  0
    7.5947   -0.7787   24.7997 H   0  0  0  0  0  0  0  0  0  0  0  0
   11.0404   -2.1861   22.6352 H   0  0  0  0  0  0  0  0  0  0  0  0
    7.5641   -2.8632   26.1047 H   0  0  0  0  0  0  0  0  0  0  0  0
   11.0135   -4.2647   23.9425 H   0  0  0  0  0  0  0  0  0  0  0  0
    8.5287   -1.0850   18.3402 H   0  0  0  0  0  0  0  0  0  0  0  0
    8.3983   -6.1037   27.3283 H   0  0  0  0  0  0  0  0  0  0  0  0
    8.3291   -4.3349   27.6329 H   0  0  0  0  0  0  0  0  0  0  0  0
    7.2528   -5.0769   26.4011 H   0  0  0  0  0  0  0  0  0  0  0  0
   10.0584   -6.7901   26.2740 H   0  0  0  0  0  0  0  0  0  0  0  0
   10.1594   -6.2785   24.5551 H   0  0  0  0  0  0  0  0  0  0  0  0
   11.2519   -5.5432   25.7767 H   0  0  0  0  0  0  0  0  0  0  0  0
    7.4884   -1.4160   21.8960 H   0  0  0  0  0  0  0  0  0  0  0  0
    8.7523   -1.7574   20.7004 H   0  0  0  0  0  0  0  0  0  0  0  0
    9.7540    0.9919   24.7613 H   0  0  0  0  0  0  0  0  0  0  0  0
    9.7093    1.9892   23.3069 H   0  0  0  0  0  0  0  0  0  0  0  0
    7.0329    0.4233   17.0175 H   0  0  0  0  0  0  0  0  0  0  0  0
  1  3  1  0  0  0  0
  1  4  2  0  0  0  0
  2  5  1  0  0  0  0
  2  6  2  0  0  0  0
  3  7  2  0  0  0  0
  4  8  1  0  0  0  0
  5  9  2  0  0  0  0
  6 15  1  0  0  0  0
  7 16  1  0  0  0  0
  8 16  2  0  0  0  0
  9 18  1  0  0  0  0
 10 12  2  0  0  0  0
 10 19  1  0  0  0  0
 11 13  1  0  0  0  0
 11 19  2  0  0  0  0
 12 20  1  0  0  0  0
 13 20  2  0  0  0  0
 14 17  2  0  0  0  0
 14 26  1  0  0  0  0
 15 17  1  0  0  0  0
 15 18  2  0  0  0  0
 16 25  1  0  0  0  0
 17 24  1  0  0  0  0
 18 26  1  0  0  0  0
 19 27  1  0  0  0  0
 20 28  1  0  0  0  0
 21 24  1  0  0  0  0
 21 27  1  0  0  0  0
 21 29  2  0  0  0  0
 22 28  1  0  0  0  0
 23 28  1  0  0  0  0
 25 27  1  0  0  0  0
  1 30  1  0  0  0  0
  2 31  1  0  0  0  0
  3 32  1  0  0  0  0
  4 33  1  0  0  0  0
  5 34  1  0  0  0  0
  6 35  1  0  0  0  0
  7 36  1  0  0  0  0
  8 37  1  0  0  0  0
  9 38  1  0  0  0  0
 10 39  1  0  0  0  0
 11 40  1  0  0  0  0
 12 41  1  0  0  0  0
 13 42  1  0  0  0  0
 14 43  1  0  0  0  0
 22 44  1  0  0  0  0
 22 45  1  0  0  0  0
 22 46  1  0  0  0  0
 23 47  1  0  0  0  0
 23 48  1  0  0  0  0
 23 49  1  0  0  0  0
 24 50  1  0  0  0  0
 24 51  1  0  0  0  0
 25 52  1  0  0  0  0
 25 53  1  0  0  0  0
 26 54  1  0  0  0  0
M  END
> <clash_score>
0

> <docking_score>
-8.865296363830566

> <overlap_score>
1.0006752014160156

$$$$
BENZO_451_1
  -OEChem-08232013513D

 54 57  0     0  0  0  0  0  0999 V2000
    4.2970    1.6690   20.8430 C   0  0  0  0  0  0  0  0  0  0  0  0
    4.0980    2.1130   19.5350 C   0  0  0  0  0  0  0  0  0  0  0  0
    5.3360    0.8000   21.1530 C   0  0  0  0  0  0  0  0  0  0  0  0
    4.9400    1.7060   18.5060 C   0  0  0  0  0  0  0  0  0  0  0  0
    8.3510   -1.5420   24.6110 C   0  0  0  0  0  0  0  0  0  0  0  0
   10.2760   -2.3270   23.4020 C   0  0  0  0  0  0  0  0  0  0  0  0
    8.3310   -2.7170   25.3430 C   0  0  0  0  0  0  0  0  0  0  0  0
   10.2570   -3.5000   24.1350 C   0  0  0  0  0  0  0  0  0  0  0  0
   12.5228    1.6735   24.4232 C   0  0  0  0  0  0  0  0  0  0  0  0
    7.6830   -0.5170   18.7600 C   0  0  0  0  0  0  0  0  0  0  0  0
   12.3442    0.2313   22.7730 C   0  0  0  0  0  0  0  0  0  0  0  0
    6.1600    0.3870   20.1140 C   0  0  0  0  0  0  0  0  0  0  0  0
   11.5831    0.9821   23.6352 C   0  0  0  0  0  0  0  0  0  0  0  0
    7.2210   -0.4620   20.0350 C   0  0  0  0  0  0  0  0  0  0  0  0
    5.9810    0.8330   18.8060 C   0  0  0  0  0  0  0  0  0  0  0  0
    9.3300   -1.3350   23.6390 C   0  0  0  0  0  0  0  0  0  0  0  0
    9.2850   -3.7090   25.1090 C   0  0  0  0  0  0  0  0  0  0  0  0
    8.9510    0.1280   21.6880 C   0  0  0  0  0  0  0  0  0  0  0  0
   14.8132   -0.0460   22.4470 C   0  0  0  0  0  0  0  0  0  0  0  0
    8.2497   -5.1176   26.8641 C   0  0  0  0  0  0  0  0  0  0  0  0
   10.2420   -5.9412   25.5988 C   0  0  0  0  0  0  0  0  0  0  0  0
    8.0810   -0.9750   21.0820 C   0  0  0  0  0  0  0  0  0  0  0  0
   10.0855    1.0467   23.7186 C   0  0  0  0  0  0  0  0  0  0  0  0
   13.7844    1.3873   24.0911 N   0  0  0  0  0  0  0  0  0  0  0  0
    6.9440    0.2550   18.0100 N   0  0  0  0  0  0  0  0  0  0  0  0
   13.6429    0.5077   23.0849 N   0  0  0  0  0  0  0  0  0  0  0  0
    9.4200   -0.0840   22.9530 N   0  0  0  0  0  0  0  0  0  0  0  0
    9.2624   -4.9028   25.8498 N   0  0  0  0  0  0  0  0  0  0  0  0
    9.1870    1.1500   21.0630 O   0  0  0  0  0  0  0  0  0  0  0  0
    3.6260    2.0115   21.6299 H   0  0  0  0  0  0  0  0  0  0  0  0
    3.2721    2.7866   19.3205 H   0  0  0  0  0  0  0  0  0  0  0  0
    5.4862    0.4667   22.1694 H   0  0  0  0  0  0  0  0  0  0  0  0
    4.7828    2.0658   17.4849 H   0  0  0  0  0  0  0  0  0  0  0  0
    7.5947   -0.7787   24.7997 H   0  0  0  0  0  0  0  0  0  0  0  0
   11.0404   -2.1861   22.6352 H   0  0  0  0  0  0  0  0  0  0  0  0
    7.5641   -2.8632   26.1047 H   0  0  0  0  0  0  0  0  0  0  0  0
   11.0135   -4.2647   23.9425 H   0  0  0  0  0  0  0  0  0  0  0  0
   12.3432    2.3738   25.2267 H   0  0  0  0  0  0  0  0  0  0  0  0
    8.5287   -1.0850   18.3402 H   0  0  0  0  0  0  0  0  0  0  0  0
   12.0790   -0.4598   21.9844 H   0  0  0  0  0  0  0  0  0  0  0  0
   15.0843    0.6078   21.6139 H   0  0  0  0  0  0  0  0  0  0  0  0
   15.6307   -0.1015   23.1712 H   0  0  0  0  0  0  0  0  0  0  0  0
   14.5856   -1.0529   22.0859 H   0  0  0  0  0  0  0  0  0  0  0  0
    8.3983   -6.1037   27.3283 H   0  0  0  0  0  0  0  0  0  0  0  0
    8.3291   -4.3349   27.6329 H   0  0  0  0  0  0  0  0  0  0  0  0
    7.2528   -5.0769   26.4011 H   0  0  0  0  0  0  0  0  0  0  0  0
   10.0584   -6.7901   26.2740 H   0  0  0  0  0  0  0  0  0  0  0  0
   10.1594   -6.2785   24.5551 H   0  0  0  0  0  0  0  0  0  0  0  0
   11.2519   -5.5432   25.7767 H   0  0  0  0  0  0  0  0  0  0  0  0
    7.4884   -1.4160   21.8960 H   0  0  0  0  0  0  0  0  0  0  0  0
    8.7523   -1.7574   20.7004 H   0  0  0  0  0  0  0  0  0  0  0  0
    9.7540    0.9919   24.7613 H   0  0  0  0  0  0  0  0  0  0  0  0
    9.7093    1.9892   23.3069 H   0  0  0  0  0  0  0  0  0  0  0  0
    7.0329    0.4233   17.0175 H   0  0  0  0  0  0  0  0  0  0  0  0
  1  2  1  0  0  0  0
  1  3  2  0  0  0  0
  2  4  2  0  0  0  0
  3 12  1  0  0  0  0
  4 15  1  0  0  0  0
  5  7  2  0  0  0  0
  5 16  1  0  0  0  0
  6  8  1  0  0  0  0
  6 16  2  0  0  0  0
  7 17  1  0  0  0  0
  8 17  2  0  0  0  0
  9 13  1  0  0  0  0
  9 24  2  0  0  0  0
 10 14  2  0  0  0  0
 10 25  1  0  0  0  0
 11 13  2  0  0  0  0
 11 26  1  0  0  0  0
 12 14  1  0  0  0  0
 12 15  2  0  0  0  0
 13 23  1  0  0  0  0
 14 22  1  0  0  0  0
 15 25  1  0  0  0  0
 16 27  1  0  0  0  0
 17 28  1  0  0  0  0
 18 22  1  0  0  0  0
 18 27  1  0  0  0  0
 18 29  2  0  0  0  0
 19 26  1  0  0  0  0
 20 28  1  0  0  0  0
 21 28  1  0  0  0  0
 23 27  1  0  0  0  0
 24 26  1  0  0  0  0
  1 30  1  0  0  0  0
  2 31  1  0  0  0  0
  3 32  1  0  0  0  0
  4 33  1  0  0  0  0
  5 34  1  0  0  0  0
  6 35  1  0  0  0  0
  7 36  1  0  0  0  0
  8 37  1  0  0  0  0
  9 38  1  0  0  0  0
 10 39  1  0  0  0  0
 11 40  1  0  0  0  0
 19 41  1  0  0  0  0
 19 42  1  0  0  0  0
 19 43  1  0  0  0  0
 20 44  1  0  0  0  0
 20 45  1  0  0  0  0
 20 46  1  0  0  0  0
 21 47  1  0  0  0  0
 21 48  1  0  0  0  0
 21 49  1  0  0  0  0
 22 50  1  0  0  0  0
 22 51  1  0  0  0  0
 23 52  1  0  0  0  0
 23 53  1  0  0  0  0
 25 54  1  0  0  0  0
M  END
> <clash_score>
0

> <docking_score>
-9.025617599487305

> <overlap_score>
0.9849820733070374

$$$$
BENZO_450_1
  -OEChem-08232013513D

 54 57  0     0  0  0  0  0  0999 V2000
    4.2970    1.6690   20.8430 C   0  0  0  0  0  0  0  0  0  0  0  0
    4.0980    2.1130   19.5350 C   0  0  0  0  0  0  0  0  0  0  0  0
   13.6648    1.8045   22.7259 C   0  0  0  0  0  0  0  0  0  0  0  0
    5.3360    0.8000   21.1530 C   0  0  0  0  0  0  0  0  0  0  0  0
   12.2734    1.8632   22.8029 C   0  0  0  0  0  0  0  0  0  0  0  0
    4.9400    1.7060   18.5060 C   0  0  0  0  0  0  0  0  0  0  0  0
    8.3510   -1.5420   24.6110 C   0  0  0  0  0  0  0  0  0  0  0  0
   10.2760   -2.3270   23.4020 C   0  0  0  0  0  0  0  0  0  0  0  0
    8.3310   -2.7170   25.3430 C   0  0  0  0  0  0  0  0  0  0  0  0
   10.2570   -3.5000   24.1350 C   0  0  0  0  0  0  0  0  0  0  0  0
   14.3661    0.8645   23.4812 C   0  0  0  0  0  0  0  0  0  0  0  0
   12.2844    0.0422   24.3906 C   0  0  0  0  0  0  0  0  0  0  0  0
    7.6830   -0.5170   18.7600 C   0  0  0  0  0  0  0  0  0  0  0  0
    6.1600    0.3870   20.1140 C   0  0  0  0  0  0  0  0  0  0  0  0
   11.5831    0.9821   23.6352 C   0  0  0  0  0  0  0  0  0  0  0  0
    7.2210   -0.4620   20.0350 C   0  0  0  0  0  0  0  0  0  0  0  0
    5.9810    0.8330   18.8060 C   0  0  0  0  0  0  0  0  0  0  0  0
    9.3300   -1.3350   23.6390 C   0  0  0  0  0  0  0  0  0  0  0  0
    9.2850   -3.7090   25.1090 C   0  0  0  0  0  0  0  0  0  0  0  0
   13.6759   -0.0166   24.3135 C   0  0  0  0  0  0  0  0  0  0  0  0
    8.9510    0.1280   21.6880 C   0  0  0  0  0  0  0  0  0  0  0  0
    8.2497   -5.1176   26.8641 C   0  0  0  0  0  0  0  0  0  0  0  0
   10.2420   -5.9412   25.5988 C   0  0  0  0  0  0  0  0  0  0  0  0
    8.0810   -0.9750   21.0820 C   0  0  0  0  0  0  0  0  0  0  0  0
   10.0855    1.0467   23.7186 C   0  0  0  0  0  0  0  0  0  0  0  0
    6.9440    0.2550   18.0100 N   0  0  0  0  0  0  0  0  0  0  0  0
    9.4200   -0.0840   22.9530 N   0  0  0  0  0  0  0  0  0  0  0  0
    9.2624   -4.9028   25.8498 N   0  0  0  0  0  0  0  0  0  0  0  0
    9.1870    1.1500   21.0630 O   0  0  0  0  0  0  0  0  0  0  0  0
   14.5417   -1.1752   25.2461 Cl  0  0  0  0  0  0  0  0  0  0  0  0
    3.6260    2.0115   21.6299 H   0  0  0  0  0  0  0  0  0  0  0  0
    3.2721    2.7866   19.3205 H   0  0  0  0  0  0  0  0  0  0  0  0
   14.2020    2.4909   22.0777 H   0  0  0  0  0  0  0  0  0  0  0  0
    5.4862    0.4667   22.1694 H   0  0  0  0  0  0  0  0  0  0  0  0
   11.7352    2.5989   22.2109 H   0  0  0  0  0  0  0  0  0  0  0  0
    4.7828    2.0658   17.4849 H   0  0  0  0  0  0  0  0  0  0  0  0
    7.5947   -0.7787   24.7997 H   0  0  0  0  0  0  0  0  0  0  0  0
   11.0404   -2.1861   22.6352 H   0  0  0  0  0  0  0  0  0  0  0  0
    7.5641   -2.8632   26.1047 H   0  0  0  0  0  0  0  0  0  0  0  0
   11.0135   -4.2647   23.9425 H   0  0  0  0  0  0  0  0  0  0  0  0
   15.4506    0.8304   23.4113 H   0  0  0  0  0  0  0  0  0  0  0  0
   11.7416   -0.6429   25.0377 H   0  0  0  0  0  0  0  0  0  0  0  0
    8.5287   -1.0850   18.3402 H   0  0  0  0  0  0  0  0  0  0  0  0
    8.3983   -6.1037   27.3283 H   0  0  0  0  0  0  0  0  0  0  0  0
    8.3291   -4.3349   27.6329 H   0  0  0  0  0  0  0  0  0  0  0  0
    7.2528   -5.0769   26.4011 H   0  0  0  0  0  0  0  0  0  0  0  0
   10.0584   -6.7901   26.2740 H   0  0  0  0  0  0  0  0  0  0  0  0
   10.1594   -6.2785   24.5551 H   0  0  0  0  0  0  0  0  0  0  0  0
   11.2519   -5.5432   25.7767 H   0  0  0  0  0  0  0  0  0  0  0  0
    7.4884   -1.4160   21.8960 H   0  0  0  0  0  0  0  0  0  0  0  0
    8.7523   -1.7574   20.7004 H   0  0  0  0  0  0  0  0  0  0  0  0
    9.7540    0.9919   24.7613 H   0  0  0  0  0  0  0  0  0  0  0  0
    9.7093    1.9892   23.3069 H   0  0  0  0  0  0  0  0  0  0  0  0
    7.0329    0.4233   17.0175 H   0  0  0  0  0  0  0  0  0  0  0  0
  1  2  1  0  0  0  0
  1  4  2  0  0  0  0
  2  6  2  0  0  0  0
  3  5  2  0  0  0  0
  3 11  1  0  0  0  0
  4 14  1  0  0  0  0
  5 15  1  0  0  0  0
  6 17  1  0  0  0  0
  7  9  2  0  0  0  0
  7 18  1  0  0  0  0
  8 10  1  0  0  0  0
  8 18  2  0  0  0  0
  9 19  1  0  0  0  0
 10 19  2  0  0  0  0
 11 20  2  0  0  0  0
 12 15  2  0  0  0  0
 12 20  1  0  0  0  0
 13 16  2  0  0  0  0
 13 26  1  0  0  0  0
 14 16  1  0  0  0  0
 14 17  2  0  0  0  0
 15 25  1  0  0  0  0
 16 24  1  0  0  0  0
 17 26  1  0  0  0  0
 18 27  1  0  0  0  0
 19 28  1  0  0  0  0
 20 30  1  0  0  0  0
 21 24  1  0  0  0  0
 21 27  1  0  0  0  0
 21 29  2  0  0  0  0
 22 28  1  0  0  0  0
 23 28  1  0  0  0  0
 25 27  1  0  0  0  0
  1 31  1  0  0  0  0
  2 32  1  0  0  0  0
  3 33  1  0  0  0  0
  4 34  1  0  0  0  0
  5 35  1  0  0  0  0
  6 36  1  0  0  0  0
  7 37  1  0  0  0  0
  8 38  1  0  0  0  0
  9 39  1  0  0  0  0
 10 40  1  0  0  0  0
 11 41  1  0  0  0  0
 12 42  1  0  0  0  0
 13 43  1  0  0  0  0
 22 44  1  0  0  0  0
 22 45  1  0  0  0  0
 22 46  1  0  0  0  0
 23 47  1  0  0  0  0
 23 48  1  0  0  0  0
 23 49  1  0  0  0  0
 24 50  1  0  0  0  0
 24 51  1  0  0  0  0
 25 52  1  0  0  0  0
 25 53  1  0  0  0  0
 26 54  1  0  0  0  0
M  END
> <clash_score>
0.798977050884899

> <docking_score>
-8.02853012084961

> <overlap_score>
1.005091667175293

$$$$
BENZO_453_1
  -OEChem-08232013513D

 56 59  0     0  0  0  0  0  0999 V2000
   14.3659    0.8623   23.4791 C   0  0  0  0  0  0  0  0  0  0  0  0
    4.2970    1.6690   20.8430 C   0  0  0  0  0  0  0  0  0  0  0  0
   13.6964    0.2048   24.5110 C   0  0  0  0  0  0  0  0  0  0  0  0
   13.6441    1.5798   22.5252 C   0  0  0  0  0  0  0  0  0  0  0  0
    4.0980    2.1130   19.5350 C   0  0  0  0  0  0  0  0  0  0  0  0
    5.3360    0.8000   21.1530 C   0  0  0  0  0  0  0  0  0  0  0  0
   12.3050    0.2647   24.5891 C   0  0  0  0  0  0  0  0  0  0  0  0
   12.2527    1.6397   22.6033 C   0  0  0  0  0  0  0  0  0  0  0  0
    4.9400    1.7060   18.5060 C   0  0  0  0  0  0  0  0  0  0  0  0
    8.3310   -2.7170   25.3430 C   0  0  0  0  0  0  0  0  0  0  0  0
   10.2570   -3.5000   24.1350 C   0  0  0  0  0  0  0  0  0  0  0  0
    8.3510   -1.5420   24.6110 C   0  0  0  0  0  0  0  0  0  0  0  0
   10.2760   -2.3270   23.4020 C   0  0  0  0  0  0  0  0  0  0  0  0
    7.6830   -0.5170   18.7600 C   0  0  0  0  0  0  0  0  0  0  0  0
    6.1600    0.3870   20.1140 C   0  0  0  0  0  0  0  0  0  0  0  0
   11.5831    0.9821   23.6352 C   0  0  0  0  0  0  0  0  0  0  0  0
    7.2210   -0.4620   20.0350 C   0  0  0  0  0  0  0  0  0  0  0  0
    5.9810    0.8330   18.8060 C   0  0  0  0  0  0  0  0  0  0  0  0
    9.2850   -3.7090   25.1090 C   0  0  0  0  0  0  0  0  0  0  0  0
    9.3300   -1.3350   23.6390 C   0  0  0  0  0  0  0  0  0  0  0  0
    8.9510    0.1280   21.6880 C   0  0  0  0  0  0  0  0  0  0  0  0
    9.6844   -6.1680   25.4389 C   0  0  0  0  0  0  0  0  0  0  0  0
    8.0402   -7.2914   27.0010 C   0  0  0  0  0  0  0  0  0  0  0  0
    8.0810   -0.9750   21.0820 C   0  0  0  0  0  0  0  0  0  0  0  0
   10.0855    1.0467   23.7186 C   0  0  0  0  0  0  0  0  0  0  0  0
    9.4864   -7.1875   26.5507 C   0  0  0  0  0  0  0  0  0  0  0  0
    6.9440    0.2550   18.0100 N   0  0  0  0  0  0  0  0  0  0  0  0
    9.2630   -4.8902   25.8410 N   0  0  0  0  0  0  0  0  0  0  0  0
    9.4200   -0.0840   22.9530 N   0  0  0  0  0  0  0  0  0  0  0  0
    9.1870    1.1500   21.0630 O   0  0  0  0  0  0  0  0  0  0  0  0
   10.1567   -6.4768   24.3498 O   0  0  0  0  0  0  0  0  0  0  0  0
   15.4494    0.8167   23.4192 H   0  0  0  0  0  0  0  0  0  0  0  0
    3.6260    2.0115   21.6299 H   0  0  0  0  0  0  0  0  0  0  0  0
   14.2584   -0.3530   25.2545 H   0  0  0  0  0  0  0  0  0  0  0  0
   14.1651    2.0928   21.7222 H   0  0  0  0  0  0  0  0  0  0  0  0
    3.2721    2.7866   19.3205 H   0  0  0  0  0  0  0  0  0  0  0  0
    5.4862    0.4667   22.1694 H   0  0  0  0  0  0  0  0  0  0  0  0
   11.7918   -0.2509   25.3966 H   0  0  0  0  0  0  0  0  0  0  0  0
   11.6985    2.2009   21.8556 H   0  0  0  0  0  0  0  0  0  0  0  0
    4.7828    2.0658   17.4849 H   0  0  0  0  0  0  0  0  0  0  0  0
    7.5639   -2.8621   26.1045 H   0  0  0  0  0  0  0  0  0  0  0  0
   11.0141   -4.2644   23.9422 H   0  0  0  0  0  0  0  0  0  0  0  0
    7.5950   -0.7788   24.8007 H   0  0  0  0  0  0  0  0  0  0  0  0
   11.0408   -2.1861   22.6359 H   0  0  0  0  0  0  0  0  0  0  0  0
    8.5287   -1.0850   18.3402 H   0  0  0  0  0  0  0  0  0  0  0  0
    7.6718   -6.3271   27.3662 H   0  0  0  0  0  0  0  0  0  0  0  0
    7.9444   -8.0225   27.8096 H   0  0  0  0  0  0  0  0  0  0  0  0
    7.3933   -7.6072   26.1759 H   0  0  0  0  0  0  0  0  0  0  0  0
    7.4884   -1.4160   21.8960 H   0  0  0  0  0  0  0  0  0  0  0  0
    8.7523   -1.7574   20.7004 H   0  0  0  0  0  0  0  0  0  0  0  0
    9.7540    0.9919   24.7613 H   0  0  0  0  0  0  0  0  0  0  0  0
    9.7093    1.9892   23.3069 H   0  0  0  0  0  0  0  0  0  0  0  0
    9.8282   -8.1648   26.1910 H   0  0  0  0  0  0  0  0  0  0  0  0
   10.1145   -6.9002   27.4018 H   0  0  0  0  0  0  0  0  0  0  0  0
    7.0329    0.4233   17.0175 H   0  0  0  0  0  0  0  0  0  0  0  0
    8.8930   -4.8275   26.7966 H   0  0  0  0  0  0  0  0  0  0  0  0
  1  3  1  0  0  0  0
  1  4  2  0  0  0  0
  2  5  1  0  0  0  0
  2  6  2  0  0  0  0
  3  7  2  0  0  0  0
  4  8  1  0  0  0  0
  5  9  2  0  0  0  0
  6 15  1  0  0  0  0
  7 16  1  0  0  0  0
  8 16  2  0  0  0  0
  9 18  1  0  0  0  0
 10 12  2  0  0  0  0
 10 19  1  0  0  0  0
 11 13  1  0  0  0  0
 11 19  2  0  0  0  0
 12 20  1  0  0  0  0
 13 20  2  0  0  0  0
 14 17  2  0  0  0  0
 14 27  1  0  0  0  0
 15 17  1  0  0  0  0
 15 18  2  0  0  0  0
 16 25  1  0  0  0  0
 17 24  1  0  0  0  0
 18 27  1  0  0  0  0
 19 28  1  0  0  0  0
 20 29  1  0  0  0  0
 21 24  1  0  0  0  0
 21 29  1  0  0  0  0
 21 30  2  0  0  0  0
 22 26  1  0  0  0  0
 22 28  1  0  0  0  0
 22 31  2  0  0  0  0
 23 26  1  0  0  0  0
 25 29  1  0  0  0  0
  1 32  1  0  0  0  0
  2 33  1  0  0  0  0
  3 34  1  0  0  0  0
  4 35  1  0  0  0  0
  5 36  1  0  0  0  0
  6 37  1  0  0  0  0
  7 38  1  0  0  0  0
  8 39  1  0  0  0  0
  9 40  1  0  0  0  0
 10 41  1  0  0  0  0
 11 42  1  0  0  0  0
 12 43  1  0  0  0  0
 13 44  1  0  0  0  0
 14 45  1  0  0  0  0
 23 46  1  0  0  0  0
 23 47  1  0  0  0  0
 23 48  1  0  0  0  0
 24 49  1  0  0  0  0
 24 50  1  0  0  0  0
 25 51  1  0  0  0  0
 25 52  1  0  0  0  0
 26 53  1  0  0  0  0
 26 54  1  0  0  0  0
 27 55  1  0  0  0  0
 28 56  1  0  0  0  0
M  END
> <clash_score>
1.3337609790916258

> <docking_score>
-5.344770908355713

> <overlap_score>
0.9847354888916016

$$$$
BENZO_452_1
  -OEChem-08232013513D

 53 56  0     0  0  0  0  0  0999 V2000
    4.2970    1.6690   20.8430 C   0  0  0  0  0  0  0  0  0  0  0  0
    4.0980    2.1130   19.5350 C   0  0  0  0  0  0  0  0  0  0  0  0
    5.3360    0.8000   21.1530 C   0  0  0  0  0  0  0  0  0  0  0  0
    4.9400    1.7060   18.5060 C   0  0  0  0  0  0  0  0  0  0  0  0
    8.3310   -2.7170   25.3430 C   0  0  0  0  0  0  0  0  0  0  0  0
   10.2570   -3.5000   24.1350 C   0  0  0  0  0  0  0  0  0  0  0  0
    8.3510   -1.5420   24.6110 C   0  0  0  0  0  0  0  0  0  0  0  0
   10.2760   -2.3270   23.4020 C   0  0  0  0  0  0  0  0  0  0  0  0
   12.3137    1.0303   22.4129 C   0  0  0  0  0  0  0  0  0  0  0  0
    7.6830   -0.5170   18.7600 C   0  0  0  0  0  0  0  0  0  0  0  0
   13.6734    0.9519   22.6194 C   0  0  0  0  0  0  0  0  0  0  0  0
   12.4124    0.8684   24.7295 C   0  0  0  0  0  0  0  0  0  0  0  0
    6.1600    0.3870   20.1140 C   0  0  0  0  0  0  0  0  0  0  0  0
   11.5831    0.9821   23.6352 C   0  0  0  0  0  0  0  0  0  0  0  0
    7.2210   -0.4620   20.0350 C   0  0  0  0  0  0  0  0  0  0  0  0
    5.9810    0.8330   18.8060 C   0  0  0  0  0  0  0  0  0  0  0  0
    9.2850   -3.7090   25.1090 C   0  0  0  0  0  0  0  0  0  0  0  0
    9.3300   -1.3350   23.6390 C   0  0  0  0  0  0  0  0  0  0  0  0
    8.9510    0.1280   21.6880 C   0  0  0  0  0  0  0  0  0  0  0  0
    9.6844   -6.1680   25.4389 C   0  0  0  0  0  0  0  0  0  0  0  0
    8.0402   -7.2914   27.0010 C   0  0  0  0  0  0  0  0  0  0  0  0
    8.0810   -0.9750   21.0820 C   0  0  0  0  0  0  0  0  0  0  0  0
   10.0855    1.0467   23.7186 C   0  0  0  0  0  0  0  0  0  0  0  0
    9.4864   -7.1875   26.5507 C   0  0  0  0  0  0  0  0  0  0  0  0
    6.9440    0.2550   18.0100 N   0  0  0  0  0  0  0  0  0  0  0  0
    9.2630   -4.8902   25.8410 N   0  0  0  0  0  0  0  0  0  0  0  0
    9.4200   -0.0840   22.9530 N   0  0  0  0  0  0  0  0  0  0  0  0
    9.1870    1.1500   21.0630 O   0  0  0  0  0  0  0  0  0  0  0  0
   10.1567   -6.4768   24.3498 O   0  0  0  0  0  0  0  0  0  0  0  0
   14.0644    0.8206   24.2814 S   0  0  0  0  0  0  0  0  0  0  0  0
    3.6260    2.0115   21.6299 H   0  0  0  0  0  0  0  0  0  0  0  0
    3.2721    2.7866   19.3205 H   0  0  0  0  0  0  0  0  0  0  0  0
    5.4862    0.4667   22.1694 H   0  0  0  0  0  0  0  0  0  0  0  0
    4.7828    2.0658   17.4849 H   0  0  0  0  0  0  0  0  0  0  0  0
    7.5639   -2.8621   26.1045 H   0  0  0  0  0  0  0  0  0  0  0  0
   11.0141   -4.2644   23.9422 H   0  0  0  0  0  0  0  0  0  0  0  0
    7.5950   -0.7788   24.8007 H   0  0  0  0  0  0  0  0  0  0  0  0
   11.0408   -2.1861   22.6359 H   0  0  0  0  0  0  0  0  0  0  0  0
   11.8685    1.1176   21.4299 H   0  0  0  0  0  0  0  0  0  0  0  0
    8.5287   -1.0850   18.3402 H   0  0  0  0  0  0  0  0  0  0  0  0
   14.4559    0.9647   21.8738 H   0  0  0  0  0  0  0  0  0  0  0  0
   12.1313    0.8097   25.7719 H   0  0  0  0  0  0  0  0  0  0  0  0
    7.6718   -6.3271   27.3662 H   0  0  0  0  0  0  0  0  0  0  0  0
    7.9444   -8.0225   27.8096 H   0  0  0  0  0  0  0  0  0  0  0  0
    7.3933   -7.6072   26.1759 H   0  0  0  0  0  0  0  0  0  0  0  0
    7.4884   -1.4160   21.8960 H   0  0  0  0  0  0  0  0  0  0  0  0
    8.7523   -1.7574   20.7004 H   0  0  0  0  0  0  0  0  0  0  0  0
    9.7540    0.9919   24.7613 H   0  0  0  0  0  0  0  0  0  0  0  0
    9.7093    1.9892   23.3069 H   0  0  0  0  0  0  0  0  0  0  0  0
    9.8282   -8.1648   26.1910 H   0  0  0  0  0  0  0  0  0  0  0  0
   10.1145   -6.9002   27.4018 H   0  0  0  0  0  0  0  0  0  0  0  0
    7.0329    0.4233   17.0175 H   0  0  0  0  0  0  0  0  0  0  0  0
    8.8930   -4.8275   26.7966 H   0  0  0  0  0  0  0  0  0  0  0  0
  1  2  1  0  0  0  0
  1  3  2  0  0  0  0
  2  4  2  0  0  0  0
  3 13  1  0  0  0  0
  4 16  1  0  0  0  0
  5  7  2  0  0  0  0
  5 17  1  0  0  0  0
  6  8  1  0  0  0  0
  6 17  2  0  0  0  0
  7 18  1  0  0  0  0
  8 18  2  0  0  0  0
  9 11  2  0  0  0  0
  9 14  1  0  0  0  0
 10 15  2  0  0  0  0
 10 25  1  0  0  0  0
 11 30  1  0  0  0  0
 12 14  2  0  0  0  0
 12 30  1  0  0  0  0
 13 15  1  0  0  0  0
 13 16  2  0  0  0  0
 14 23  1  0  0  0  0
 15 22  1  0  0  0  0
 16 25  1  0  0  0  0
 17 26  1  0  0  0  0
 18 27  1  0  0  0  0
 19 22  1  0  0  0  0
 19 27  1  0  0  0  0
 19 28  2  0  0  0  0
 20 24  1  0  0  0  0
 20 26  1  0  0  0  0
 20 29  2  0  0  0  0
 21 24  1  0  0  0  0
 23 27  1  0  0  0  0
  1 31  1  0  0  0  0
  2 32  1  0  0  0  0
  3 33  1  0  0  0  0
  4 34  1  0  0  0  0
  5 35  1  0  0  0  0
  6 36  1  0  0  0  0
  7 37  1  0  0  0  0
  8 38  1  0  0  0  0
  9 39  1  0  0  0  0
 10 40  1  0  0  0  0
 11 41  1  0  0  0  0
 12 42  1  0  0  0  0
 21 43  1  0  0  0  0
 21 44  1  0  0  0  0
 21 45  1  0  0  0  0
 22 46  1  0  0  0  0
 22 47  1  0  0  0  0
 23 48  1  0  0  0  0
 23 49  1  0  0  0  0
 24 50  1  0  0  0  0
 24 51  1  0  0  0  0
 25 52  1  0  0  0  0
 26 53  1  0  0  0  0
M  END
> <clash_score>
1.3337609790916258

> <docking_score>
-5.671750068664551

> <overlap_score>
0.9593624472618103

$$$$
BENZO_457_1
  -OEChem-08232013513D

 61 65  0     0  0  0  0  0  0999 V2000
   14.2727    1.1212   23.8270 C   0  0  0  0  0  0  0  0  0  0  0  0
    4.2970    1.6690   20.8430 C   0  0  0  0  0  0  0  0  0  0  0  0
   13.5688    0.4211   24.8068 C   0  0  0  0  0  0  0  0  0  0  0  0
   13.5821    1.8030   22.8250 C   0  0  0  0  0  0  0  0  0  0  0  0
    4.0980    2.1130   19.5350 C   0  0  0  0  0  0  0  0  0  0  0  0
    5.3360    0.8000   21.1530 C   0  0  0  0  0  0  0  0  0  0  0  0
   12.1743    0.4025   24.7845 C   0  0  0  0  0  0  0  0  0  0  0  0
   12.1875    1.7844   22.8027 C   0  0  0  0  0  0  0  0  0  0  0  0
    4.9400    1.7060   18.5060 C   0  0  0  0  0  0  0  0  0  0  0  0
    8.3310   -2.7170   25.3430 C   0  0  0  0  0  0  0  0  0  0  0  0
   10.2570   -3.5000   24.1350 C   0  0  0  0  0  0  0  0  0  0  0  0
    8.3510   -1.5420   24.6110 C   0  0  0  0  0  0  0  0  0  0  0  0
   10.2760   -2.3270   23.4020 C   0  0  0  0  0  0  0  0  0  0  0  0
    7.6830   -0.5170   18.7600 C   0  0  0  0  0  0  0  0  0  0  0  0
    6.1600    0.3870   20.1140 C   0  0  0  0  0  0  0  0  0  0  0  0
   11.4836    1.0842   23.7825 C   0  0  0  0  0  0  0  0  0  0  0  0
    7.2210   -0.4620   20.0350 C   0  0  0  0  0  0  0  0  0  0  0  0
    5.9810    0.8330   18.8060 C   0  0  0  0  0  0  0  0  0  0  0  0
    9.2850   -3.7090   25.1090 C   0  0  0  0  0  0  0  0  0  0  0  0
    9.3300   -1.3350   23.6390 C   0  0  0  0  0  0  0  0  0  0  0  0
    8.9510    0.1280   21.6880 C   0  0  0  0  0  0  0  0  0  0  0  0
    7.3162   -6.8835   26.5210 C   0  0  0  0  0  0  0  0  0  0  0  0
    7.3507   -5.5245   27.2240 C   0  0  0  0  0  0  0  0  0  0  0  0
    7.9375   -6.8069   25.1245 C   0  0  0  0  0  0  0  0  0  0  0  0
    8.7638   -4.9418   27.2163 C   0  0  0  0  0  0  0  0  0  0  0  0
    9.3378   -6.1874   25.1659 C   0  0  0  0  0  0  0  0  0  0  0  0
    8.0810   -0.9750   21.0820 C   0  0  0  0  0  0  0  0  0  0  0  0
    9.9825    1.0644   23.7577 C   0  0  0  0  0  0  0  0  0  0  0  0
    6.9440    0.2550   18.0100 N   0  0  0  0  0  0  0  0  0  0  0  0
    9.2639   -4.8860   25.8399 N   0  0  0  0  0  0  0  0  0  0  0  0
    9.4200   -0.0840   22.9530 N   0  0  0  0  0  0  0  0  0  0  0  0
    9.1870    1.1500   21.0630 O   0  0  0  0  0  0  0  0  0  0  0  0
   15.3586    1.1367   23.8453 H   0  0  0  0  0  0  0  0  0  0  0  0
    3.6260    2.0115   21.6299 H   0  0  0  0  0  0  0  0  0  0  0  0
   14.1064   -0.1089   25.5877 H   0  0  0  0  0  0  0  0  0  0  0  0
   14.1298    2.3491   22.0627 H   0  0  0  0  0  0  0  0  0  0  0  0
    3.2721    2.7866   19.3205 H   0  0  0  0  0  0  0  0  0  0  0  0
    5.4862    0.4667   22.1694 H   0  0  0  0  0  0  0  0  0  0  0  0
   11.6342   -0.1459   25.5518 H   0  0  0  0  0  0  0  0  0  0  0  0
   11.6579    2.3182   22.0182 H   0  0  0  0  0  0  0  0  0  0  0  0
    4.7828    2.0658   17.4849 H   0  0  0  0  0  0  0  0  0  0  0  0
    7.5647   -2.8621   26.1053 H   0  0  0  0  0  0  0  0  0  0  0  0
   11.0144   -4.2642   23.9425 H   0  0  0  0  0  0  0  0  0  0  0  0
    7.5958   -0.7779   24.8006 H   0  0  0  0  0  0  0  0  0  0  0  0
   11.0406   -2.1848   22.6356 H   0  0  0  0  0  0  0  0  0  0  0  0
    8.5287   -1.0850   18.3402 H   0  0  0  0  0  0  0  0  0  0  0  0
    7.8578   -7.6261   27.1266 H   0  0  0  0  0  0  0  0  0  0  0  0
    6.2773   -7.2358   26.4459 H   0  0  0  0  0  0  0  0  0  0  0  0
    6.6663   -4.8351   26.7223 H   0  0  0  0  0  0  0  0  0  0  0  0
    7.0044   -5.6368   28.2534 H   0  0  0  0  0  0  0  0  0  0  0  0
    7.9946   -7.8119   24.6937 H   0  0  0  0  0  0  0  0  0  0  0  0
    7.2929   -6.2123   24.4668 H   0  0  0  0  0  0  0  0  0  0  0  0
    8.7343   -3.9408   27.6542 H   0  0  0  0  0  0  0  0  0  0  0  0
    9.4243   -5.5632   27.8278 H   0  0  0  0  0  0  0  0  0  0  0  0
   10.0200   -6.8490   25.7011 H   0  0  0  0  0  0  0  0  0  0  0  0
    9.6984   -6.0694   24.1436 H   0  0  0  0  0  0  0  0  0  0  0  0
    7.4781   -1.4136   21.8845 H   0  0  0  0  0  0  0  0  0  0  0  0
    8.7420   -1.7550   20.6889 H   0  0  0  0  0  0  0  0  0  0  0  0
    9.5805    0.9993   24.7746 H   0  0  0  0  0  0  0  0  0  0  0  0
    9.5848    1.9806   23.3087 H   0  0  0  0  0  0  0  0  0  0  0  0
    7.0329    0.4233   17.0175 H   0  0  0  0  0  0  0  0  0  0  0  0
  1  3  1  0  0  0  0
  1  4  2  0  0  0  0
  2  5  1  0  0  0  0
  2  6  2  0  0  0  0
  3  7  2  0  0  0  0
  4  8  1  0  0  0  0
  5  9  2  0  0  0  0
  6 15  1  0  0  0  0
  7 16  1  0  0  0  0
  8 16  2  0  0  0  0
  9 18  1  0  0  0  0
 10 12  2  0  0  0  0
 10 19  1  0  0  0  0
 11 13  1  0  0  0  0
 11 19  2  0  0  0  0
 12 20  1  0  0  0  0
 13 20  2  0  0  0  0
 14 17  2  0  0  0  0
 14 29  1  0  0  0  0
 15 17  1  0  0  0  0
 15 18  2  0  0  0  0
 16 28  1  0  0  0  0
 17 27  1  0  0  0  0
 18 29  1  0  0  0  0
 19 30  1  0  0  0  0
 20 31  1  0  0  0  0
 21 27  1  0  0  0  0
 21 31  1  0  0  0  0
 21 32  2  0  0  0  0
 22 23  1  0  0  0  0
 22 24  1  0  0  0  0
 23 25  1  0  0  0  0
 24 26  1  0  0  0  0
 25 30  1  0  0  0  0
 26 30  1  0  0  0  0
 28 31  1  0  0  0  0
  1 33  1  0  0  0  0
  2 34  1  0  0  0  0
  3 35  1  0  0  0  0
  4 36  1  0  0  0  0
  5 37  1  0  0  0  0
  6 38  1  0  0  0  0
  7 39  1  0  0  0  0
  8 40  1  0  0  0  0
  9 41  1  0  0  0  0
 10 42  1  0  0  0  0
 11 43  1  0  0  0  0
 12 44  1  0  0  0  0
 13 45  1  0  0  0  0
 14 46  1  0  0  0  0
 22 47  1  0  0  0  0
 22 48  1  0  0  0  0
 23 49  1  0  0  0  0
 23 50  1  0  0  0  0
 24 51  1  0  0  0  0
 24 52  1  0  0  0  0
 25 53  1  0  0  0  0
 25 54  1  0  0  0  0
 26 55  1  0  0  0  0
 26 56  1  0  0  0  0
 27 57  1  0  0  0  0
 27 58  1  0  0  0  0
 28 59  1  0  0  0  0
 28 60  1  0  0  0  0
 29 61  1  0  0  0  0
M  END
> <clash_score>
0

> <docking_score>
-7.793903350830078

> <overlap_score>
1.0074560642242432

$$$$
BENZO_454_1
  -OEChem-08232013513D

 56 59  0     0  0  0  0  0  0999 V2000
    4.2970    1.6690   20.8430 C   0  0  0  0  0  0  0  0  0  0  0  0
    4.0980    2.1130   19.5350 C   0  0  0  0  0  0  0  0  0  0  0  0
   13.6648    1.8045   22.7259 C   0  0  0  0  0  0  0  0  0  0  0  0
    5.3360    0.8000   21.1530 C   0  0  0  0  0  0  0  0  0  0  0  0
   12.2734    1.8632   22.8029 C   0  0  0  0  0  0  0  0  0  0  0  0
    4.9400    1.7060   18.5060 C   0  0  0  0  0  0  0  0  0  0  0  0
    8.3310   -2.7170   25.3430 C   0  0  0  0  0  0  0  0  0  0  0  0
   10.2570   -3.5000   24.1350 C   0  0  0  0  0  0  0  0  0  0  0  0
    8.3510   -1.5420   24.6110 C   0  0  0  0  0  0  0  0  0  0  0  0
   10.2760   -2.3270   23.4020 C   0  0  0  0  0  0  0  0  0  0  0  0
   14.3661    0.8645   23.4812 C   0  0  0  0  0  0  0  0  0  0  0  0
   12.2844    0.0422   24.3906 C   0  0  0  0  0  0  0  0  0  0  0  0
    7.6830   -0.5170   18.7600 C   0  0  0  0  0  0  0  0  0  0  0  0
    6.1600    0.3870   20.1140 C   0  0  0  0  0  0  0  0  0  0  0  0
   11.5831    0.9821   23.6352 C   0  0  0  0  0  0  0  0  0  0  0  0
    7.2210   -0.4620   20.0350 C   0  0  0  0  0  0  0  0  0  0  0  0
    5.9810    0.8330   18.8060 C   0  0  0  0  0  0  0  0  0  0  0  0
    9.2850   -3.7090   25.1090 C   0  0  0  0  0  0  0  0  0  0  0  0
    9.3300   -1.3350   23.6390 C   0  0  0  0  0  0  0  0  0  0  0  0
   13.6759   -0.0166   24.3135 C   0  0  0  0  0  0  0  0  0  0  0  0
    8.9510    0.1280   21.6880 C   0  0  0  0  0  0  0  0  0  0  0  0
    9.6844   -6.1680   25.4389 C   0  0  0  0  0  0  0  0  0  0  0  0
    8.0402   -7.2914   27.0010 C   0  0  0  0  0  0  0  0  0  0  0  0
    8.0810   -0.9750   21.0820 C   0  0  0  0  0  0  0  0  0  0  0  0
   10.0855    1.0467   23.7186 C   0  0  0  0  0  0  0  0  0  0  0  0
    9.4864   -7.1875   26.5507 C   0  0  0  0  0  0  0  0  0  0  0  0
    6.9440    0.2550   18.0100 N   0  0  0  0  0  0  0  0  0  0  0  0
    9.2630   -4.8902   25.8410 N   0  0  0  0  0  0  0  0  0  0  0  0
    9.4200   -0.0840   22.9530 N   0  0  0  0  0  0  0  0  0  0  0  0
    9.1870    1.1500   21.0630 O   0  0  0  0  0  0  0  0  0  0  0  0
   10.1567   -6.4768   24.3498 O   0  0  0  0  0  0  0  0  0  0  0  0
   14.5417   -1.1752   25.2461 Cl  0  0  0  0  0  0  0  0  0  0  0  0
    3.6260    2.0115   21.6299 H   0  0  0  0  0  0  0  0  0  0  0  0
    3.2721    2.7866   19.3205 H   0  0  0  0  0  0  0  0  0  0  0  0
   14.2020    2.4909   22.0777 H   0  0  0  0  0  0  0  0  0  0  0  0
    5.4862    0.4667   22.1694 H   0  0  0  0  0  0  0  0  0  0  0  0
   11.7352    2.5989   22.2109 H   0  0  0  0  0  0  0  0  0  0  0  0
    4.7828    2.0658   17.4849 H   0  0  0  0  0  0  0  0  0  0  0  0
    7.5639   -2.8621   26.1045 H   0  0  0  0  0  0  0  0  0  0  0  0
   11.0141   -4.2644   23.9422 H   0  0  0  0  0  0  0  0  0  0  0  0
    7.5950   -0.7788   24.8007 H   0  0  0  0  0  0  0  0  0  0  0  0
   11.0408   -2.1861   22.6359 H   0  0  0  0  0  0  0  0  0  0  0  0
   15.4506    0.8304   23.4113 H   0  0  0  0  0  0  0  0  0  0  0  0
   11.7416   -0.6429   25.0377 H   0  0  0  0  0  0  0  0  0  0  0  0
    8.5287   -1.0850   18.3402 H   0  0  0  0  0  0  0  0  0  0  0  0
    7.6718   -6.3271   27.3662 H   0  0  0  0  0  0  0  0  0  0  0  0
    7.9444   -8.0225   27.8096 H   0  0  0  0  0  0  0  0  0  0  0  0
    7.3933   -7.6072   26.1759 H   0  0  0  0  0  0  0  0  0  0  0  0
    7.4884   -1.4160   21.8960 H   0  0  0  0  0  0  0  0  0  0  0  0
    8.7523   -1.7574   20.7004 H   0  0  0  0  0  0  0  0  0  0  0  0
    9.7540    0.9919   24.7613 H   0  0  0  0  0  0  0  0  0  0  0  0
    9.7093    1.9892   23.3069 H   0  0  0  0  0  0  0  0  0  0  0  0
    9.8282   -8.1648   26.1910 H   0  0  0  0  0  0  0  0  0  0  0  0
   10.1145   -6.9002   27.4018 H   0  0  0  0  0  0  0  0  0  0  0  0
    7.0329    0.4233   17.0175 H   0  0  0  0  0  0  0  0  0  0  0  0
    8.8930   -4.8275   26.7966 H   0  0  0  0  0  0  0  0  0  0  0  0
  1  2  1  0  0  0  0
  1  4  2  0  0  0  0
  2  6  2  0  0  0  0
  3  5  2  0  0  0  0
  3 11  1  0  0  0  0
  4 14  1  0  0  0  0
  5 15  1  0  0  0  0
  6 17  1  0  0  0  0
  7  9  2  0  0  0  0
  7 18  1  0  0  0  0
  8 10  1  0  0  0  0
  8 18  2  0  0  0  0
  9 19  1  0  0  0  0
 10 19  2  0  0  0  0
 11 20  2  0  0  0  0
 12 15  2  0  0  0  0
 12 20  1  0  0  0  0
 13 16  2  0  0  0  0
 13 27  1  0  0  0  0
 14 16  1  0  0  0  0
 14 17  2  0  0  0  0
 15 25  1  0  0  0  0
 16 24  1  0  0  0  0
 17 27  1  0  0  0  0
 18 28  1  0  0  0  0
 19 29  1  0  0  0  0
 20 32  1  0  0  0  0
 21 24  1  0  0  0  0
 21 29  1  0  0  0  0
 21 30  2  0  0  0  0
 22 26  1  0  0  0  0
 22 28  1  0  0  0  0
 22 31  2  0  0  0  0
 23 26  1  0  0  0  0
 25 29  1  0  0  0  0
  1 33  1  0  0  0  0
  2 34  1  0  0  0  0
  3 35  1  0  0  0  0
  4 36  1  0  0  0  0
  5 37  1  0  0  0  0
  6 38  1  0  0  0  0
  7 39  1  0  0  0  0
  8 40  1  0  0  0  0
  9 41  1  0  0  0  0
 10 42  1  0  0  0  0
 11 43  1  0  0  0  0
 12 44  1  0  0  0  0
 13 45  1  0  0  0  0
 23 46  1  0  0  0  0
 23 47  1  0  0  0  0
 23 48  1  0  0  0  0
 24 49  1  0  0  0  0
 24 50  1  0  0  0  0
 25 51  1  0  0  0  0
 25 52  1  0  0  0  0
 26 53  1  0  0  0  0
 26 54  1  0  0  0  0
 27 55  1  0  0  0  0
 28 56  1  0  0  0  0
M  END
> <clash_score>
2.132738029976525

> <docking_score>
-4.508002281188965

> <overlap_score>
0.9891596436500549

$$$$
BENZO_455_1
  -OEChem-08232013513D

 56 59  0     0  0  0  0  0  0999 V2000
    4.2970    1.6690   20.8430 C   0  0  0  0  0  0  0  0  0  0  0  0
    4.0980    2.1130   19.5350 C   0  0  0  0  0  0  0  0  0  0  0  0
    5.3360    0.8000   21.1530 C   0  0  0  0  0  0  0  0  0  0  0  0
    4.9400    1.7060   18.5060 C   0  0  0  0  0  0  0  0  0  0  0  0
    8.3310   -2.7170   25.3430 C   0  0  0  0  0  0  0  0  0  0  0  0
   10.2570   -3.5000   24.1350 C   0  0  0  0  0  0  0  0  0  0  0  0
    8.3510   -1.5420   24.6110 C   0  0  0  0  0  0  0  0  0  0  0  0
   10.2760   -2.3270   23.4020 C   0  0  0  0  0  0  0  0  0  0  0  0
   12.4404    1.7831   22.8572 C   0  0  0  0  0  0  0  0  0  0  0  0
    7.6830   -0.5170   18.7600 C   0  0  0  0  0  0  0  0  0  0  0  0
   12.4250    0.1280   24.3048 C   0  0  0  0  0  0  0  0  0  0  0  0
    6.1600    0.3870   20.1140 C   0  0  0  0  0  0  0  0  0  0  0  0
   11.5831    0.9821   23.6352 C   0  0  0  0  0  0  0  0  0  0  0  0
    7.2210   -0.4620   20.0350 C   0  0  0  0  0  0  0  0  0  0  0  0
    5.9810    0.8330   18.8060 C   0  0  0  0  0  0  0  0  0  0  0  0
    9.2850   -3.7090   25.1090 C   0  0  0  0  0  0  0  0  0  0  0  0
    9.3300   -1.3350   23.6390 C   0  0  0  0  0  0  0  0  0  0  0  0
    8.9510    0.1280   21.6880 C   0  0  0  0  0  0  0  0  0  0  0  0
    9.6844   -6.1680   25.4389 C   0  0  0  0  0  0  0  0  0  0  0  0
    8.0402   -7.2914   27.0010 C   0  0  0  0  0  0  0  0  0  0  0  0
   14.9131   -0.1674   24.3368 C   0  0  0  0  0  0  0  0  0  0  0  0
    8.0810   -0.9750   21.0820 C   0  0  0  0  0  0  0  0  0  0  0  0
   10.0855    1.0467   23.7186 C   0  0  0  0  0  0  0  0  0  0  0  0
    9.4864   -7.1875   26.5507 C   0  0  0  0  0  0  0  0  0  0  0  0
   13.7281    1.4662   23.0168 N   0  0  0  0  0  0  0  0  0  0  0  0
    6.9440    0.2550   18.0100 N   0  0  0  0  0  0  0  0  0  0  0  0
   13.6862    0.4568   23.9030 N   0  0  0  0  0  0  0  0  0  0  0  0
    9.2630   -4.8902   25.8410 N   0  0  0  0  0  0  0  0  0  0  0  0
    9.4200   -0.0840   22.9530 N   0  0  0  0  0  0  0  0  0  0  0  0
    9.1870    1.1500   21.0630 O   0  0  0  0  0  0  0  0  0  0  0  0
   10.1567   -6.4768   24.3498 O   0  0  0  0  0  0  0  0  0  0  0  0
    3.6260    2.0115   21.6299 H   0  0  0  0  0  0  0  0  0  0  0  0
    3.2721    2.7866   19.3205 H   0  0  0  0  0  0  0  0  0  0  0  0
    5.4862    0.4667   22.1694 H   0  0  0  0  0  0  0  0  0  0  0  0
    4.7828    2.0658   17.4849 H   0  0  0  0  0  0  0  0  0  0  0  0
    7.5639   -2.8621   26.1045 H   0  0  0  0  0  0  0  0  0  0  0  0
   11.0141   -4.2644   23.9422 H   0  0  0  0  0  0  0  0  0  0  0  0
    7.5950   -0.7788   24.8007 H   0  0  0  0  0  0  0  0  0  0  0  0
   11.0408   -2.1861   22.6359 H   0  0  0  0  0  0  0  0  0  0  0  0
   12.1829    2.5855   22.1804 H   0  0  0  0  0  0  0  0  0  0  0  0
    8.5287   -1.0850   18.3402 H   0  0  0  0  0  0  0  0  0  0  0  0
   12.2388   -0.6651   25.0163 H   0  0  0  0  0  0  0  0  0  0  0  0
    7.6718   -6.3271   27.3662 H   0  0  0  0  0  0  0  0  0  0  0  0
    7.9444   -8.0225   27.8096 H   0  0  0  0  0  0  0  0  0  0  0  0
    7.3933   -7.6072   26.1759 H   0  0  0  0  0  0  0  0  0  0  0  0
   15.1288   -0.9959   23.6570 H   0  0  0  0  0  0  0  0  0  0  0  0
   15.7231    0.5668   24.3139 H   0  0  0  0  0  0  0  0  0  0  0  0
   14.7902   -0.5332   25.3601 H   0  0  0  0  0  0  0  0  0  0  0  0
    7.4884   -1.4160   21.8960 H   0  0  0  0  0  0  0  0  0  0  0  0
    8.7523   -1.7574   20.7004 H   0  0  0  0  0  0  0  0  0  0  0  0
    9.7540    0.9919   24.7613 H   0  0  0  0  0  0  0  0  0  0  0  0
    9.7093    1.9892   23.3069 H   0  0  0  0  0  0  0  0  0  0  0  0
    9.8282   -8.1648   26.1910 H   0  0  0  0  0  0  0  0  0  0  0  0
   10.1145   -6.9002   27.4018 H   0  0  0  0  0  0  0  0  0  0  0  0
    7.0329    0.4233   17.0175 H   0  0  0  0  0  0  0  0  0  0  0  0
    8.8930   -4.8275   26.7966 H   0  0  0  0  0  0  0  0  0  0  0  0
  1  2  1  0  0  0  0
  1  3  2  0  0  0  0
  2  4  2  0  0  0  0
  3 12  1  0  0  0  0
  4 15  1  0  0  0  0
  5  7  2  0  0  0  0
  5 16  1  0  0  0  0
  6  8  1  0  0  0  0
  6 16  2  0  0  0  0
  7 17  1  0  0  0  0
  8 17  2  0  0  0  0
  9 13  1  0  0  0  0
  9 25  2  0  0  0  0
 10 14  2  0  0  0  0
 10 26  1  0  0  0  0
 11 13  2  0  0  0  0
 11 27  1  0  0  0  0
 12 14  1  0  0  0  0
 12 15  2  0  0  0  0
 13 23  1  0  0  0  0
 14 22  1  0  0  0  0
 15 26  1  0  0  0  0
 16 28  1  0  0  0  0
 17 29  1  0  0  0  0
 18 22  1  0  0  0  0
 18 29  1  0  0  0  0
 18 30  2  0  0  0  0
 19 24  1  0  0  0  0
 19 28  1  0  0  0  0
 19 31  2  0  0  0  0
 20 24  1  0  0  0  0
 21 27  1  0  0  0  0
 23 29  1  0  0  0  0
 25 27  1  0  0  0  0
  1 32  1  0  0  0  0
  2 33  1  0  0  0  0
  3 34  1  0  0  0  0
  4 35  1  0  0  0  0
  5 36  1  0  0  0  0
  6 37  1  0  0  0  0
  7 38  1  0  0  0  0
  8 39  1  0  0  0  0
  9 40  1  0  0  0  0
 10 41  1  0  0  0  0
 11 42  1  0  0  0  0
 20 43  1  0  0  0  0
 20 44  1  0  0  0  0
 20 45  1  0  0  0  0
 21 46  1  0  0  0  0
 21 47  1  0  0  0  0
 21 48  1  0  0  0  0
 22 49  1  0  0  0  0
 22 50  1  0  0  0  0
 23 51  1  0  0  0  0
 23 52  1  0  0  0  0
 24 53  1  0  0  0  0
 24 54  1  0  0  0  0
 26 55  1  0  0  0  0
 28 56  1  0  0  0  0
M  END
> <clash_score>
1.3337609790916258

> <docking_score>
-5.1085076332092285

> <overlap_score>
0.9850128889083862

$$$$
BENZO_456_1
  -OEChem-08232013513D

 58 62  0     0  0  0  0  0  0999 V2000
    4.2970    1.6690   20.8430 C   0  0  0  0  0  0  0  0  0  0  0  0
    4.0980    2.1130   19.5350 C   0  0  0  0  0  0  0  0  0  0  0  0
    5.3360    0.8000   21.1530 C   0  0  0  0  0  0  0  0  0  0  0  0
    4.9400    1.7060   18.5060 C   0  0  0  0  0  0  0  0  0  0  0  0
    8.3310   -2.7170   25.3430 C   0  0  0  0  0  0  0  0  0  0  0  0
   10.2570   -3.5000   24.1350 C   0  0  0  0  0  0  0  0  0  0  0  0
    8.3510   -1.5420   24.6110 C   0  0  0  0  0  0  0  0  0  0  0  0
   10.2760   -2.3270   23.4020 C   0  0  0  0  0  0  0  0  0  0  0  0
   12.2965    1.1638   22.6150 C   0  0  0  0  0  0  0  0  0  0  0  0
    7.6830   -0.5170   18.7600 C   0  0  0  0  0  0  0  0  0  0  0  0
   13.6401    1.1644   22.9190 C   0  0  0  0  0  0  0  0  0  0  0  0
   12.2369    1.0266   24.9345 C   0  0  0  0  0  0  0  0  0  0  0  0
    6.1600    0.3870   20.1140 C   0  0  0  0  0  0  0  0  0  0  0  0
   11.4836    1.0842   23.7825 C   0  0  0  0  0  0  0  0  0  0  0  0
    7.2210   -0.4620   20.0350 C   0  0  0  0  0  0  0  0  0  0  0  0
    5.9810    0.8330   18.8060 C   0  0  0  0  0  0  0  0  0  0  0  0
    9.2850   -3.7090   25.1090 C   0  0  0  0  0  0  0  0  0  0  0  0
    9.3300   -1.3350   23.6390 C   0  0  0  0  0  0  0  0  0  0  0  0
    8.9510    0.1280   21.6880 C   0  0  0  0  0  0  0  0  0  0  0  0
    7.3162   -6.8835   26.5210 C   0  0  0  0  0  0  0  0  0  0  0  0
    7.3507   -5.5245   27.2240 C   0  0  0  0  0  0  0  0  0  0  0  0
    7.9375   -6.8069   25.1245 C   0  0  0  0  0  0  0  0  0  0  0  0
    8.7638   -4.9418   27.2163 C   0  0  0  0  0  0  0  0  0  0  0  0
    9.3378   -6.1874   25.1659 C   0  0  0  0  0  0  0  0  0  0  0  0
    8.0810   -0.9750   21.0820 C   0  0  0  0  0  0  0  0  0  0  0  0
    9.9825    1.0644   23.7577 C   0  0  0  0  0  0  0  0  0  0  0  0
    6.9440    0.2550   18.0100 N   0  0  0  0  0  0  0  0  0  0  0  0
    9.2639   -4.8860   25.8399 N   0  0  0  0  0  0  0  0  0  0  0  0
    9.4200   -0.0840   22.9530 N   0  0  0  0  0  0  0  0  0  0  0  0
    9.1870    1.1500   21.0630 O   0  0  0  0  0  0  0  0  0  0  0  0
   13.9170    1.0690   24.6062 S   0  0  0  0  0  0  0  0  0  0  0  0
    3.6260    2.0115   21.6299 H   0  0  0  0  0  0  0  0  0  0  0  0
    3.2721    2.7866   19.3205 H   0  0  0  0  0  0  0  0  0  0  0  0
    5.4862    0.4667   22.1694 H   0  0  0  0  0  0  0  0  0  0  0  0
    4.7828    2.0658   17.4849 H   0  0  0  0  0  0  0  0  0  0  0  0
    7.5647   -2.8621   26.1053 H   0  0  0  0  0  0  0  0  0  0  0  0
   11.0144   -4.2642   23.9425 H   0  0  0  0  0  0  0  0  0  0  0  0
    7.5958   -0.7779   24.8006 H   0  0  0  0  0  0  0  0  0  0  0  0
   11.0406   -2.1848   22.6356 H   0  0  0  0  0  0  0  0  0  0  0  0
   11.9191    1.2177   21.6016 H   0  0  0  0  0  0  0  0  0  0  0  0
    8.5287   -1.0850   18.3402 H   0  0  0  0  0  0  0  0  0  0  0  0
   14.4722    1.2155   22.2312 H   0  0  0  0  0  0  0  0  0  0  0  0
   11.8852    0.9605   25.9547 H   0  0  0  0  0  0  0  0  0  0  0  0
    7.8578   -7.6261   27.1266 H   0  0  0  0  0  0  0  0  0  0  0  0
    6.2773   -7.2358   26.4459 H   0  0  0  0  0  0  0  0  0  0  0  0
    6.6663   -4.8351   26.7223 H   0  0  0  0  0  0  0  0  0  0  0  0
    7.0044   -5.6368   28.2534 H   0  0  0  0  0  0  0  0  0  0  0  0
    7.9946   -7.8119   24.6937 H   0  0  0  0  0  0  0  0  0  0  0  0
    7.2929   -6.2123   24.4668 H   0  0  0  0  0  0  0  0  0  0  0  0
    8.7343   -3.9408   27.6542 H   0  0  0  0  0  0  0  0  0  0  0  0
    9.4243   -5.5632   27.8278 H   0  0  0  0  0  0  0  0  0  0  0  0
   10.0200   -6.8490   25.7011 H   0  0  0  0  0  0  0  0  0  0  0  0
    9.6984   -6.0694   24.1436 H   0  0  0  0  0  0  0  0  0  0  0  0
    7.4781   -1.4136   21.8845 H   0  0  0  0  0  0  0  0  0  0  0  0
    8.7420   -1.7550   20.6889 H   0  0  0  0  0  0  0  0  0  0  0  0
    9.5805    0.9993   24.7746 H   0  0  0  0  0  0  0  0  0  0  0  0
    9.5848    1.9806   23.3087 H   0  0  0  0  0  0  0  0  0  0  0  0
    7.0329    0.4233   17.0175 H   0  0  0  0  0  0  0  0  0  0  0  0
  1  2  1  0  0  0  0
  1  3  2  0  0  0  0
  2  4  2  0  0  0  0
  3 13  1  0  0  0  0
  4 16  1  0  0  0  0
  5  7  2  0  0  0  0
  5 17  1  0  0  0  0
  6  8  1  0  0  0  0
  6 17  2  0  0  0  0
  7 18  1  0  0  0  0
  8 18  2  0  0  0  0
  9 11  2  0  0  0  0
  9 14  1  0  0  0  0
 10 15  2  0  0  0  0
 10 27  1  0  0  0  0
 11 31  1  0  0  0  0
 12 14  2  0  0  0  0
 12 31  1  0  0  0  0
 13 15  1  0  0  0  0
 13 16  2  0  0  0  0
 14 26  1  0  0  0  0
 15 25  1  0  0  0  0
 16 27  1  0  0  0  0
 17 28  1  0  0  0  0
 18 29  1  0  0  0  0
 19 25  1  0  0  0  0
 19 29  1  0  0  0  0
 19 30  2  0  0  0  0
 20 21  1  0  0  0  0
 20 22  1  0  0  0  0
 21 23  1  0  0  0  0
 22 24  1  0  0  0  0
 23 28  1  0  0  0  0
 24 28  1  0  0  0  0
 26 29  1  0  0  0  0
  1 32  1  0  0  0  0
  2 33  1  0  0  0  0
  3 34  1  0  0  0  0
  4 35  1  0  0  0  0
  5 36  1  0  0  0  0
  6 37  1  0  0  0  0
  7 38  1  0  0  0  0
  8 39  1  0  0  0  0
  9 40  1  0  0  0  0
 10 41  1  0  0  0  0
 11 42  1  0  0  0  0
 12 43  1  0  0  0  0
 20 44  1  0  0  0  0
 20 45  1  0  0  0  0
 21 46  1  0  0  0  0
 21 47  1  0  0  0  0
 22 48  1  0  0  0  0
 22 49  1  0  0  0  0
 23 50  1  0  0  0  0
 23 51  1  0  0  0  0
 24 52  1  0  0  0  0
 24 53  1  0  0  0  0
 25 54  1  0  0  0  0
 25 55  1  0  0  0  0
 26 56  1  0  0  0  0
 26 57  1  0  0  0  0
 27 58  1  0  0  0  0
M  END
> <clash_score>
0

> <docking_score>
-8.155959129333496

> <overlap_score>
0.9859398007392883

$$$$
BENZO_461_1
  -OEChem-08232013513D

 49 52  0     0  0  0  0  0  0999 V2000
   14.3659    0.8623   23.4791 C   0  0  0  0  0  0  0  0  0  0  0  0
    4.2970    1.6690   20.8430 C   0  0  0  0  0  0  0  0  0  0  0  0
   13.6964    0.2048   24.5110 C   0  0  0  0  0  0  0  0  0  0  0  0
   13.6441    1.5798   22.5252 C   0  0  0  0  0  0  0  0  0  0  0  0
    4.0980    2.1130   19.5350 C   0  0  0  0  0  0  0  0  0  0  0  0
    5.3360    0.8000   21.1530 C   0  0  0  0  0  0  0  0  0  0  0  0
   12.3050    0.2647   24.5891 C   0  0  0  0  0  0  0  0  0  0  0  0
   12.2527    1.6397   22.6033 C   0  0  0  0  0  0  0  0  0  0  0  0
    8.3310   -2.7170   25.3430 C   0  0  0  0  0  0  0  0  0  0  0  0
   10.2570   -3.5000   24.1350 C   0  0  0  0  0  0  0  0  0  0  0  0
    4.9400    1.7060   18.5060 C   0  0  0  0  0  0  0  0  0  0  0  0
    8.3510   -1.5420   24.6110 C   0  0  0  0  0  0  0  0  0  0  0  0
   10.2760   -2.3270   23.4020 C   0  0  0  0  0  0  0  0  0  0  0  0
    7.6830   -0.5170   18.7600 C   0  0  0  0  0  0  0  0  0  0  0  0
    6.1600    0.3870   20.1140 C   0  0  0  0  0  0  0  0  0  0  0  0
    9.2850   -3.7090   25.1090 C   0  0  0  0  0  0  0  0  0  0  0  0
   11.5831    0.9821   23.6352 C   0  0  0  0  0  0  0  0  0  0  0  0
    7.2210   -0.4620   20.0350 C   0  0  0  0  0  0  0  0  0  0  0  0
    5.9810    0.8330   18.8060 C   0  0  0  0  0  0  0  0  0  0  0  0
    9.3300   -1.3350   23.6390 C   0  0  0  0  0  0  0  0  0  0  0  0
    8.9510    0.1280   21.6880 C   0  0  0  0  0  0  0  0  0  0  0  0
    9.2610   -4.9721   25.8916 C   0  0  0  0  0  0  0  0  0  0  0  0
    8.0810   -0.9750   21.0820 C   0  0  0  0  0  0  0  0  0  0  0  0
   10.0855    1.0467   23.7186 C   0  0  0  0  0  0  0  0  0  0  0  0
    6.9440    0.2550   18.0100 N   0  0  0  0  0  0  0  0  0  0  0  0
    9.4200   -0.0840   22.9530 N   0  0  0  0  0  0  0  0  0  0  0  0
    9.1870    1.1500   21.0630 O   0  0  0  0  0  0  0  0  0  0  0  0
   15.4494    0.8167   23.4192 H   0  0  0  0  0  0  0  0  0  0  0  0
    3.6260    2.0115   21.6299 H   0  0  0  0  0  0  0  0  0  0  0  0
   14.2584   -0.3530   25.2545 H   0  0  0  0  0  0  0  0  0  0  0  0
   14.1651    2.0928   21.7222 H   0  0  0  0  0  0  0  0  0  0  0  0
    3.2721    2.7866   19.3205 H   0  0  0  0  0  0  0  0  0  0  0  0
    5.4862    0.4667   22.1694 H   0  0  0  0  0  0  0  0  0  0  0  0
   11.7918   -0.2509   25.3966 H   0  0  0  0  0  0  0  0  0  0  0  0
   11.6985    2.2009   21.8556 H   0  0  0  0  0  0  0  0  0  0  0  0
    7.5665   -2.8638   26.1066 H   0  0  0  0  0  0  0  0  0  0  0  0
   11.0137   -4.2652   23.9447 H   0  0  0  0  0  0  0  0  0  0  0  0
    4.7828    2.0658   17.4849 H   0  0  0  0  0  0  0  0  0  0  0  0
    7.5948   -0.7788   24.7997 H   0  0  0  0  0  0  0  0  0  0  0  0
   11.0411   -2.1856   22.6358 H   0  0  0  0  0  0  0  0  0  0  0  0
    8.5287   -1.0850   18.3402 H   0  0  0  0  0  0  0  0  0  0  0  0
    8.6398   -5.7223   25.3871 H   0  0  0  0  0  0  0  0  0  0  0  0
   10.2715   -5.3829   26.0145 H   0  0  0  0  0  0  0  0  0  0  0  0
    8.8596   -4.8092   26.9004 H   0  0  0  0  0  0  0  0  0  0  0  0
    7.4884   -1.4160   21.8960 H   0  0  0  0  0  0  0  0  0  0  0  0
    8.7523   -1.7574   20.7004 H   0  0  0  0  0  0  0  0  0  0  0  0
    9.7540    0.9919   24.7613 H   0  0  0  0  0  0  0  0  0  0  0  0
    9.7093    1.9892   23.3069 H   0  0  0  0  0  0  0  0  0  0  0  0
    7.0329    0.4233   17.0175 H   0  0  0  0  0  0  0  0  0  0  0  0
  1  3  1  0  0  0  0
  1  4  2  0  0  0  0
  2  5  1  0  0  0  0
  2  6  2  0  0  0  0
  3  7  2  0  0  0  0
  4  8  1  0  0  0  0
  5 11  2  0  0  0  0
  6 15  1  0  0  0  0
  7 17  1  0  0  0  0
  8 17  2  0  0  0  0
  9 12  2  0  0  0  0
  9 16  1  0  0  0  0
 10 13  1  0  0  0  0
 10 16  2  0  0  0  0
 11 19  1  0  0  0  0
 12 20  1  0  0  0  0
 13 20  2  0  0  0  0
 14 18  2  0  0  0  0
 14 25  1  0  0  0  0
 15 18  1  0  0  0  0
 15 19  2  0  0  0  0
 16 22  1  0  0  0  0
 17 24  1  0  0  0  0
 18 23  1  0  0  0  0
 19 25  1  0  0  0  0
 20 26  1  0  0  0  0
 21 23  1  0  0  0  0
 21 26  1  0  0  0  0
 21 27  2  0  0  0  0
 24 26  1  0  0  0  0
  1 28  1  0  0  0  0
  2 29  1  0  0  0  0
  3 30  1  0  0  0  0
  4 31  1  0  0  0  0
  5 32  1  0  0  0  0
  6 33  1  0  0  0  0
  7 34  1  0  0  0  0
  8 35  1  0  0  0  0
  9 36  1  0  0  0  0
 10 37  1  0  0  0  0
 11 38  1  0  0  0  0
 12 39  1  0  0  0  0
 13 40  1  0  0  0  0
 14 41  1  0  0  0  0
 22 42  1  0  0  0  0
 22 43  1  0  0  0  0
 22 44  1  0  0  0  0
 23 45  1  0  0  0  0
 23 46  1  0  0  0  0
 24 47  1  0  0  0  0
 24 48  1  0  0  0  0
 25 49  1  0  0  0  0
M  END
> <clash_score>
0

> <docking_score>
-8.534724235534668

> <overlap_score>
0.9693478345870972

$$$$
BENZO_460_1
  -OEChem-08232013513D

 46 49  0     0  0  0  0  0  0999 V2000
    4.2970    1.6690   20.8430 C   0  0  0  0  0  0  0  0  0  0  0  0
    4.0980    2.1130   19.5350 C   0  0  0  0  0  0  0  0  0  0  0  0
    5.3360    0.8000   21.1530 C   0  0  0  0  0  0  0  0  0  0  0  0
    8.3310   -2.7170   25.3430 C   0  0  0  0  0  0  0  0  0  0  0  0
   10.2570   -3.5000   24.1350 C   0  0  0  0  0  0  0  0  0  0  0  0
    4.9400    1.7060   18.5060 C   0  0  0  0  0  0  0  0  0  0  0  0
    8.3510   -1.5420   24.6110 C   0  0  0  0  0  0  0  0  0  0  0  0
   10.2760   -2.3270   23.4020 C   0  0  0  0  0  0  0  0  0  0  0  0
   12.3137    1.0303   22.4129 C   0  0  0  0  0  0  0  0  0  0  0  0
    7.6830   -0.5170   18.7600 C   0  0  0  0  0  0  0  0  0  0  0  0
   13.6734    0.9519   22.6194 C   0  0  0  0  0  0  0  0  0  0  0  0
   12.4124    0.8684   24.7295 C   0  0  0  0  0  0  0  0  0  0  0  0
    6.1600    0.3870   20.1140 C   0  0  0  0  0  0  0  0  0  0  0  0
    9.2850   -3.7090   25.1090 C   0  0  0  0  0  0  0  0  0  0  0  0
   11.5831    0.9821   23.6352 C   0  0  0  0  0  0  0  0  0  0  0  0
    7.2210   -0.4620   20.0350 C   0  0  0  0  0  0  0  0  0  0  0  0
    5.9810    0.8330   18.8060 C   0  0  0  0  0  0  0  0  0  0  0  0
    9.3300   -1.3350   23.6390 C   0  0  0  0  0  0  0  0  0  0  0  0
    8.9510    0.1280   21.6880 C   0  0  0  0  0  0  0  0  0  0  0  0
    9.2610   -4.9721   25.8916 C   0  0  0  0  0  0  0  0  0  0  0  0
    8.0810   -0.9750   21.0820 C   0  0  0  0  0  0  0  0  0  0  0  0
   10.0855    1.0467   23.7186 C   0  0  0  0  0  0  0  0  0  0  0  0
    6.9440    0.2550   18.0100 N   0  0  0  0  0  0  0  0  0  0  0  0
    9.4200   -0.0840   22.9530 N   0  0  0  0  0  0  0  0  0  0  0  0
    9.1870    1.1500   21.0630 O   0  0  0  0  0  0  0  0  0  0  0  0
   14.0644    0.8206   24.2814 S   0  0  0  0  0  0  0  0  0  0  0  0
    3.6260    2.0115   21.6299 H   0  0  0  0  0  0  0  0  0  0  0  0
    3.2721    2.7866   19.3205 H   0  0  0  0  0  0  0  0  0  0  0  0
    5.4862    0.4667   22.1694 H   0  0  0  0  0  0  0  0  0  0  0  0
    7.5665   -2.8638   26.1066 H   0  0  0  0  0  0  0  0  0  0  0  0
   11.0137   -4.2652   23.9447 H   0  0  0  0  0  0  0  0  0  0  0  0
    4.7828    2.0658   17.4849 H   0  0  0  0  0  0  0  0  0  0  0  0
    7.5948   -0.7788   24.7997 H   0  0  0  0  0  0  0  0  0  0  0  0
   11.0411   -2.1856   22.6358 H   0  0  0  0  0  0  0  0  0  0  0  0
   11.8685    1.1176   21.4299 H   0  0  0  0  0  0  0  0  0  0  0  0
    8.5287   -1.0850   18.3402 H   0  0  0  0  0  0  0  0  0  0  0  0
   14.4559    0.9647   21.8738 H   0  0  0  0  0  0  0  0  0  0  0  0
   12.1313    0.8097   25.7719 H   0  0  0  0  0  0  0  0  0  0  0  0
    8.6398   -5.7223   25.3871 H   0  0  0  0  0  0  0  0  0  0  0  0
   10.2715   -5.3829   26.0145 H   0  0  0  0  0  0  0  0  0  0  0  0
    8.8596   -4.8092   26.9004 H   0  0  0  0  0  0  0  0  0  0  0  0
    7.4884   -1.4160   21.8960 H   0  0  0  0  0  0  0  0  0  0  0  0
    8.7523   -1.7574   20.7004 H   0  0  0  0  0  0  0  0  0  0  0  0
    9.7540    0.9919   24.7613 H   0  0  0  0  0  0  0  0  0  0  0  0
    9.7093    1.9892   23.3069 H   0  0  0  0  0  0  0  0  0  0  0  0
    7.0329    0.4233   17.0175 H   0  0  0  0  0  0  0  0  0  0  0  0
  1  2  1  0  0  0  0
  1  3  2  0  0  0  0
  2  6  2  0  0  0  0
  3 13  1  0  0  0  0
  4  7  2  0  0  0  0
  4 14  1  0  0  0  0
  5  8  1  0  0  0  0
  5 14  2  0  0  0  0
  6 17  1  0  0  0  0
  7 18  1  0  0  0  0
  8 18  2  0  0  0  0
  9 11  2  0  0  0  0
  9 15  1  0  0  0  0
 10 16  2  0  0  0  0
 10 23  1  0  0  0  0
 11 26  1  0  0  0  0
 12 15  2  0  0  0  0
 12 26  1  0  0  0  0
 13 16  1  0  0  0  0
 13 17  2  0  0  0  0
 14 20  1  0  0  0  0
 15 22  1  0  0  0  0
 16 21  1  0  0  0  0
 17 23  1  0  0  0  0
 18 24  1  0  0  0  0
 19 21  1  0  0  0  0
 19 24  1  0  0  0  0
 19 25  2  0  0  0  0
 22 24  1  0  0  0  0
  1 27  1  0  0  0  0
  2 28  1  0  0  0  0
  3 29  1  0  0  0  0
  4 30  1  0  0  0  0
  5 31  1  0  0  0  0
  6 32  1  0  0  0  0
  7 33  1  0  0  0  0
  8 34  1  0  0  0  0
  9 35  1  0  0  0  0
 10 36  1  0  0  0  0
 11 37  1  0  0  0  0
 12 38  1  0  0  0  0
 20 39  1  0  0  0  0
 20 40  1  0  0  0  0
 20 41  1  0  0  0  0
 21 42  1  0  0  0  0
 21 43  1  0  0  0  0
 22 44  1  0  0  0  0
 22 45  1  0  0  0  0
 23 46  1  0  0  0  0
M  END
> <clash_score>
0

> <docking_score>
-8.861702919006348

> <overlap_score>
0.9437592625617981

$$$$
BENZO_458_1
  -OEChem-08232013513D

 61 65  0     0  0  0  0  0  0999 V2000
    4.2970    1.6690   20.8430 C   0  0  0  0  0  0  0  0  0  0  0  0
    4.0980    2.1130   19.5350 C   0  0  0  0  0  0  0  0  0  0  0  0
   13.5761    2.0159   23.0142 C   0  0  0  0  0  0  0  0  0  0  0  0
    5.3360    0.8000   21.1530 C   0  0  0  0  0  0  0  0  0  0  0  0
   12.1816    1.9962   22.9909 C   0  0  0  0  0  0  0  0  0  0  0  0
    4.9400    1.7060   18.5060 C   0  0  0  0  0  0  0  0  0  0  0  0
    8.3310   -2.7170   25.3430 C   0  0  0  0  0  0  0  0  0  0  0  0
   10.2570   -3.5000   24.1350 C   0  0  0  0  0  0  0  0  0  0  0  0
    8.3510   -1.5420   24.6110 C   0  0  0  0  0  0  0  0  0  0  0  0
   10.2760   -2.3270   23.4020 C   0  0  0  0  0  0  0  0  0  0  0  0
   14.2726    1.1234   23.8291 C   0  0  0  0  0  0  0  0  0  0  0  0
   12.1801    0.1917   24.5974 C   0  0  0  0  0  0  0  0  0  0  0  0
    7.6830   -0.5170   18.7600 C   0  0  0  0  0  0  0  0  0  0  0  0
    6.1600    0.3870   20.1140 C   0  0  0  0  0  0  0  0  0  0  0  0
   11.4836    1.0842   23.7825 C   0  0  0  0  0  0  0  0  0  0  0  0
    7.2210   -0.4620   20.0350 C   0  0  0  0  0  0  0  0  0  0  0  0
    5.9810    0.8330   18.8060 C   0  0  0  0  0  0  0  0  0  0  0  0
    9.2850   -3.7090   25.1090 C   0  0  0  0  0  0  0  0  0  0  0  0
    9.3300   -1.3350   23.6390 C   0  0  0  0  0  0  0  0  0  0  0  0
   13.5747    0.2114   24.6207 C   0  0  0  0  0  0  0  0  0  0  0  0
    8.9510    0.1280   21.6880 C   0  0  0  0  0  0  0  0  0  0  0  0
    7.3162   -6.8835   26.5210 C   0  0  0  0  0  0  0  0  0  0  0  0
    7.3507   -5.5245   27.2240 C   0  0  0  0  0  0  0  0  0  0  0  0
    7.9375   -6.8069   25.1245 C   0  0  0  0  0  0  0  0  0  0  0  0
    8.7638   -4.9418   27.2163 C   0  0  0  0  0  0  0  0  0  0  0  0
    9.3378   -6.1874   25.1659 C   0  0  0  0  0  0  0  0  0  0  0  0
    8.0810   -0.9750   21.0820 C   0  0  0  0  0  0  0  0  0  0  0  0
    9.9825    1.0644   23.7577 C   0  0  0  0  0  0  0  0  0  0  0  0
    6.9440    0.2550   18.0100 N   0  0  0  0  0  0  0  0  0  0  0  0
    9.2639   -4.8860   25.8399 N   0  0  0  0  0  0  0  0  0  0  0  0
    9.4200   -0.0840   22.9530 N   0  0  0  0  0  0  0  0  0  0  0  0
    9.1870    1.1500   21.0630 O   0  0  0  0  0  0  0  0  0  0  0  0
   14.4346   -0.8887   25.6267 Cl  0  0  0  0  0  0  0  0  0  0  0  0
    3.6260    2.0115   21.6299 H   0  0  0  0  0  0  0  0  0  0  0  0
    3.2721    2.7866   19.3205 H   0  0  0  0  0  0  0  0  0  0  0  0
   14.1192    2.7264   22.3978 H   0  0  0  0  0  0  0  0  0  0  0  0
    5.4862    0.4667   22.1694 H   0  0  0  0  0  0  0  0  0  0  0  0
   11.6470    2.6953   22.3530 H   0  0  0  0  0  0  0  0  0  0  0  0
    4.7828    2.0658   17.4849 H   0  0  0  0  0  0  0  0  0  0  0  0
    7.5647   -2.8621   26.1053 H   0  0  0  0  0  0  0  0  0  0  0  0
   11.0144   -4.2642   23.9425 H   0  0  0  0  0  0  0  0  0  0  0  0
    7.5958   -0.7779   24.8006 H   0  0  0  0  0  0  0  0  0  0  0  0
   11.0406   -2.1848   22.6356 H   0  0  0  0  0  0  0  0  0  0  0  0
   15.3595    1.1503   23.8374 H   0  0  0  0  0  0  0  0  0  0  0  0
   11.6313   -0.5178   25.2123 H   0  0  0  0  0  0  0  0  0  0  0  0
    8.5287   -1.0850   18.3402 H   0  0  0  0  0  0  0  0  0  0  0  0
    7.8578   -7.6261   27.1266 H   0  0  0  0  0  0  0  0  0  0  0  0
    6.2773   -7.2358   26.4459 H   0  0  0  0  0  0  0  0  0  0  0  0
    6.6663   -4.8351   26.7223 H   0  0  0  0  0  0  0  0  0  0  0  0
    7.0044   -5.6368   28.2534 H   0  0  0  0  0  0  0  0  0  0  0  0
    7.9946   -7.8119   24.6937 H   0  0  0  0  0  0  0  0  0  0  0  0
    7.2929   -6.2123   24.4668 H   0  0  0  0  0  0  0  0  0  0  0  0
    8.7343   -3.9408   27.6542 H   0  0  0  0  0  0  0  0  0  0  0  0
    9.4243   -5.5632   27.8278 H   0  0  0  0  0  0  0  0  0  0  0  0
   10.0200   -6.8490   25.7011 H   0  0  0  0  0  0  0  0  0  0  0  0
    9.6984   -6.0694   24.1436 H   0  0  0  0  0  0  0  0  0  0  0  0
    7.4781   -1.4136   21.8845 H   0  0  0  0  0  0  0  0  0  0  0  0
    8.7420   -1.7550   20.6889 H   0  0  0  0  0  0  0  0  0  0  0  0
    9.5805    0.9993   24.7746 H   0  0  0  0  0  0  0  0  0  0  0  0
    9.5848    1.9806   23.3087 H   0  0  0  0  0  0  0  0  0  0  0  0
    7.0329    0.4233   17.0175 H   0  0  0  0  0  0  0  0  0  0  0  0
  1  2  1  0  0  0  0
  1  4  2  0  0  0  0
  2  6  2  0  0  0  0
  3  5  2  0  0  0  0
  3 11  1  0  0  0  0
  4 14  1  0  0  0  0
  5 15  1  0  0  0  0
  6 17  1  0  0  0  0
  7  9  2  0  0  0  0
  7 18  1  0  0  0  0
  8 10  1  0  0  0  0
  8 18  2  0  0  0  0
  9 19  1  0  0  0  0
 10 19  2  0  0  0  0
 11 20  2  0  0  0  0
 12 15  2  0  0  0  0
 12 20  1  0  0  0  0
 13 16  2  0  0  0  0
 13 29  1  0  0  0  0
 14 16  1  0  0  0  0
 14 17  2  0  0  0  0
 15 28  1  0  0  0  0
 16 27  1  0  0  0  0
 17 29  1  0  0  0  0
 18 30  1  0  0  0  0
 19 31  1  0  0  0  0
 20 33  1  0  0  0  0
 21 27  1  0  0  0  0
 21 31  1  0  0  0  0
 21 32  2  0  0  0  0
 22 23  1  0  0  0  0
 22 24  1  0  0  0  0
 23 25  1  0  0  0  0
 24 26  1  0  0  0  0
 25 30  1  0  0  0  0
 26 30  1  0  0  0  0
 28 31  1  0  0  0  0
  1 34  1  0  0  0  0
  2 35  1  0  0  0  0
  3 36  1  0  0  0  0
  4 37  1  0  0  0  0
  5 38  1  0  0  0  0
  6 39  1  0  0  0  0
  7 40  1  0  0  0  0
  8 41  1  0  0  0  0
  9 42  1  0  0  0  0
 10 43  1  0  0  0  0
 11 44  1  0  0  0  0
 12 45  1  0  0  0  0
 13 46  1  0  0  0  0
 22 47  1  0  0  0  0
 22 48  1  0  0  0  0
 23 49  1  0  0  0  0
 23 50  1  0  0  0  0
 24 51  1  0  0  0  0
 24 52  1  0  0  0  0
 25 53  1  0  0  0  0
 25 54  1  0  0  0  0
 26 55  1  0  0  0  0
 26 56  1  0  0  0  0
 27 57  1  0  0  0  0
 27 58  1  0  0  0  0
 28 59  1  0  0  0  0
 28 60  1  0  0  0  0
 29 61  1  0  0  0  0
M  END
> <clash_score>
0.6948172307864008

> <docking_score>
-6.653380870819092

> <overlap_score>
1.0086195468902588

$$$$
BENZO_459_1
  -OEChem-08232013513D

 61 65  0     0  0  0  0  0  0999 V2000
    4.2970    1.6690   20.8430 C   0  0  0  0  0  0  0  0  0  0  0  0
    4.0980    2.1130   19.5350 C   0  0  0  0  0  0  0  0  0  0  0  0
    5.3360    0.8000   21.1530 C   0  0  0  0  0  0  0  0  0  0  0  0
    4.9400    1.7060   18.5060 C   0  0  0  0  0  0  0  0  0  0  0  0
    8.3310   -2.7170   25.3430 C   0  0  0  0  0  0  0  0  0  0  0  0
   10.2570   -3.5000   24.1350 C   0  0  0  0  0  0  0  0  0  0  0  0
    8.3510   -1.5420   24.6110 C   0  0  0  0  0  0  0  0  0  0  0  0
   10.2760   -2.3270   23.4020 C   0  0  0  0  0  0  0  0  0  0  0  0
   12.3238    1.8341   24.6271 C   0  0  0  0  0  0  0  0  0  0  0  0
    7.6830   -0.5170   18.7600 C   0  0  0  0  0  0  0  0  0  0  0  0
   12.3457    0.3708   22.9860 C   0  0  0  0  0  0  0  0  0  0  0  0
    6.1600    0.3870   20.1140 C   0  0  0  0  0  0  0  0  0  0  0  0
   11.4836    1.0842   23.7825 C   0  0  0  0  0  0  0  0  0  0  0  0
    7.2210   -0.4620   20.0350 C   0  0  0  0  0  0  0  0  0  0  0  0
    5.9810    0.8330   18.8060 C   0  0  0  0  0  0  0  0  0  0  0  0
    9.2850   -3.7090   25.1090 C   0  0  0  0  0  0  0  0  0  0  0  0
    9.3300   -1.3350   23.6390 C   0  0  0  0  0  0  0  0  0  0  0  0
    8.9510    0.1280   21.6880 C   0  0  0  0  0  0  0  0  0  0  0  0
    7.3162   -6.8835   26.5210 C   0  0  0  0  0  0  0  0  0  0  0  0
    7.3507   -5.5245   27.2240 C   0  0  0  0  0  0  0  0  0  0  0  0
    7.9375   -6.8069   25.1245 C   0  0  0  0  0  0  0  0  0  0  0  0
    8.7638   -4.9418   27.2163 C   0  0  0  0  0  0  0  0  0  0  0  0
    9.3378   -6.1874   25.1659 C   0  0  0  0  0  0  0  0  0  0  0  0
   14.8433    0.2314   22.8407 C   0  0  0  0  0  0  0  0  0  0  0  0
    8.0810   -0.9750   21.0820 C   0  0  0  0  0  0  0  0  0  0  0  0
    9.9825    1.0644   23.7577 C   0  0  0  0  0  0  0  0  0  0  0  0
   13.6202    1.6173   24.3895 N   0  0  0  0  0  0  0  0  0  0  0  0
    6.9440    0.2550   18.0100 N   0  0  0  0  0  0  0  0  0  0  0  0
   13.6010    0.7229   23.3866 N   0  0  0  0  0  0  0  0  0  0  0  0
    9.2639   -4.8860   25.8399 N   0  0  0  0  0  0  0  0  0  0  0  0
    9.4200   -0.0840   22.9530 N   0  0  0  0  0  0  0  0  0  0  0  0
    9.1870    1.1500   21.0630 O   0  0  0  0  0  0  0  0  0  0  0  0
    3.6260    2.0115   21.6299 H   0  0  0  0  0  0  0  0  0  0  0  0
    3.2721    2.7866   19.3205 H   0  0  0  0  0  0  0  0  0  0  0  0
    5.4862    0.4667   22.1694 H   0  0  0  0  0  0  0  0  0  0  0  0
    4.7828    2.0658   17.4849 H   0  0  0  0  0  0  0  0  0  0  0  0
    7.5647   -2.8621   26.1053 H   0  0  0  0  0  0  0  0  0  0  0  0
   11.0144   -4.2642   23.9425 H   0  0  0  0  0  0  0  0  0  0  0  0
    7.5958   -0.7779   24.8006 H   0  0  0  0  0  0  0  0  0  0  0  0
   11.0406   -2.1848   22.6356 H   0  0  0  0  0  0  0  0  0  0  0  0
   12.0479    2.5296   25.4071 H   0  0  0  0  0  0  0  0  0  0  0  0
    8.5287   -1.0850   18.3402 H   0  0  0  0  0  0  0  0  0  0  0  0
   12.1771   -0.3406   22.1889 H   0  0  0  0  0  0  0  0  0  0  0  0
    7.8578   -7.6261   27.1266 H   0  0  0  0  0  0  0  0  0  0  0  0
    6.2773   -7.2358   26.4459 H   0  0  0  0  0  0  0  0  0  0  0  0
    6.6663   -4.8351   26.7223 H   0  0  0  0  0  0  0  0  0  0  0  0
    7.0044   -5.6368   28.2534 H   0  0  0  0  0  0  0  0  0  0  0  0
    7.9946   -7.8119   24.6937 H   0  0  0  0  0  0  0  0  0  0  0  0
    7.2929   -6.2123   24.4668 H   0  0  0  0  0  0  0  0  0  0  0  0
    8.7343   -3.9408   27.6542 H   0  0  0  0  0  0  0  0  0  0  0  0
    9.4243   -5.5632   27.8278 H   0  0  0  0  0  0  0  0  0  0  0  0
   10.0200   -6.8490   25.7011 H   0  0  0  0  0  0  0  0  0  0  0  0
    9.6984   -6.0694   24.1436 H   0  0  0  0  0  0  0  0  0  0  0  0
   15.1368    0.8927   22.0212 H   0  0  0  0  0  0  0  0  0  0  0  0
   15.6084    0.2282   23.6221 H   0  0  0  0  0  0  0  0  0  0  0  0
   14.6992   -0.7897   22.4766 H   0  0  0  0  0  0  0  0  0  0  0  0
    7.4781   -1.4136   21.8845 H   0  0  0  0  0  0  0  0  0  0  0  0
    8.7420   -1.7550   20.6889 H   0  0  0  0  0  0  0  0  0  0  0  0
    9.5805    0.9993   24.7746 H   0  0  0  0  0  0  0  0  0  0  0  0
    9.5848    1.9806   23.3087 H   0  0  0  0  0  0  0  0  0  0  0  0
    7.0329    0.4233   17.0175 H   0  0  0  0  0  0  0  0  0  0  0  0
  1  2  1  0  0  0  0
  1  3  2  0  0  0  0
  2  4  2  0  0  0  0
  3 12  1  0  0  0  0
  4 15  1  0  0  0  0
  5  7  2  0  0  0  0
  5 16  1  0  0  0  0
  6  8  1  0  0  0  0
  6 16  2  0  0  0  0
  7 17  1  0  0  0  0
  8 17  2  0  0  0  0
  9 13  1  0  0  0  0
  9 27  2  0  0  0  0
 10 14  2  0  0  0  0
 10 28  1  0  0  0  0
 11 13  2  0  0  0  0
 11 29  1  0  0  0  0
 12 14  1  0  0  0  0
 12 15  2  0  0  0  0
 13 26  1  0  0  0  0
 14 25  1  0  0  0  0
 15 28  1  0  0  0  0
 16 30  1  0  0  0  0
 17 31  1  0  0  0  0
 18 25  1  0  0  0  0
 18 31  1  0  0  0  0
 18 32  2  0  0  0  0
 19 20  1  0  0  0  0
 19 21  1  0  0  0  0
 20 22  1  0  0  0  0
 21 23  1  0  0  0  0
 22 30  1  0  0  0  0
 23 30  1  0  0  0  0
 24 29  1  0  0  0  0
 26 31  1  0  0  0  0
 27 29  1  0  0  0  0
  1 33  1  0  0  0  0
  2 34  1  0  0  0  0
  3 35  1  0  0  0  0
  4 36  1  0  0  0  0
  5 37  1  0  0  0  0
  6 38  1  0  0  0  0
  7 39  1  0  0  0  0
  8 40  1  0  0  0  0
  9 41  1  0  0  0  0
 10 42  1  0  0  0  0
 11 43  1  0  0  0  0
 19 44  1  0  0  0  0
 19 45  1  0  0  0  0
 20 46  1  0  0  0  0
 20 47  1  0  0  0  0
 21 48  1  0  0  0  0
 21 49  1  0  0  0  0
 22 50  1  0  0  0  0
 22 51  1  0  0  0  0
 23 52  1  0  0  0  0
 23 53  1  0  0  0  0
 24 54  1  0  0  0  0
 24 55  1  0  0  0  0
 24 56  1  0  0  0  0
 25 57  1  0  0  0  0
 25 58  1  0  0  0  0
 26 59  1  0  0  0  0
 26 60  1  0  0  0  0
 28 61  1  0  0  0  0
M  END
> <clash_score>
0

> <docking_score>
-7.582573413848877

> <overlap_score>
0.9949105978012085

$$$$
BENZO_463_1
  -OEChem-08232013513D

 49 52  0     0  0  0  0  0  0999 V2000
    4.2970    1.6690   20.8430 C   0  0  0  0  0  0  0  0  0  0  0  0
    4.0980    2.1130   19.5350 C   0  0  0  0  0  0  0  0  0  0  0  0
    5.3360    0.8000   21.1530 C   0  0  0  0  0  0  0  0  0  0  0  0
    8.3310   -2.7170   25.3430 C   0  0  0  0  0  0  0  0  0  0  0  0
   10.2570   -3.5000   24.1350 C   0  0  0  0  0  0  0  0  0  0  0  0
    4.9400    1.7060   18.5060 C   0  0  0  0  0  0  0  0  0  0  0  0
    8.3510   -1.5420   24.6110 C   0  0  0  0  0  0  0  0  0  0  0  0
   10.2760   -2.3270   23.4020 C   0  0  0  0  0  0  0  0  0  0  0  0
   12.4404    1.7831   22.8572 C   0  0  0  0  0  0  0  0  0  0  0  0
    7.6830   -0.5170   18.7600 C   0  0  0  0  0  0  0  0  0  0  0  0
   12.4250    0.1280   24.3048 C   0  0  0  0  0  0  0  0  0  0  0  0
    6.1600    0.3870   20.1140 C   0  0  0  0  0  0  0  0  0  0  0  0
    9.2850   -3.7090   25.1090 C   0  0  0  0  0  0  0  0  0  0  0  0
   11.5831    0.9821   23.6352 C   0  0  0  0  0  0  0  0  0  0  0  0
    7.2210   -0.4620   20.0350 C   0  0  0  0  0  0  0  0  0  0  0  0
    5.9810    0.8330   18.8060 C   0  0  0  0  0  0  0  0  0  0  0  0
    9.3300   -1.3350   23.6390 C   0  0  0  0  0  0  0  0  0  0  0  0
    8.9510    0.1280   21.6880 C   0  0  0  0  0  0  0  0  0  0  0  0
    9.2610   -4.9721   25.8916 C   0  0  0  0  0  0  0  0  0  0  0  0
   14.9131   -0.1674   24.3368 C   0  0  0  0  0  0  0  0  0  0  0  0
    8.0810   -0.9750   21.0820 C   0  0  0  0  0  0  0  0  0  0  0  0
   10.0855    1.0467   23.7186 C   0  0  0  0  0  0  0  0  0  0  0  0
   13.7281    1.4662   23.0168 N   0  0  0  0  0  0  0  0  0  0  0  0
    6.9440    0.2550   18.0100 N   0  0  0  0  0  0  0  0  0  0  0  0
   13.6862    0.4568   23.9030 N   0  0  0  0  0  0  0  0  0  0  0  0
    9.4200   -0.0840   22.9530 N   0  0  0  0  0  0  0  0  0  0  0  0
    9.1870    1.1500   21.0630 O   0  0  0  0  0  0  0  0  0  0  0  0
    3.6260    2.0115   21.6299 H   0  0  0  0  0  0  0  0  0  0  0  0
    3.2721    2.7866   19.3205 H   0  0  0  0  0  0  0  0  0  0  0  0
    5.4862    0.4667   22.1694 H   0  0  0  0  0  0  0  0  0  0  0  0
    7.5665   -2.8638   26.1066 H   0  0  0  0  0  0  0  0  0  0  0  0
   11.0137   -4.2652   23.9447 H   0  0  0  0  0  0  0  0  0  0  0  0
    4.7828    2.0658   17.4849 H   0  0  0  0  0  0  0  0  0  0  0  0
    7.5948   -0.7788   24.7997 H   0  0  0  0  0  0  0  0  0  0  0  0
   11.0411   -2.1856   22.6358 H   0  0  0  0  0  0  0  0  0  0  0  0
   12.1829    2.5855   22.1804 H   0  0  0  0  0  0  0  0  0  0  0  0
    8.5287   -1.0850   18.3402 H   0  0  0  0  0  0  0  0  0  0  0  0
   12.2388   -0.6651   25.0163 H   0  0  0  0  0  0  0  0  0  0  0  0
    8.6398   -5.7223   25.3871 H   0  0  0  0  0  0  0  0  0  0  0  0
   10.2715   -5.3829   26.0145 H   0  0  0  0  0  0  0  0  0  0  0  0
    8.8596   -4.8092   26.9004 H   0  0  0  0  0  0  0  0  0  0  0  0
   15.1288   -0.9959   23.6570 H   0  0  0  0  0  0  0  0  0  0  0  0
   15.7231    0.5668   24.3139 H   0  0  0  0  0  0  0  0  0  0  0  0
   14.7902   -0.5332   25.3601 H   0  0  0  0  0  0  0  0  0  0  0  0
    7.4884   -1.4160   21.8960 H   0  0  0  0  0  0  0  0  0  0  0  0
    8.7523   -1.7574   20.7004 H   0  0  0  0  0  0  0  0  0  0  0  0
    9.7540    0.9919   24.7613 H   0  0  0  0  0  0  0  0  0  0  0  0
    9.7093    1.9892   23.3069 H   0  0  0  0  0  0  0  0  0  0  0  0
    7.0329    0.4233   17.0175 H   0  0  0  0  0  0  0  0  0  0  0  0
  1  2  1  0  0  0  0
  1  3  2  0  0  0  0
  2  6  2  0  0  0  0
  3 12  1  0  0  0  0
  4  7  2  0  0  0  0
  4 13  1  0  0  0  0
  5  8  1  0  0  0  0
  5 13  2  0  0  0  0
  6 16  1  0  0  0  0
  7 17  1  0  0  0  0
  8 17  2  0  0  0  0
  9 14  1  0  0  0  0
  9 23  2  0  0  0  0
 10 15  2  0  0  0  0
 10 24  1  0  0  0  0
 11 14  2  0  0  0  0
 11 25  1  0  0  0  0
 12 15  1  0  0  0  0
 12 16  2  0  0  0  0
 13 19  1  0  0  0  0
 14 22  1  0  0  0  0
 15 21  1  0  0  0  0
 16 24  1  0  0  0  0
 17 26  1  0  0  0  0
 18 21  1  0  0  0  0
 18 26  1  0  0  0  0
 18 27  2  0  0  0  0
 20 25  1  0  0  0  0
 22 26  1  0  0  0  0
 23 25  1  0  0  0  0
  1 28  1  0  0  0  0
  2 29  1  0  0  0  0
  3 30  1  0  0  0  0
  4 31  1  0  0  0  0
  5 32  1  0  0  0  0
  6 33  1  0  0  0  0
  7 34  1  0  0  0  0
  8 35  1  0  0  0  0
  9 36  1  0  0  0  0
 10 37  1  0  0  0  0
 11 38  1  0  0  0  0
 19 39  1  0  0  0  0
 19 40  1  0  0  0  0
 19 41  1  0  0  0  0
 20 42  1  0  0  0  0
 20 43  1  0  0  0  0
 20 44  1  0  0  0  0
 21 45  1  0  0  0  0
 21 46  1  0  0  0  0
 22 47  1  0  0  0  0
 22 48  1  0  0  0  0
 24 49  1  0  0  0  0
M  END
> <clash_score>
0

> <docking_score>
-8.298460006713867

> <overlap_score>
0.9696325063705444

$$$$
BENZO_465_1
  -OEChem-08232013513D

 50 53  0     0  0  0  0  0  0999 V2000
   14.3659    0.8623   23.4791 C   0  0  0  0  0  0  0  0  0  0  0  0
    4.2970    1.6690   20.8430 C   0  0  0  0  0  0  0  0  0  0  0  0
   13.6964    0.2048   24.5110 C   0  0  0  0  0  0  0  0  0  0  0  0
   13.6441    1.5798   22.5252 C   0  0  0  0  0  0  0  0  0  0  0  0
    4.0980    2.1130   19.5350 C   0  0  0  0  0  0  0  0  0  0  0  0
    5.3360    0.8000   21.1530 C   0  0  0  0  0  0  0  0  0  0  0  0
   12.3050    0.2647   24.5891 C   0  0  0  0  0  0  0  0  0  0  0  0
   12.2527    1.6397   22.6033 C   0  0  0  0  0  0  0  0  0  0  0  0
    4.9400    1.7060   18.5060 C   0  0  0  0  0  0  0  0  0  0  0  0
    8.3510   -1.5420   24.6110 C   0  0  0  0  0  0  0  0  0  0  0  0
   10.2760   -2.3270   23.4020 C   0  0  0  0  0  0  0  0  0  0  0  0
    8.3310   -2.7170   25.3430 C   0  0  0  0  0  0  0  0  0  0  0  0
   10.2570   -3.5000   24.1350 C   0  0  0  0  0  0  0  0  0  0  0  0
    7.6830   -0.5170   18.7600 C   0  0  0  0  0  0  0  0  0  0  0  0
    6.1600    0.3870   20.1140 C   0  0  0  0  0  0  0  0  0  0  0  0
   11.5831    0.9821   23.6352 C   0  0  0  0  0  0  0  0  0  0  0  0
    7.2210   -0.4620   20.0350 C   0  0  0  0  0  0  0  0  0  0  0  0
    5.9810    0.8330   18.8060 C   0  0  0  0  0  0  0  0  0  0  0  0
    9.3300   -1.3350   23.6390 C   0  0  0  0  0  0  0  0  0  0  0  0
    9.2850   -3.7090   25.1090 C   0  0  0  0  0  0  0  0  0  0  0  0
    8.9510    0.1280   21.6880 C   0  0  0  0  0  0  0  0  0  0  0  0
    8.2346   -4.9977   26.8024 C   0  0  0  0  0  0  0  0  0  0  0  0
    8.0810   -0.9750   21.0820 C   0  0  0  0  0  0  0  0  0  0  0  0
   10.0855    1.0467   23.7186 C   0  0  0  0  0  0  0  0  0  0  0  0
    6.9440    0.2550   18.0100 N   0  0  0  0  0  0  0  0  0  0  0  0
    9.4200   -0.0840   22.9530 N   0  0  0  0  0  0  0  0  0  0  0  0
    9.1870    1.1500   21.0630 O   0  0  0  0  0  0  0  0  0  0  0  0
    9.2631   -4.8614   25.8229 O   0  0  0  0  0  0  0  0  0  0  0  0
   15.4494    0.8167   23.4192 H   0  0  0  0  0  0  0  0  0  0  0  0
    3.6260    2.0115   21.6299 H   0  0  0  0  0  0  0  0  0  0  0  0
   14.2584   -0.3530   25.2545 H   0  0  0  0  0  0  0  0  0  0  0  0
   14.1651    2.0928   21.7222 H   0  0  0  0  0  0  0  0  0  0  0  0
    3.2721    2.7866   19.3205 H   0  0  0  0  0  0  0  0  0  0  0  0
    5.4862    0.4667   22.1694 H   0  0  0  0  0  0  0  0  0  0  0  0
   11.7918   -0.2509   25.3966 H   0  0  0  0  0  0  0  0  0  0  0  0
   11.6985    2.2009   21.8556 H   0  0  0  0  0  0  0  0  0  0  0  0
    4.7828    2.0658   17.4849 H   0  0  0  0  0  0  0  0  0  0  0  0
    7.5951   -0.7786   24.8000 H   0  0  0  0  0  0  0  0  0  0  0  0
   11.0406   -2.1866   22.6351 H   0  0  0  0  0  0  0  0  0  0  0  0
    7.5664   -2.8674   26.1055 H   0  0  0  0  0  0  0  0  0  0  0  0
   11.0119   -4.2671   23.9461 H   0  0  0  0  0  0  0  0  0  0  0  0
    8.5287   -1.0850   18.3402 H   0  0  0  0  0  0  0  0  0  0  0  0
    8.3310   -5.9654   27.3007 H   0  0  0  0  0  0  0  0  0  0  0  0
    7.2574   -4.9205   26.3190 H   0  0  0  0  0  0  0  0  0  0  0  0
    8.3382   -4.1986   27.5402 H   0  0  0  0  0  0  0  0  0  0  0  0
    7.4884   -1.4160   21.8960 H   0  0  0  0  0  0  0  0  0  0  0  0
    8.7523   -1.7574   20.7004 H   0  0  0  0  0  0  0  0  0  0  0  0
    9.7540    0.9919   24.7613 H   0  0  0  0  0  0  0  0  0  0  0  0
    9.7093    1.9892   23.3069 H   0  0  0  0  0  0  0  0  0  0  0  0
    7.0329    0.4233   17.0175 H   0  0  0  0  0  0  0  0  0  0  0  0
  1  3  1  0  0  0  0
  1  4  2  0  0  0  0
  2  5  1  0  0  0  0
  2  6  2  0  0  0  0
  3  7  2  0  0  0  0
  4  8  1  0  0  0  0
  5  9  2  0  0  0  0
  6 15  1  0  0  0  0
  7 16  1  0  0  0  0
  8 16  2  0  0  0  0
  9 18  1  0  0  0  0
 10 12  2  0  0  0  0
 10 19  1  0  0  0  0
 11 13  1  0  0  0  0
 11 19  2  0  0  0  0
 12 20  1  0  0  0  0
 13 20  2  0  0  0  0
 14 17  2  0  0  0  0
 14 25  1  0  0  0  0
 15 17  1  0  0  0  0
 15 18  2  0  0  0  0
 16 24  1  0  0  0  0
 17 23  1  0  0  0  0
 18 25  1  0  0  0  0
 19 26  1  0  0  0  0
 20 28  1  0  0  0  0
 21 23  1  0  0  0  0
 21 26  1  0  0  0  0
 21 27  2  0  0  0  0
 22 28  1  0  0  0  0
 24 26  1  0  0  0  0
  1 29  1  0  0  0  0
  2 30  1  0  0  0  0
  3 31  1  0  0  0  0
  4 32  1  0  0  0  0
  5 33  1  0  0  0  0
  6 34  1  0  0  0  0
  7 35  1  0  0  0  0
  8 36  1  0  0  0  0
  9 37  1  0  0  0  0
 10 38  1  0  0  0  0
 11 39  1  0  0  0  0
 12 40  1  0  0  0  0
 13 41  1  0  0  0  0
 14 42  1  0  0  0  0
 22 43  1  0  0  0  0
 22 44  1  0  0  0  0
 22 45  1  0  0  0  0
 23 46  1  0  0  0  0
 23 47  1  0  0  0  0
 24 48  1  0  0  0  0
 24 49  1  0  0  0  0
 25 50  1  0  0  0  0
M  END
> <clash_score>
0

> <docking_score>
-8.243783950805664

> <overlap_score>
0.9932379722595215

$$$$
BENZO_462_1
  -OEChem-08232013513D

 49 52  0     0  0  0  0  0  0999 V2000
    4.2970    1.6690   20.8430 C   0  0  0  0  0  0  0  0  0  0  0  0
    4.0980    2.1130   19.5350 C   0  0  0  0  0  0  0  0  0  0  0  0
   13.6648    1.8045   22.7259 C   0  0  0  0  0  0  0  0  0  0  0  0
    5.3360    0.8000   21.1530 C   0  0  0  0  0  0  0  0  0  0  0  0
   12.2734    1.8632   22.8029 C   0  0  0  0  0  0  0  0  0  0  0  0
    8.3310   -2.7170   25.3430 C   0  0  0  0  0  0  0  0  0  0  0  0
   10.2570   -3.5000   24.1350 C   0  0  0  0  0  0  0  0  0  0  0  0
    4.9400    1.7060   18.5060 C   0  0  0  0  0  0  0  0  0  0  0  0
    8.3510   -1.5420   24.6110 C   0  0  0  0  0  0  0  0  0  0  0  0
   10.2760   -2.3270   23.4020 C   0  0  0  0  0  0  0  0  0  0  0  0
   14.3661    0.8645   23.4812 C   0  0  0  0  0  0  0  0  0  0  0  0
   12.2844    0.0422   24.3906 C   0  0  0  0  0  0  0  0  0  0  0  0
    7.6830   -0.5170   18.7600 C   0  0  0  0  0  0  0  0  0  0  0  0
    6.1600    0.3870   20.1140 C   0  0  0  0  0  0  0  0  0  0  0  0
    9.2850   -3.7090   25.1090 C   0  0  0  0  0  0  0  0  0  0  0  0
   11.5831    0.9821   23.6352 C   0  0  0  0  0  0  0  0  0  0  0  0
    7.2210   -0.4620   20.0350 C   0  0  0  0  0  0  0  0  0  0  0  0
    5.9810    0.8330   18.8060 C   0  0  0  0  0  0  0  0  0  0  0  0
    9.3300   -1.3350   23.6390 C   0  0  0  0  0  0  0  0  0  0  0  0
   13.6759   -0.0166   24.3135 C   0  0  0  0  0  0  0  0  0  0  0  0
    8.9510    0.1280   21.6880 C   0  0  0  0  0  0  0  0  0  0  0  0
    9.2610   -4.9721   25.8916 C   0  0  0  0  0  0  0  0  0  0  0  0
    8.0810   -0.9750   21.0820 C   0  0  0  0  0  0  0  0  0  0  0  0
   10.0855    1.0467   23.7186 C   0  0  0  0  0  0  0  0  0  0  0  0
    6.9440    0.2550   18.0100 N   0  0  0  0  0  0  0  0  0  0  0  0
    9.4200   -0.0840   22.9530 N   0  0  0  0  0  0  0  0  0  0  0  0
    9.1870    1.1500   21.0630 O   0  0  0  0  0  0  0  0  0  0  0  0
   14.5417   -1.1752   25.2461 Cl  0  0  0  0  0  0  0  0  0  0  0  0
    3.6260    2.0115   21.6299 H   0  0  0  0  0  0  0  0  0  0  0  0
    3.2721    2.7866   19.3205 H   0  0  0  0  0  0  0  0  0  0  0  0
   14.2020    2.4909   22.0777 H   0  0  0  0  0  0  0  0  0  0  0  0
    5.4862    0.4667   22.1694 H   0  0  0  0  0  0  0  0  0  0  0  0
   11.7352    2.5989   22.2109 H   0  0  0  0  0  0  0  0  0  0  0  0
    7.5665   -2.8638   26.1066 H   0  0  0  0  0  0  0  0  0  0  0  0
   11.0137   -4.2652   23.9447 H   0  0  0  0  0  0  0  0  0  0  0  0
    4.7828    2.0658   17.4849 H   0  0  0  0  0  0  0  0  0  0  0  0
    7.5948   -0.7788   24.7997 H   0  0  0  0  0  0  0  0  0  0  0  0
   11.0411   -2.1856   22.6358 H   0  0  0  0  0  0  0  0  0  0  0  0
   15.4506    0.8304   23.4113 H   0  0  0  0  0  0  0  0  0  0  0  0
   11.7416   -0.6429   25.0377 H   0  0  0  0  0  0  0  0  0  0  0  0
    8.5287   -1.0850   18.3402 H   0  0  0  0  0  0  0  0  0  0  0  0
    8.6398   -5.7223   25.3871 H   0  0  0  0  0  0  0  0  0  0  0  0
   10.2715   -5.3829   26.0145 H   0  0  0  0  0  0  0  0  0  0  0  0
    8.8596   -4.8092   26.9004 H   0  0  0  0  0  0  0  0  0  0  0  0
    7.4884   -1.4160   21.8960 H   0  0  0  0  0  0  0  0  0  0  0  0
    8.7523   -1.7574   20.7004 H   0  0  0  0  0  0  0  0  0  0  0  0
    9.7540    0.9919   24.7613 H   0  0  0  0  0  0  0  0  0  0  0  0
    9.7093    1.9892   23.3069 H   0  0  0  0  0  0  0  0  0  0  0  0
    7.0329    0.4233   17.0175 H   0  0  0  0  0  0  0  0  0  0  0  0
  1  2  1  0  0  0  0
  1  4  2  0  0  0  0
  2  8  2  0  0  0  0
  3  5  2  0  0  0  0
  3 11  1  0  0  0  0
  4 14  1  0  0  0  0
  5 16  1  0  0  0  0
  6  9  2  0  0  0  0
  6 15  1  0  0  0  0
  7 10  1  0  0  0  0
  7 15  2  0  0  0  0
  8 18  1  0  0  0  0
  9 19  1  0  0  0  0
 10 19  2  0  0  0  0
 11 20  2  0  0  0  0
 12 16  2  0  0  0  0
 12 20  1  0  0  0  0
 13 17  2  0  0  0  0
 13 25  1  0  0  0  0
 14 17  1  0  0  0  0
 14 18  2  0  0  0  0
 15 22  1  0  0  0  0
 16 24  1  0  0  0  0
 17 23  1  0  0  0  0
 18 25  1  0  0  0  0
 19 26  1  0  0  0  0
 20 28  1  0  0  0  0
 21 23  1  0  0  0  0
 21 26  1  0  0  0  0
 21 27  2  0  0  0  0
 24 26  1  0  0  0  0
  1 29  1  0  0  0  0
  2 30  1  0  0  0  0
  3 31  1  0  0  0  0
  4 32  1  0  0  0  0
  5 33  1  0  0  0  0
  6 34  1  0  0  0  0
  7 35  1  0  0  0  0
  8 36  1  0  0  0  0
  9 37  1  0  0  0  0
 10 38  1  0  0  0  0
 11 39  1  0  0  0  0
 12 40  1  0  0  0  0
 13 41  1  0  0  0  0
 22 42  1  0  0  0  0
 22 43  1  0  0  0  0
 22 44  1  0  0  0  0
 23 45  1  0  0  0  0
 23 46  1  0  0  0  0
 24 47  1  0  0  0  0
 24 48  1  0  0  0  0
 25 49  1  0  0  0  0
M  END
> <clash_score>
0.798977050884899

> <docking_score>
-7.6979570388793945

> <overlap_score>
0.9738254547119141

$$$$
BENZO_464_1
  -OEChem-08232013513D

 47 50  0     0  0  0  0  0  0999 V2000
    4.2970    1.6690   20.8430 C   0  0  0  0  0  0  0  0  0  0  0  0
    4.0980    2.1130   19.5350 C   0  0  0  0  0  0  0  0  0  0  0  0
    5.3360    0.8000   21.1530 C   0  0  0  0  0  0  0  0  0  0  0  0
    4.9400    1.7060   18.5060 C   0  0  0  0  0  0  0  0  0  0  0  0
    8.3510   -1.5420   24.6110 C   0  0  0  0  0  0  0  0  0  0  0  0
   10.2760   -2.3270   23.4020 C   0  0  0  0  0  0  0  0  0  0  0  0
    8.3310   -2.7170   25.3430 C   0  0  0  0  0  0  0  0  0  0  0  0
   10.2570   -3.5000   24.1350 C   0  0  0  0  0  0  0  0  0  0  0  0
   12.3137    1.0303   22.4129 C   0  0  0  0  0  0  0  0  0  0  0  0
    7.6830   -0.5170   18.7600 C   0  0  0  0  0  0  0  0  0  0  0  0
   13.6734    0.9519   22.6194 C   0  0  0  0  0  0  0  0  0  0  0  0
   12.4124    0.8684   24.7295 C   0  0  0  0  0  0  0  0  0  0  0  0
    6.1600    0.3870   20.1140 C   0  0  0  0  0  0  0  0  0  0  0  0
   11.5831    0.9821   23.6352 C   0  0  0  0  0  0  0  0  0  0  0  0
    7.2210   -0.4620   20.0350 C   0  0  0  0  0  0  0  0  0  0  0  0
    5.9810    0.8330   18.8060 C   0  0  0  0  0  0  0  0  0  0  0  0
    9.3300   -1.3350   23.6390 C   0  0  0  0  0  0  0  0  0  0  0  0
    9.2850   -3.7090   25.1090 C   0  0  0  0  0  0  0  0  0  0  0  0
    8.9510    0.1280   21.6880 C   0  0  0  0  0  0  0  0  0  0  0  0
    8.2346   -4.9977   26.8024 C   0  0  0  0  0  0  0  0  0  0  0  0
    8.0810   -0.9750   21.0820 C   0  0  0  0  0  0  0  0  0  0  0  0
   10.0855    1.0467   23.7186 C   0  0  0  0  0  0  0  0  0  0  0  0
    6.9440    0.2550   18.0100 N   0  0  0  0  0  0  0  0  0  0  0  0
    9.4200   -0.0840   22.9530 N   0  0  0  0  0  0  0  0  0  0  0  0
    9.1870    1.1500   21.0630 O   0  0  0  0  0  0  0  0  0  0  0  0
    9.2631   -4.8614   25.8229 O   0  0  0  0  0  0  0  0  0  0  0  0
   14.0644    0.8206   24.2814 S   0  0  0  0  0  0  0  0  0  0  0  0
    3.6260    2.0115   21.6299 H   0  0  0  0  0  0  0  0  0  0  0  0
    3.2721    2.7866   19.3205 H   0  0  0  0  0  0  0  0  0  0  0  0
    5.4862    0.4667   22.1694 H   0  0  0  0  0  0  0  0  0  0  0  0
    4.7828    2.0658   17.4849 H   0  0  0  0  0  0  0  0  0  0  0  0
    7.5951   -0.7786   24.8000 H   0  0  0  0  0  0  0  0  0  0  0  0
   11.0406   -2.1866   22.6351 H   0  0  0  0  0  0  0  0  0  0  0  0
    7.5664   -2.8674   26.1055 H   0  0  0  0  0  0  0  0  0  0  0  0
   11.0119   -4.2671   23.9461 H   0  0  0  0  0  0  0  0  0  0  0  0
   11.8685    1.1176   21.4299 H   0  0  0  0  0  0  0  0  0  0  0  0
    8.5287   -1.0850   18.3402 H   0  0  0  0  0  0  0  0  0  0  0  0
   14.4559    0.9647   21.8738 H   0  0  0  0  0  0  0  0  0  0  0  0
   12.1313    0.8097   25.7719 H   0  0  0  0  0  0  0  0  0  0  0  0
    8.3310   -5.9654   27.3007 H   0  0  0  0  0  0  0  0  0  0  0  0
    7.2574   -4.9205   26.3190 H   0  0  0  0  0  0  0  0  0  0  0  0
    8.3382   -4.1986   27.5402 H   0  0  0  0  0  0  0  0  0  0  0  0
    7.4884   -1.4160   21.8960 H   0  0  0  0  0  0  0  0  0  0  0  0
    8.7523   -1.7574   20.7004 H   0  0  0  0  0  0  0  0  0  0  0  0
    9.7540    0.9919   24.7613 H   0  0  0  0  0  0  0  0  0  0  0  0
    9.7093    1.9892   23.3069 H   0  0  0  0  0  0  0  0  0  0  0  0
    7.0329    0.4233   17.0175 H   0  0  0  0  0  0  0  0  0  0  0  0
  1  2  1  0  0  0  0
  1  3  2  0  0  0  0
  2  4  2  0  0  0  0
  3 13  1  0  0  0  0
  4 16  1  0  0  0  0
  5  7  2  0  0  0  0
  5 17  1  0  0  0  0
  6  8  1  0  0  0  0
  6 17  2  0  0  0  0
  7 18  1  0  0  0  0
  8 18  2  0  0  0  0
  9 11  2  0  0  0  0
  9 14  1  0  0  0  0
 10 15  2  0  0  0  0
 10 23  1  0  0  0  0
 11 27  1  0  0  0  0
 12 14  2  0  0  0  0
 12 27  1  0  0  0  0
 13 15  1  0  0  0  0
 13 16  2  0  0  0  0
 14 22  1  0  0  0  0
 15 21  1  0  0  0  0
 16 23  1  0  0  0  0
 17 24  1  0  0  0  0
 18 26  1  0  0  0  0
 19 21  1  0  0  0  0
 19 24  1  0  0  0  0
 19 25  2  0  0  0  0
 20 26  1  0  0  0  0
 22 24  1  0  0  0  0
  1 28  1  0  0  0  0
  2 29  1  0  0  0  0
  3 30  1  0  0  0  0
  4 31  1  0  0  0  0
  5 32  1  0  0  0  0
  6 33  1  0  0  0  0
  7 34  1  0  0  0  0
  8 35  1  0  0  0  0
  9 36  1  0  0  0  0
 10 37  1  0  0  0  0
 11 38  1  0  0  0  0
 12 39  1  0  0  0  0
 20 40  1  0  0  0  0
 20 41  1  0  0  0  0
 20 42  1  0  0  0  0
 21 43  1  0  0  0  0
 21 44  1  0  0  0  0
 22 45  1  0  0  0  0
 22 46  1  0  0  0  0
 23 47  1  0  0  0  0
M  END
> <clash_score>
0

> <docking_score>
-8.570762634277344

> <overlap_score>
0.9677557945251465

$$$$
BENZO_467_1
  -OEChem-08232013513D

 50 53  0     0  0  0  0  0  0999 V2000
    4.2970    1.6690   20.8430 C   0  0  0  0  0  0  0  0  0  0  0  0
    4.0980    2.1130   19.5350 C   0  0  0  0  0  0  0  0  0  0  0  0
    5.3360    0.8000   21.1530 C   0  0  0  0  0  0  0  0  0  0  0  0
    4.9400    1.7060   18.5060 C   0  0  0  0  0  0  0  0  0  0  0  0
    8.3510   -1.5420   24.6110 C   0  0  0  0  0  0  0  0  0  0  0  0
   10.2760   -2.3270   23.4020 C   0  0  0  0  0  0  0  0  0  0  0  0
    8.3310   -2.7170   25.3430 C   0  0  0  0  0  0  0  0  0  0  0  0
   10.2570   -3.5000   24.1350 C   0  0  0  0  0  0  0  0  0  0  0  0
   12.5228    1.6735   24.4232 C   0  0  0  0  0  0  0  0  0  0  0  0
    7.6830   -0.5170   18.7600 C   0  0  0  0  0  0  0  0  0  0  0  0
   12.3442    0.2313   22.7730 C   0  0  0  0  0  0  0  0  0  0  0  0
    6.1600    0.3870   20.1140 C   0  0  0  0  0  0  0  0  0  0  0  0
   11.5831    0.9821   23.6352 C   0  0  0  0  0  0  0  0  0  0  0  0
    7.2210   -0.4620   20.0350 C   0  0  0  0  0  0  0  0  0  0  0  0
    5.9810    0.8330   18.8060 C   0  0  0  0  0  0  0  0  0  0  0  0
    9.3300   -1.3350   23.6390 C   0  0  0  0  0  0  0  0  0  0  0  0
    9.2850   -3.7090   25.1090 C   0  0  0  0  0  0  0  0  0  0  0  0
    8.9510    0.1280   21.6880 C   0  0  0  0  0  0  0  0  0  0  0  0
   14.8132   -0.0460   22.4470 C   0  0  0  0  0  0  0  0  0  0  0  0
    8.2346   -4.9977   26.8024 C   0  0  0  0  0  0  0  0  0  0  0  0
    8.0810   -0.9750   21.0820 C   0  0  0  0  0  0  0  0  0  0  0  0
   10.0855    1.0467   23.7186 C   0  0  0  0  0  0  0  0  0  0  0  0
   13.7844    1.3873   24.0911 N   0  0  0  0  0  0  0  0  0  0  0  0
    6.9440    0.2550   18.0100 N   0  0  0  0  0  0  0  0  0  0  0  0
   13.6429    0.5077   23.0849 N   0  0  0  0  0  0  0  0  0  0  0  0
    9.4200   -0.0840   22.9530 N   0  0  0  0  0  0  0  0  0  0  0  0
    9.1870    1.1500   21.0630 O   0  0  0  0  0  0  0  0  0  0  0  0
    9.2631   -4.8614   25.8229 O   0  0  0  0  0  0  0  0  0  0  0  0
    3.6260    2.0115   21.6299 H   0  0  0  0  0  0  0  0  0  0  0  0
    3.2721    2.7866   19.3205 H   0  0  0  0  0  0  0  0  0  0  0  0
    5.4862    0.4667   22.1694 H   0  0  0  0  0  0  0  0  0  0  0  0
    4.7828    2.0658   17.4849 H   0  0  0  0  0  0  0  0  0  0  0  0
    7.5951   -0.7786   24.8000 H   0  0  0  0  0  0  0  0  0  0  0  0
   11.0406   -2.1866   22.6351 H   0  0  0  0  0  0  0  0  0  0  0  0
    7.5664   -2.8674   26.1055 H   0  0  0  0  0  0  0  0  0  0  0  0
   11.0119   -4.2671   23.9461 H   0  0  0  0  0  0  0  0  0  0  0  0
   12.3432    2.3738   25.2267 H   0  0  0  0  0  0  0  0  0  0  0  0
    8.5287   -1.0850   18.3402 H   0  0  0  0  0  0  0  0  0  0  0  0
   12.0790   -0.4598   21.9844 H   0  0  0  0  0  0  0  0  0  0  0  0
   15.0843    0.6078   21.6139 H   0  0  0  0  0  0  0  0  0  0  0  0
   15.6307   -0.1015   23.1712 H   0  0  0  0  0  0  0  0  0  0  0  0
   14.5856   -1.0529   22.0859 H   0  0  0  0  0  0  0  0  0  0  0  0
    8.3310   -5.9654   27.3007 H   0  0  0  0  0  0  0  0  0  0  0  0
    7.2574   -4.9205   26.3190 H   0  0  0  0  0  0  0  0  0  0  0  0
    8.3382   -4.1986   27.5402 H   0  0  0  0  0  0  0  0  0  0  0  0
    7.4884   -1.4160   21.8960 H   0  0  0  0  0  0  0  0  0  0  0  0
    8.7523   -1.7574   20.7004 H   0  0  0  0  0  0  0  0  0  0  0  0
    9.7540    0.9919   24.7613 H   0  0  0  0  0  0  0  0  0  0  0  0
    9.7093    1.9892   23.3069 H   0  0  0  0  0  0  0  0  0  0  0  0
    7.0329    0.4233   17.0175 H   0  0  0  0  0  0  0  0  0  0  0  0
  1  2  1  0  0  0  0
  1  3  2  0  0  0  0
  2  4  2  0  0  0  0
  3 12  1  0  0  0  0
  4 15  1  0  0  0  0
  5  7  2  0  0  0  0
  5 16  1  0  0  0  0
  6  8  1  0  0  0  0
  6 16  2  0  0  0  0
  7 17  1  0  0  0  0
  8 17  2  0  0  0  0
  9 13  1  0  0  0  0
  9 23  2  0  0  0  0
 10 14  2  0  0  0  0
 10 24  1  0  0  0  0
 11 13  2  0  0  0  0
 11 25  1  0  0  0  0
 12 14  1  0  0  0  0
 12 15  2  0  0  0  0
 13 22  1  0  0  0  0
 14 21  1  0  0  0  0
 15 24  1  0  0  0  0
 16 26  1  0  0  0  0
 17 28  1  0  0  0  0
 18 21  1  0  0  0  0
 18 26  1  0  0  0  0
 18 27  2  0  0  0  0
 19 25  1  0  0  0  0
 20 28  1  0  0  0  0
 22 26  1  0  0  0  0
 23 25  1  0  0  0  0
  1 29  1  0  0  0  0
  2 30  1  0  0  0  0
  3 31  1  0  0  0  0
  4 32  1  0  0  0  0
  5 33  1  0  0  0  0
  6 34  1  0  0  0  0
  7 35  1  0  0  0  0
  8 36  1  0  0  0  0
  9 37  1  0  0  0  0
 10 38  1  0  0  0  0
 11 39  1  0  0  0  0
 19 40  1  0  0  0  0
 19 41  1  0  0  0  0
 19 42  1  0  0  0  0
 20 43  1  0  0  0  0
 20 44  1  0  0  0  0
 20 45  1  0  0  0  0
 21 46  1  0  0  0  0
 21 47  1  0  0  0  0
 22 48  1  0  0  0  0
 22 49  1  0  0  0  0
 24 50  1  0  0  0  0
M  END
> <clash_score>
0

> <docking_score>
-8.404106140136719

> <overlap_score>
0.9775218367576599

$$$$
BENZO_466_1
  -OEChem-08232013513D

 50 53  0     0  0  0  0  0  0999 V2000
    4.2970    1.6690   20.8430 C   0  0  0  0  0  0  0  0  0  0  0  0
    4.0980    2.1130   19.5350 C   0  0  0  0  0  0  0  0  0  0  0  0
   13.7544    1.6837   24.4291 C   0  0  0  0  0  0  0  0  0  0  0  0
    5.3360    0.8000   21.1530 C   0  0  0  0  0  0  0  0  0  0  0  0
   12.3629    1.7441   24.5052 C   0  0  0  0  0  0  0  0  0  0  0  0
    4.9400    1.7060   18.5060 C   0  0  0  0  0  0  0  0  0  0  0  0
    8.3510   -1.5420   24.6110 C   0  0  0  0  0  0  0  0  0  0  0  0
   10.2760   -2.3270   23.4020 C   0  0  0  0  0  0  0  0  0  0  0  0
    8.3310   -2.7170   25.3430 C   0  0  0  0  0  0  0  0  0  0  0  0
   10.2570   -3.5000   24.1350 C   0  0  0  0  0  0  0  0  0  0  0  0
   14.3661    0.8613   23.4830 C   0  0  0  0  0  0  0  0  0  0  0  0
   12.1948    0.1596   22.6891 C   0  0  0  0  0  0  0  0  0  0  0  0
    7.6830   -0.5170   18.7600 C   0  0  0  0  0  0  0  0  0  0  0  0
    6.1600    0.3870   20.1140 C   0  0  0  0  0  0  0  0  0  0  0  0
   11.5831    0.9821   23.6352 C   0  0  0  0  0  0  0  0  0  0  0  0
    7.2210   -0.4620   20.0350 C   0  0  0  0  0  0  0  0  0  0  0  0
    5.9810    0.8330   18.8060 C   0  0  0  0  0  0  0  0  0  0  0  0
    9.3300   -1.3350   23.6390 C   0  0  0  0  0  0  0  0  0  0  0  0
    9.2850   -3.7090   25.1090 C   0  0  0  0  0  0  0  0  0  0  0  0
   13.5863    0.0993   22.6130 C   0  0  0  0  0  0  0  0  0  0  0  0
    8.9510    0.1280   21.6880 C   0  0  0  0  0  0  0  0  0  0  0  0
    8.2346   -4.9977   26.8024 C   0  0  0  0  0  0  0  0  0  0  0  0
    8.0810   -0.9750   21.0820 C   0  0  0  0  0  0  0  0  0  0  0  0
   10.0855    1.0467   23.7186 C   0  0  0  0  0  0  0  0  0  0  0  0
    6.9440    0.2550   18.0100 N   0  0  0  0  0  0  0  0  0  0  0  0
    9.4200   -0.0840   22.9530 N   0  0  0  0  0  0  0  0  0  0  0  0
    9.1870    1.1500   21.0630 O   0  0  0  0  0  0  0  0  0  0  0  0
    9.2631   -4.8614   25.8229 O   0  0  0  0  0  0  0  0  0  0  0  0
   14.3415   -0.9161   21.4466 Cl  0  0  0  0  0  0  0  0  0  0  0  0
    3.6260    2.0115   21.6299 H   0  0  0  0  0  0  0  0  0  0  0  0
    3.2721    2.7866   19.3205 H   0  0  0  0  0  0  0  0  0  0  0  0
   14.3613    2.2771   25.1069 H   0  0  0  0  0  0  0  0  0  0  0  0
    5.4862    0.4667   22.1694 H   0  0  0  0  0  0  0  0  0  0  0  0
   11.8949    2.3876   25.2456 H   0  0  0  0  0  0  0  0  0  0  0  0
    4.7828    2.0658   17.4849 H   0  0  0  0  0  0  0  0  0  0  0  0
    7.5951   -0.7786   24.8000 H   0  0  0  0  0  0  0  0  0  0  0  0
   11.0406   -2.1866   22.6351 H   0  0  0  0  0  0  0  0  0  0  0  0
    7.5664   -2.8674   26.1055 H   0  0  0  0  0  0  0  0  0  0  0  0
   11.0119   -4.2671   23.9461 H   0  0  0  0  0  0  0  0  0  0  0  0
   15.4516    0.8239   23.4353 H   0  0  0  0  0  0  0  0  0  0  0  0
   11.5824   -0.4322   22.0127 H   0  0  0  0  0  0  0  0  0  0  0  0
    8.5287   -1.0850   18.3402 H   0  0  0  0  0  0  0  0  0  0  0  0
    8.3310   -5.9654   27.3007 H   0  0  0  0  0  0  0  0  0  0  0  0
    7.2574   -4.9205   26.3190 H   0  0  0  0  0  0  0  0  0  0  0  0
    8.3382   -4.1986   27.5402 H   0  0  0  0  0  0  0  0  0  0  0  0
    7.4884   -1.4160   21.8960 H   0  0  0  0  0  0  0  0  0  0  0  0
    8.7523   -1.7574   20.7004 H   0  0  0  0  0  0  0  0  0  0  0  0
    9.7540    0.9919   24.7613 H   0  0  0  0  0  0  0  0  0  0  0  0
    9.7093    1.9892   23.3069 H   0  0  0  0  0  0  0  0  0  0  0  0
    7.0329    0.4233   17.0175 H   0  0  0  0  0  0  0  0  0  0  0  0
  1  2  1  0  0  0  0
  1  4  2  0  0  0  0
  2  6  2  0  0  0  0
  3  5  2  0  0  0  0
  3 11  1  0  0  0  0
  4 14  1  0  0  0  0
  5 15  1  0  0  0  0
  6 17  1  0  0  0  0
  7  9  2  0  0  0  0
  7 18  1  0  0  0  0
  8 10  1  0  0  0  0
  8 18  2  0  0  0  0
  9 19  1  0  0  0  0
 10 19  2  0  0  0  0
 11 20  2  0  0  0  0
 12 15  2  0  0  0  0
 12 20  1  0  0  0  0
 13 16  2  0  0  0  0
 13 25  1  0  0  0  0
 14 16  1  0  0  0  0
 14 17  2  0  0  0  0
 15 24  1  0  0  0  0
 16 23  1  0  0  0  0
 17 25  1  0  0  0  0
 18 26  1  0  0  0  0
 19 28  1  0  0  0  0
 20 29  1  0  0  0  0
 21 23  1  0  0  0  0
 21 26  1  0  0  0  0
 21 27  2  0  0  0  0
 22 28  1  0  0  0  0
 24 26  1  0  0  0  0
  1 30  1  0  0  0  0
  2 31  1  0  0  0  0
  3 32  1  0  0  0  0
  4 33  1  0  0  0  0
  5 34  1  0  0  0  0
  6 35  1  0  0  0  0
  7 36  1  0  0  0  0
  8 37  1  0  0  0  0
  9 38  1  0  0  0  0
 10 39  1  0  0  0  0
 11 40  1  0  0  0  0
 12 41  1  0  0  0  0
 13 42  1  0  0  0  0
 22 43  1  0  0  0  0
 22 44  1  0  0  0  0
 22 45  1  0  0  0  0
 23 46  1  0  0  0  0
 23 47  1  0  0  0  0
 24 48  1  0  0  0  0
 24 49  1  0  0  0  0
 25 50  1  0  0  0  0
M  END
> <clash_score>
0

> <docking_score>
-7.480639457702637

> <overlap_score>
0.9724324345588684

$$$$
BENZO_469_1
  -OEChem-08232013513D

 60 64  0     0  0  0  0  0  0999 V2000
   14.3659    0.8623   23.4791 C   0  0  0  0  0  0  0  0  0  0  0  0
    4.2970    1.6690   20.8430 C   0  0  0  0  0  0  0  0  0  0  0  0
   13.6964    0.2048   24.5110 C   0  0  0  0  0  0  0  0  0  0  0  0
   13.6441    1.5798   22.5252 C   0  0  0  0  0  0  0  0  0  0  0  0
    4.0980    2.1130   19.5350 C   0  0  0  0  0  0  0  0  0  0  0  0
    5.3360    0.8000   21.1530 C   0  0  0  0  0  0  0  0  0  0  0  0
   12.3050    0.2647   24.5891 C   0  0  0  0  0  0  0  0  0  0  0  0
   12.2527    1.6397   22.6033 C   0  0  0  0  0  0  0  0  0  0  0  0
    4.9400    1.7060   18.5060 C   0  0  0  0  0  0  0  0  0  0  0  0
    8.3310   -2.7170   25.3430 C   0  0  0  0  0  0  0  0  0  0  0  0
   10.2570   -3.5000   24.1350 C   0  0  0  0  0  0  0  0  0  0  0  0
    8.3510   -1.5420   24.6110 C   0  0  0  0  0  0  0  0  0  0  0  0
   10.2760   -2.3270   23.4020 C   0  0  0  0  0  0  0  0  0  0  0  0
    7.6830   -0.5170   18.7600 C   0  0  0  0  0  0  0  0  0  0  0  0
    6.1600    0.3870   20.1140 C   0  0  0  0  0  0  0  0  0  0  0  0
   11.5831    0.9821   23.6352 C   0  0  0  0  0  0  0  0  0  0  0  0
    7.2210   -0.4620   20.0350 C   0  0  0  0  0  0  0  0  0  0  0  0
    5.9810    0.8330   18.8060 C   0  0  0  0  0  0  0  0  0  0  0  0
    9.2850   -3.7090   25.1090 C   0  0  0  0  0  0  0  0  0  0  0  0
    9.3300   -1.3350   23.6390 C   0  0  0  0  0  0  0  0  0  0  0  0
    8.0645   -5.4725   26.3675 C   0  0  0  0  0  0  0  0  0  0  0  0
    8.9510    0.1280   21.6880 C   0  0  0  0  0  0  0  0  0  0  0  0
    8.2657   -6.7598   27.1473 C   0  0  0  0  0  0  0  0  0  0  0  0
    9.4086   -6.6167   28.1369 C   0  0  0  0  0  0  0  0  0  0  0  0
   10.6976   -6.1494   27.4682 C   0  0  0  0  0  0  0  0  0  0  0  0
   10.4952   -5.7057   26.0203 C   0  0  0  0  0  0  0  0  0  0  0  0
    8.0810   -0.9750   21.0820 C   0  0  0  0  0  0  0  0  0  0  0  0
   10.0855    1.0467   23.7186 C   0  0  0  0  0  0  0  0  0  0  0  0
    6.9440    0.2550   18.0100 N   0  0  0  0  0  0  0  0  0  0  0  0
    9.2623   -4.9266   25.8635 N   0  0  0  0  0  0  0  0  0  0  0  0
    9.4200   -0.0840   22.9530 N   0  0  0  0  0  0  0  0  0  0  0  0
    6.9248   -5.0502   26.1760 O   0  0  0  0  0  0  0  0  0  0  0  0
    9.1870    1.1500   21.0630 O   0  0  0  0  0  0  0  0  0  0  0  0
   15.4494    0.8167   23.4192 H   0  0  0  0  0  0  0  0  0  0  0  0
    3.6260    2.0115   21.6299 H   0  0  0  0  0  0  0  0  0  0  0  0
   14.2584   -0.3530   25.2545 H   0  0  0  0  0  0  0  0  0  0  0  0
   14.1651    2.0928   21.7222 H   0  0  0  0  0  0  0  0  0  0  0  0
    3.2721    2.7866   19.3205 H   0  0  0  0  0  0  0  0  0  0  0  0
    5.4862    0.4667   22.1694 H   0  0  0  0  0  0  0  0  0  0  0  0
   11.7918   -0.2509   25.3966 H   0  0  0  0  0  0  0  0  0  0  0  0
   11.6985    2.2009   21.8556 H   0  0  0  0  0  0  0  0  0  0  0  0
    4.7828    2.0658   17.4849 H   0  0  0  0  0  0  0  0  0  0  0  0
    7.5639   -2.8621   26.1045 H   0  0  0  0  0  0  0  0  0  0  0  0
   11.0141   -4.2644   23.9422 H   0  0  0  0  0  0  0  0  0  0  0  0
    7.5950   -0.7788   24.8007 H   0  0  0  0  0  0  0  0  0  0  0  0
   11.0408   -2.1861   22.6359 H   0  0  0  0  0  0  0  0  0  0  0  0
    8.5287   -1.0850   18.3402 H   0  0  0  0  0  0  0  0  0  0  0  0
    7.3554   -6.9840   27.6817 H   0  0  0  0  0  0  0  0  0  0  0  0
    8.4789   -7.5440   26.4364 H   0  0  0  0  0  0  0  0  0  0  0  0
    9.1273   -5.9035   28.9395 H   0  0  0  0  0  0  0  0  0  0  0  0
    9.5831   -7.5853   28.6473 H   0  0  0  0  0  0  0  0  0  0  0  0
   11.1329   -5.3101   28.0503 H   0  0  0  0  0  0  0  0  0  0  0  0
   11.4601   -6.9574   27.5099 H   0  0  0  0  0  0  0  0  0  0  0  0
   11.3212   -5.0717   25.7155 H   0  0  0  0  0  0  0  0  0  0  0  0
   10.4471   -6.5779   25.3789 H   0  0  0  0  0  0  0  0  0  0  0  0
    7.4884   -1.4160   21.8960 H   0  0  0  0  0  0  0  0  0  0  0  0
    8.7523   -1.7574   20.7004 H   0  0  0  0  0  0  0  0  0  0  0  0
    9.7540    0.9919   24.7613 H   0  0  0  0  0  0  0  0  0  0  0  0
    9.7093    1.9892   23.3069 H   0  0  0  0  0  0  0  0  0  0  0  0
    7.0329    0.4233   17.0175 H   0  0  0  0  0  0  0  0  0  0  0  0
  1  3  1  0  0  0  0
  1  4  2  0  0  0  0
  2  5  1  0  0  0  0
  2  6  2  0  0  0  0
  3  7  2  0  0  0  0
  4  8  1  0  0  0  0
  5  9  2  0  0  0  0
  6 15  1  0  0  0  0
  7 16  1  0  0  0  0
  8 16  2  0  0  0  0
  9 18  1  0  0  0  0
 10 12  2  0  0  0  0
 10 19  1  0  0  0  0
 11 13  1  0  0  0  0
 11 19  2  0  0  0  0
 12 20  1  0  0  0  0
 13 20  2  0  0  0  0
 14 17  2  0  0  0  0
 14 29  1  0  0  0  0
 15 17  1  0  0  0  0
 15 18  2  0  0  0  0
 16 28  1  0  0  0  0
 17 27  1  0  0  0  0
 18 29  1  0  0  0  0
 19 30  1  0  0  0  0
 20 31  1  0  0  0  0
 21 23  1  0  0  0  0
 21 30  1  0  0  0  0
 21 32  2  0  0  0  0
 22 27  1  0  0  0  0
 22 31  1  0  0  0  0
 22 33  2  0  0  0  0
 23 24  1  0  0  0  0
 24 25  1  0  0  0  0
 25 26  1  0  0  0  0
 26 30  1  0  0  0  0
 28 31  1  0  0  0  0
  1 34  1  0  0  0  0
  2 35  1  0  0  0  0
  3 36  1  0  0  0  0
  4 37  1  0  0  0  0
  5 38  1  0  0  0  0
  6 39  1  0  0  0  0
  7 40  1  0  0  0  0
  8 41  1  0  0  0  0
  9 42  1  0  0  0  0
 10 43  1  0  0  0  0
 11 44  1  0  0  0  0
 12 45  1  0  0  0  0
 13 46  1  0  0  0  0
 14 47  1  0  0  0  0
 23 48  1  0  0  0  0
 23 49  1  0  0  0  0
 24 50  1  0  0  0  0
 24 51  1  0  0  0  0
 25 52  1  0  0  0  0
 25 53  1  0  0  0  0
 26 54  1  0  0  0  0
 26 55  1  0  0  0  0
 27 56  1  0  0  0  0
 27 57  1  0  0  0  0
 28 58  1  0  0  0  0
 28 59  1  0  0  0  0
 29 60  1  0  0  0  0
M  END
> <clash_score>
1.2733863753714896

> <docking_score>
-6.731330871582031

> <overlap_score>
1.0135188102722168

$$$$
BENZO_468_1
  -OEChem-08232013513D

 57 61  0     0  0  0  0  0  0999 V2000
    4.2970    1.6690   20.8430 C   0  0  0  0  0  0  0  0  0  0  0  0
    4.0980    2.1130   19.5350 C   0  0  0  0  0  0  0  0  0  0  0  0
    5.3360    0.8000   21.1530 C   0  0  0  0  0  0  0  0  0  0  0  0
    4.9400    1.7060   18.5060 C   0  0  0  0  0  0  0  0  0  0  0  0
    8.3310   -2.7170   25.3430 C   0  0  0  0  0  0  0  0  0  0  0  0
   10.2570   -3.5000   24.1350 C   0  0  0  0  0  0  0  0  0  0  0  0
    8.3510   -1.5420   24.6110 C   0  0  0  0  0  0  0  0  0  0  0  0
   10.2760   -2.3270   23.4020 C   0  0  0  0  0  0  0  0  0  0  0  0
   12.3137    1.0303   22.4129 C   0  0  0  0  0  0  0  0  0  0  0  0
    7.6830   -0.5170   18.7600 C   0  0  0  0  0  0  0  0  0  0  0  0
   13.6734    0.9519   22.6194 C   0  0  0  0  0  0  0  0  0  0  0  0
   12.4124    0.8684   24.7295 C   0  0  0  0  0  0  0  0  0  0  0  0
    6.1600    0.3870   20.1140 C   0  0  0  0  0  0  0  0  0  0  0  0
   11.5831    0.9821   23.6352 C   0  0  0  0  0  0  0  0  0  0  0  0
    7.2210   -0.4620   20.0350 C   0  0  0  0  0  0  0  0  0  0  0  0
    5.9810    0.8330   18.8060 C   0  0  0  0  0  0  0  0  0  0  0  0
    9.2850   -3.7090   25.1090 C   0  0  0  0  0  0  0  0  0  0  0  0
    9.3300   -1.3350   23.6390 C   0  0  0  0  0  0  0  0  0  0  0  0
    8.0645   -5.4725   26.3675 C   0  0  0  0  0  0  0  0  0  0  0  0
    8.9510    0.1280   21.6880 C   0  0  0  0  0  0  0  0  0  0  0  0
    8.2657   -6.7598   27.1473 C   0  0  0  0  0  0  0  0  0  0  0  0
    9.4086   -6.6167   28.1369 C   0  0  0  0  0  0  0  0  0  0  0  0
   10.6976   -6.1494   27.4682 C   0  0  0  0  0  0  0  0  0  0  0  0
   10.4952   -5.7057   26.0203 C   0  0  0  0  0  0  0  0  0  0  0  0
    8.0810   -0.9750   21.0820 C   0  0  0  0  0  0  0  0  0  0  0  0
   10.0855    1.0467   23.7186 C   0  0  0  0  0  0  0  0  0  0  0  0
    6.9440    0.2550   18.0100 N   0  0  0  0  0  0  0  0  0  0  0  0
    9.2623   -4.9266   25.8635 N   0  0  0  0  0  0  0  0  0  0  0  0
    9.4200   -0.0840   22.9530 N   0  0  0  0  0  0  0  0  0  0  0  0
    6.9248   -5.0502   26.1760 O   0  0  0  0  0  0  0  0  0  0  0  0
    9.1870    1.1500   21.0630 O   0  0  0  0  0  0  0  0  0  0  0  0
   14.0644    0.8206   24.2814 S   0  0  0  0  0  0  0  0  0  0  0  0
    3.6260    2.0115   21.6299 H   0  0  0  0  0  0  0  0  0  0  0  0
    3.2721    2.7866   19.3205 H   0  0  0  0  0  0  0  0  0  0  0  0
    5.4862    0.4667   22.1694 H   0  0  0  0  0  0  0  0  0  0  0  0
    4.7828    2.0658   17.4849 H   0  0  0  0  0  0  0  0  0  0  0  0
    7.5639   -2.8621   26.1045 H   0  0  0  0  0  0  0  0  0  0  0  0
   11.0141   -4.2644   23.9422 H   0  0  0  0  0  0  0  0  0  0  0  0
    7.5950   -0.7788   24.8007 H   0  0  0  0  0  0  0  0  0  0  0  0
   11.0408   -2.1861   22.6359 H   0  0  0  0  0  0  0  0  0  0  0  0
   11.8685    1.1176   21.4299 H   0  0  0  0  0  0  0  0  0  0  0  0
    8.5287   -1.0850   18.3402 H   0  0  0  0  0  0  0  0  0  0  0  0
   14.4559    0.9647   21.8738 H   0  0  0  0  0  0  0  0  0  0  0  0
   12.1313    0.8097   25.7719 H   0  0  0  0  0  0  0  0  0  0  0  0
    7.3554   -6.9840   27.6817 H   0  0  0  0  0  0  0  0  0  0  0  0
    8.4789   -7.5440   26.4364 H   0  0  0  0  0  0  0  0  0  0  0  0
    9.1273   -5.9035   28.9395 H   0  0  0  0  0  0  0  0  0  0  0  0
    9.5831   -7.5853   28.6473 H   0  0  0  0  0  0  0  0  0  0  0  0
   11.1329   -5.3101   28.0503 H   0  0  0  0  0  0  0  0  0  0  0  0
   11.4601   -6.9574   27.5099 H   0  0  0  0  0  0  0  0  0  0  0  0
   11.3212   -5.0717   25.7155 H   0  0  0  0  0  0  0  0  0  0  0  0
   10.4471   -6.5779   25.3789 H   0  0  0  0  0  0  0  0  0  0  0  0
    7.4884   -1.4160   21.8960 H   0  0  0  0  0  0  0  0  0  0  0  0
    8.7523   -1.7574   20.7004 H   0  0  0  0  0  0  0  0  0  0  0  0
    9.7540    0.9919   24.7613 H   0  0  0  0  0  0  0  0  0  0  0  0
    9.7093    1.9892   23.3069 H   0  0  0  0  0  0  0  0  0  0  0  0
    7.0329    0.4233   17.0175 H   0  0  0  0  0  0  0  0  0  0  0  0
  1  2  1  0  0  0  0
  1  3  2  0  0  0  0
  2  4  2  0  0  0  0
  3 13  1  0  0  0  0
  4 16  1  0  0  0  0
  5  7  2  0  0  0  0
  5 17  1  0  0  0  0
  6  8  1  0  0  0  0
  6 17  2  0  0  0  0
  7 18  1  0  0  0  0
  8 18  2  0  0  0  0
  9 11  2  0  0  0  0
  9 14  1  0  0  0  0
 10 15  2  0  0  0  0
 10 27  1  0  0  0  0
 11 32  1  0  0  0  0
 12 14  2  0  0  0  0
 12 32  1  0  0  0  0
 13 15  1  0  0  0  0
 13 16  2  0  0  0  0
 14 26  1  0  0  0  0
 15 25  1  0  0  0  0
 16 27  1  0  0  0  0
 17 28  1  0  0  0  0
 18 29  1  0  0  0  0
 19 21  1  0  0  0  0
 19 28  1  0  0  0  0
 19 30  2  0  0  0  0
 20 25  1  0  0  0  0
 20 29  1  0  0  0  0
 20 31  2  0  0  0  0
 21 22  1  0  0  0  0
 22 23  1  0  0  0  0
 23 24  1  0  0  0  0
 24 28  1  0  0  0  0
 26 29  1  0  0  0  0
  1 33  1  0  0  0  0
  2 34  1  0  0  0  0
  3 35  1  0  0  0  0
  4 36  1  0  0  0  0
  5 37  1  0  0  0  0
  6 38  1  0  0  0  0
  7 39  1  0  0  0  0
  8 40  1  0  0  0  0
  9 41  1  0  0  0  0
 10 42  1  0  0  0  0
 11 43  1  0  0  0  0
 12 44  1  0  0  0  0
 21 45  1  0  0  0  0
 21 46  1  0  0  0  0
 22 47  1  0  0  0  0
 22 48  1  0  0  0  0
 23 49  1  0  0  0  0
 23 50  1  0  0  0  0
 24 51  1  0  0  0  0
 24 52  1  0  0  0  0
 25 53  1  0  0  0  0
 25 54  1  0  0  0  0
 26 55  1  0  0  0  0
 26 56  1  0  0  0  0
 27 57  1  0  0  0  0
M  END
> <clash_score>
1.2733863753714896

> <docking_score>
-7.0583086013793945

> <overlap_score>
0.9883224964141846

$$$$
BENZO_473_1
  -OEChem-08232013513D

 59 63  0     0  0  0  0  0  0999 V2000
   14.3659    0.8623   23.4791 C   0  0  0  0  0  0  0  0  0  0  0  0
    4.2970    1.6690   20.8430 C   0  0  0  0  0  0  0  0  0  0  0  0
   13.6964    0.2048   24.5110 C   0  0  0  0  0  0  0  0  0  0  0  0
   13.6441    1.5798   22.5252 C   0  0  0  0  0  0  0  0  0  0  0  0
    4.0980    2.1130   19.5350 C   0  0  0  0  0  0  0  0  0  0  0  0
    5.3360    0.8000   21.1530 C   0  0  0  0  0  0  0  0  0  0  0  0
   12.3050    0.2647   24.5891 C   0  0  0  0  0  0  0  0  0  0  0  0
   12.2527    1.6397   22.6033 C   0  0  0  0  0  0  0  0  0  0  0  0
    4.9400    1.7060   18.5060 C   0  0  0  0  0  0  0  0  0  0  0  0
    8.3310   -2.7170   25.3430 C   0  0  0  0  0  0  0  0  0  0  0  0
   10.2570   -3.5000   24.1350 C   0  0  0  0  0  0  0  0  0  0  0  0
    8.3510   -1.5420   24.6110 C   0  0  0  0  0  0  0  0  0  0  0  0
   10.2760   -2.3270   23.4020 C   0  0  0  0  0  0  0  0  0  0  0  0
    7.6830   -0.5170   18.7600 C   0  0  0  0  0  0  0  0  0  0  0  0
    6.1600    0.3870   20.1140 C   0  0  0  0  0  0  0  0  0  0  0  0
   11.5831    0.9821   23.6352 C   0  0  0  0  0  0  0  0  0  0  0  0
    7.2210   -0.4620   20.0350 C   0  0  0  0  0  0  0  0  0  0  0  0
    5.9810    0.8330   18.8060 C   0  0  0  0  0  0  0  0  0  0  0  0
    9.2850   -3.7090   25.1090 C   0  0  0  0  0  0  0  0  0  0  0  0
    9.3300   -1.3350   23.6390 C   0  0  0  0  0  0  0  0  0  0  0  0
    8.9510    0.1280   21.6880 C   0  0  0  0  0  0  0  0  0  0  0  0
    8.7669   -4.9535   27.2147 C   0  0  0  0  0  0  0  0  0  0  0  0
    9.3044   -6.1862   25.1643 C   0  0  0  0  0  0  0  0  0  0  0  0
    7.3835   -5.5948   27.1997 C   0  0  0  0  0  0  0  0  0  0  0  0
    7.9038   -6.7974   25.2254 C   0  0  0  0  0  0  0  0  0  0  0  0
    8.0810   -0.9750   21.0820 C   0  0  0  0  0  0  0  0  0  0  0  0
   10.0855    1.0467   23.7186 C   0  0  0  0  0  0  0  0  0  0  0  0
    6.9440    0.2550   18.0100 N   0  0  0  0  0  0  0  0  0  0  0  0
    9.2640   -4.8844   25.8389 N   0  0  0  0  0  0  0  0  0  0  0  0
    9.4200   -0.0840   22.9530 N   0  0  0  0  0  0  0  0  0  0  0  0
    9.1870    1.1500   21.0630 O   0  0  0  0  0  0  0  0  0  0  0  0
    7.4500   -6.8853   26.5808 O   0  0  0  0  0  0  0  0  0  0  0  0
   15.4494    0.8167   23.4192 H   0  0  0  0  0  0  0  0  0  0  0  0
    3.6260    2.0115   21.6299 H   0  0  0  0  0  0  0  0  0  0  0  0
   14.2584   -0.3530   25.2545 H   0  0  0  0  0  0  0  0  0  0  0  0
   14.1651    2.0928   21.7222 H   0  0  0  0  0  0  0  0  0  0  0  0
    3.2721    2.7866   19.3205 H   0  0  0  0  0  0  0  0  0  0  0  0
    5.4862    0.4667   22.1694 H   0  0  0  0  0  0  0  0  0  0  0  0
   11.7918   -0.2509   25.3966 H   0  0  0  0  0  0  0  0  0  0  0  0
   11.6986    2.2009   21.8556 H   0  0  0  0  0  0  0  0  0  0  0  0
    4.7828    2.0658   17.4849 H   0  0  0  0  0  0  0  0  0  0  0  0
    7.5647   -2.8621   26.1053 H   0  0  0  0  0  0  0  0  0  0  0  0
   11.0144   -4.2642   23.9425 H   0  0  0  0  0  0  0  0  0  0  0  0
    7.5958   -0.7779   24.8006 H   0  0  0  0  0  0  0  0  0  0  0  0
   11.0406   -2.1848   22.6356 H   0  0  0  0  0  0  0  0  0  0  0  0
    8.5287   -1.0850   18.3402 H   0  0  0  0  0  0  0  0  0  0  0  0
    8.7051   -3.9572   27.6642 H   0  0  0  0  0  0  0  0  0  0  0  0
    9.4498   -5.5647   27.8158 H   0  0  0  0  0  0  0  0  0  0  0  0
   10.0133   -6.8394   25.6805 H   0  0  0  0  0  0  0  0  0  0  0  0
    9.6143   -6.0833   24.1224 H   0  0  0  0  0  0  0  0  0  0  0  0
    7.0291   -5.7367   28.2229 H   0  0  0  0  0  0  0  0  0  0  0  0
    6.6543   -4.9704   26.6757 H   0  0  0  0  0  0  0  0  0  0  0  0
    7.1869   -6.2187   24.6313 H   0  0  0  0  0  0  0  0  0  0  0  0
    7.9268   -7.8124   24.8172 H   0  0  0  0  0  0  0  0  0  0  0  0
    7.4884   -1.4160   21.8960 H   0  0  0  0  0  0  0  0  0  0  0  0
    8.7523   -1.7574   20.7004 H   0  0  0  0  0  0  0  0  0  0  0  0
    9.7540    0.9919   24.7613 H   0  0  0  0  0  0  0  0  0  0  0  0
    9.7093    1.9892   23.3069 H   0  0  0  0  0  0  0  0  0  0  0  0
    7.0329    0.4233   17.0175 H   0  0  0  0  0  0  0  0  0  0  0  0
  1  3  1  0  0  0  0
  1  4  2  0  0  0  0
  2  5  1  0  0  0  0
  2  6  2  0  0  0  0
  3  7  2  0  0  0  0
  4  8  1  0  0  0  0
  5  9  2  0  0  0  0
  6 15  1  0  0  0  0
  7 16  1  0  0  0  0
  8 16  2  0  0  0  0
  9 18  1  0  0  0  0
 10 12  2  0  0  0  0
 10 19  1  0  0  0  0
 11 13  1  0  0  0  0
 11 19  2  0  0  0  0
 12 20  1  0  0  0  0
 13 20  2  0  0  0  0
 14 17  2  0  0  0  0
 14 28  1  0  0  0  0
 15 17  1  0  0  0  0
 15 18  2  0  0  0  0
 16 27  1  0  0  0  0
 17 26  1  0  0  0  0
 18 28  1  0  0  0  0
 19 29  1  0  0  0  0
 20 30  1  0  0  0  0
 21 26  1  0  0  0  0
 21 30  1  0  0  0  0
 21 31  2  0  0  0  0
 22 24  1  0  0  0  0
 22 29  1  0  0  0  0
 23 25  1  0  0  0  0
 23 29  1  0  0  0  0
 24 32  1  0  0  0  0
 25 32  1  0  0  0  0
 27 30  1  0  0  0  0
  1 33  1  0  0  0  0
  2 34  1  0  0  0  0
  3 35  1  0  0  0  0
  4 36  1  0  0  0  0
  5 37  1  0  0  0  0
  6 38  1  0  0  0  0
  7 39  1  0  0  0  0
  8 40  1  0  0  0  0
  9 41  1  0  0  0  0
 10 42  1  0  0  0  0
 11 43  1  0  0  0  0
 12 44  1  0  0  0  0
 13 45  1  0  0  0  0
 14 46  1  0  0  0  0
 22 47  1  0  0  0  0
 22 48  1  0  0  0  0
 23 49  1  0  0  0  0
 23 50  1  0  0  0  0
 24 51  1  0  0  0  0
 24 52  1  0  0  0  0
 25 53  1  0  0  0  0
 25 54  1  0  0  0  0
 26 55  1  0  0  0  0
 26 56  1  0  0  0  0
 27 57  1  0  0  0  0
 27 58  1  0  0  0  0
 28 59  1  0  0  0  0
M  END
> <clash_score>
0

> <docking_score>
-7.972192764282227

> <overlap_score>
1.0141063928604126

$$$$
BENZO_471_1
  -OEChem-08232013513D

 60 64  0     0  0  0  0  0  0999 V2000
    4.2970    1.6690   20.8430 C   0  0  0  0  0  0  0  0  0  0  0  0
    4.0980    2.1130   19.5350 C   0  0  0  0  0  0  0  0  0  0  0  0
    5.3360    0.8000   21.1530 C   0  0  0  0  0  0  0  0  0  0  0  0
    4.9400    1.7060   18.5060 C   0  0  0  0  0  0  0  0  0  0  0  0
    8.3310   -2.7170   25.3430 C   0  0  0  0  0  0  0  0  0  0  0  0
   10.2570   -3.5000   24.1350 C   0  0  0  0  0  0  0  0  0  0  0  0
    8.3510   -1.5420   24.6110 C   0  0  0  0  0  0  0  0  0  0  0  0
   10.2760   -2.3270   23.4020 C   0  0  0  0  0  0  0  0  0  0  0  0
   12.5228    1.6735   24.4232 C   0  0  0  0  0  0  0  0  0  0  0  0
    7.6830   -0.5170   18.7600 C   0  0  0  0  0  0  0  0  0  0  0  0
   12.3442    0.2313   22.7729 C   0  0  0  0  0  0  0  0  0  0  0  0
    6.1600    0.3870   20.1140 C   0  0  0  0  0  0  0  0  0  0  0  0
   11.5831    0.9821   23.6352 C   0  0  0  0  0  0  0  0  0  0  0  0
    7.2210   -0.4620   20.0350 C   0  0  0  0  0  0  0  0  0  0  0  0
    5.9810    0.8330   18.8060 C   0  0  0  0  0  0  0  0  0  0  0  0
    9.2850   -3.7090   25.1090 C   0  0  0  0  0  0  0  0  0  0  0  0
    9.3300   -1.3350   23.6390 C   0  0  0  0  0  0  0  0  0  0  0  0
    8.2938   -5.1734   26.8576 C   0  0  0  0  0  0  0  0  0  0  0  0
    8.9510    0.1280   21.6880 C   0  0  0  0  0  0  0  0  0  0  0  0
    8.4444   -6.5271   27.5287 C   0  0  0  0  0  0  0  0  0  0  0  0
    8.6410   -7.6215   26.4946 C   0  0  0  0  0  0  0  0  0  0  0  0
    9.8017   -7.3235   25.5507 C   0  0  0  0  0  0  0  0  0  0  0  0
   10.3446   -5.9028   25.6975 C   0  0  0  0  0  0  0  0  0  0  0  0
   14.8132   -0.0460   22.4470 C   0  0  0  0  0  0  0  0  0  0  0  0
    8.0810   -0.9750   21.0820 C   0  0  0  0  0  0  0  0  0  0  0  0
   10.0855    1.0467   23.7186 C   0  0  0  0  0  0  0  0  0  0  0  0
   13.7844    1.3873   24.0910 N   0  0  0  0  0  0  0  0  0  0  0  0
    6.9440    0.2550   18.0100 N   0  0  0  0  0  0  0  0  0  0  0  0
   13.6429    0.5077   23.0849 N   0  0  0  0  0  0  0  0  0  0  0  0
    9.2623   -4.9267   25.8636 N   0  0  0  0  0  0  0  0  0  0  0  0
    9.4200   -0.0840   22.9530 N   0  0  0  0  0  0  0  0  0  0  0  0
    7.4280   -4.3931   27.2522 O   0  0  0  0  0  0  0  0  0  0  0  0
    9.1870    1.1500   21.0630 O   0  0  0  0  0  0  0  0  0  0  0  0
    3.6260    2.0115   21.6299 H   0  0  0  0  0  0  0  0  0  0  0  0
    3.2721    2.7866   19.3205 H   0  0  0  0  0  0  0  0  0  0  0  0
    5.4862    0.4667   22.1694 H   0  0  0  0  0  0  0  0  0  0  0  0
    4.7828    2.0658   17.4849 H   0  0  0  0  0  0  0  0  0  0  0  0
    7.5639   -2.8621   26.1045 H   0  0  0  0  0  0  0  0  0  0  0  0
   11.0141   -4.2644   23.9422 H   0  0  0  0  0  0  0  0  0  0  0  0
    7.5950   -0.7788   24.8007 H   0  0  0  0  0  0  0  0  0  0  0  0
   11.0408   -2.1861   22.6359 H   0  0  0  0  0  0  0  0  0  0  0  0
   12.3432    2.3738   25.2267 H   0  0  0  0  0  0  0  0  0  0  0  0
    8.5287   -1.0850   18.3402 H   0  0  0  0  0  0  0  0  0  0  0  0
   12.0790   -0.4598   21.9844 H   0  0  0  0  0  0  0  0  0  0  0  0
    9.3026   -6.4936   28.1820 H   0  0  0  0  0  0  0  0  0  0  0  0
    7.5492   -6.7091   28.1043 H   0  0  0  0  0  0  0  0  0  0  0  0
    8.8147   -8.5939   27.0009 H   0  0  0  0  0  0  0  0  0  0  0  0
    7.7087   -7.7532   25.9094 H   0  0  0  0  0  0  0  0  0  0  0  0
   10.6222   -8.0490   25.7331 H   0  0  0  0  0  0  0  0  0  0  0  0
    9.4885   -7.4986   24.4985 H   0  0  0  0  0  0  0  0  0  0  0  0
   10.9739   -5.8435   26.5794 H   0  0  0  0  0  0  0  0  0  0  0  0
   10.9225   -5.6447   24.8176 H   0  0  0  0  0  0  0  0  0  0  0  0
   15.0843    0.6078   21.6139 H   0  0  0  0  0  0  0  0  0  0  0  0
   15.6307   -0.1015   23.1712 H   0  0  0  0  0  0  0  0  0  0  0  0
   14.5856   -1.0529   22.0859 H   0  0  0  0  0  0  0  0  0  0  0  0
    7.4884   -1.4160   21.8960 H   0  0  0  0  0  0  0  0  0  0  0  0
    8.7523   -1.7574   20.7004 H   0  0  0  0  0  0  0  0  0  0  0  0
    9.7540    0.9919   24.7613 H   0  0  0  0  0  0  0  0  0  0  0  0
    9.7093    1.9892   23.3069 H   0  0  0  0  0  0  0  0  0  0  0  0
    7.0329    0.4233   17.0175 H   0  0  0  0  0  0  0  0  0  0  0  0
  1  2  1  0  0  0  0
  1  3  2  0  0  0  0
  2  4  2  0  0  0  0
  3 12  1  0  0  0  0
  4 15  1  0  0  0  0
  5  7  2  0  0  0  0
  5 16  1  0  0  0  0
  6  8  1  0  0  0  0
  6 16  2  0  0  0  0
  7 17  1  0  0  0  0
  8 17  2  0  0  0  0
  9 13  1  0  0  0  0
  9 27  2  0  0  0  0
 10 14  2  0  0  0  0
 10 28  1  0  0  0  0
 11 13  2  0  0  0  0
 11 29  1  0  0  0  0
 12 14  1  0  0  0  0
 12 15  2  0  0  0  0
 13 26  1  0  0  0  0
 14 25  1  0  0  0  0
 15 28  1  0  0  0  0
 16 30  1  0  0  0  0
 17 31  1  0  0  0  0
 18 20  1  0  0  0  0
 18 30  1  0  0  0  0
 18 32  2  0  0  0  0
 19 25  1  0  0  0  0
 19 31  1  0  0  0  0
 19 33  2  0  0  0  0
 20 21  1  0  0  0  0
 21 22  1  0  0  0  0
 22 23  1  0  0  0  0
 23 30  1  0  0  0  0
 24 29  1  0  0  0  0
 26 31  1  0  0  0  0
 27 29  1  0  0  0  0
  1 34  1  0  0  0  0
  2 35  1  0  0  0  0
  3 36  1  0  0  0  0
  4 37  1  0  0  0  0
  5 38  1  0  0  0  0
  6 39  1  0  0  0  0
  7 40  1  0  0  0  0
  8 41  1  0  0  0  0
  9 42  1  0  0  0  0
 10 43  1  0  0  0  0
 11 44  1  0  0  0  0
 20 45  1  0  0  0  0
 20 46  1  0  0  0  0
 21 47  1  0  0  0  0
 21 48  1  0  0  0  0
 22 49  1  0  0  0  0
 22 50  1  0  0  0  0
 23 51  1  0  0  0  0
 23 52  1  0  0  0  0
 24 53  1  0  0  0  0
 24 54  1  0  0  0  0
 24 55  1  0  0  0  0
 25 56  1  0  0  0  0
 25 57  1  0  0  0  0
 26 58  1  0  0  0  0
 26 59  1  0  0  0  0
 28 60  1  0  0  0  0
M  END
> <clash_score>
0.6927459258755019

> <docking_score>
-6.6638078689575195

> <overlap_score>
0.9991810917854309

$$$$
BENZO_472_1
  -OEChem-08232013513D

 56 60  0     0  0  0  0  0  0999 V2000
    4.2970    1.6690   20.8430 C   0  0  0  0  0  0  0  0  0  0  0  0
    4.0980    2.1130   19.5350 C   0  0  0  0  0  0  0  0  0  0  0  0
    5.3360    0.8000   21.1530 C   0  0  0  0  0  0  0  0  0  0  0  0
    4.9400    1.7060   18.5060 C   0  0  0  0  0  0  0  0  0  0  0  0
    8.3310   -2.7170   25.3430 C   0  0  0  0  0  0  0  0  0  0  0  0
   10.2570   -3.5000   24.1350 C   0  0  0  0  0  0  0  0  0  0  0  0
    8.3510   -1.5420   24.6110 C   0  0  0  0  0  0  0  0  0  0  0  0
   10.2760   -2.3270   23.4020 C   0  0  0  0  0  0  0  0  0  0  0  0
   12.3137    1.0303   22.4129 C   0  0  0  0  0  0  0  0  0  0  0  0
    7.6830   -0.5170   18.7600 C   0  0  0  0  0  0  0  0  0  0  0  0
   13.6734    0.9519   22.6194 C   0  0  0  0  0  0  0  0  0  0  0  0
   12.4124    0.8684   24.7295 C   0  0  0  0  0  0  0  0  0  0  0  0
    6.1600    0.3870   20.1140 C   0  0  0  0  0  0  0  0  0  0  0  0
   11.5831    0.9821   23.6352 C   0  0  0  0  0  0  0  0  0  0  0  0
    7.2210   -0.4620   20.0350 C   0  0  0  0  0  0  0  0  0  0  0  0
    5.9810    0.8330   18.8060 C   0  0  0  0  0  0  0  0  0  0  0  0
    9.2850   -3.7090   25.1090 C   0  0  0  0  0  0  0  0  0  0  0  0
    9.3300   -1.3350   23.6390 C   0  0  0  0  0  0  0  0  0  0  0  0
    8.9510    0.1280   21.6880 C   0  0  0  0  0  0  0  0  0  0  0  0
    8.7669   -4.9535   27.2147 C   0  0  0  0  0  0  0  0  0  0  0  0
    9.3044   -6.1862   25.1643 C   0  0  0  0  0  0  0  0  0  0  0  0
    7.3835   -5.5948   27.1997 C   0  0  0  0  0  0  0  0  0  0  0  0
    7.9038   -6.7974   25.2254 C   0  0  0  0  0  0  0  0  0  0  0  0
    8.0810   -0.9750   21.0820 C   0  0  0  0  0  0  0  0  0  0  0  0
   10.0855    1.0467   23.7186 C   0  0  0  0  0  0  0  0  0  0  0  0
    6.9440    0.2550   18.0100 N   0  0  0  0  0  0  0  0  0  0  0  0
    9.2640   -4.8844   25.8389 N   0  0  0  0  0  0  0  0  0  0  0  0
    9.4200   -0.0840   22.9530 N   0  0  0  0  0  0  0  0  0  0  0  0
    9.1870    1.1500   21.0630 O   0  0  0  0  0  0  0  0  0  0  0  0
    7.4500   -6.8853   26.5808 O   0  0  0  0  0  0  0  0  0  0  0  0
   14.0644    0.8206   24.2814 S   0  0  0  0  0  0  0  0  0  0  0  0
    3.6260    2.0115   21.6299 H   0  0  0  0  0  0  0  0  0  0  0  0
    3.2721    2.7866   19.3205 H   0  0  0  0  0  0  0  0  0  0  0  0
    5.4862    0.4667   22.1694 H   0  0  0  0  0  0  0  0  0  0  0  0
    4.7828    2.0658   17.4849 H   0  0  0  0  0  0  0  0  0  0  0  0
    7.5647   -2.8621   26.1053 H   0  0  0  0  0  0  0  0  0  0  0  0
   11.0144   -4.2642   23.9425 H   0  0  0  0  0  0  0  0  0  0  0  0
    7.5958   -0.7779   24.8006 H   0  0  0  0  0  0  0  0  0  0  0  0
   11.0406   -2.1848   22.6356 H   0  0  0  0  0  0  0  0  0  0  0  0
   11.8685    1.1176   21.4299 H   0  0  0  0  0  0  0  0  0  0  0  0
    8.5287   -1.0850   18.3402 H   0  0  0  0  0  0  0  0  0  0  0  0
   14.4559    0.9647   21.8738 H   0  0  0  0  0  0  0  0  0  0  0  0
   12.1313    0.8097   25.7719 H   0  0  0  0  0  0  0  0  0  0  0  0
    8.7051   -3.9572   27.6642 H   0  0  0  0  0  0  0  0  0  0  0  0
    9.4498   -5.5647   27.8158 H   0  0  0  0  0  0  0  0  0  0  0  0
   10.0133   -6.8394   25.6805 H   0  0  0  0  0  0  0  0  0  0  0  0
    9.6143   -6.0833   24.1224 H   0  0  0  0  0  0  0  0  0  0  0  0
    7.0291   -5.7367   28.2229 H   0  0  0  0  0  0  0  0  0  0  0  0
    6.6543   -4.9704   26.6757 H   0  0  0  0  0  0  0  0  0  0  0  0
    7.1869   -6.2187   24.6313 H   0  0  0  0  0  0  0  0  0  0  0  0
    7.9268   -7.8124   24.8172 H   0  0  0  0  0  0  0  0  0  0  0  0
    7.4884   -1.4160   21.8960 H   0  0  0  0  0  0  0  0  0  0  0  0
    8.7523   -1.7574   20.7004 H   0  0  0  0  0  0  0  0  0  0  0  0
    9.7540    0.9919   24.7613 H   0  0  0  0  0  0  0  0  0  0  0  0
    9.7093    1.9892   23.3069 H   0  0  0  0  0  0  0  0  0  0  0  0
    7.0329    0.4233   17.0175 H   0  0  0  0  0  0  0  0  0  0  0  0
  1  2  1  0  0  0  0
  1  3  2  0  0  0  0
  2  4  2  0  0  0  0
  3 13  1  0  0  0  0
  4 16  1  0  0  0  0
  5  7  2  0  0  0  0
  5 17  1  0  0  0  0
  6  8  1  0  0  0  0
  6 17  2  0  0  0  0
  7 18  1  0  0  0  0
  8 18  2  0  0  0  0
  9 11  2  0  0  0  0
  9 14  1  0  0  0  0
 10 15  2  0  0  0  0
 10 26  1  0  0  0  0
 11 31  1  0  0  0  0
 12 14  2  0  0  0  0
 12 31  1  0  0  0  0
 13 15  1  0  0  0  0
 13 16  2  0  0  0  0
 14 25  1  0  0  0  0
 15 24  1  0  0  0  0
 16 26  1  0  0  0  0
 17 27  1  0  0  0  0
 18 28  1  0  0  0  0
 19 24  1  0  0  0  0
 19 28  1  0  0  0  0
 19 29  2  0  0  0  0
 20 22  1  0  0  0  0
 20 27  1  0  0  0  0
 21 23  1  0  0  0  0
 21 27  1  0  0  0  0
 22 30  1  0  0  0  0
 23 30  1  0  0  0  0
 25 28  1  0  0  0  0
  1 32  1  0  0  0  0
  2 33  1  0  0  0  0
  3 34  1  0  0  0  0
  4 35  1  0  0  0  0
  5 36  1  0  0  0  0
  6 37  1  0  0  0  0
  7 38  1  0  0  0  0
  8 39  1  0  0  0  0
  9 40  1  0  0  0  0
 10 41  1  0  0  0  0
 11 42  1  0  0  0  0
 12 43  1  0  0  0  0
 20 44  1  0  0  0  0
 20 45  1  0  0  0  0
 21 46  1  0  0  0  0
 21 47  1  0  0  0  0
 22 48  1  0  0  0  0
 22 49  1  0  0  0  0
 23 50  1  0  0  0  0
 23 51  1  0  0  0  0
 24 52  1  0  0  0  0
 24 53  1  0  0  0  0
 25 54  1  0  0  0  0
 25 55  1  0  0  0  0
 26 56  1  0  0  0  0
M  END
> <clash_score>
0

> <docking_score>
-8.29918384552002

> <overlap_score>
0.9888661503791809

$$$$
BENZO_470_1
  -OEChem-08232013513D

 60 64  0     0  0  0  0  0  0999 V2000
    4.2970    1.6690   20.8430 C   0  0  0  0  0  0  0  0  0  0  0  0
    4.0980    2.1130   19.5350 C   0  0  0  0  0  0  0  0  0  0  0  0
   13.6648    1.8045   22.7258 C   0  0  0  0  0  0  0  0  0  0  0  0
    5.3360    0.8000   21.1530 C   0  0  0  0  0  0  0  0  0  0  0  0
   12.2734    1.8632   22.8029 C   0  0  0  0  0  0  0  0  0  0  0  0
    4.9400    1.7060   18.5060 C   0  0  0  0  0  0  0  0  0  0  0  0
    8.3310   -2.7170   25.3430 C   0  0  0  0  0  0  0  0  0  0  0  0
   10.2570   -3.5000   24.1350 C   0  0  0  0  0  0  0  0  0  0  0  0
    8.3510   -1.5420   24.6110 C   0  0  0  0  0  0  0  0  0  0  0  0
   10.2760   -2.3270   23.4020 C   0  0  0  0  0  0  0  0  0  0  0  0
   14.3661    0.8645   23.4811 C   0  0  0  0  0  0  0  0  0  0  0  0
   12.2844    0.0422   24.3906 C   0  0  0  0  0  0  0  0  0  0  0  0
    7.6830   -0.5170   18.7600 C   0  0  0  0  0  0  0  0  0  0  0  0
    6.1600    0.3870   20.1140 C   0  0  0  0  0  0  0  0  0  0  0  0
   11.5831    0.9821   23.6352 C   0  0  0  0  0  0  0  0  0  0  0  0
    7.2210   -0.4620   20.0350 C   0  0  0  0  0  0  0  0  0  0  0  0
    5.9810    0.8330   18.8060 C   0  0  0  0  0  0  0  0  0  0  0  0
    9.2850   -3.7090   25.1090 C   0  0  0  0  0  0  0  0  0  0  0  0
    9.3300   -1.3350   23.6390 C   0  0  0  0  0  0  0  0  0  0  0  0
   13.6759   -0.0166   24.3135 C   0  0  0  0  0  0  0  0  0  0  0  0
    8.2938   -5.1732   26.8575 C   0  0  0  0  0  0  0  0  0  0  0  0
    8.9510    0.1280   21.6880 C   0  0  0  0  0  0  0  0  0  0  0  0
    8.4573   -6.5181   27.5431 C   0  0  0  0  0  0  0  0  0  0  0  0
    9.9045   -6.7465   27.9425 C   0  0  0  0  0  0  0  0  0  0  0  0
   10.8613   -6.5883   26.7650 C   0  0  0  0  0  0  0  0  0  0  0  0
   10.1899   -6.0098   25.5204 C   0  0  0  0  0  0  0  0  0  0  0  0
    8.0810   -0.9750   21.0820 C   0  0  0  0  0  0  0  0  0  0  0  0
   10.0855    1.0467   23.7186 C   0  0  0  0  0  0  0  0  0  0  0  0
    6.9440    0.2550   18.0100 N   0  0  0  0  0  0  0  0  0  0  0  0
    9.2623   -4.9266   25.8635 N   0  0  0  0  0  0  0  0  0  0  0  0
    9.4200   -0.0840   22.9530 N   0  0  0  0  0  0  0  0  0  0  0  0
    7.3376   -4.4555   27.1481 O   0  0  0  0  0  0  0  0  0  0  0  0
    9.1870    1.1500   21.0630 O   0  0  0  0  0  0  0  0  0  0  0  0
   14.5417   -1.1752   25.2461 Cl  0  0  0  0  0  0  0  0  0  0  0  0
    3.6260    2.0115   21.6299 H   0  0  0  0  0  0  0  0  0  0  0  0
    3.2721    2.7866   19.3205 H   0  0  0  0  0  0  0  0  0  0  0  0
   14.2020    2.4909   22.0777 H   0  0  0  0  0  0  0  0  0  0  0  0
    5.4862    0.4667   22.1694 H   0  0  0  0  0  0  0  0  0  0  0  0
   11.7352    2.5989   22.2109 H   0  0  0  0  0  0  0  0  0  0  0  0
    4.7828    2.0658   17.4849 H   0  0  0  0  0  0  0  0  0  0  0  0
    7.5639   -2.8621   26.1045 H   0  0  0  0  0  0  0  0  0  0  0  0
   11.0141   -4.2644   23.9422 H   0  0  0  0  0  0  0  0  0  0  0  0
    7.5950   -0.7788   24.8007 H   0  0  0  0  0  0  0  0  0  0  0  0
   11.0408   -2.1861   22.6359 H   0  0  0  0  0  0  0  0  0  0  0  0
   15.4506    0.8304   23.4113 H   0  0  0  0  0  0  0  0  0  0  0  0
   11.7416   -0.6429   25.0377 H   0  0  0  0  0  0  0  0  0  0  0  0
    8.5287   -1.0850   18.3402 H   0  0  0  0  0  0  0  0  0  0  0  0
    7.8359   -6.5322   28.4253 H   0  0  0  0  0  0  0  0  0  0  0  0
    8.1327   -7.2806   26.8509 H   0  0  0  0  0  0  0  0  0  0  0  0
   10.1901   -6.0407   28.7501 H   0  0  0  0  0  0  0  0  0  0  0  0
   10.0151   -7.7592   28.3795 H   0  0  0  0  0  0  0  0  0  0  0  0
   11.7076   -5.9336   27.0616 H   0  0  0  0  0  0  0  0  0  0  0  0
   11.3251   -7.5684   26.5198 H   0  0  0  0  0  0  0  0  0  0  0  0
   10.9442   -5.5947   24.8602 H   0  0  0  0  0  0  0  0  0  0  0  0
    9.6452   -6.7935   25.0070 H   0  0  0  0  0  0  0  0  0  0  0  0
    7.4884   -1.4160   21.8960 H   0  0  0  0  0  0  0  0  0  0  0  0
    8.7523   -1.7574   20.7004 H   0  0  0  0  0  0  0  0  0  0  0  0
    9.7540    0.9919   24.7613 H   0  0  0  0  0  0  0  0  0  0  0  0
    9.7093    1.9892   23.3069 H   0  0  0  0  0  0  0  0  0  0  0  0
    7.0329    0.4233   17.0175 H   0  0  0  0  0  0  0  0  0  0  0  0
  1  2  1  0  0  0  0
  1  4  2  0  0  0  0
  2  6  2  0  0  0  0
  3  5  2  0  0  0  0
  3 11  1  0  0  0  0
  4 14  1  0  0  0  0
  5 15  1  0  0  0  0
  6 17  1  0  0  0  0
  7  9  2  0  0  0  0
  7 18  1  0  0  0  0
  8 10  1  0  0  0  0
  8 18  2  0  0  0  0
  9 19  1  0  0  0  0
 10 19  2  0  0  0  0
 11 20  2  0  0  0  0
 12 15  2  0  0  0  0
 12 20  1  0  0  0  0
 13 16  2  0  0  0  0
 13 29  1  0  0  0  0
 14 16  1  0  0  0  0
 14 17  2  0  0  0  0
 15 28  1  0  0  0  0
 16 27  1  0  0  0  0
 17 29  1  0  0  0  0
 18 30  1  0  0  0  0
 19 31  1  0  0  0  0
 20 34  1  0  0  0  0
 21 23  1  0  0  0  0
 21 30  1  0  0  0  0
 21 32  2  0  0  0  0
 22 27  1  0  0  0  0
 22 31  1  0  0  0  0
 22 33  2  0  0  0  0
 23 24  1  0  0  0  0
 24 25  1  0  0  0  0
 25 26  1  0  0  0  0
 26 30  1  0  0  0  0
 28 31  1  0  0  0  0
  1 35  1  0  0  0  0
  2 36  1  0  0  0  0
  3 37  1  0  0  0  0
  4 38  1  0  0  0  0
  5 39  1  0  0  0  0
  6 40  1  0  0  0  0
  7 41  1  0  0  0  0
  8 42  1  0  0  0  0
  9 43  1  0  0  0  0
 10 44  1  0  0  0  0
 11 45  1  0  0  0  0
 12 46  1  0  0  0  0
 13 47  1  0  0  0  0
 23 48  1  0  0  0  0
 23 49  1  0  0  0  0
 24 50  1  0  0  0  0
 24 51  1  0  0  0  0
 25 52  1  0  0  0  0
 25 53  1  0  0  0  0
 26 54  1  0  0  0  0
 26 55  1  0  0  0  0
 27 56  1  0  0  0  0
 27 57  1  0  0  0  0
 28 58  1  0  0  0  0
 28 59  1  0  0  0  0
 29 60  1  0  0  0  0
M  END
> <clash_score>
2.859641235750648

> <docking_score>
-5.903763771057129

> <overlap_score>
1.0186091661453247

$$$$
BENZO_474_1
  -OEChem-08232013513D

 59 63  0     0  0  0  0  0  0999 V2000
    4.2970    1.6690   20.8430 C   0  0  0  0  0  0  0  0  0  0  0  0
    4.0980    2.1130   19.5350 C   0  0  0  0  0  0  0  0  0  0  0  0
   13.6648    1.8045   22.7259 C   0  0  0  0  0  0  0  0  0  0  0  0
    5.3360    0.8000   21.1530 C   0  0  0  0  0  0  0  0  0  0  0  0
   12.2734    1.8632   22.8029 C   0  0  0  0  0  0  0  0  0  0  0  0
    4.9400    1.7060   18.5060 C   0  0  0  0  0  0  0  0  0  0  0  0
    8.3310   -2.7170   25.3430 C   0  0  0  0  0  0  0  0  0  0  0  0
   10.2570   -3.5000   24.1350 C   0  0  0  0  0  0  0  0  0  0  0  0
    8.3510   -1.5420   24.6110 C   0  0  0  0  0  0  0  0  0  0  0  0
   10.2760   -2.3270   23.4020 C   0  0  0  0  0  0  0  0  0  0  0  0
   14.3661    0.8645   23.4812 C   0  0  0  0  0  0  0  0  0  0  0  0
   12.2844    0.0422   24.3906 C   0  0  0  0  0  0  0  0  0  0  0  0
    7.6830   -0.5170   18.7600 C   0  0  0  0  0  0  0  0  0  0  0  0
    6.1600    0.3870   20.1140 C   0  0  0  0  0  0  0  0  0  0  0  0
   11.5831    0.9821   23.6352 C   0  0  0  0  0  0  0  0  0  0  0  0
    7.2210   -0.4620   20.0350 C   0  0  0  0  0  0  0  0  0  0  0  0
    5.9810    0.8330   18.8060 C   0  0  0  0  0  0  0  0  0  0  0  0
    9.2850   -3.7090   25.1090 C   0  0  0  0  0  0  0  0  0  0  0  0
    9.3300   -1.3350   23.6390 C   0  0  0  0  0  0  0  0  0  0  0  0
   13.6759   -0.0166   24.3135 C   0  0  0  0  0  0  0  0  0  0  0  0
    8.9510    0.1280   21.6880 C   0  0  0  0  0  0  0  0  0  0  0  0
    8.7669   -4.9535   27.2147 C   0  0  0  0  0  0  0  0  0  0  0  0
    9.3044   -6.1862   25.1643 C   0  0  0  0  0  0  0  0  0  0  0  0
    7.3835   -5.5948   27.1997 C   0  0  0  0  0  0  0  0  0  0  0  0
    7.9038   -6.7974   25.2254 C   0  0  0  0  0  0  0  0  0  0  0  0
    8.0810   -0.9750   21.0820 C   0  0  0  0  0  0  0  0  0  0  0  0
   10.0855    1.0467   23.7186 C   0  0  0  0  0  0  0  0  0  0  0  0
    6.9440    0.2550   18.0100 N   0  0  0  0  0  0  0  0  0  0  0  0
    9.2640   -4.8844   25.8389 N   0  0  0  0  0  0  0  0  0  0  0  0
    9.4200   -0.0840   22.9530 N   0  0  0  0  0  0  0  0  0  0  0  0
    9.1870    1.1500   21.0630 O   0  0  0  0  0  0  0  0  0  0  0  0
    7.4500   -6.8853   26.5808 O   0  0  0  0  0  0  0  0  0  0  0  0
   14.5417   -1.1752   25.2461 Cl  0  0  0  0  0  0  0  0  0  0  0  0
    3.6260    2.0115   21.6299 H   0  0  0  0  0  0  0  0  0  0  0  0
    3.2721    2.7866   19.3205 H   0  0  0  0  0  0  0  0  0  0  0  0
   14.2020    2.4909   22.0777 H   0  0  0  0  0  0  0  0  0  0  0  0
    5.4862    0.4667   22.1694 H   0  0  0  0  0  0  0  0  0  0  0  0
   11.7352    2.5989   22.2109 H   0  0  0  0  0  0  0  0  0  0  0  0
    4.7828    2.0658   17.4849 H   0  0  0  0  0  0  0  0  0  0  0  0
    7.5647   -2.8621   26.1053 H   0  0  0  0  0  0  0  0  0  0  0  0
   11.0144   -4.2642   23.9425 H   0  0  0  0  0  0  0  0  0  0  0  0
    7.5958   -0.7779   24.8006 H   0  0  0  0  0  0  0  0  0  0  0  0
   11.0406   -2.1848   22.6356 H   0  0  0  0  0  0  0  0  0  0  0  0
   15.4506    0.8304   23.4113 H   0  0  0  0  0  0  0  0  0  0  0  0
   11.7416   -0.6429   25.0377 H   0  0  0  0  0  0  0  0  0  0  0  0
    8.5287   -1.0850   18.3402 H   0  0  0  0  0  0  0  0  0  0  0  0
    8.7051   -3.9572   27.6642 H   0  0  0  0  0  0  0  0  0  0  0  0
    9.4498   -5.5647   27.8158 H   0  0  0  0  0  0  0  0  0  0  0  0
   10.0133   -6.8394   25.6805 H   0  0  0  0  0  0  0  0  0  0  0  0
    9.6143   -6.0833   24.1224 H   0  0  0  0  0  0  0  0  0  0  0  0
    7.0291   -5.7367   28.2229 H   0  0  0  0  0  0  0  0  0  0  0  0
    6.6543   -4.9704   26.6757 H   0  0  0  0  0  0  0  0  0  0  0  0
    7.1869   -6.2187   24.6313 H   0  0  0  0  0  0  0  0  0  0  0  0
    7.9268   -7.8124   24.8172 H   0  0  0  0  0  0  0  0  0  0  0  0
    7.4884   -1.4160   21.8960 H   0  0  0  0  0  0  0  0  0  0  0  0
    8.7523   -1.7574   20.7004 H   0  0  0  0  0  0  0  0  0  0  0  0
    9.7540    0.9919   24.7613 H   0  0  0  0  0  0  0  0  0  0  0  0
    9.7093    1.9892   23.3069 H   0  0  0  0  0  0  0  0  0  0  0  0
    7.0329    0.4233   17.0175 H   0  0  0  0  0  0  0  0  0  0  0  0
  1  2  1  0  0  0  0
  1  4  2  0  0  0  0
  2  6  2  0  0  0  0
  3  5  2  0  0  0  0
  3 11  1  0  0  0  0
  4 14  1  0  0  0  0
  5 15  1  0  0  0  0
  6 17  1  0  0  0  0
  7  9  2  0  0  0  0
  7 18  1  0  0  0  0
  8 10  1  0  0  0  0
  8 18  2  0  0  0  0
  9 19  1  0  0  0  0
 10 19  2  0  0  0  0
 11 20  2  0  0  0  0
 12 15  2  0  0  0  0
 12 20  1  0  0  0  0
 13 16  2  0  0  0  0
 13 28  1  0  0  0  0
 14 16  1  0  0  0  0
 14 17  2  0  0  0  0
 15 27  1  0  0  0  0
 16 26  1  0  0  0  0
 17 28  1  0  0  0  0
 18 29  1  0  0  0  0
 19 30  1  0  0  0  0
 20 33  1  0  0  0  0
 21 26  1  0  0  0  0
 21 30  1  0  0  0  0
 21 31  2  0  0  0  0
 22 24  1  0  0  0  0
 22 29  1  0  0  0  0
 23 25  1  0  0  0  0
 23 29  1  0  0  0  0
 24 32  1  0  0  0  0
 25 32  1  0  0  0  0
 27 30  1  0  0  0  0
  1 34  1  0  0  0  0
  2 35  1  0  0  0  0
  3 36  1  0  0  0  0
  4 37  1  0  0  0  0
  5 38  1  0  0  0  0
  6 39  1  0  0  0  0
  7 40  1  0  0  0  0
  8 41  1  0  0  0  0
  9 42  1  0  0  0  0
 10 43  1  0  0  0  0
 11 44  1  0  0  0  0
 12 45  1  0  0  0  0
 13 46  1  0  0  0  0
 22 47  1  0  0  0  0
 22 48  1  0  0  0  0
 23 49  1  0  0  0  0
 23 50  1  0  0  0  0
 24 51  1  0  0  0  0
 24 52  1  0  0  0  0
 25 53  1  0  0  0  0
 25 54  1  0  0  0  0
 26 55  1  0  0  0  0
 26 56  1  0  0  0  0
 27 57  1  0  0  0  0
 27 58  1  0  0  0  0
 28 59  1  0  0  0  0
M  END
> <clash_score>
0.79898005181508

> <docking_score>
-7.135427474975586

> <overlap_score>
1.0184773206710815

$$$$
BENZO_475_1
  -OEChem-08232013513D

 59 63  0     0  0  0  0  0  0999 V2000
    4.2970    1.6690   20.8430 C   0  0  0  0  0  0  0  0  0  0  0  0
    4.0980    2.1130   19.5350 C   0  0  0  0  0  0  0  0  0  0  0  0
    5.3360    0.8000   21.1530 C   0  0  0  0  0  0  0  0  0  0  0  0
    4.9400    1.7060   18.5060 C   0  0  0  0  0  0  0  0  0  0  0  0
    8.3310   -2.7170   25.3430 C   0  0  0  0  0  0  0  0  0  0  0  0
   10.2570   -3.5000   24.1350 C   0  0  0  0  0  0  0  0  0  0  0  0
    8.3510   -1.5420   24.6110 C   0  0  0  0  0  0  0  0  0  0  0  0
   10.2760   -2.3270   23.4020 C   0  0  0  0  0  0  0  0  0  0  0  0
   12.5228    1.6735   24.4232 C   0  0  0  0  0  0  0  0  0  0  0  0
    7.6830   -0.5170   18.7600 C   0  0  0  0  0  0  0  0  0  0  0  0
   12.3442    0.2313   22.7730 C   0  0  0  0  0  0  0  0  0  0  0  0
    6.1600    0.3870   20.1140 C   0  0  0  0  0  0  0  0  0  0  0  0
   11.5831    0.9821   23.6352 C   0  0  0  0  0  0  0  0  0  0  0  0
    7.2210   -0.4620   20.0350 C   0  0  0  0  0  0  0  0  0  0  0  0
    5.9810    0.8330   18.8060 C   0  0  0  0  0  0  0  0  0  0  0  0
    9.2850   -3.7090   25.1090 C   0  0  0  0  0  0  0  0  0  0  0  0
    9.3300   -1.3350   23.6390 C   0  0  0  0  0  0  0  0  0  0  0  0
    8.9510    0.1280   21.6880 C   0  0  0  0  0  0  0  0  0  0  0  0
    8.7669   -4.9535   27.2147 C   0  0  0  0  0  0  0  0  0  0  0  0
    9.3044   -6.1862   25.1643 C   0  0  0  0  0  0  0  0  0  0  0  0
    7.3835   -5.5948   27.1997 C   0  0  0  0  0  0  0  0  0  0  0  0
    7.9038   -6.7974   25.2254 C   0  0  0  0  0  0  0  0  0  0  0  0
   14.8132   -0.0460   22.4470 C   0  0  0  0  0  0  0  0  0  0  0  0
    8.0810   -0.9750   21.0820 C   0  0  0  0  0  0  0  0  0  0  0  0
   10.0855    1.0467   23.7186 C   0  0  0  0  0  0  0  0  0  0  0  0
   13.7844    1.3873   24.0911 N   0  0  0  0  0  0  0  0  0  0  0  0
    6.9440    0.2550   18.0100 N   0  0  0  0  0  0  0  0  0  0  0  0
   13.6429    0.5077   23.0849 N   0  0  0  0  0  0  0  0  0  0  0  0
    9.2640   -4.8844   25.8389 N   0  0  0  0  0  0  0  0  0  0  0  0
    9.4200   -0.0840   22.9530 N   0  0  0  0  0  0  0  0  0  0  0  0
    9.1870    1.1500   21.0630 O   0  0  0  0  0  0  0  0  0  0  0  0
    7.4500   -6.8853   26.5808 O   0  0  0  0  0  0  0  0  0  0  0  0
    3.6260    2.0115   21.6299 H   0  0  0  0  0  0  0  0  0  0  0  0
    3.2721    2.7866   19.3205 H   0  0  0  0  0  0  0  0  0  0  0  0
    5.4862    0.4667   22.1694 H   0  0  0  0  0  0  0  0  0  0  0  0
    4.7828    2.0658   17.4849 H   0  0  0  0  0  0  0  0  0  0  0  0
    7.5647   -2.8621   26.1053 H   0  0  0  0  0  0  0  0  0  0  0  0
   11.0144   -4.2642   23.9425 H   0  0  0  0  0  0  0  0  0  0  0  0
    7.5958   -0.7779   24.8006 H   0  0  0  0  0  0  0  0  0  0  0  0
   11.0406   -2.1848   22.6356 H   0  0  0  0  0  0  0  0  0  0  0  0
   12.3432    2.3738   25.2267 H   0  0  0  0  0  0  0  0  0  0  0  0
    8.5287   -1.0850   18.3402 H   0  0  0  0  0  0  0  0  0  0  0  0
   12.0790   -0.4598   21.9844 H   0  0  0  0  0  0  0  0  0  0  0  0
    8.7051   -3.9572   27.6642 H   0  0  0  0  0  0  0  0  0  0  0  0
    9.4498   -5.5647   27.8158 H   0  0  0  0  0  0  0  0  0  0  0  0
   10.0133   -6.8394   25.6805 H   0  0  0  0  0  0  0  0  0  0  0  0
    9.6143   -6.0833   24.1224 H   0  0  0  0  0  0  0  0  0  0  0  0
    7.0291   -5.7367   28.2229 H   0  0  0  0  0  0  0  0  0  0  0  0
    6.6543   -4.9704   26.6757 H   0  0  0  0  0  0  0  0  0  0  0  0
    7.1869   -6.2187   24.6313 H   0  0  0  0  0  0  0  0  0  0  0  0
    7.9268   -7.8124   24.8172 H   0  0  0  0  0  0  0  0  0  0  0  0
   15.0843    0.6078   21.6139 H   0  0  0  0  0  0  0  0  0  0  0  0
   15.6307   -0.1015   23.1712 H   0  0  0  0  0  0  0  0  0  0  0  0
   14.5856   -1.0529   22.0859 H   0  0  0  0  0  0  0  0  0  0  0  0
    7.4884   -1.4160   21.8960 H   0  0  0  0  0  0  0  0  0  0  0  0
    8.7523   -1.7574   20.7004 H   0  0  0  0  0  0  0  0  0  0  0  0
    9.7540    0.9919   24.7613 H   0  0  0  0  0  0  0  0  0  0  0  0
    9.7093    1.9892   23.3069 H   0  0  0  0  0  0  0  0  0  0  0  0
    7.0329    0.4233   17.0175 H   0  0  0  0  0  0  0  0  0  0  0  0
  1  2  1  0  0  0  0
  1  3  2  0  0  0  0
  2  4  2  0  0  0  0
  3 12  1  0  0  0  0
  4 15  1  0  0  0  0
  5  7  2  0  0  0  0
  5 16  1  0  0  0  0
  6  8  1  0  0  0  0
  6 16  2  0  0  0  0
  7 17  1  0  0  0  0
  8 17  2  0  0  0  0
  9 13  1  0  0  0  0
  9 26  2  0  0  0  0
 10 14  2  0  0  0  0
 10 27  1  0  0  0  0
 11 13  2  0  0  0  0
 11 28  1  0  0  0  0
 12 14  1  0  0  0  0
 12 15  2  0  0  0  0
 13 25  1  0  0  0  0
 14 24  1  0  0  0  0
 15 27  1  0  0  0  0
 16 29  1  0  0  0  0
 17 30  1  0  0  0  0
 18 24  1  0  0  0  0
 18 30  1  0  0  0  0
 18 31  2  0  0  0  0
 19 21  1  0  0  0  0
 19 29  1  0  0  0  0
 20 22  1  0  0  0  0
 20 29  1  0  0  0  0
 21 32  1  0  0  0  0
 22 32  1  0  0  0  0
 23 28  1  0  0  0  0
 25 30  1  0  0  0  0
 26 28  1  0  0  0  0
  1 33  1  0  0  0  0
  2 34  1  0  0  0  0
  3 35  1  0  0  0  0
  4 36  1  0  0  0  0
  5 37  1  0  0  0  0
  6 38  1  0  0  0  0
  7 39  1  0  0  0  0
  8 40  1  0  0  0  0
  9 41  1  0  0  0  0
 10 42  1  0  0  0  0
 11 43  1  0  0  0  0
 19 44  1  0  0  0  0
 19 45  1  0  0  0  0
 20 46  1  0  0  0  0
 20 47  1  0  0  0  0
 21 48  1  0  0  0  0
 21 49  1  0  0  0  0
 22 50  1  0  0  0  0
 22 51  1  0  0  0  0
 23 52  1  0  0  0  0
 23 53  1  0  0  0  0
 23 54  1  0  0  0  0
 24 55  1  0  0  0  0
 24 56  1  0  0  0  0
 25 57  1  0  0  0  0
 25 58  1  0  0  0  0
 27 59  1  0  0  0  0
M  END
> <clash_score>
0

> <docking_score>
-8.13251781463623

> <overlap_score>
0.998500645160675

$$$$
BENZO_476_1
  -OEChem-08232013513D

 49 52  0     0  0  0  0  0  0999 V2000
    8.3510   -1.5420   24.6110 C   0  0  0  0  0  0  0  0  0  0  0  0
   10.2760   -2.3270   23.4020 C   0  0  0  0  0  0  0  0  0  0  0  0
    8.3310   -2.7170   25.3430 C   0  0  0  0  0  0  0  0  0  0  0  0
   10.2570   -3.5000   24.1350 C   0  0  0  0  0  0  0  0  0  0  0  0
   12.3113    1.0126   22.4091 C   0  0  0  0  0  0  0  0  0  0  0  0
   13.6706    0.9225   22.6131 C   0  0  0  0  0  0  0  0  0  0  0  0
   12.4125    0.8479   24.7253 C   0  0  0  0  0  0  0  0  0  0  0  0
   11.5824    0.9695   23.6326 C   0  0  0  0  0  0  0  0  0  0  0  0
    9.3300   -1.3350   23.6390 C   0  0  0  0  0  0  0  0  0  0  0  0
    9.2850   -3.7090   25.1090 C   0  0  0  0  0  0  0  0  0  0  0  0
    5.9810    0.8330   18.8060 C   0  0  0  0  0  0  0  0  0  0  0  0
    7.2210   -0.4620   20.0350 C   0  0  0  0  0  0  0  0  0  0  0  0
    4.9400    1.7060   18.5060 C   0  0  0  0  0  0  0  0  0  0  0  0
    4.0980    2.1130   19.5350 C   0  0  0  0  0  0  0  0  0  0  0  0
    4.2970    1.6690   20.8430 C   0  0  0  0  0  0  0  0  0  0  0  0
    5.3360    0.8000   21.1530 C   0  0  0  0  0  0  0  0  0  0  0  0
    8.9510    0.1280   21.6880 C   0  0  0  0  0  0  0  0  0  0  0  0
    8.2504   -5.1193   26.8645 C   0  0  0  0  0  0  0  0  0  0  0  0
   10.2433   -5.9398   25.5981 C   0  0  0  0  0  0  0  0  0  0  0  0
   10.0855    1.0467   23.7186 C   0  0  0  0  0  0  0  0  0  0  0  0
    8.0810   -0.9750   21.0820 C   0  0  0  0  0  0  0  0  0  0  0  0
    6.9440    0.2550   18.0100 N   0  0  0  0  0  0  0  0  0  0  0  0
    7.6830   -0.5170   18.7600 N   0  0  0  0  0  0  0  0  0  0  0  0
    6.1600    0.3870   20.1140 N   0  0  0  0  0  0  0  0  0  0  0  0
    9.4200   -0.0840   22.9530 N   0  0  0  0  0  0  0  0  0  0  0  0
    9.2624   -4.9028   25.8498 N   0  0  0  0  0  0  0  0  0  0  0  0
    9.1870    1.1500   21.0630 O   0  0  0  0  0  0  0  0  0  0  0  0
   14.0633    0.7865   24.2744 S   0  0  0  0  0  0  0  0  0  0  0  0
    7.5947   -0.7787   24.7997 H   0  0  0  0  0  0  0  0  0  0  0  0
   11.0404   -2.1861   22.6352 H   0  0  0  0  0  0  0  0  0  0  0  0
    7.5641   -2.8632   26.1047 H   0  0  0  0  0  0  0  0  0  0  0  0
   11.0135   -4.2647   23.9425 H   0  0  0  0  0  0  0  0  0  0  0  0
   11.8651    1.1045   21.4269 H   0  0  0  0  0  0  0  0  0  0  0  0
   14.4519    0.9293   21.8663 H   0  0  0  0  0  0  0  0  0  0  0  0
   12.1327    0.7906   25.7682 H   0  0  0  0  0  0  0  0  0  0  0  0
    4.7732    2.0709   17.5073 H   0  0  0  0  0  0  0  0  0  0  0  0
    3.2823    2.7848   19.2995 H   0  0  0  0  0  0  0  0  0  0  0  0
    3.6338    1.9971   21.6547 H   0  0  0  0  0  0  0  0  0  0  0  0
    5.5079    0.4527   22.1466 H   0  0  0  0  0  0  0  0  0  0  0  0
    8.4006   -6.1053   27.3283 H   0  0  0  0  0  0  0  0  0  0  0  0
    8.3291   -4.3367   27.6335 H   0  0  0  0  0  0  0  0  0  0  0  0
    7.2532   -5.0798   26.4019 H   0  0  0  0  0  0  0  0  0  0  0  0
   10.0612   -6.7891   26.2731 H   0  0  0  0  0  0  0  0  0  0  0  0
   10.1607   -6.2769   24.5543 H   0  0  0  0  0  0  0  0  0  0  0  0
   11.2528   -5.5404   25.7757 H   0  0  0  0  0  0  0  0  0  0  0  0
    9.7554    0.9938   24.7618 H   0  0  0  0  0  0  0  0  0  0  0  0
    9.7166    1.9927   23.3083 H   0  0  0  0  0  0  0  0  0  0  0  0
    7.4889   -1.4161   21.8965 H   0  0  0  0  0  0  0  0  0  0  0  0
    8.7528   -1.7575   20.7010 H   0  0  0  0  0  0  0  0  0  0  0  0
  1  3  2  0  0  0  0
  1  9  1  0  0  0  0
  2  4  1  0  0  0  0
  2  9  2  0  0  0  0
  3 10  1  0  0  0  0
  4 10  2  0  0  0  0
  5  6  2  0  0  0  0
  5  8  1  0  0  0  0
  6 28  1  0  0  0  0
  7  8  2  0  0  0  0
  7 28  1  0  0  0  0
  8 20  1  0  0  0  0
  9 25  1  0  0  0  0
 10 26  1  0  0  0  0
 11 13  1  0  0  0  0
 11 22  2  0  0  0  0
 11 24  1  0  0  0  0
 12 21  1  0  0  0  0
 12 23  2  0  0  0  0
 12 24  1  0  0  0  0
 13 14  2  0  0  0  0
 14 15  1  0  0  0  0
 15 16  2  0  0  0  0
 16 24  1  0  0  0  0
 17 21  1  0  0  0  0
 17 25  1  0  0  0  0
 17 27  2  0  0  0  0
 18 26  1  0  0  0  0
 19 26  1  0  0  0  0
 20 25  1  0  0  0  0
 22 23  1  0  0  0  0
  1 29  1  0  0  0  0
  2 30  1  0  0  0  0
  3 31  1  0  0  0  0
  4 32  1  0  0  0  0
  5 33  1  0  0  0  0
  6 34  1  0  0  0  0
  7 35  1  0  0  0  0
 13 36  1  0  0  0  0
 14 37  1  0  0  0  0
 15 38  1  0  0  0  0
 16 39  1  0  0  0  0
 18 40  1  0  0  0  0
 18 41  1  0  0  0  0
 18 42  1  0  0  0  0
 19 43  1  0  0  0  0
 19 44  1  0  0  0  0
 19 45  1  0  0  0  0
 20 46  1  0  0  0  0
 20 47  1  0  0  0  0
 21 48  1  0  0  0  0
 21 49  1  0  0  0  0
M  END
> <clash_score>
0

> <docking_score>
-10.112021446228027

> <overlap_score>
0.9749146103858948

$$$$
BENZO_477_1
  -OEChem-08232013513D

 52 55  0     0  0  0  0  0  0999 V2000
   14.3638    0.8263   23.4716 C   0  0  0  0  0  0  0  0  0  0  0  0
   13.6907    0.1762   24.5059 C   0  0  0  0  0  0  0  0  0  0  0  0
   13.6462    1.5482   22.5178 C   0  0  0  0  0  0  0  0  0  0  0  0
   12.3000    0.2477   24.5864 C   0  0  0  0  0  0  0  0  0  0  0  0
   12.2555    1.6197   22.5983 C   0  0  0  0  0  0  0  0  0  0  0  0
    8.3510   -1.5420   24.6110 C   0  0  0  0  0  0  0  0  0  0  0  0
   10.2760   -2.3270   23.4020 C   0  0  0  0  0  0  0  0  0  0  0  0
    8.3310   -2.7170   25.3430 C   0  0  0  0  0  0  0  0  0  0  0  0
   10.2570   -3.5000   24.1350 C   0  0  0  0  0  0  0  0  0  0  0  0
   11.5824    0.9695   23.6326 C   0  0  0  0  0  0  0  0  0  0  0  0
    9.3300   -1.3350   23.6390 C   0  0  0  0  0  0  0  0  0  0  0  0
    9.2850   -3.7090   25.1090 C   0  0  0  0  0  0  0  0  0  0  0  0
    5.9810    0.8330   18.8060 C   0  0  0  0  0  0  0  0  0  0  0  0
    7.2210   -0.4620   20.0350 C   0  0  0  0  0  0  0  0  0  0  0  0
    4.9400    1.7060   18.5060 C   0  0  0  0  0  0  0  0  0  0  0  0
    4.0980    2.1130   19.5350 C   0  0  0  0  0  0  0  0  0  0  0  0
    4.2970    1.6690   20.8430 C   0  0  0  0  0  0  0  0  0  0  0  0
    5.3360    0.8000   21.1530 C   0  0  0  0  0  0  0  0  0  0  0  0
    8.9510    0.1280   21.6880 C   0  0  0  0  0  0  0  0  0  0  0  0
    8.2504   -5.1193   26.8645 C   0  0  0  0  0  0  0  0  0  0  0  0
   10.2433   -5.9398   25.5981 C   0  0  0  0  0  0  0  0  0  0  0  0
   10.0855    1.0467   23.7186 C   0  0  0  0  0  0  0  0  0  0  0  0
    8.0810   -0.9750   21.0820 C   0  0  0  0  0  0  0  0  0  0  0  0
    6.9440    0.2550   18.0100 N   0  0  0  0  0  0  0  0  0  0  0  0
    7.6830   -0.5170   18.7600 N   0  0  0  0  0  0  0  0  0  0  0  0
    6.1600    0.3870   20.1140 N   0  0  0  0  0  0  0  0  0  0  0  0
    9.4200   -0.0840   22.9530 N   0  0  0  0  0  0  0  0  0  0  0  0
    9.2624   -4.9028   25.8498 N   0  0  0  0  0  0  0  0  0  0  0  0
    9.1870    1.1500   21.0630 O   0  0  0  0  0  0  0  0  0  0  0  0
   15.4468    0.7717   23.4098 H   0  0  0  0  0  0  0  0  0  0  0  0
   14.2494   -0.3850   25.2493 H   0  0  0  0  0  0  0  0  0  0  0  0
   14.1699    2.0554   21.7130 H   0  0  0  0  0  0  0  0  0  0  0  0
   11.7840   -0.2622   25.3957 H   0  0  0  0  0  0  0  0  0  0  0  0
   11.7047    2.1843   21.8506 H   0  0  0  0  0  0  0  0  0  0  0  0
    7.5947   -0.7787   24.7997 H   0  0  0  0  0  0  0  0  0  0  0  0
   11.0404   -2.1861   22.6352 H   0  0  0  0  0  0  0  0  0  0  0  0
    7.5641   -2.8632   26.1047 H   0  0  0  0  0  0  0  0  0  0  0  0
   11.0135   -4.2647   23.9425 H   0  0  0  0  0  0  0  0  0  0  0  0
    4.7732    2.0709   17.5073 H   0  0  0  0  0  0  0  0  0  0  0  0
    3.2823    2.7848   19.2995 H   0  0  0  0  0  0  0  0  0  0  0  0
    3.6338    1.9971   21.6547 H   0  0  0  0  0  0  0  0  0  0  0  0
    5.5079    0.4527   22.1466 H   0  0  0  0  0  0  0  0  0  0  0  0
    8.4006   -6.1053   27.3283 H   0  0  0  0  0  0  0  0  0  0  0  0
    8.3291   -4.3367   27.6335 H   0  0  0  0  0  0  0  0  0  0  0  0
    7.2532   -5.0798   26.4019 H   0  0  0  0  0  0  0  0  0  0  0  0
   10.0612   -6.7891   26.2731 H   0  0  0  0  0  0  0  0  0  0  0  0
   10.1607   -6.2769   24.5543 H   0  0  0  0  0  0  0  0  0  0  0  0
   11.2528   -5.5404   25.7757 H   0  0  0  0  0  0  0  0  0  0  0  0
    9.7554    0.9938   24.7618 H   0  0  0  0  0  0  0  0  0  0  0  0
    9.7166    1.9927   23.3083 H   0  0  0  0  0  0  0  0  0  0  0  0
    7.4889   -1.4161   21.8965 H   0  0  0  0  0  0  0  0  0  0  0  0
    8.7528   -1.7575   20.7010 H   0  0  0  0  0  0  0  0  0  0  0  0
  1  2  1  0  0  0  0
  1  3  2  0  0  0  0
  2  4  2  0  0  0  0
  3  5  1  0  0  0  0
  4 10  1  0  0  0  0
  5 10  2  0  0  0  0
  6  8  2  0  0  0  0
  6 11  1  0  0  0  0
  7  9  1  0  0  0  0
  7 11  2  0  0  0  0
  8 12  1  0  0  0  0
  9 12  2  0  0  0  0
 10 22  1  0  0  0  0
 11 27  1  0  0  0  0
 12 28  1  0  0  0  0
 13 15  1  0  0  0  0
 13 24  2  0  0  0  0
 13 26  1  0  0  0  0
 14 23  1  0  0  0  0
 14 25  2  0  0  0  0
 14 26  1  0  0  0  0
 15 16  2  0  0  0  0
 16 17  1  0  0  0  0
 17 18  2  0  0  0  0
 18 26  1  0  0  0  0
 19 23  1  0  0  0  0
 19 27  1  0  0  0  0
 19 29  2  0  0  0  0
 20 28  1  0  0  0  0
 21 28  1  0  0  0  0
 22 27  1  0  0  0  0
 24 25  1  0  0  0  0
  1 30  1  0  0  0  0
  2 31  1  0  0  0  0
  3 32  1  0  0  0  0
  4 33  1  0  0  0  0
  5 34  1  0  0  0  0
  6 35  1  0  0  0  0
  7 36  1  0  0  0  0
  8 37  1  0  0  0  0
  9 38  1  0  0  0  0
 15 39  1  0  0  0  0
 16 40  1  0  0  0  0
 17 41  1  0  0  0  0
 18 42  1  0  0  0  0
 20 43  1  0  0  0  0
 20 44  1  0  0  0  0
 20 45  1  0  0  0  0
 21 46  1  0  0  0  0
 21 47  1  0  0  0  0
 21 48  1  0  0  0  0
 22 49  1  0  0  0  0
 22 50  1  0  0  0  0
 23 51  1  0  0  0  0
 23 52  1  0  0  0  0
M  END
> <clash_score>
0

> <docking_score>
-9.787714004516602

> <overlap_score>
1.0003383159637451

$$$$
BENZO_479_1
  -OEChem-08232013513D

 52 55  0     0  0  0  0  0  0999 V2000
    8.3510   -1.5420   24.6110 C   0  0  0  0  0  0  0  0  0  0  0  0
   10.2760   -2.3270   23.4020 C   0  0  0  0  0  0  0  0  0  0  0  0
    8.3310   -2.7170   25.3430 C   0  0  0  0  0  0  0  0  0  0  0  0
   10.2570   -3.5000   24.1350 C   0  0  0  0  0  0  0  0  0  0  0  0
   12.5292    1.6523   24.4195 C   0  0  0  0  0  0  0  0  0  0  0  0
   12.3357    0.2131   22.7684 C   0  0  0  0  0  0  0  0  0  0  0  0
   11.5824    0.9695   23.6326 C   0  0  0  0  0  0  0  0  0  0  0  0
    9.3300   -1.3350   23.6390 C   0  0  0  0  0  0  0  0  0  0  0  0
    9.2850   -3.7090   25.1090 C   0  0  0  0  0  0  0  0  0  0  0  0
    5.9810    0.8330   18.8060 C   0  0  0  0  0  0  0  0  0  0  0  0
    7.2210   -0.4620   20.0350 C   0  0  0  0  0  0  0  0  0  0  0  0
    4.9400    1.7060   18.5060 C   0  0  0  0  0  0  0  0  0  0  0  0
    4.0980    2.1130   19.5350 C   0  0  0  0  0  0  0  0  0  0  0  0
    4.2970    1.6690   20.8430 C   0  0  0  0  0  0  0  0  0  0  0  0
    5.3360    0.8000   21.1530 C   0  0  0  0  0  0  0  0  0  0  0  0
    8.9510    0.1280   21.6880 C   0  0  0  0  0  0  0  0  0  0  0  0
   14.8016   -0.0848   22.4380 C   0  0  0  0  0  0  0  0  0  0  0  0
    8.2504   -5.1193   26.8645 C   0  0  0  0  0  0  0  0  0  0  0  0
   10.2433   -5.9398   25.5981 C   0  0  0  0  0  0  0  0  0  0  0  0
   10.0855    1.0467   23.7186 C   0  0  0  0  0  0  0  0  0  0  0  0
    8.0810   -0.9750   21.0820 C   0  0  0  0  0  0  0  0  0  0  0  0
   13.7878    1.3557   24.0850 N   0  0  0  0  0  0  0  0  0  0  0  0
    6.9440    0.2550   18.0100 N   0  0  0  0  0  0  0  0  0  0  0  0
    7.6830   -0.5170   18.7600 N   0  0  0  0  0  0  0  0  0  0  0  0
   13.6371    0.4782   23.0784 N   0  0  0  0  0  0  0  0  0  0  0  0
    6.1600    0.3870   20.1140 N   0  0  0  0  0  0  0  0  0  0  0  0
    9.4200   -0.0840   22.9530 N   0  0  0  0  0  0  0  0  0  0  0  0
    9.2624   -4.9028   25.8498 N   0  0  0  0  0  0  0  0  0  0  0  0
    9.1870    1.1500   21.0630 O   0  0  0  0  0  0  0  0  0  0  0  0
    7.5947   -0.7787   24.7997 H   0  0  0  0  0  0  0  0  0  0  0  0
   11.0404   -2.1861   22.6352 H   0  0  0  0  0  0  0  0  0  0  0  0
    7.5641   -2.8632   26.1047 H   0  0  0  0  0  0  0  0  0  0  0  0
   11.0135   -4.2647   23.9425 H   0  0  0  0  0  0  0  0  0  0  0  0
   12.3569    2.3533   25.2240 H   0  0  0  0  0  0  0  0  0  0  0  0
   12.0632   -0.4751   21.9797 H   0  0  0  0  0  0  0  0  0  0  0  0
    4.7732    2.0709   17.5073 H   0  0  0  0  0  0  0  0  0  0  0  0
    3.2823    2.7848   19.2995 H   0  0  0  0  0  0  0  0  0  0  0  0
    3.6338    1.9971   21.6547 H   0  0  0  0  0  0  0  0  0  0  0  0
    5.5079    0.4527   22.1466 H   0  0  0  0  0  0  0  0  0  0  0  0
   15.0768    0.5674   21.6050 H   0  0  0  0  0  0  0  0  0  0  0  0
   15.6199   -0.1479   23.1607 H   0  0  0  0  0  0  0  0  0  0  0  0
   14.5649   -1.0894   22.0764 H   0  0  0  0  0  0  0  0  0  0  0  0
    8.4006   -6.1053   27.3283 H   0  0  0  0  0  0  0  0  0  0  0  0
    8.3291   -4.3367   27.6335 H   0  0  0  0  0  0  0  0  0  0  0  0
    7.2532   -5.0798   26.4019 H   0  0  0  0  0  0  0  0  0  0  0  0
   10.0612   -6.7891   26.2731 H   0  0  0  0  0  0  0  0  0  0  0  0
   10.1607   -6.2769   24.5543 H   0  0  0  0  0  0  0  0  0  0  0  0
   11.2528   -5.5404   25.7757 H   0  0  0  0  0  0  0  0  0  0  0  0
    9.7554    0.9938   24.7618 H   0  0  0  0  0  0  0  0  0  0  0  0
    9.7166    1.9927   23.3083 H   0  0  0  0  0  0  0  0  0  0  0  0
    7.4889   -1.4161   21.8965 H   0  0  0  0  0  0  0  0  0  0  0  0
    8.7528   -1.7575   20.7010 H   0  0  0  0  0  0  0  0  0  0  0  0
  1  3  2  0  0  0  0
  1  8  1  0  0  0  0
  2  4  1  0  0  0  0
  2  8  2  0  0  0  0
  3  9  1  0  0  0  0
  4  9  2  0  0  0  0
  5  7  1  0  0  0  0
  5 22  2  0  0  0  0
  6  7  2  0  0  0  0
  6 25  1  0  0  0  0
  7 20  1  0  0  0  0
  8 27  1  0  0  0  0
  9 28  1  0  0  0  0
 10 12  1  0  0  0  0
 10 23  2  0  0  0  0
 10 26  1  0  0  0  0
 11 21  1  0  0  0  0
 11 24  2  0  0  0  0
 11 26  1  0  0  0  0
 12 13  2  0  0  0  0
 13 14  1  0  0  0  0
 14 15  2  0  0  0  0
 15 26  1  0  0  0  0
 16 21  1  0  0  0  0
 16 27  1  0  0  0  0
 16 29  2  0  0  0  0
 17 25  1  0  0  0  0
 18 28  1  0  0  0  0
 19 28  1  0  0  0  0
 20 27  1  0  0  0  0
 22 25  1  0  0  0  0
 23 24  1  0  0  0  0
  1 30  1  0  0  0  0
  2 31  1  0  0  0  0
  3 32  1  0  0  0  0
  4 33  1  0  0  0  0
  5 34  1  0  0  0  0
  6 35  1  0  0  0  0
 12 36  1  0  0  0  0
 13 37  1  0  0  0  0
 14 38  1  0  0  0  0
 15 39  1  0  0  0  0
 17 40  1  0  0  0  0
 17 41  1  0  0  0  0
 17 42  1  0  0  0  0
 18 43  1  0  0  0  0
 18 44  1  0  0  0  0
 18 45  1  0  0  0  0
 19 46  1  0  0  0  0
 19 47  1  0  0  0  0
 19 48  1  0  0  0  0
 20 49  1  0  0  0  0
 20 50  1  0  0  0  0
 21 51  1  0  0  0  0
 21 52  1  0  0  0  0
M  END
> <clash_score>
0

> <docking_score>
-9.950050354003906

> <overlap_score>
0.9845167398452759

$$$$
BENZO_478_1
  -OEChem-08232013513D

 52 55  0     0  0  0  0  0  0999 V2000
   13.6694    1.7750   22.7204 C   0  0  0  0  0  0  0  0  0  0  0  0
   12.2786    1.8455   22.7998 C   0  0  0  0  0  0  0  0  0  0  0  0
    8.3510   -1.5420   24.6110 C   0  0  0  0  0  0  0  0  0  0  0  0
   10.2760   -2.3270   23.4020 C   0  0  0  0  0  0  0  0  0  0  0  0
    8.3310   -2.7170   25.3430 C   0  0  0  0  0  0  0  0  0  0  0  0
   10.2570   -3.5000   24.1350 C   0  0  0  0  0  0  0  0  0  0  0  0
   14.3640    0.8285   23.4737 C   0  0  0  0  0  0  0  0  0  0  0  0
   12.2769    0.0230   24.3860 C   0  0  0  0  0  0  0  0  0  0  0  0
   11.5824    0.9695   23.6326 C   0  0  0  0  0  0  0  0  0  0  0  0
    9.3300   -1.3350   23.6390 C   0  0  0  0  0  0  0  0  0  0  0  0
    9.2850   -3.7090   25.1090 C   0  0  0  0  0  0  0  0  0  0  0  0
   13.6678   -0.0474   24.3065 C   0  0  0  0  0  0  0  0  0  0  0  0
    5.9810    0.8330   18.8060 C   0  0  0  0  0  0  0  0  0  0  0  0
    7.2210   -0.4620   20.0350 C   0  0  0  0  0  0  0  0  0  0  0  0
    4.9400    1.7060   18.5060 C   0  0  0  0  0  0  0  0  0  0  0  0
    4.0980    2.1130   19.5350 C   0  0  0  0  0  0  0  0  0  0  0  0
    4.2970    1.6690   20.8430 C   0  0  0  0  0  0  0  0  0  0  0  0
    5.3360    0.8000   21.1530 C   0  0  0  0  0  0  0  0  0  0  0  0
    8.9510    0.1280   21.6880 C   0  0  0  0  0  0  0  0  0  0  0  0
    8.2504   -5.1193   26.8645 C   0  0  0  0  0  0  0  0  0  0  0  0
   10.2433   -5.9398   25.5981 C   0  0  0  0  0  0  0  0  0  0  0  0
   10.0855    1.0467   23.7186 C   0  0  0  0  0  0  0  0  0  0  0  0
    8.0810   -0.9750   21.0820 C   0  0  0  0  0  0  0  0  0  0  0  0
    6.9440    0.2550   18.0100 N   0  0  0  0  0  0  0  0  0  0  0  0
    7.6830   -0.5170   18.7600 N   0  0  0  0  0  0  0  0  0  0  0  0
    6.1600    0.3870   20.1140 N   0  0  0  0  0  0  0  0  0  0  0  0
    9.4200   -0.0840   22.9530 N   0  0  0  0  0  0  0  0  0  0  0  0
    9.2624   -4.9028   25.8498 N   0  0  0  0  0  0  0  0  0  0  0  0
    9.1870    1.1500   21.0630 O   0  0  0  0  0  0  0  0  0  0  0  0
   14.5254   -1.2142   25.2365 Cl  0  0  0  0  0  0  0  0  0  0  0  0
   14.2112    2.4574   22.0718 H   0  0  0  0  0  0  0  0  0  0  0  0
   11.7457    2.5862   22.2094 H   0  0  0  0  0  0  0  0  0  0  0  0
    7.5947   -0.7787   24.7997 H   0  0  0  0  0  0  0  0  0  0  0  0
   11.0404   -2.1861   22.6352 H   0  0  0  0  0  0  0  0  0  0  0  0
    7.5641   -2.8632   26.1047 H   0  0  0  0  0  0  0  0  0  0  0  0
   11.0135   -4.2647   23.9425 H   0  0  0  0  0  0  0  0  0  0  0  0
   15.4480    0.7853   23.4020 H   0  0  0  0  0  0  0  0  0  0  0  0
   11.7295   -0.6580   25.0334 H   0  0  0  0  0  0  0  0  0  0  0  0
    4.7732    2.0709   17.5073 H   0  0  0  0  0  0  0  0  0  0  0  0
    3.2823    2.7848   19.2995 H   0  0  0  0  0  0  0  0  0  0  0  0
    3.6338    1.9971   21.6547 H   0  0  0  0  0  0  0  0  0  0  0  0
    5.5079    0.4527   22.1466 H   0  0  0  0  0  0  0  0  0  0  0  0
    8.4006   -6.1053   27.3283 H   0  0  0  0  0  0  0  0  0  0  0  0
    8.3291   -4.3367   27.6335 H   0  0  0  0  0  0  0  0  0  0  0  0
    7.2532   -5.0798   26.4019 H   0  0  0  0  0  0  0  0  0  0  0  0
   10.0612   -6.7891   26.2731 H   0  0  0  0  0  0  0  0  0  0  0  0
   10.1607   -6.2769   24.5543 H   0  0  0  0  0  0  0  0  0  0  0  0
   11.2528   -5.5404   25.7757 H   0  0  0  0  0  0  0  0  0  0  0  0
    9.7554    0.9938   24.7618 H   0  0  0  0  0  0  0  0  0  0  0  0
    9.7166    1.9927   23.3083 H   0  0  0  0  0  0  0  0  0  0  0  0
    7.4889   -1.4161   21.8965 H   0  0  0  0  0  0  0  0  0  0  0  0
    8.7528   -1.7575   20.7010 H   0  0  0  0  0  0  0  0  0  0  0  0
  1  2  2  0  0  0  0
  1  7  1  0  0  0  0
  2  9  1  0  0  0  0
  3  5  2  0  0  0  0
  3 10  1  0  0  0  0
  4  6  1  0  0  0  0
  4 10  2  0  0  0  0
  5 11  1  0  0  0  0
  6 11  2  0  0  0  0
  7 12  2  0  0  0  0
  8  9  2  0  0  0  0
  8 12  1  0  0  0  0
  9 22  1  0  0  0  0
 10 27  1  0  0  0  0
 11 28  1  0  0  0  0
 12 30  1  0  0  0  0
 13 15  1  0  0  0  0
 13 24  2  0  0  0  0
 13 26  1  0  0  0  0
 14 23  1  0  0  0  0
 14 25  2  0  0  0  0
 14 26  1  0  0  0  0
 15 16  2  0  0  0  0
 16 17  1  0  0  0  0
 17 18  2  0  0  0  0
 18 26  1  0  0  0  0
 19 23  1  0  0  0  0
 19 27  1  0  0  0  0
 19 29  2  0  0  0  0
 20 28  1  0  0  0  0
 21 28  1  0  0  0  0
 22 27  1  0  0  0  0
 24 25  1  0  0  0  0
  1 31  1  0  0  0  0
  2 32  1  0  0  0  0
  3 33  1  0  0  0  0
  4 34  1  0  0  0  0
  5 35  1  0  0  0  0
  6 36  1  0  0  0  0
  7 37  1  0  0  0  0
  8 38  1  0  0  0  0
 15 39  1  0  0  0  0
 16 40  1  0  0  0  0
 17 41  1  0  0  0  0
 18 42  1  0  0  0  0
 20 43  1  0  0  0  0
 20 44  1  0  0  0  0
 20 45  1  0  0  0  0
 21 46  1  0  0  0  0
 21 47  1  0  0  0  0
 21 48  1  0  0  0  0
 22 49  1  0  0  0  0
 22 50  1  0  0  0  0
 23 51  1  0  0  0  0
 23 52  1  0  0  0  0
M  END
> <clash_score>
0.809946511533132

> <docking_score>
-8.961136817932129

> <overlap_score>
1.0048913955688477

$$$$
BENZO_481_1
  -OEChem-08232013513D

 54 57  0     0  0  0  0  0  0999 V2000
   14.3638    0.8263   23.4716 C   0  0  0  0  0  0  0  0  0  0  0  0
   13.6907    0.1762   24.5059 C   0  0  0  0  0  0  0  0  0  0  0  0
   13.6462    1.5482   22.5178 C   0  0  0  0  0  0  0  0  0  0  0  0
   12.3000    0.2477   24.5864 C   0  0  0  0  0  0  0  0  0  0  0  0
   12.2555    1.6197   22.5983 C   0  0  0  0  0  0  0  0  0  0  0  0
    8.3310   -2.7170   25.3430 C   0  0  0  0  0  0  0  0  0  0  0  0
   10.2570   -3.5000   24.1350 C   0  0  0  0  0  0  0  0  0  0  0  0
    8.3510   -1.5420   24.6110 C   0  0  0  0  0  0  0  0  0  0  0  0
   10.2760   -2.3270   23.4020 C   0  0  0  0  0  0  0  0  0  0  0  0
   11.5824    0.9695   23.6326 C   0  0  0  0  0  0  0  0  0  0  0  0
    9.2850   -3.7090   25.1090 C   0  0  0  0  0  0  0  0  0  0  0  0
    9.3300   -1.3350   23.6390 C   0  0  0  0  0  0  0  0  0  0  0  0
    5.9810    0.8330   18.8060 C   0  0  0  0  0  0  0  0  0  0  0  0
    7.2210   -0.4620   20.0350 C   0  0  0  0  0  0  0  0  0  0  0  0
    4.9400    1.7060   18.5060 C   0  0  0  0  0  0  0  0  0  0  0  0
    4.0980    2.1130   19.5350 C   0  0  0  0  0  0  0  0  0  0  0  0
    4.2970    1.6690   20.8430 C   0  0  0  0  0  0  0  0  0  0  0  0
    5.3360    0.8000   21.1530 C   0  0  0  0  0  0  0  0  0  0  0  0
    8.9510    0.1280   21.6880 C   0  0  0  0  0  0  0  0  0  0  0  0
    9.6855   -6.1678   25.4393 C   0  0  0  0  0  0  0  0  0  0  0  0
    8.0405   -7.2921   26.9999 C   0  0  0  0  0  0  0  0  0  0  0  0
   10.0855    1.0467   23.7186 C   0  0  0  0  0  0  0  0  0  0  0  0
    8.0810   -0.9750   21.0820 C   0  0  0  0  0  0  0  0  0  0  0  0
    9.4870   -7.1874   26.5510 C   0  0  0  0  0  0  0  0  0  0  0  0
    6.9440    0.2550   18.0100 N   0  0  0  0  0  0  0  0  0  0  0  0
    7.6830   -0.5170   18.7600 N   0  0  0  0  0  0  0  0  0  0  0  0
    6.1600    0.3870   20.1140 N   0  0  0  0  0  0  0  0  0  0  0  0
    9.2630   -4.8902   25.8410 N   0  0  0  0  0  0  0  0  0  0  0  0
    9.4200   -0.0840   22.9530 N   0  0  0  0  0  0  0  0  0  0  0  0
    9.1870    1.1500   21.0630 O   0  0  0  0  0  0  0  0  0  0  0  0
   10.1589   -6.4763   24.3506 O   0  0  0  0  0  0  0  0  0  0  0  0
   15.4468    0.7717   23.4098 H   0  0  0  0  0  0  0  0  0  0  0  0
   14.2494   -0.3850   25.2493 H   0  0  0  0  0  0  0  0  0  0  0  0
   14.1699    2.0554   21.7130 H   0  0  0  0  0  0  0  0  0  0  0  0
   11.7840   -0.2622   25.3957 H   0  0  0  0  0  0  0  0  0  0  0  0
   11.7047    2.1843   21.8506 H   0  0  0  0  0  0  0  0  0  0  0  0
    7.5639   -2.8621   26.1045 H   0  0  0  0  0  0  0  0  0  0  0  0
   11.0141   -4.2644   23.9422 H   0  0  0  0  0  0  0  0  0  0  0  0
    7.5950   -0.7788   24.8007 H   0  0  0  0  0  0  0  0  0  0  0  0
   11.0408   -2.1861   22.6359 H   0  0  0  0  0  0  0  0  0  0  0  0
    4.7732    2.0709   17.5073 H   0  0  0  0  0  0  0  0  0  0  0  0
    3.2823    2.7848   19.2995 H   0  0  0  0  0  0  0  0  0  0  0  0
    3.6338    1.9971   21.6547 H   0  0  0  0  0  0  0  0  0  0  0  0
    5.5079    0.4527   22.1466 H   0  0  0  0  0  0  0  0  0  0  0  0
    7.6712   -6.3280   27.3648 H   0  0  0  0  0  0  0  0  0  0  0  0
    7.9444   -8.0232   27.8085 H   0  0  0  0  0  0  0  0  0  0  0  0
    7.3945   -7.6083   26.1742 H   0  0  0  0  0  0  0  0  0  0  0  0
    9.7554    0.9938   24.7618 H   0  0  0  0  0  0  0  0  0  0  0  0
    9.7166    1.9927   23.3083 H   0  0  0  0  0  0  0  0  0  0  0  0
    7.4889   -1.4161   21.8965 H   0  0  0  0  0  0  0  0  0  0  0  0
    8.7528   -1.7575   20.7010 H   0  0  0  0  0  0  0  0  0  0  0  0
    9.8297   -8.1645   26.1916 H   0  0  0  0  0  0  0  0  0  0  0  0
   10.1142   -6.8996   27.4026 H   0  0  0  0  0  0  0  0  0  0  0  0
    8.8930   -4.8275   26.7966 H   0  0  0  0  0  0  0  0  0  0  0  0
  1  2  1  0  0  0  0
  1  3  2  0  0  0  0
  2  4  2  0  0  0  0
  3  5  1  0  0  0  0
  4 10  1  0  0  0  0
  5 10  2  0  0  0  0
  6  8  2  0  0  0  0
  6 11  1  0  0  0  0
  7  9  1  0  0  0  0
  7 11  2  0  0  0  0
  8 12  1  0  0  0  0
  9 12  2  0  0  0  0
 10 22  1  0  0  0  0
 11 28  1  0  0  0  0
 12 29  1  0  0  0  0
 13 15  1  0  0  0  0
 13 25  2  0  0  0  0
 13 27  1  0  0  0  0
 14 23  1  0  0  0  0
 14 26  2  0  0  0  0
 14 27  1  0  0  0  0
 15 16  2  0  0  0  0
 16 17  1  0  0  0  0
 17 18  2  0  0  0  0
 18 27  1  0  0  0  0
 19 23  1  0  0  0  0
 19 29  1  0  0  0  0
 19 30  2  0  0  0  0
 20 24  1  0  0  0  0
 20 28  1  0  0  0  0
 20 31  2  0  0  0  0
 21 24  1  0  0  0  0
 22 29  1  0  0  0  0
 25 26  1  0  0  0  0
  1 32  1  0  0  0  0
  2 33  1  0  0  0  0
  3 34  1  0  0  0  0
  4 35  1  0  0  0  0
  5 36  1  0  0  0  0
  6 37  1  0  0  0  0
  7 38  1  0  0  0  0
  8 39  1  0  0  0  0
  9 40  1  0  0  0  0
 15 41  1  0  0  0  0
 16 42  1  0  0  0  0
 17 43  1  0  0  0  0
 18 44  1  0  0  0  0
 21 45  1  0  0  0  0
 21 46  1  0  0  0  0
 21 47  1  0  0  0  0
 22 48  1  0  0  0  0
 22 49  1  0  0  0  0
 23 50  1  0  0  0  0
 23 51  1  0  0  0  0
 24 52  1  0  0  0  0
 24 53  1  0  0  0  0
 28 54  1  0  0  0  0
M  END
> <clash_score>
1.3340877668690392

> <docking_score>
-6.2658371925354

> <overlap_score>
0.9843955636024475

$$$$
BENZO_480_1
  -OEChem-08232013513D

 51 54  0     0  0  0  0  0  0999 V2000
    8.3310   -2.7170   25.3430 C   0  0  0  0  0  0  0  0  0  0  0  0
   10.2570   -3.5000   24.1350 C   0  0  0  0  0  0  0  0  0  0  0  0
    8.3510   -1.5420   24.6110 C   0  0  0  0  0  0  0  0  0  0  0  0
   10.2760   -2.3270   23.4020 C   0  0  0  0  0  0  0  0  0  0  0  0
   12.3113    1.0126   22.4091 C   0  0  0  0  0  0  0  0  0  0  0  0
   13.6706    0.9225   22.6131 C   0  0  0  0  0  0  0  0  0  0  0  0
   12.4125    0.8479   24.7253 C   0  0  0  0  0  0  0  0  0  0  0  0
   11.5824    0.9695   23.6326 C   0  0  0  0  0  0  0  0  0  0  0  0
    9.2850   -3.7090   25.1090 C   0  0  0  0  0  0  0  0  0  0  0  0
    9.3300   -1.3350   23.6390 C   0  0  0  0  0  0  0  0  0  0  0  0
    5.9810    0.8330   18.8060 C   0  0  0  0  0  0  0  0  0  0  0  0
    7.2210   -0.4620   20.0350 C   0  0  0  0  0  0  0  0  0  0  0  0
    4.9400    1.7060   18.5060 C   0  0  0  0  0  0  0  0  0  0  0  0
    4.0980    2.1130   19.5350 C   0  0  0  0  0  0  0  0  0  0  0  0
    4.2970    1.6690   20.8430 C   0  0  0  0  0  0  0  0  0  0  0  0
    5.3360    0.8000   21.1530 C   0  0  0  0  0  0  0  0  0  0  0  0
    8.9510    0.1280   21.6880 C   0  0  0  0  0  0  0  0  0  0  0  0
    9.6855   -6.1678   25.4393 C   0  0  0  0  0  0  0  0  0  0  0  0
    8.0405   -7.2921   26.9999 C   0  0  0  0  0  0  0  0  0  0  0  0
   10.0855    1.0467   23.7186 C   0  0  0  0  0  0  0  0  0  0  0  0
    8.0810   -0.9750   21.0820 C   0  0  0  0  0  0  0  0  0  0  0  0
    9.4870   -7.1874   26.5510 C   0  0  0  0  0  0  0  0  0  0  0  0
    6.9440    0.2550   18.0100 N   0  0  0  0  0  0  0  0  0  0  0  0
    7.6830   -0.5170   18.7600 N   0  0  0  0  0  0  0  0  0  0  0  0
    6.1600    0.3870   20.1140 N   0  0  0  0  0  0  0  0  0  0  0  0
    9.2630   -4.8902   25.8410 N   0  0  0  0  0  0  0  0  0  0  0  0
    9.4200   -0.0840   22.9530 N   0  0  0  0  0  0  0  0  0  0  0  0
    9.1870    1.1500   21.0630 O   0  0  0  0  0  0  0  0  0  0  0  0
   10.1589   -6.4763   24.3506 O   0  0  0  0  0  0  0  0  0  0  0  0
   14.0633    0.7865   24.2744 S   0  0  0  0  0  0  0  0  0  0  0  0
    7.5639   -2.8621   26.1045 H   0  0  0  0  0  0  0  0  0  0  0  0
   11.0141   -4.2644   23.9422 H   0  0  0  0  0  0  0  0  0  0  0  0
    7.5950   -0.7788   24.8007 H   0  0  0  0  0  0  0  0  0  0  0  0
   11.0408   -2.1861   22.6359 H   0  0  0  0  0  0  0  0  0  0  0  0
   11.8651    1.1045   21.4269 H   0  0  0  0  0  0  0  0  0  0  0  0
   14.4519    0.9293   21.8663 H   0  0  0  0  0  0  0  0  0  0  0  0
   12.1327    0.7906   25.7682 H   0  0  0  0  0  0  0  0  0  0  0  0
    4.7732    2.0709   17.5073 H   0  0  0  0  0  0  0  0  0  0  0  0
    3.2823    2.7848   19.2995 H   0  0  0  0  0  0  0  0  0  0  0  0
    3.6338    1.9971   21.6547 H   0  0  0  0  0  0  0  0  0  0  0  0
    5.5079    0.4527   22.1466 H   0  0  0  0  0  0  0  0  0  0  0  0
    7.6712   -6.3280   27.3648 H   0  0  0  0  0  0  0  0  0  0  0  0
    7.9444   -8.0232   27.8085 H   0  0  0  0  0  0  0  0  0  0  0  0
    7.3945   -7.6083   26.1742 H   0  0  0  0  0  0  0  0  0  0  0  0
    9.7554    0.9938   24.7618 H   0  0  0  0  0  0  0  0  0  0  0  0
    9.7166    1.9927   23.3083 H   0  0  0  0  0  0  0  0  0  0  0  0
    7.4889   -1.4161   21.8965 H   0  0  0  0  0  0  0  0  0  0  0  0
    8.7528   -1.7575   20.7010 H   0  0  0  0  0  0  0  0  0  0  0  0
    9.8297   -8.1645   26.1916 H   0  0  0  0  0  0  0  0  0  0  0  0
   10.1142   -6.8996   27.4026 H   0  0  0  0  0  0  0  0  0  0  0  0
    8.8930   -4.8275   26.7966 H   0  0  0  0  0  0  0  0  0  0  0  0
  1  3  2  0  0  0  0
  1  9  1  0  0  0  0
  2  4  1  0  0  0  0
  2  9  2  0  0  0  0
  3 10  1  0  0  0  0
  4 10  2  0  0  0  0
  5  6  2  0  0  0  0
  5  8  1  0  0  0  0
  6 30  1  0  0  0  0
  7  8  2  0  0  0  0
  7 30  1  0  0  0  0
  8 20  1  0  0  0  0
  9 26  1  0  0  0  0
 10 27  1  0  0  0  0
 11 13  1  0  0  0  0
 11 23  2  0  0  0  0
 11 25  1  0  0  0  0
 12 21  1  0  0  0  0
 12 24  2  0  0  0  0
 12 25  1  0  0  0  0
 13 14  2  0  0  0  0
 14 15  1  0  0  0  0
 15 16  2  0  0  0  0
 16 25  1  0  0  0  0
 17 21  1  0  0  0  0
 17 27  1  0  0  0  0
 17 28  2  0  0  0  0
 18 22  1  0  0  0  0
 18 26  1  0  0  0  0
 18 29  2  0  0  0  0
 19 22  1  0  0  0  0
 20 27  1  0  0  0  0
 23 24  1  0  0  0  0
  1 31  1  0  0  0  0
  2 32  1  0  0  0  0
  3 33  1  0  0  0  0
  4 34  1  0  0  0  0
  5 35  1  0  0  0  0
  6 36  1  0  0  0  0
  7 37  1  0  0  0  0
 13 38  1  0  0  0  0
 14 39  1  0  0  0  0
 15 40  1  0  0  0  0
 16 41  1  0  0  0  0
 19 42  1  0  0  0  0
 19 43  1  0  0  0  0
 19 44  1  0  0  0  0
 20 45  1  0  0  0  0
 20 46  1  0  0  0  0
 21 47  1  0  0  0  0
 21 48  1  0  0  0  0
 22 49  1  0  0  0  0
 22 50  1  0  0  0  0
 26 51  1  0  0  0  0
M  END
> <clash_score>
1.3340877668690392

> <docking_score>
-6.590141296386719

> <overlap_score>
0.9590210914611816

$$$$
BENZO_485_1
  -OEChem-08232013513D

 59 63  0     0  0  0  0  0  0999 V2000
   14.2727    1.1212   23.8270 C   0  0  0  0  0  0  0  0  0  0  0  0
   13.5688    0.4211   24.8068 C   0  0  0  0  0  0  0  0  0  0  0  0
   13.5821    1.8030   22.8250 C   0  0  0  0  0  0  0  0  0  0  0  0
   12.1743    0.4025   24.7845 C   0  0  0  0  0  0  0  0  0  0  0  0
   12.1875    1.7844   22.8027 C   0  0  0  0  0  0  0  0  0  0  0  0
    8.3310   -2.7170   25.3430 C   0  0  0  0  0  0  0  0  0  0  0  0
   10.2570   -3.5000   24.1350 C   0  0  0  0  0  0  0  0  0  0  0  0
    8.3510   -1.5420   24.6110 C   0  0  0  0  0  0  0  0  0  0  0  0
   10.2760   -2.3270   23.4020 C   0  0  0  0  0  0  0  0  0  0  0  0
   11.4836    1.0842   23.7825 C   0  0  0  0  0  0  0  0  0  0  0  0
    9.2850   -3.7090   25.1090 C   0  0  0  0  0  0  0  0  0  0  0  0
    9.3300   -1.3350   23.6390 C   0  0  0  0  0  0  0  0  0  0  0  0
    5.9810    0.8330   18.8060 C   0  0  0  0  0  0  0  0  0  0  0  0
    7.2210   -0.4620   20.0350 C   0  0  0  0  0  0  0  0  0  0  0  0
    4.9400    1.7060   18.5060 C   0  0  0  0  0  0  0  0  0  0  0  0
    4.0980    2.1130   19.5350 C   0  0  0  0  0  0  0  0  0  0  0  0
    4.2970    1.6690   20.8430 C   0  0  0  0  0  0  0  0  0  0  0  0
    5.3360    0.8000   21.1530 C   0  0  0  0  0  0  0  0  0  0  0  0
    8.9510    0.1280   21.6880 C   0  0  0  0  0  0  0  0  0  0  0  0
    7.3162   -6.8835   26.5210 C   0  0  0  0  0  0  0  0  0  0  0  0
    7.3507   -5.5245   27.2240 C   0  0  0  0  0  0  0  0  0  0  0  0
    7.9375   -6.8069   25.1245 C   0  0  0  0  0  0  0  0  0  0  0  0
    8.7638   -4.9418   27.2163 C   0  0  0  0  0  0  0  0  0  0  0  0
    9.3378   -6.1874   25.1659 C   0  0  0  0  0  0  0  0  0  0  0  0
    9.9825    1.0644   23.7577 C   0  0  0  0  0  0  0  0  0  0  0  0
    8.0810   -0.9750   21.0820 C   0  0  0  0  0  0  0  0  0  0  0  0
    6.9440    0.2550   18.0100 N   0  0  0  0  0  0  0  0  0  0  0  0
    7.6830   -0.5170   18.7600 N   0  0  0  0  0  0  0  0  0  0  0  0
    6.1600    0.3870   20.1140 N   0  0  0  0  0  0  0  0  0  0  0  0
    9.2639   -4.8860   25.8399 N   0  0  0  0  0  0  0  0  0  0  0  0
    9.4200   -0.0840   22.9530 N   0  0  0  0  0  0  0  0  0  0  0  0
    9.1870    1.1500   21.0630 O   0  0  0  0  0  0  0  0  0  0  0  0
   15.3586    1.1367   23.8453 H   0  0  0  0  0  0  0  0  0  0  0  0
   14.1064   -0.1089   25.5877 H   0  0  0  0  0  0  0  0  0  0  0  0
   14.1298    2.3491   22.0627 H   0  0  0  0  0  0  0  0  0  0  0  0
   11.6342   -0.1459   25.5518 H   0  0  0  0  0  0  0  0  0  0  0  0
   11.6579    2.3182   22.0182 H   0  0  0  0  0  0  0  0  0  0  0  0
    7.5647   -2.8621   26.1053 H   0  0  0  0  0  0  0  0  0  0  0  0
   11.0144   -4.2642   23.9425 H   0  0  0  0  0  0  0  0  0  0  0  0
    7.5958   -0.7779   24.8006 H   0  0  0  0  0  0  0  0  0  0  0  0
   11.0406   -2.1848   22.6356 H   0  0  0  0  0  0  0  0  0  0  0  0
    4.7732    2.0709   17.5073 H   0  0  0  0  0  0  0  0  0  0  0  0
    3.2823    2.7848   19.2995 H   0  0  0  0  0  0  0  0  0  0  0  0
    3.6338    1.9971   21.6547 H   0  0  0  0  0  0  0  0  0  0  0  0
    5.5079    0.4527   22.1466 H   0  0  0  0  0  0  0  0  0  0  0  0
    7.8578   -7.6261   27.1266 H   0  0  0  0  0  0  0  0  0  0  0  0
    6.2773   -7.2358   26.4459 H   0  0  0  0  0  0  0  0  0  0  0  0
    6.6663   -4.8351   26.7223 H   0  0  0  0  0  0  0  0  0  0  0  0
    7.0044   -5.6368   28.2534 H   0  0  0  0  0  0  0  0  0  0  0  0
    7.9946   -7.8119   24.6937 H   0  0  0  0  0  0  0  0  0  0  0  0
    7.2929   -6.2123   24.4668 H   0  0  0  0  0  0  0  0  0  0  0  0
    8.7343   -3.9408   27.6542 H   0  0  0  0  0  0  0  0  0  0  0  0
    9.4243   -5.5632   27.8278 H   0  0  0  0  0  0  0  0  0  0  0  0
   10.0200   -6.8490   25.7011 H   0  0  0  0  0  0  0  0  0  0  0  0
    9.6984   -6.0694   24.1436 H   0  0  0  0  0  0  0  0  0  0  0  0
    9.5805    0.9993   24.7746 H   0  0  0  0  0  0  0  0  0  0  0  0
    9.5848    1.9806   23.3087 H   0  0  0  0  0  0  0  0  0  0  0  0
    7.4781   -1.4136   21.8845 H   0  0  0  0  0  0  0  0  0  0  0  0
    8.7420   -1.7550   20.6889 H   0  0  0  0  0  0  0  0  0  0  0  0
  1  2  1  0  0  0  0
  1  3  2  0  0  0  0
  2  4  2  0  0  0  0
  3  5  1  0  0  0  0
  4 10  1  0  0  0  0
  5 10  2  0  0  0  0
  6  8  2  0  0  0  0
  6 11  1  0  0  0  0
  7  9  1  0  0  0  0
  7 11  2  0  0  0  0
  8 12  1  0  0  0  0
  9 12  2  0  0  0  0
 10 25  1  0  0  0  0
 11 30  1  0  0  0  0
 12 31  1  0  0  0  0
 13 15  1  0  0  0  0
 13 27  2  0  0  0  0
 13 29  1  0  0  0  0
 14 26  1  0  0  0  0
 14 28  2  0  0  0  0
 14 29  1  0  0  0  0
 15 16  2  0  0  0  0
 16 17  1  0  0  0  0
 17 18  2  0  0  0  0
 18 29  1  0  0  0  0
 19 26  1  0  0  0  0
 19 31  1  0  0  0  0
 19 32  2  0  0  0  0
 20 21  1  0  0  0  0
 20 22  1  0  0  0  0
 21 23  1  0  0  0  0
 22 24  1  0  0  0  0
 23 30  1  0  0  0  0
 24 30  1  0  0  0  0
 25 31  1  0  0  0  0
 27 28  1  0  0  0  0
  1 33  1  0  0  0  0
  2 34  1  0  0  0  0
  3 35  1  0  0  0  0
  4 36  1  0  0  0  0
  5 37  1  0  0  0  0
  6 38  1  0  0  0  0
  7 39  1  0  0  0  0
  8 40  1  0  0  0  0
  9 41  1  0  0  0  0
 15 42  1  0  0  0  0
 16 43  1  0  0  0  0
 17 44  1  0  0  0  0
 18 45  1  0  0  0  0
 20 46  1  0  0  0  0
 20 47  1  0  0  0  0
 21 48  1  0  0  0  0
 21 49  1  0  0  0  0
 22 50  1  0  0  0  0
 22 51  1  0  0  0  0
 23 52  1  0  0  0  0
 23 53  1  0  0  0  0
 24 54  1  0  0  0  0
 24 55  1  0  0  0  0
 25 56  1  0  0  0  0
 25 57  1  0  0  0  0
 26 58  1  0  0  0  0
 26 59  1  0  0  0  0
M  END
> <clash_score>
0

> <docking_score>
-8.717757225036621

> <overlap_score>
1.0074560642242432

$$$$
BENZO_484_1
  -OEChem-08232013513D

 56 60  0     0  0  0  0  0  0999 V2000
    8.3310   -2.7170   25.3430 C   0  0  0  0  0  0  0  0  0  0  0  0
   10.2570   -3.5000   24.1350 C   0  0  0  0  0  0  0  0  0  0  0  0
    8.3510   -1.5420   24.6110 C   0  0  0  0  0  0  0  0  0  0  0  0
   10.2760   -2.3270   23.4020 C   0  0  0  0  0  0  0  0  0  0  0  0
   12.2965    1.1638   22.6150 C   0  0  0  0  0  0  0  0  0  0  0  0
   13.6401    1.1644   22.9190 C   0  0  0  0  0  0  0  0  0  0  0  0
   12.2369    1.0266   24.9345 C   0  0  0  0  0  0  0  0  0  0  0  0
   11.4836    1.0842   23.7825 C   0  0  0  0  0  0  0  0  0  0  0  0
    9.2850   -3.7090   25.1090 C   0  0  0  0  0  0  0  0  0  0  0  0
    9.3300   -1.3350   23.6390 C   0  0  0  0  0  0  0  0  0  0  0  0
    5.9810    0.8330   18.8060 C   0  0  0  0  0  0  0  0  0  0  0  0
    7.2210   -0.4620   20.0350 C   0  0  0  0  0  0  0  0  0  0  0  0
    4.9400    1.7060   18.5060 C   0  0  0  0  0  0  0  0  0  0  0  0
    4.0980    2.1130   19.5350 C   0  0  0  0  0  0  0  0  0  0  0  0
    4.2970    1.6690   20.8430 C   0  0  0  0  0  0  0  0  0  0  0  0
    5.3360    0.8000   21.1530 C   0  0  0  0  0  0  0  0  0  0  0  0
    8.9510    0.1280   21.6880 C   0  0  0  0  0  0  0  0  0  0  0  0
    7.3162   -6.8835   26.5210 C   0  0  0  0  0  0  0  0  0  0  0  0
    7.3507   -5.5245   27.2240 C   0  0  0  0  0  0  0  0  0  0  0  0
    7.9375   -6.8069   25.1245 C   0  0  0  0  0  0  0  0  0  0  0  0
    8.7638   -4.9418   27.2163 C   0  0  0  0  0  0  0  0  0  0  0  0
    9.3378   -6.1874   25.1659 C   0  0  0  0  0  0  0  0  0  0  0  0
    9.9825    1.0644   23.7577 C   0  0  0  0  0  0  0  0  0  0  0  0
    8.0810   -0.9750   21.0820 C   0  0  0  0  0  0  0  0  0  0  0  0
    6.9440    0.2550   18.0100 N   0  0  0  0  0  0  0  0  0  0  0  0
    7.6830   -0.5170   18.7600 N   0  0  0  0  0  0  0  0  0  0  0  0
    6.1600    0.3870   20.1140 N   0  0  0  0  0  0  0  0  0  0  0  0
    9.2639   -4.8860   25.8399 N   0  0  0  0  0  0  0  0  0  0  0  0
    9.4200   -0.0840   22.9530 N   0  0  0  0  0  0  0  0  0  0  0  0
    9.1870    1.1500   21.0630 O   0  0  0  0  0  0  0  0  0  0  0  0
   13.9170    1.0690   24.6062 S   0  0  0  0  0  0  0  0  0  0  0  0
    7.5647   -2.8621   26.1053 H   0  0  0  0  0  0  0  0  0  0  0  0
   11.0144   -4.2642   23.9425 H   0  0  0  0  0  0  0  0  0  0  0  0
    7.5958   -0.7779   24.8006 H   0  0  0  0  0  0  0  0  0  0  0  0
   11.0406   -2.1848   22.6356 H   0  0  0  0  0  0  0  0  0  0  0  0
   11.9191    1.2177   21.6016 H   0  0  0  0  0  0  0  0  0  0  0  0
   14.4722    1.2155   22.2312 H   0  0  0  0  0  0  0  0  0  0  0  0
   11.8852    0.9605   25.9547 H   0  0  0  0  0  0  0  0  0  0  0  0
    4.7732    2.0709   17.5073 H   0  0  0  0  0  0  0  0  0  0  0  0
    3.2823    2.7848   19.2995 H   0  0  0  0  0  0  0  0  0  0  0  0
    3.6338    1.9971   21.6547 H   0  0  0  0  0  0  0  0  0  0  0  0
    5.5079    0.4527   22.1466 H   0  0  0  0  0  0  0  0  0  0  0  0
    7.8578   -7.6261   27.1266 H   0  0  0  0  0  0  0  0  0  0  0  0
    6.2773   -7.2358   26.4459 H   0  0  0  0  0  0  0  0  0  0  0  0
    6.6663   -4.8351   26.7223 H   0  0  0  0  0  0  0  0  0  0  0  0
    7.0044   -5.6368   28.2534 H   0  0  0  0  0  0  0  0  0  0  0  0
    7.9946   -7.8119   24.6937 H   0  0  0  0  0  0  0  0  0  0  0  0
    7.2929   -6.2123   24.4668 H   0  0  0  0  0  0  0  0  0  0  0  0
    8.7343   -3.9408   27.6542 H   0  0  0  0  0  0  0  0  0  0  0  0
    9.4243   -5.5632   27.8278 H   0  0  0  0  0  0  0  0  0  0  0  0
   10.0200   -6.8490   25.7011 H   0  0  0  0  0  0  0  0  0  0  0  0
    9.6984   -6.0694   24.1436 H   0  0  0  0  0  0  0  0  0  0  0  0
    9.5805    0.9993   24.7746 H   0  0  0  0  0  0  0  0  0  0  0  0
    9.5848    1.9806   23.3087 H   0  0  0  0  0  0  0  0  0  0  0  0
    7.4781   -1.4136   21.8845 H   0  0  0  0  0  0  0  0  0  0  0  0
    8.7420   -1.7550   20.6889 H   0  0  0  0  0  0  0  0  0  0  0  0
  1  3  2  0  0  0  0
  1  9  1  0  0  0  0
  2  4  1  0  0  0  0
  2  9  2  0  0  0  0
  3 10  1  0  0  0  0
  4 10  2  0  0  0  0
  5  6  2  0  0  0  0
  5  8  1  0  0  0  0
  6 31  1  0  0  0  0
  7  8  2  0  0  0  0
  7 31  1  0  0  0  0
  8 23  1  0  0  0  0
  9 28  1  0  0  0  0
 10 29  1  0  0  0  0
 11 13  1  0  0  0  0
 11 25  2  0  0  0  0
 11 27  1  0  0  0  0
 12 24  1  0  0  0  0
 12 26  2  0  0  0  0
 12 27  1  0  0  0  0
 13 14  2  0  0  0  0
 14 15  1  0  0  0  0
 15 16  2  0  0  0  0
 16 27  1  0  0  0  0
 17 24  1  0  0  0  0
 17 29  1  0  0  0  0
 17 30  2  0  0  0  0
 18 19  1  0  0  0  0
 18 20  1  0  0  0  0
 19 21  1  0  0  0  0
 20 22  1  0  0  0  0
 21 28  1  0  0  0  0
 22 28  1  0  0  0  0
 23 29  1  0  0  0  0
 25 26  1  0  0  0  0
  1 32  1  0  0  0  0
  2 33  1  0  0  0  0
  3 34  1  0  0  0  0
  4 35  1  0  0  0  0
  5 36  1  0  0  0  0
  6 37  1  0  0  0  0
  7 38  1  0  0  0  0
 13 39  1  0  0  0  0
 14 40  1  0  0  0  0
 15 41  1  0  0  0  0
 16 42  1  0  0  0  0
 18 43  1  0  0  0  0
 18 44  1  0  0  0  0
 19 45  1  0  0  0  0
 19 46  1  0  0  0  0
 20 47  1  0  0  0  0
 20 48  1  0  0  0  0
 21 49  1  0  0  0  0
 21 50  1  0  0  0  0
 22 51  1  0  0  0  0
 22 52  1  0  0  0  0
 23 53  1  0  0  0  0
 23 54  1  0  0  0  0
 24 55  1  0  0  0  0
 24 56  1  0  0  0  0
M  END
> <clash_score>
0

> <docking_score>
-9.07981014251709

> <overlap_score>
0.9859398007392883

$$$$
BENZO_482_1
  -OEChem-08232013513D

 54 57  0     0  0  0  0  0  0999 V2000
   13.6694    1.7750   22.7204 C   0  0  0  0  0  0  0  0  0  0  0  0
   12.2786    1.8455   22.7998 C   0  0  0  0  0  0  0  0  0  0  0  0
    8.3310   -2.7170   25.3430 C   0  0  0  0  0  0  0  0  0  0  0  0
   10.2570   -3.5000   24.1350 C   0  0  0  0  0  0  0  0  0  0  0  0
    8.3510   -1.5420   24.6110 C   0  0  0  0  0  0  0  0  0  0  0  0
   10.2760   -2.3270   23.4020 C   0  0  0  0  0  0  0  0  0  0  0  0
   14.3640    0.8285   23.4737 C   0  0  0  0  0  0  0  0  0  0  0  0
   12.2769    0.0230   24.3860 C   0  0  0  0  0  0  0  0  0  0  0  0
   11.5824    0.9695   23.6326 C   0  0  0  0  0  0  0  0  0  0  0  0
    9.2850   -3.7090   25.1090 C   0  0  0  0  0  0  0  0  0  0  0  0
    9.3300   -1.3350   23.6390 C   0  0  0  0  0  0  0  0  0  0  0  0
   13.6678   -0.0474   24.3065 C   0  0  0  0  0  0  0  0  0  0  0  0
    5.9810    0.8330   18.8060 C   0  0  0  0  0  0  0  0  0  0  0  0
    7.2210   -0.4620   20.0350 C   0  0  0  0  0  0  0  0  0  0  0  0
    4.9400    1.7060   18.5060 C   0  0  0  0  0  0  0  0  0  0  0  0
    4.0980    2.1130   19.5350 C   0  0  0  0  0  0  0  0  0  0  0  0
    4.2970    1.6690   20.8430 C   0  0  0  0  0  0  0  0  0  0  0  0
    5.3360    0.8000   21.1530 C   0  0  0  0  0  0  0  0  0  0  0  0
    8.9510    0.1280   21.6880 C   0  0  0  0  0  0  0  0  0  0  0  0
    9.6855   -6.1678   25.4393 C   0  0  0  0  0  0  0  0  0  0  0  0
    8.0405   -7.2921   26.9999 C   0  0  0  0  0  0  0  0  0  0  0  0
   10.0855    1.0467   23.7186 C   0  0  0  0  0  0  0  0  0  0  0  0
    8.0810   -0.9750   21.0820 C   0  0  0  0  0  0  0  0  0  0  0  0
    9.4870   -7.1874   26.5510 C   0  0  0  0  0  0  0  0  0  0  0  0
    6.9440    0.2550   18.0100 N   0  0  0  0  0  0  0  0  0  0  0  0
    7.6830   -0.5170   18.7600 N   0  0  0  0  0  0  0  0  0  0  0  0
    6.1600    0.3870   20.1140 N   0  0  0  0  0  0  0  0  0  0  0  0
    9.2630   -4.8902   25.8410 N   0  0  0  0  0  0  0  0  0  0  0  0
    9.4200   -0.0840   22.9530 N   0  0  0  0  0  0  0  0  0  0  0  0
    9.1870    1.1500   21.0630 O   0  0  0  0  0  0  0  0  0  0  0  0
   10.1589   -6.4763   24.3506 O   0  0  0  0  0  0  0  0  0  0  0  0
   14.5254   -1.2142   25.2365 Cl  0  0  0  0  0  0  0  0  0  0  0  0
   14.2112    2.4574   22.0718 H   0  0  0  0  0  0  0  0  0  0  0  0
   11.7457    2.5862   22.2094 H   0  0  0  0  0  0  0  0  0  0  0  0
    7.5639   -2.8621   26.1045 H   0  0  0  0  0  0  0  0  0  0  0  0
   11.0141   -4.2644   23.9422 H   0  0  0  0  0  0  0  0  0  0  0  0
    7.5950   -0.7788   24.8007 H   0  0  0  0  0  0  0  0  0  0  0  0
   11.0408   -2.1861   22.6359 H   0  0  0  0  0  0  0  0  0  0  0  0
   15.4480    0.7853   23.4020 H   0  0  0  0  0  0  0  0  0  0  0  0
   11.7295   -0.6580   25.0334 H   0  0  0  0  0  0  0  0  0  0  0  0
    4.7732    2.0709   17.5073 H   0  0  0  0  0  0  0  0  0  0  0  0
    3.2823    2.7848   19.2995 H   0  0  0  0  0  0  0  0  0  0  0  0
    3.6338    1.9971   21.6547 H   0  0  0  0  0  0  0  0  0  0  0  0
    5.5079    0.4527   22.1466 H   0  0  0  0  0  0  0  0  0  0  0  0
    7.6712   -6.3280   27.3648 H   0  0  0  0  0  0  0  0  0  0  0  0
    7.9444   -8.0232   27.8085 H   0  0  0  0  0  0  0  0  0  0  0  0
    7.3945   -7.6083   26.1742 H   0  0  0  0  0  0  0  0  0  0  0  0
    9.7554    0.9938   24.7618 H   0  0  0  0  0  0  0  0  0  0  0  0
    9.7166    1.9927   23.3083 H   0  0  0  0  0  0  0  0  0  0  0  0
    7.4889   -1.4161   21.8965 H   0  0  0  0  0  0  0  0  0  0  0  0
    8.7528   -1.7575   20.7010 H   0  0  0  0  0  0  0  0  0  0  0  0
    9.8297   -8.1645   26.1916 H   0  0  0  0  0  0  0  0  0  0  0  0
   10.1142   -6.8996   27.4026 H   0  0  0  0  0  0  0  0  0  0  0  0
    8.8930   -4.8275   26.7966 H   0  0  0  0  0  0  0  0  0  0  0  0
  1  2  2  0  0  0  0
  1  7  1  0  0  0  0
  2  9  1  0  0  0  0
  3  5  2  0  0  0  0
  3 10  1  0  0  0  0
  4  6  1  0  0  0  0
  4 10  2  0  0  0  0
  5 11  1  0  0  0  0
  6 11  2  0  0  0  0
  7 12  2  0  0  0  0
  8  9  2  0  0  0  0
  8 12  1  0  0  0  0
  9 22  1  0  0  0  0
 10 28  1  0  0  0  0
 11 29  1  0  0  0  0
 12 32  1  0  0  0  0
 13 15  1  0  0  0  0
 13 25  2  0  0  0  0
 13 27  1  0  0  0  0
 14 23  1  0  0  0  0
 14 26  2  0  0  0  0
 14 27  1  0  0  0  0
 15 16  2  0  0  0  0
 16 17  1  0  0  0  0
 17 18  2  0  0  0  0
 18 27  1  0  0  0  0
 19 23  1  0  0  0  0
 19 29  1  0  0  0  0
 19 30  2  0  0  0  0
 20 24  1  0  0  0  0
 20 28  1  0  0  0  0
 20 31  2  0  0  0  0
 21 24  1  0  0  0  0
 22 29  1  0  0  0  0
 25 26  1  0  0  0  0
  1 33  1  0  0  0  0
  2 34  1  0  0  0  0
  3 35  1  0  0  0  0
  4 36  1  0  0  0  0
  5 37  1  0  0  0  0
  6 38  1  0  0  0  0
  7 39  1  0  0  0  0
  8 40  1  0  0  0  0
 15 41  1  0  0  0  0
 16 42  1  0  0  0  0
 17 43  1  0  0  0  0
 18 44  1  0  0  0  0
 21 45  1  0  0  0  0
 21 46  1  0  0  0  0
 21 47  1  0  0  0  0
 22 48  1  0  0  0  0
 22 49  1  0  0  0  0
 23 50  1  0  0  0  0
 23 51  1  0  0  0  0
 24 52  1  0  0  0  0
 24 53  1  0  0  0  0
 28 54  1  0  0  0  0
M  END
> <clash_score>
2.144034278402171

> <docking_score>
-5.439260005950928

> <overlap_score>
0.9889559745788574

$$$$
BENZO_483_1
  -OEChem-08232013513D

 54 57  0     0  0  0  0  0  0999 V2000
    8.3310   -2.7170   25.3430 C   0  0  0  0  0  0  0  0  0  0  0  0
   10.2570   -3.5000   24.1350 C   0  0  0  0  0  0  0  0  0  0  0  0
    8.3510   -1.5420   24.6110 C   0  0  0  0  0  0  0  0  0  0  0  0
   10.2760   -2.3270   23.4020 C   0  0  0  0  0  0  0  0  0  0  0  0
   12.4450    1.7639   22.8537 C   0  0  0  0  0  0  0  0  0  0  0  0
   12.4181    0.1078   24.3000 C   0  0  0  0  0  0  0  0  0  0  0  0
   11.5824    0.9695   23.6326 C   0  0  0  0  0  0  0  0  0  0  0  0
    9.2850   -3.7090   25.1090 C   0  0  0  0  0  0  0  0  0  0  0  0
    9.3300   -1.3350   23.6390 C   0  0  0  0  0  0  0  0  0  0  0  0
    5.9810    0.8330   18.8060 C   0  0  0  0  0  0  0  0  0  0  0  0
    7.2210   -0.4620   20.0350 C   0  0  0  0  0  0  0  0  0  0  0  0
    4.9400    1.7060   18.5060 C   0  0  0  0  0  0  0  0  0  0  0  0
    4.0980    2.1130   19.5350 C   0  0  0  0  0  0  0  0  0  0  0  0
    4.2970    1.6690   20.8430 C   0  0  0  0  0  0  0  0  0  0  0  0
    5.3360    0.8000   21.1530 C   0  0  0  0  0  0  0  0  0  0  0  0
    8.9510    0.1280   21.6880 C   0  0  0  0  0  0  0  0  0  0  0  0
    9.6855   -6.1678   25.4393 C   0  0  0  0  0  0  0  0  0  0  0  0
    8.0405   -7.2921   26.9999 C   0  0  0  0  0  0  0  0  0  0  0  0
   14.9037   -0.2087   24.3275 C   0  0  0  0  0  0  0  0  0  0  0  0
   10.0855    1.0467   23.7186 C   0  0  0  0  0  0  0  0  0  0  0  0
    8.0810   -0.9750   21.0820 C   0  0  0  0  0  0  0  0  0  0  0  0
    9.4870   -7.1874   26.5510 C   0  0  0  0  0  0  0  0  0  0  0  0
   13.7303    1.4360   23.0109 N   0  0  0  0  0  0  0  0  0  0  0  0
    6.9440    0.2550   18.0100 N   0  0  0  0  0  0  0  0  0  0  0  0
    7.6830   -0.5170   18.7600 N   0  0  0  0  0  0  0  0  0  0  0  0
   13.6814    0.4262   23.8963 N   0  0  0  0  0  0  0  0  0  0  0  0
    6.1600    0.3870   20.1140 N   0  0  0  0  0  0  0  0  0  0  0  0
    9.2630   -4.8902   25.8410 N   0  0  0  0  0  0  0  0  0  0  0  0
    9.4200   -0.0840   22.9530 N   0  0  0  0  0  0  0  0  0  0  0  0
    9.1870    1.1500   21.0630 O   0  0  0  0  0  0  0  0  0  0  0  0
   10.1589   -6.4763   24.3506 O   0  0  0  0  0  0  0  0  0  0  0  0
    7.5639   -2.8621   26.1045 H   0  0  0  0  0  0  0  0  0  0  0  0
   11.0141   -4.2644   23.9422 H   0  0  0  0  0  0  0  0  0  0  0  0
    7.5950   -0.7788   24.8007 H   0  0  0  0  0  0  0  0  0  0  0  0
   11.0408   -2.1861   22.6359 H   0  0  0  0  0  0  0  0  0  0  0  0
   12.1932    2.5691   22.1782 H   0  0  0  0  0  0  0  0  0  0  0  0
   12.2264   -0.6843   25.0111 H   0  0  0  0  0  0  0  0  0  0  0  0
    4.7732    2.0709   17.5073 H   0  0  0  0  0  0  0  0  0  0  0  0
    3.2823    2.7848   19.2995 H   0  0  0  0  0  0  0  0  0  0  0  0
    3.6338    1.9971   21.6547 H   0  0  0  0  0  0  0  0  0  0  0  0
    5.5079    0.4527   22.1466 H   0  0  0  0  0  0  0  0  0  0  0  0
    7.6712   -6.3280   27.3648 H   0  0  0  0  0  0  0  0  0  0  0  0
    7.9444   -8.0232   27.8085 H   0  0  0  0  0  0  0  0  0  0  0  0
    7.3945   -7.6083   26.1742 H   0  0  0  0  0  0  0  0  0  0  0  0
   15.1112   -1.0384   23.6466 H   0  0  0  0  0  0  0  0  0  0  0  0
   15.7199    0.5187   24.3038 H   0  0  0  0  0  0  0  0  0  0  0  0
   14.7795   -0.5744   25.3507 H   0  0  0  0  0  0  0  0  0  0  0  0
    9.7554    0.9938   24.7618 H   0  0  0  0  0  0  0  0  0  0  0  0
    9.7166    1.9927   23.3083 H   0  0  0  0  0  0  0  0  0  0  0  0
    7.4889   -1.4161   21.8965 H   0  0  0  0  0  0  0  0  0  0  0  0
    8.7528   -1.7575   20.7010 H   0  0  0  0  0  0  0  0  0  0  0  0
    9.8297   -8.1645   26.1916 H   0  0  0  0  0  0  0  0  0  0  0  0
   10.1142   -6.8996   27.4026 H   0  0  0  0  0  0  0  0  0  0  0  0
    8.8930   -4.8275   26.7966 H   0  0  0  0  0  0  0  0  0  0  0  0
  1  3  2  0  0  0  0
  1  8  1  0  0  0  0
  2  4  1  0  0  0  0
  2  8  2  0  0  0  0
  3  9  1  0  0  0  0
  4  9  2  0  0  0  0
  5  7  1  0  0  0  0
  5 23  2  0  0  0  0
  6  7  2  0  0  0  0
  6 26  1  0  0  0  0
  7 20  1  0  0  0  0
  8 28  1  0  0  0  0
  9 29  1  0  0  0  0
 10 12  1  0  0  0  0
 10 24  2  0  0  0  0
 10 27  1  0  0  0  0
 11 21  1  0  0  0  0
 11 25  2  0  0  0  0
 11 27  1  0  0  0  0
 12 13  2  0  0  0  0
 13 14  1  0  0  0  0
 14 15  2  0  0  0  0
 15 27  1  0  0  0  0
 16 21  1  0  0  0  0
 16 29  1  0  0  0  0
 16 30  2  0  0  0  0
 17 22  1  0  0  0  0
 17 28  1  0  0  0  0
 17 31  2  0  0  0  0
 18 22  1  0  0  0  0
 19 26  1  0  0  0  0
 20 29  1  0  0  0  0
 23 26  1  0  0  0  0
 24 25  1  0  0  0  0
  1 32  1  0  0  0  0
  2 33  1  0  0  0  0
  3 34  1  0  0  0  0
  4 35  1  0  0  0  0
  5 36  1  0  0  0  0
  6 37  1  0  0  0  0
 12 38  1  0  0  0  0
 13 39  1  0  0  0  0
 14 40  1  0  0  0  0
 15 41  1  0  0  0  0
 18 42  1  0  0  0  0
 18 43  1  0  0  0  0
 18 44  1  0  0  0  0
 19 45  1  0  0  0  0
 19 46  1  0  0  0  0
 19 47  1  0  0  0  0
 20 48  1  0  0  0  0
 20 49  1  0  0  0  0
 21 50  1  0  0  0  0
 21 51  1  0  0  0  0
 22 52  1  0  0  0  0
 22 53  1  0  0  0  0
 28 54  1  0  0  0  0
M  END
> <clash_score>
1.3340877668690392

> <docking_score>
-6.005640029907227

> <overlap_score>
0.9847729802131653

$$$$
BENZO_489_1
  -OEChem-08232013513D

 47 50  0     0  0  0  0  0  0999 V2000
   14.3638    0.8263   23.4716 C   0  0  0  0  0  0  0  0  0  0  0  0
   13.6907    0.1762   24.5059 C   0  0  0  0  0  0  0  0  0  0  0  0
   13.6462    1.5482   22.5178 C   0  0  0  0  0  0  0  0  0  0  0  0
   12.3000    0.2477   24.5864 C   0  0  0  0  0  0  0  0  0  0  0  0
   12.2555    1.6197   22.5983 C   0  0  0  0  0  0  0  0  0  0  0  0
    8.3310   -2.7170   25.3430 C   0  0  0  0  0  0  0  0  0  0  0  0
   10.2570   -3.5000   24.1350 C   0  0  0  0  0  0  0  0  0  0  0  0
    8.3510   -1.5420   24.6110 C   0  0  0  0  0  0  0  0  0  0  0  0
   10.2760   -2.3270   23.4020 C   0  0  0  0  0  0  0  0  0  0  0  0
    9.2850   -3.7090   25.1090 C   0  0  0  0  0  0  0  0  0  0  0  0
   11.5824    0.9695   23.6326 C   0  0  0  0  0  0  0  0  0  0  0  0
    9.3300   -1.3350   23.6390 C   0  0  0  0  0  0  0  0  0  0  0  0
    5.9810    0.8330   18.8060 C   0  0  0  0  0  0  0  0  0  0  0  0
    7.2210   -0.4620   20.0350 C   0  0  0  0  0  0  0  0  0  0  0  0
    4.9400    1.7060   18.5060 C   0  0  0  0  0  0  0  0  0  0  0  0
    4.0980    2.1130   19.5350 C   0  0  0  0  0  0  0  0  0  0  0  0
    4.2970    1.6690   20.8430 C   0  0  0  0  0  0  0  0  0  0  0  0
    5.3360    0.8000   21.1530 C   0  0  0  0  0  0  0  0  0  0  0  0
    8.9510    0.1280   21.6880 C   0  0  0  0  0  0  0  0  0  0  0  0
    9.2610   -4.9721   25.8916 C   0  0  0  0  0  0  0  0  0  0  0  0
   10.0855    1.0467   23.7186 C   0  0  0  0  0  0  0  0  0  0  0  0
    8.0810   -0.9750   21.0820 C   0  0  0  0  0  0  0  0  0  0  0  0
    6.9440    0.2550   18.0100 N   0  0  0  0  0  0  0  0  0  0  0  0
    7.6830   -0.5170   18.7600 N   0  0  0  0  0  0  0  0  0  0  0  0
    6.1600    0.3870   20.1140 N   0  0  0  0  0  0  0  0  0  0  0  0
    9.4200   -0.0840   22.9530 N   0  0  0  0  0  0  0  0  0  0  0  0
    9.1870    1.1500   21.0630 O   0  0  0  0  0  0  0  0  0  0  0  0
   15.4468    0.7717   23.4098 H   0  0  0  0  0  0  0  0  0  0  0  0
   14.2494   -0.3850   25.2493 H   0  0  0  0  0  0  0  0  0  0  0  0
   14.1699    2.0554   21.7130 H   0  0  0  0  0  0  0  0  0  0  0  0
   11.7840   -0.2622   25.3957 H   0  0  0  0  0  0  0  0  0  0  0  0
   11.7047    2.1843   21.8506 H   0  0  0  0  0  0  0  0  0  0  0  0
    7.5665   -2.8638   26.1066 H   0  0  0  0  0  0  0  0  0  0  0  0
   11.0137   -4.2652   23.9447 H   0  0  0  0  0  0  0  0  0  0  0  0
    7.5948   -0.7788   24.7997 H   0  0  0  0  0  0  0  0  0  0  0  0
   11.0411   -2.1856   22.6358 H   0  0  0  0  0  0  0  0  0  0  0  0
    4.7732    2.0709   17.5073 H   0  0  0  0  0  0  0  0  0  0  0  0
    3.2823    2.7848   19.2995 H   0  0  0  0  0  0  0  0  0  0  0  0
    3.6338    1.9971   21.6547 H   0  0  0  0  0  0  0  0  0  0  0  0
    5.5079    0.4527   22.1466 H   0  0  0  0  0  0  0  0  0  0  0  0
    8.6398   -5.7223   25.3871 H   0  0  0  0  0  0  0  0  0  0  0  0
   10.2715   -5.3829   26.0145 H   0  0  0  0  0  0  0  0  0  0  0  0
    8.8596   -4.8092   26.9004 H   0  0  0  0  0  0  0  0  0  0  0  0
    9.7554    0.9938   24.7618 H   0  0  0  0  0  0  0  0  0  0  0  0
    9.7166    1.9927   23.3083 H   0  0  0  0  0  0  0  0  0  0  0  0
    7.4889   -1.4161   21.8965 H   0  0  0  0  0  0  0  0  0  0  0  0
    8.7528   -1.7575   20.7010 H   0  0  0  0  0  0  0  0  0  0  0  0
  1  2  1  0  0  0  0
  1  3  2  0  0  0  0
  2  4  2  0  0  0  0
  3  5  1  0  0  0  0
  4 11  1  0  0  0  0
  5 11  2  0  0  0  0
  6  8  2  0  0  0  0
  6 10  1  0  0  0  0
  7  9  1  0  0  0  0
  7 10  2  0  0  0  0
  8 12  1  0  0  0  0
  9 12  2  0  0  0  0
 10 20  1  0  0  0  0
 11 21  1  0  0  0  0
 12 26  1  0  0  0  0
 13 15  1  0  0  0  0
 13 23  2  0  0  0  0
 13 25  1  0  0  0  0
 14 22  1  0  0  0  0
 14 24  2  0  0  0  0
 14 25  1  0  0  0  0
 15 16  2  0  0  0  0
 16 17  1  0  0  0  0
 17 18  2  0  0  0  0
 18 25  1  0  0  0  0
 19 22  1  0  0  0  0
 19 26  1  0  0  0  0
 19 27  2  0  0  0  0
 21 26  1  0  0  0  0
 23 24  1  0  0  0  0
  1 28  1  0  0  0  0
  2 29  1  0  0  0  0
  3 30  1  0  0  0  0
  4 31  1  0  0  0  0
  5 32  1  0  0  0  0
  6 33  1  0  0  0  0
  7 34  1  0  0  0  0
  8 35  1  0  0  0  0
  9 36  1  0  0  0  0
 15 37  1  0  0  0  0
 16 38  1  0  0  0  0
 17 39  1  0  0  0  0
 18 40  1  0  0  0  0
 20 41  1  0  0  0  0
 20 42  1  0  0  0  0
 20 43  1  0  0  0  0
 21 44  1  0  0  0  0
 21 45  1  0  0  0  0
 22 46  1  0  0  0  0
 22 47  1  0  0  0  0
M  END
> <clash_score>
0

> <docking_score>
-9.45631217956543

> <overlap_score>
0.9690110087394714

$$$$
BENZO_488_1
  -OEChem-08232013513D

 44 47  0     0  0  0  0  0  0999 V2000
    8.3310   -2.7170   25.3430 C   0  0  0  0  0  0  0  0  0  0  0  0
   10.2570   -3.5000   24.1350 C   0  0  0  0  0  0  0  0  0  0  0  0
    8.3510   -1.5420   24.6110 C   0  0  0  0  0  0  0  0  0  0  0  0
   10.2760   -2.3270   23.4020 C   0  0  0  0  0  0  0  0  0  0  0  0
   12.3113    1.0126   22.4091 C   0  0  0  0  0  0  0  0  0  0  0  0
   13.6706    0.9225   22.6131 C   0  0  0  0  0  0  0  0  0  0  0  0
   12.4125    0.8479   24.7253 C   0  0  0  0  0  0  0  0  0  0  0  0
    9.2850   -3.7090   25.1090 C   0  0  0  0  0  0  0  0  0  0  0  0
   11.5824    0.9695   23.6326 C   0  0  0  0  0  0  0  0  0  0  0  0
    9.3300   -1.3350   23.6390 C   0  0  0  0  0  0  0  0  0  0  0  0
    5.9810    0.8330   18.8060 C   0  0  0  0  0  0  0  0  0  0  0  0
    7.2210   -0.4620   20.0350 C   0  0  0  0  0  0  0  0  0  0  0  0
    4.9400    1.7060   18.5060 C   0  0  0  0  0  0  0  0  0  0  0  0
    4.0980    2.1130   19.5350 C   0  0  0  0  0  0  0  0  0  0  0  0
    4.2970    1.6690   20.8430 C   0  0  0  0  0  0  0  0  0  0  0  0
    5.3360    0.8000   21.1530 C   0  0  0  0  0  0  0  0  0  0  0  0
    8.9510    0.1280   21.6880 C   0  0  0  0  0  0  0  0  0  0  0  0
    9.2610   -4.9721   25.8916 C   0  0  0  0  0  0  0  0  0  0  0  0
   10.0855    1.0467   23.7186 C   0  0  0  0  0  0  0  0  0  0  0  0
    8.0810   -0.9750   21.0820 C   0  0  0  0  0  0  0  0  0  0  0  0
    6.9440    0.2550   18.0100 N   0  0  0  0  0  0  0  0  0  0  0  0
    7.6830   -0.5170   18.7600 N   0  0  0  0  0  0  0  0  0  0  0  0
    6.1600    0.3870   20.1140 N   0  0  0  0  0  0  0  0  0  0  0  0
    9.4200   -0.0840   22.9530 N   0  0  0  0  0  0  0  0  0  0  0  0
    9.1870    1.1500   21.0630 O   0  0  0  0  0  0  0  0  0  0  0  0
   14.0633    0.7865   24.2744 S   0  0  0  0  0  0  0  0  0  0  0  0
    7.5665   -2.8638   26.1066 H   0  0  0  0  0  0  0  0  0  0  0  0
   11.0137   -4.2652   23.9447 H   0  0  0  0  0  0  0  0  0  0  0  0
    7.5948   -0.7788   24.7997 H   0  0  0  0  0  0  0  0  0  0  0  0
   11.0411   -2.1856   22.6358 H   0  0  0  0  0  0  0  0  0  0  0  0
   11.8651    1.1045   21.4269 H   0  0  0  0  0  0  0  0  0  0  0  0
   14.4519    0.9293   21.8663 H   0  0  0  0  0  0  0  0  0  0  0  0
   12.1327    0.7906   25.7682 H   0  0  0  0  0  0  0  0  0  0  0  0
    4.7732    2.0709   17.5073 H   0  0  0  0  0  0  0  0  0  0  0  0
    3.2823    2.7848   19.2995 H   0  0  0  0  0  0  0  0  0  0  0  0
    3.6338    1.9971   21.6547 H   0  0  0  0  0  0  0  0  0  0  0  0
    5.5079    0.4527   22.1466 H   0  0  0  0  0  0  0  0  0  0  0  0
    8.6398   -5.7223   25.3871 H   0  0  0  0  0  0  0  0  0  0  0  0
   10.2715   -5.3829   26.0145 H   0  0  0  0  0  0  0  0  0  0  0  0
    8.8596   -4.8092   26.9004 H   0  0  0  0  0  0  0  0  0  0  0  0
    9.7554    0.9938   24.7618 H   0  0  0  0  0  0  0  0  0  0  0  0
    9.7166    1.9927   23.3083 H   0  0  0  0  0  0  0  0  0  0  0  0
    7.4889   -1.4161   21.8965 H   0  0  0  0  0  0  0  0  0  0  0  0
    8.7528   -1.7575   20.7010 H   0  0  0  0  0  0  0  0  0  0  0  0
  1  3  2  0  0  0  0
  1  8  1  0  0  0  0
  2  4  1  0  0  0  0
  2  8  2  0  0  0  0
  3 10  1  0  0  0  0
  4 10  2  0  0  0  0
  5  6  2  0  0  0  0
  5  9  1  0  0  0  0
  6 26  1  0  0  0  0
  7  9  2  0  0  0  0
  7 26  1  0  0  0  0
  8 18  1  0  0  0  0
  9 19  1  0  0  0  0
 10 24  1  0  0  0  0
 11 13  1  0  0  0  0
 11 21  2  0  0  0  0
 11 23  1  0  0  0  0
 12 20  1  0  0  0  0
 12 22  2  0  0  0  0
 12 23  1  0  0  0  0
 13 14  2  0  0  0  0
 14 15  1  0  0  0  0
 15 16  2  0  0  0  0
 16 23  1  0  0  0  0
 17 20  1  0  0  0  0
 17 24  1  0  0  0  0
 17 25  2  0  0  0  0
 19 24  1  0  0  0  0
 21 22  1  0  0  0  0
  1 27  1  0  0  0  0
  2 28  1  0  0  0  0
  3 29  1  0  0  0  0
  4 30  1  0  0  0  0
  5 31  1  0  0  0  0
  6 32  1  0  0  0  0
  7 33  1  0  0  0  0
 13 34  1  0  0  0  0
 14 35  1  0  0  0  0
 15 36  1  0  0  0  0
 16 37  1  0  0  0  0
 18 38  1  0  0  0  0
 18 39  1  0  0  0  0
 18 40  1  0  0  0  0
 19 41  1  0  0  0  0
 19 42  1  0  0  0  0
 20 43  1  0  0  0  0
 20 44  1  0  0  0  0
M  END
> <clash_score>
0

> <docking_score>
-9.780617713928223

> <overlap_score>
0.9434208869934082

$$$$
BENZO_487_1
  -OEChem-08232013513D

 59 63  0     0  0  0  0  0  0999 V2000
    8.3310   -2.7170   25.3430 C   0  0  0  0  0  0  0  0  0  0  0  0
   10.2570   -3.5000   24.1350 C   0  0  0  0  0  0  0  0  0  0  0  0
    8.3510   -1.5420   24.6110 C   0  0  0  0  0  0  0  0  0  0  0  0
   10.2760   -2.3270   23.4020 C   0  0  0  0  0  0  0  0  0  0  0  0
   12.3238    1.8341   24.6271 C   0  0  0  0  0  0  0  0  0  0  0  0
   12.3457    0.3708   22.9860 C   0  0  0  0  0  0  0  0  0  0  0  0
   11.4836    1.0842   23.7825 C   0  0  0  0  0  0  0  0  0  0  0  0
    9.2850   -3.7090   25.1090 C   0  0  0  0  0  0  0  0  0  0  0  0
    9.3300   -1.3350   23.6390 C   0  0  0  0  0  0  0  0  0  0  0  0
    5.9810    0.8330   18.8060 C   0  0  0  0  0  0  0  0  0  0  0  0
    7.2210   -0.4620   20.0350 C   0  0  0  0  0  0  0  0  0  0  0  0
    4.9400    1.7060   18.5060 C   0  0  0  0  0  0  0  0  0  0  0  0
    4.0980    2.1130   19.5350 C   0  0  0  0  0  0  0  0  0  0  0  0
    4.2970    1.6690   20.8430 C   0  0  0  0  0  0  0  0  0  0  0  0
    5.3360    0.8000   21.1530 C   0  0  0  0  0  0  0  0  0  0  0  0
    8.9510    0.1280   21.6880 C   0  0  0  0  0  0  0  0  0  0  0  0
    7.3162   -6.8835   26.5210 C   0  0  0  0  0  0  0  0  0  0  0  0
    7.3507   -5.5245   27.2240 C   0  0  0  0  0  0  0  0  0  0  0  0
    7.9375   -6.8069   25.1245 C   0  0  0  0  0  0  0  0  0  0  0  0
    8.7638   -4.9418   27.2163 C   0  0  0  0  0  0  0  0  0  0  0  0
    9.3378   -6.1874   25.1659 C   0  0  0  0  0  0  0  0  0  0  0  0
   14.8433    0.2314   22.8407 C   0  0  0  0  0  0  0  0  0  0  0  0
    9.9825    1.0644   23.7577 C   0  0  0  0  0  0  0  0  0  0  0  0
    8.0810   -0.9750   21.0820 C   0  0  0  0  0  0  0  0  0  0  0  0
   13.6202    1.6173   24.3895 N   0  0  0  0  0  0  0  0  0  0  0  0
    6.9440    0.2550   18.0100 N   0  0  0  0  0  0  0  0  0  0  0  0
    7.6830   -0.5170   18.7600 N   0  0  0  0  0  0  0  0  0  0  0  0
   13.6010    0.7229   23.3866 N   0  0  0  0  0  0  0  0  0  0  0  0
    6.1600    0.3870   20.1140 N   0  0  0  0  0  0  0  0  0  0  0  0
    9.2639   -4.8860   25.8399 N   0  0  0  0  0  0  0  0  0  0  0  0
    9.4200   -0.0840   22.9530 N   0  0  0  0  0  0  0  0  0  0  0  0
    9.1870    1.1500   21.0630 O   0  0  0  0  0  0  0  0  0  0  0  0
    7.5647   -2.8621   26.1053 H   0  0  0  0  0  0  0  0  0  0  0  0
   11.0144   -4.2642   23.9425 H   0  0  0  0  0  0  0  0  0  0  0  0
    7.5958   -0.7779   24.8006 H   0  0  0  0  0  0  0  0  0  0  0  0
   11.0406   -2.1848   22.6356 H   0  0  0  0  0  0  0  0  0  0  0  0
   12.0479    2.5296   25.4071 H   0  0  0  0  0  0  0  0  0  0  0  0
   12.1771   -0.3406   22.1889 H   0  0  0  0  0  0  0  0  0  0  0  0
    4.7732    2.0709   17.5073 H   0  0  0  0  0  0  0  0  0  0  0  0
    3.2823    2.7848   19.2995 H   0  0  0  0  0  0  0  0  0  0  0  0
    3.6338    1.9971   21.6547 H   0  0  0  0  0  0  0  0  0  0  0  0
    5.5079    0.4527   22.1466 H   0  0  0  0  0  0  0  0  0  0  0  0
    7.8578   -7.6261   27.1266 H   0  0  0  0  0  0  0  0  0  0  0  0
    6.2773   -7.2358   26.4459 H   0  0  0  0  0  0  0  0  0  0  0  0
    6.6663   -4.8351   26.7223 H   0  0  0  0  0  0  0  0  0  0  0  0
    7.0044   -5.6368   28.2534 H   0  0  0  0  0  0  0  0  0  0  0  0
    7.9946   -7.8119   24.6937 H   0  0  0  0  0  0  0  0  0  0  0  0
    7.2929   -6.2123   24.4668 H   0  0  0  0  0  0  0  0  0  0  0  0
    8.7343   -3.9408   27.6542 H   0  0  0  0  0  0  0  0  0  0  0  0
    9.4243   -5.5632   27.8278 H   0  0  0  0  0  0  0  0  0  0  0  0
   10.0200   -6.8490   25.7011 H   0  0  0  0  0  0  0  0  0  0  0  0
    9.6984   -6.0694   24.1436 H   0  0  0  0  0  0  0  0  0  0  0  0
   15.1368    0.8927   22.0212 H   0  0  0  0  0  0  0  0  0  0  0  0
   15.6084    0.2282   23.6221 H   0  0  0  0  0  0  0  0  0  0  0  0
   14.6992   -0.7897   22.4766 H   0  0  0  0  0  0  0  0  0  0  0  0
    9.5805    0.9993   24.7746 H   0  0  0  0  0  0  0  0  0  0  0  0
    9.5848    1.9806   23.3087 H   0  0  0  0  0  0  0  0  0  0  0  0
    7.4781   -1.4136   21.8845 H   0  0  0  0  0  0  0  0  0  0  0  0
    8.7420   -1.7550   20.6889 H   0  0  0  0  0  0  0  0  0  0  0  0
  1  3  2  0  0  0  0
  1  8  1  0  0  0  0
  2  4  1  0  0  0  0
  2  8  2  0  0  0  0
  3  9  1  0  0  0  0
  4  9  2  0  0  0  0
  5  7  1  0  0  0  0
  5 25  2  0  0  0  0
  6  7  2  0  0  0  0
  6 28  1  0  0  0  0
  7 23  1  0  0  0  0
  8 30  1  0  0  0  0
  9 31  1  0  0  0  0
 10 12  1  0  0  0  0
 10 26  2  0  0  0  0
 10 29  1  0  0  0  0
 11 24  1  0  0  0  0
 11 27  2  0  0  0  0
 11 29  1  0  0  0  0
 12 13  2  0  0  0  0
 13 14  1  0  0  0  0
 14 15  2  0  0  0  0
 15 29  1  0  0  0  0
 16 24  1  0  0  0  0
 16 31  1  0  0  0  0
 16 32  2  0  0  0  0
 17 18  1  0  0  0  0
 17 19  1  0  0  0  0
 18 20  1  0  0  0  0
 19 21  1  0  0  0  0
 20 30  1  0  0  0  0
 21 30  1  0  0  0  0
 22 28  1  0  0  0  0
 23 31  1  0  0  0  0
 25 28  1  0  0  0  0
 26 27  1  0  0  0  0
  1 33  1  0  0  0  0
  2 34  1  0  0  0  0
  3 35  1  0  0  0  0
  4 36  1  0  0  0  0
  5 37  1  0  0  0  0
  6 38  1  0  0  0  0
 12 39  1  0  0  0  0
 13 40  1  0  0  0  0
 14 41  1  0  0  0  0
 15 42  1  0  0  0  0
 17 43  1  0  0  0  0
 17 44  1  0  0  0  0
 18 45  1  0  0  0  0
 18 46  1  0  0  0  0
 19 47  1  0  0  0  0
 19 48  1  0  0  0  0
 20 49  1  0  0  0  0
 20 50  1  0  0  0  0
 21 51  1  0  0  0  0
 21 52  1  0  0  0  0
 22 53  1  0  0  0  0
 22 54  1  0  0  0  0
 22 55  1  0  0  0  0
 23 56  1  0  0  0  0
 23 57  1  0  0  0  0
 24 58  1  0  0  0  0
 24 59  1  0  0  0  0
M  END
> <clash_score>
0

> <docking_score>
-8.506428718566895

> <overlap_score>
0.9949105978012085

$$$$
BENZO_486_1
  -OEChem-08232013513D

 59 63  0     0  0  0  0  0  0999 V2000
   13.5761    2.0159   23.0142 C   0  0  0  0  0  0  0  0  0  0  0  0
   12.1816    1.9962   22.9909 C   0  0  0  0  0  0  0  0  0  0  0  0
    8.3310   -2.7170   25.3430 C   0  0  0  0  0  0  0  0  0  0  0  0
   10.2570   -3.5000   24.1350 C   0  0  0  0  0  0  0  0  0  0  0  0
    8.3510   -1.5420   24.6110 C   0  0  0  0  0  0  0  0  0  0  0  0
   10.2760   -2.3270   23.4020 C   0  0  0  0  0  0  0  0  0  0  0  0
   14.2726    1.1234   23.8291 C   0  0  0  0  0  0  0  0  0  0  0  0
   12.1801    0.1917   24.5974 C   0  0  0  0  0  0  0  0  0  0  0  0
   11.4836    1.0842   23.7825 C   0  0  0  0  0  0  0  0  0  0  0  0
    9.2850   -3.7090   25.1090 C   0  0  0  0  0  0  0  0  0  0  0  0
    9.3300   -1.3350   23.6390 C   0  0  0  0  0  0  0  0  0  0  0  0
   13.5747    0.2114   24.6207 C   0  0  0  0  0  0  0  0  0  0  0  0
    5.9810    0.8330   18.8060 C   0  0  0  0  0  0  0  0  0  0  0  0
    7.2210   -0.4620   20.0350 C   0  0  0  0  0  0  0  0  0  0  0  0
    4.9400    1.7060   18.5060 C   0  0  0  0  0  0  0  0  0  0  0  0
    4.0980    2.1130   19.5350 C   0  0  0  0  0  0  0  0  0  0  0  0
    4.2970    1.6690   20.8430 C   0  0  0  0  0  0  0  0  0  0  0  0
    5.3360    0.8000   21.1530 C   0  0  0  0  0  0  0  0  0  0  0  0
    8.9510    0.1280   21.6880 C   0  0  0  0  0  0  0  0  0  0  0  0
    7.3162   -6.8835   26.5210 C   0  0  0  0  0  0  0  0  0  0  0  0
    7.3507   -5.5245   27.2240 C   0  0  0  0  0  0  0  0  0  0  0  0
    7.9375   -6.8069   25.1245 C   0  0  0  0  0  0  0  0  0  0  0  0
    8.7638   -4.9418   27.2163 C   0  0  0  0  0  0  0  0  0  0  0  0
    9.3378   -6.1874   25.1659 C   0  0  0  0  0  0  0  0  0  0  0  0
    9.9825    1.0644   23.7577 C   0  0  0  0  0  0  0  0  0  0  0  0
    8.0810   -0.9750   21.0820 C   0  0  0  0  0  0  0  0  0  0  0  0
    6.9440    0.2550   18.0100 N   0  0  0  0  0  0  0  0  0  0  0  0
    7.6830   -0.5170   18.7600 N   0  0  0  0  0  0  0  0  0  0  0  0
    6.1600    0.3870   20.1140 N   0  0  0  0  0  0  0  0  0  0  0  0
    9.2639   -4.8860   25.8399 N   0  0  0  0  0  0  0  0  0  0  0  0
    9.4200   -0.0840   22.9530 N   0  0  0  0  0  0  0  0  0  0  0  0
    9.1870    1.1500   21.0630 O   0  0  0  0  0  0  0  0  0  0  0  0
   14.4346   -0.8887   25.6267 Cl  0  0  0  0  0  0  0  0  0  0  0  0
   14.1192    2.7264   22.3978 H   0  0  0  0  0  0  0  0  0  0  0  0
   11.6470    2.6953   22.3530 H   0  0  0  0  0  0  0  0  0  0  0  0
    7.5647   -2.8621   26.1053 H   0  0  0  0  0  0  0  0  0  0  0  0
   11.0144   -4.2642   23.9425 H   0  0  0  0  0  0  0  0  0  0  0  0
    7.5958   -0.7779   24.8006 H   0  0  0  0  0  0  0  0  0  0  0  0
   11.0406   -2.1848   22.6356 H   0  0  0  0  0  0  0  0  0  0  0  0
   15.3595    1.1503   23.8374 H   0  0  0  0  0  0  0  0  0  0  0  0
   11.6313   -0.5178   25.2123 H   0  0  0  0  0  0  0  0  0  0  0  0
    4.7732    2.0709   17.5073 H   0  0  0  0  0  0  0  0  0  0  0  0
    3.2823    2.7848   19.2995 H   0  0  0  0  0  0  0  0  0  0  0  0
    3.6338    1.9971   21.6547 H   0  0  0  0  0  0  0  0  0  0  0  0
    5.5079    0.4527   22.1466 H   0  0  0  0  0  0  0  0  0  0  0  0
    7.8578   -7.6261   27.1266 H   0  0  0  0  0  0  0  0  0  0  0  0
    6.2773   -7.2358   26.4459 H   0  0  0  0  0  0  0  0  0  0  0  0
    6.6663   -4.8351   26.7223 H   0  0  0  0  0  0  0  0  0  0  0  0
    7.0044   -5.6368   28.2534 H   0  0  0  0  0  0  0  0  0  0  0  0
    7.9946   -7.8119   24.6937 H   0  0  0  0  0  0  0  0  0  0  0  0
    7.2929   -6.2123   24.4668 H   0  0  0  0  0  0  0  0  0  0  0  0
    8.7343   -3.9408   27.6542 H   0  0  0  0  0  0  0  0  0  0  0  0
    9.4243   -5.5632   27.8278 H   0  0  0  0  0  0  0  0  0  0  0  0
   10.0200   -6.8490   25.7011 H   0  0  0  0  0  0  0  0  0  0  0  0
    9.6984   -6.0694   24.1436 H   0  0  0  0  0  0  0  0  0  0  0  0
    9.5805    0.9993   24.7746 H   0  0  0  0  0  0  0  0  0  0  0  0
    9.5848    1.9806   23.3087 H   0  0  0  0  0  0  0  0  0  0  0  0
    7.4781   -1.4136   21.8845 H   0  0  0  0  0  0  0  0  0  0  0  0
    8.7420   -1.7550   20.6889 H   0  0  0  0  0  0  0  0  0  0  0  0
  1  2  2  0  0  0  0
  1  7  1  0  0  0  0
  2  9  1  0  0  0  0
  3  5  2  0  0  0  0
  3 10  1  0  0  0  0
  4  6  1  0  0  0  0
  4 10  2  0  0  0  0
  5 11  1  0  0  0  0
  6 11  2  0  0  0  0
  7 12  2  0  0  0  0
  8  9  2  0  0  0  0
  8 12  1  0  0  0  0
  9 25  1  0  0  0  0
 10 30  1  0  0  0  0
 11 31  1  0  0  0  0
 12 33  1  0  0  0  0
 13 15  1  0  0  0  0
 13 27  2  0  0  0  0
 13 29  1  0  0  0  0
 14 26  1  0  0  0  0
 14 28  2  0  0  0  0
 14 29  1  0  0  0  0
 15 16  2  0  0  0  0
 16 17  1  0  0  0  0
 17 18  2  0  0  0  0
 18 29  1  0  0  0  0
 19 26  1  0  0  0  0
 19 31  1  0  0  0  0
 19 32  2  0  0  0  0
 20 21  1  0  0  0  0
 20 22  1  0  0  0  0
 21 23  1  0  0  0  0
 22 24  1  0  0  0  0
 23 30  1  0  0  0  0
 24 30  1  0  0  0  0
 25 31  1  0  0  0  0
 27 28  1  0  0  0  0
  1 34  1  0  0  0  0
  2 35  1  0  0  0  0
  3 36  1  0  0  0  0
  4 37  1  0  0  0  0
  5 38  1  0  0  0  0
  6 39  1  0  0  0  0
  7 40  1  0  0  0  0
  8 41  1  0  0  0  0
 15 42  1  0  0  0  0
 16 43  1  0  0  0  0
 17 44  1  0  0  0  0
 18 45  1  0  0  0  0
 20 46  1  0  0  0  0
 20 47  1  0  0  0  0
 21 48  1  0  0  0  0
 21 49  1  0  0  0  0
 22 50  1  0  0  0  0
 22 51  1  0  0  0  0
 23 52  1  0  0  0  0
 23 53  1  0  0  0  0
 24 54  1  0  0  0  0
 24 55  1  0  0  0  0
 25 56  1  0  0  0  0
 25 57  1  0  0  0  0
 26 58  1  0  0  0  0
 26 59  1  0  0  0  0
M  END
> <clash_score>
0.6948172307864008

> <docking_score>
-7.577234268188477

> <overlap_score>
1.0086195468902588

$$$$
BENZO_491_1
  -OEChem-08232013513D

 47 50  0     0  0  0  0  0  0999 V2000
    8.3310   -2.7170   25.3430 C   0  0  0  0  0  0  0  0  0  0  0  0
   10.2570   -3.5000   24.1350 C   0  0  0  0  0  0  0  0  0  0  0  0
    8.3510   -1.5420   24.6110 C   0  0  0  0  0  0  0  0  0  0  0  0
   10.2760   -2.3270   23.4020 C   0  0  0  0  0  0  0  0  0  0  0  0
   12.4450    1.7639   22.8537 C   0  0  0  0  0  0  0  0  0  0  0  0
   12.4181    0.1078   24.3000 C   0  0  0  0  0  0  0  0  0  0  0  0
    9.2850   -3.7090   25.1090 C   0  0  0  0  0  0  0  0  0  0  0  0
   11.5824    0.9695   23.6326 C   0  0  0  0  0  0  0  0  0  0  0  0
    9.3300   -1.3350   23.6390 C   0  0  0  0  0  0  0  0  0  0  0  0
    5.9810    0.8330   18.8060 C   0  0  0  0  0  0  0  0  0  0  0  0
    7.2210   -0.4620   20.0350 C   0  0  0  0  0  0  0  0  0  0  0  0
    4.9400    1.7060   18.5060 C   0  0  0  0  0  0  0  0  0  0  0  0
    4.0980    2.1130   19.5350 C   0  0  0  0  0  0  0  0  0  0  0  0
    4.2970    1.6690   20.8430 C   0  0  0  0  0  0  0  0  0  0  0  0
    5.3360    0.8000   21.1530 C   0  0  0  0  0  0  0  0  0  0  0  0
    8.9510    0.1280   21.6880 C   0  0  0  0  0  0  0  0  0  0  0  0
    9.2610   -4.9721   25.8916 C   0  0  0  0  0  0  0  0  0  0  0  0
   14.9037   -0.2087   24.3275 C   0  0  0  0  0  0  0  0  0  0  0  0
   10.0855    1.0467   23.7186 C   0  0  0  0  0  0  0  0  0  0  0  0
    8.0810   -0.9750   21.0820 C   0  0  0  0  0  0  0  0  0  0  0  0
   13.7303    1.4360   23.0109 N   0  0  0  0  0  0  0  0  0  0  0  0
    6.9440    0.2550   18.0100 N   0  0  0  0  0  0  0  0  0  0  0  0
    7.6830   -0.5170   18.7600 N   0  0  0  0  0  0  0  0  0  0  0  0
   13.6814    0.4262   23.8963 N   0  0  0  0  0  0  0  0  0  0  0  0
    6.1600    0.3870   20.1140 N   0  0  0  0  0  0  0  0  0  0  0  0
    9.4200   -0.0840   22.9530 N   0  0  0  0  0  0  0  0  0  0  0  0
    9.1870    1.1500   21.0630 O   0  0  0  0  0  0  0  0  0  0  0  0
    7.5665   -2.8638   26.1066 H   0  0  0  0  0  0  0  0  0  0  0  0
   11.0137   -4.2652   23.9447 H   0  0  0  0  0  0  0  0  0  0  0  0
    7.5948   -0.7788   24.7997 H   0  0  0  0  0  0  0  0  0  0  0  0
   11.0411   -2.1856   22.6358 H   0  0  0  0  0  0  0  0  0  0  0  0
   12.1932    2.5691   22.1782 H   0  0  0  0  0  0  0  0  0  0  0  0
   12.2264   -0.6843   25.0111 H   0  0  0  0  0  0  0  0  0  0  0  0
    4.7732    2.0709   17.5073 H   0  0  0  0  0  0  0  0  0  0  0  0
    3.2823    2.7848   19.2995 H   0  0  0  0  0  0  0  0  0  0  0  0
    3.6338    1.9971   21.6547 H   0  0  0  0  0  0  0  0  0  0  0  0
    5.5079    0.4527   22.1466 H   0  0  0  0  0  0  0  0  0  0  0  0
    8.6398   -5.7223   25.3871 H   0  0  0  0  0  0  0  0  0  0  0  0
   10.2715   -5.3829   26.0145 H   0  0  0  0  0  0  0  0  0  0  0  0
    8.8596   -4.8092   26.9004 H   0  0  0  0  0  0  0  0  0  0  0  0
   15.1112   -1.0384   23.6466 H   0  0  0  0  0  0  0  0  0  0  0  0
   15.7199    0.5187   24.3038 H   0  0  0  0  0  0  0  0  0  0  0  0
   14.7795   -0.5744   25.3507 H   0  0  0  0  0  0  0  0  0  0  0  0
    9.7554    0.9938   24.7618 H   0  0  0  0  0  0  0  0  0  0  0  0
    9.7166    1.9927   23.3083 H   0  0  0  0  0  0  0  0  0  0  0  0
    7.4889   -1.4161   21.8965 H   0  0  0  0  0  0  0  0  0  0  0  0
    8.7528   -1.7575   20.7010 H   0  0  0  0  0  0  0  0  0  0  0  0
  1  3  2  0  0  0  0
  1  7  1  0  0  0  0
  2  4  1  0  0  0  0
  2  7  2  0  0  0  0
  3  9  1  0  0  0  0
  4  9  2  0  0  0  0
  5  8  1  0  0  0  0
  5 21  2  0  0  0  0
  6  8  2  0  0  0  0
  6 24  1  0  0  0  0
  7 17  1  0  0  0  0
  8 19  1  0  0  0  0
  9 26  1  0  0  0  0
 10 12  1  0  0  0  0
 10 22  2  0  0  0  0
 10 25  1  0  0  0  0
 11 20  1  0  0  0  0
 11 23  2  0  0  0  0
 11 25  1  0  0  0  0
 12 13  2  0  0  0  0
 13 14  1  0  0  0  0
 14 15  2  0  0  0  0
 15 25  1  0  0  0  0
 16 20  1  0  0  0  0
 16 26  1  0  0  0  0
 16 27  2  0  0  0  0
 18 24  1  0  0  0  0
 19 26  1  0  0  0  0
 21 24  1  0  0  0  0
 22 23  1  0  0  0  0
  1 28  1  0  0  0  0
  2 29  1  0  0  0  0
  3 30  1  0  0  0  0
  4 31  1  0  0  0  0
  5 32  1  0  0  0  0
  6 33  1  0  0  0  0
 12 34  1  0  0  0  0
 13 35  1  0  0  0  0
 14 36  1  0  0  0  0
 15 37  1  0  0  0  0
 17 38  1  0  0  0  0
 17 39  1  0  0  0  0
 17 40  1  0  0  0  0
 18 41  1  0  0  0  0
 18 42  1  0  0  0  0
 18 43  1  0  0  0  0
 19 44  1  0  0  0  0
 19 45  1  0  0  0  0
 20 46  1  0  0  0  0
 20 47  1  0  0  0  0
M  END
> <clash_score>
0

> <docking_score>
-9.196117401123047

> <overlap_score>
0.9693962335586548

$$$$
BENZO_490_1
  -OEChem-08232013513D

 47 50  0     0  0  0  0  0  0999 V2000
   13.6694    1.7750   22.7204 C   0  0  0  0  0  0  0  0  0  0  0  0
   12.2786    1.8455   22.7998 C   0  0  0  0  0  0  0  0  0  0  0  0
    8.3310   -2.7170   25.3430 C   0  0  0  0  0  0  0  0  0  0  0  0
   10.2570   -3.5000   24.1350 C   0  0  0  0  0  0  0  0  0  0  0  0
    8.3510   -1.5420   24.6110 C   0  0  0  0  0  0  0  0  0  0  0  0
   10.2760   -2.3270   23.4020 C   0  0  0  0  0  0  0  0  0  0  0  0
   14.3640    0.8285   23.4737 C   0  0  0  0  0  0  0  0  0  0  0  0
   12.2769    0.0230   24.3860 C   0  0  0  0  0  0  0  0  0  0  0  0
    9.2850   -3.7090   25.1090 C   0  0  0  0  0  0  0  0  0  0  0  0
   11.5824    0.9695   23.6326 C   0  0  0  0  0  0  0  0  0  0  0  0
    9.3300   -1.3350   23.6390 C   0  0  0  0  0  0  0  0  0  0  0  0
   13.6678   -0.0474   24.3065 C   0  0  0  0  0  0  0  0  0  0  0  0
    5.9810    0.8330   18.8060 C   0  0  0  0  0  0  0  0  0  0  0  0
    7.2210   -0.4620   20.0350 C   0  0  0  0  0  0  0  0  0  0  0  0
    4.9400    1.7060   18.5060 C   0  0  0  0  0  0  0  0  0  0  0  0
    4.0980    2.1130   19.5350 C   0  0  0  0  0  0  0  0  0  0  0  0
    4.2970    1.6690   20.8430 C   0  0  0  0  0  0  0  0  0  0  0  0
    5.3360    0.8000   21.1530 C   0  0  0  0  0  0  0  0  0  0  0  0
    8.9510    0.1280   21.6880 C   0  0  0  0  0  0  0  0  0  0  0  0
    9.2610   -4.9721   25.8916 C   0  0  0  0  0  0  0  0  0  0  0  0
   10.0855    1.0467   23.7186 C   0  0  0  0  0  0  0  0  0  0  0  0
    8.0810   -0.9750   21.0820 C   0  0  0  0  0  0  0  0  0  0  0  0
    6.9440    0.2550   18.0100 N   0  0  0  0  0  0  0  0  0  0  0  0
    7.6830   -0.5170   18.7600 N   0  0  0  0  0  0  0  0  0  0  0  0
    6.1600    0.3870   20.1140 N   0  0  0  0  0  0  0  0  0  0  0  0
    9.4200   -0.0840   22.9530 N   0  0  0  0  0  0  0  0  0  0  0  0
    9.1870    1.1500   21.0630 O   0  0  0  0  0  0  0  0  0  0  0  0
   14.5254   -1.2142   25.2365 Cl  0  0  0  0  0  0  0  0  0  0  0  0
   14.2112    2.4574   22.0718 H   0  0  0  0  0  0  0  0  0  0  0  0
   11.7457    2.5862   22.2094 H   0  0  0  0  0  0  0  0  0  0  0  0
    7.5665   -2.8638   26.1066 H   0  0  0  0  0  0  0  0  0  0  0  0
   11.0137   -4.2652   23.9447 H   0  0  0  0  0  0  0  0  0  0  0  0
    7.5948   -0.7788   24.7997 H   0  0  0  0  0  0  0  0  0  0  0  0
   11.0411   -2.1856   22.6358 H   0  0  0  0  0  0  0  0  0  0  0  0
   15.4480    0.7853   23.4020 H   0  0  0  0  0  0  0  0  0  0  0  0
   11.7295   -0.6580   25.0334 H   0  0  0  0  0  0  0  0  0  0  0  0
    4.7732    2.0709   17.5073 H   0  0  0  0  0  0  0  0  0  0  0  0
    3.2823    2.7848   19.2995 H   0  0  0  0  0  0  0  0  0  0  0  0
    3.6338    1.9971   21.6547 H   0  0  0  0  0  0  0  0  0  0  0  0
    5.5079    0.4527   22.1466 H   0  0  0  0  0  0  0  0  0  0  0  0
    8.6398   -5.7223   25.3871 H   0  0  0  0  0  0  0  0  0  0  0  0
   10.2715   -5.3829   26.0145 H   0  0  0  0  0  0  0  0  0  0  0  0
    8.8596   -4.8092   26.9004 H   0  0  0  0  0  0  0  0  0  0  0  0
    9.7554    0.9938   24.7618 H   0  0  0  0  0  0  0  0  0  0  0  0
    9.7166    1.9927   23.3083 H   0  0  0  0  0  0  0  0  0  0  0  0
    7.4889   -1.4161   21.8965 H   0  0  0  0  0  0  0  0  0  0  0  0
    8.7528   -1.7575   20.7010 H   0  0  0  0  0  0  0  0  0  0  0  0
  1  2  2  0  0  0  0
  1  7  1  0  0  0  0
  2 10  1  0  0  0  0
  3  5  2  0  0  0  0
  3  9  1  0  0  0  0
  4  6  1  0  0  0  0
  4  9  2  0  0  0  0
  5 11  1  0  0  0  0
  6 11  2  0  0  0  0
  7 12  2  0  0  0  0
  8 10  2  0  0  0  0
  8 12  1  0  0  0  0
  9 20  1  0  0  0  0
 10 21  1  0  0  0  0
 11 26  1  0  0  0  0
 12 28  1  0  0  0  0
 13 15  1  0  0  0  0
 13 23  2  0  0  0  0
 13 25  1  0  0  0  0
 14 22  1  0  0  0  0
 14 24  2  0  0  0  0
 14 25  1  0  0  0  0
 15 16  2  0  0  0  0
 16 17  1  0  0  0  0
 17 18  2  0  0  0  0
 18 25  1  0  0  0  0
 19 22  1  0  0  0  0
 19 26  1  0  0  0  0
 19 27  2  0  0  0  0
 21 26  1  0  0  0  0
 23 24  1  0  0  0  0
  1 29  1  0  0  0  0
  2 30  1  0  0  0  0
  3 31  1  0  0  0  0
  4 32  1  0  0  0  0
  5 33  1  0  0  0  0
  6 34  1  0  0  0  0
  7 35  1  0  0  0  0
  8 36  1  0  0  0  0
 15 37  1  0  0  0  0
 16 38  1  0  0  0  0
 17 39  1  0  0  0  0
 18 40  1  0  0  0  0
 20 41  1  0  0  0  0
 20 42  1  0  0  0  0
 20 43  1  0  0  0  0
 21 44  1  0  0  0  0
 21 45  1  0  0  0  0
 22 46  1  0  0  0  0
 22 47  1  0  0  0  0
M  END
> <clash_score>
0.809946511533132

> <docking_score>
-8.629734992980957

> <overlap_score>
0.9736257791519165

$$$$
BENZO_493_1
  -OEChem-08232013513D

 48 51  0     0  0  0  0  0  0999 V2000
   14.3638    0.8263   23.4716 C   0  0  0  0  0  0  0  0  0  0  0  0
   13.6907    0.1762   24.5059 C   0  0  0  0  0  0  0  0  0  0  0  0
   13.6462    1.5482   22.5178 C   0  0  0  0  0  0  0  0  0  0  0  0
   12.3000    0.2477   24.5864 C   0  0  0  0  0  0  0  0  0  0  0  0
   12.2555    1.6197   22.5983 C   0  0  0  0  0  0  0  0  0  0  0  0
    8.3510   -1.5420   24.6110 C   0  0  0  0  0  0  0  0  0  0  0  0
   10.2760   -2.3270   23.4020 C   0  0  0  0  0  0  0  0  0  0  0  0
    8.3310   -2.7170   25.3430 C   0  0  0  0  0  0  0  0  0  0  0  0
   10.2570   -3.5000   24.1350 C   0  0  0  0  0  0  0  0  0  0  0  0
   11.5824    0.9695   23.6326 C   0  0  0  0  0  0  0  0  0  0  0  0
    9.3300   -1.3350   23.6390 C   0  0  0  0  0  0  0  0  0  0  0  0
    9.2850   -3.7090   25.1090 C   0  0  0  0  0  0  0  0  0  0  0  0
    5.9810    0.8330   18.8060 C   0  0  0  0  0  0  0  0  0  0  0  0
    7.2210   -0.4620   20.0350 C   0  0  0  0  0  0  0  0  0  0  0  0
    4.9400    1.7060   18.5060 C   0  0  0  0  0  0  0  0  0  0  0  0
    4.0980    2.1130   19.5350 C   0  0  0  0  0  0  0  0  0  0  0  0
    4.2970    1.6690   20.8430 C   0  0  0  0  0  0  0  0  0  0  0  0
    5.3360    0.8000   21.1530 C   0  0  0  0  0  0  0  0  0  0  0  0
    8.9510    0.1280   21.6880 C   0  0  0  0  0  0  0  0  0  0  0  0
    8.2349   -4.9984   26.8025 C   0  0  0  0  0  0  0  0  0  0  0  0
   10.0855    1.0467   23.7186 C   0  0  0  0  0  0  0  0  0  0  0  0
    8.0810   -0.9750   21.0820 C   0  0  0  0  0  0  0  0  0  0  0  0
    6.9440    0.2550   18.0100 N   0  0  0  0  0  0  0  0  0  0  0  0
    7.6830   -0.5170   18.7600 N   0  0  0  0  0  0  0  0  0  0  0  0
    6.1600    0.3870   20.1140 N   0  0  0  0  0  0  0  0  0  0  0  0
    9.4200   -0.0840   22.9530 N   0  0  0  0  0  0  0  0  0  0  0  0
    9.1870    1.1500   21.0630 O   0  0  0  0  0  0  0  0  0  0  0  0
    9.2631   -4.8614   25.8229 O   0  0  0  0  0  0  0  0  0  0  0  0
   15.4468    0.7717   23.4098 H   0  0  0  0  0  0  0  0  0  0  0  0
   14.2494   -0.3850   25.2493 H   0  0  0  0  0  0  0  0  0  0  0  0
   14.1699    2.0554   21.7130 H   0  0  0  0  0  0  0  0  0  0  0  0
   11.7840   -0.2622   25.3957 H   0  0  0  0  0  0  0  0  0  0  0  0
   11.7047    2.1843   21.8506 H   0  0  0  0  0  0  0  0  0  0  0  0
    7.5951   -0.7786   24.8000 H   0  0  0  0  0  0  0  0  0  0  0  0
   11.0406   -2.1866   22.6351 H   0  0  0  0  0  0  0  0  0  0  0  0
    7.5664   -2.8674   26.1055 H   0  0  0  0  0  0  0  0  0  0  0  0
   11.0119   -4.2671   23.9461 H   0  0  0  0  0  0  0  0  0  0  0  0
    4.7732    2.0709   17.5073 H   0  0  0  0  0  0  0  0  0  0  0  0
    3.2823    2.7848   19.2995 H   0  0  0  0  0  0  0  0  0  0  0  0
    3.6338    1.9971   21.6547 H   0  0  0  0  0  0  0  0  0  0  0  0
    5.5079    0.4527   22.1466 H   0  0  0  0  0  0  0  0  0  0  0  0
    8.3315   -5.9664   27.3003 H   0  0  0  0  0  0  0  0  0  0  0  0
    7.2576   -4.9209   26.3195 H   0  0  0  0  0  0  0  0  0  0  0  0
    8.3386   -4.1997   27.5408 H   0  0  0  0  0  0  0  0  0  0  0  0
    9.7554    0.9938   24.7618 H   0  0  0  0  0  0  0  0  0  0  0  0
    9.7166    1.9927   23.3083 H   0  0  0  0  0  0  0  0  0  0  0  0
    7.4889   -1.4161   21.8965 H   0  0  0  0  0  0  0  0  0  0  0  0
    8.7528   -1.7575   20.7010 H   0  0  0  0  0  0  0  0  0  0  0  0
  1  2  1  0  0  0  0
  1  3  2  0  0  0  0
  2  4  2  0  0  0  0
  3  5  1  0  0  0  0
  4 10  1  0  0  0  0
  5 10  2  0  0  0  0
  6  8  2  0  0  0  0
  6 11  1  0  0  0  0
  7  9  1  0  0  0  0
  7 11  2  0  0  0  0
  8 12  1  0  0  0  0
  9 12  2  0  0  0  0
 10 21  1  0  0  0  0
 11 26  1  0  0  0  0
 12 28  1  0  0  0  0
 13 15  1  0  0  0  0
 13 23  2  0  0  0  0
 13 25  1  0  0  0  0
 14 22  1  0  0  0  0
 14 24  2  0  0  0  0
 14 25  1  0  0  0  0
 15 16  2  0  0  0  0
 16 17  1  0  0  0  0
 17 18  2  0  0  0  0
 18 25  1  0  0  0  0
 19 22  1  0  0  0  0
 19 26  1  0  0  0  0
 19 27  2  0  0  0  0
 20 28  1  0  0  0  0
 21 26  1  0  0  0  0
 23 24  1  0  0  0  0
  1 29  1  0  0  0  0
  2 30  1  0  0  0  0
  3 31  1  0  0  0  0
  4 32  1  0  0  0  0
  5 33  1  0  0  0  0
  6 34  1  0  0  0  0
  7 35  1  0  0  0  0
  8 36  1  0  0  0  0
  9 37  1  0  0  0  0
 15 38  1  0  0  0  0
 16 39  1  0  0  0  0
 17 40  1  0  0  0  0
 18 41  1  0  0  0  0
 20 42  1  0  0  0  0
 20 43  1  0  0  0  0
 20 44  1  0  0  0  0
 21 45  1  0  0  0  0
 21 46  1  0  0  0  0
 22 47  1  0  0  0  0
 22 48  1  0  0  0  0
M  END
> <clash_score>
0

> <docking_score>
-9.165543556213379

> <overlap_score>
0.9929015040397644

$$$$
BENZO_492_1
  -OEChem-08232013513D

 45 48  0     0  0  0  0  0  0999 V2000
    8.3510   -1.5420   24.6110 C   0  0  0  0  0  0  0  0  0  0  0  0
   10.2760   -2.3270   23.4020 C   0  0  0  0  0  0  0  0  0  0  0  0
    8.3310   -2.7170   25.3430 C   0  0  0  0  0  0  0  0  0  0  0  0
   10.2570   -3.5000   24.1350 C   0  0  0  0  0  0  0  0  0  0  0  0
   12.3113    1.0126   22.4091 C   0  0  0  0  0  0  0  0  0  0  0  0
   13.6706    0.9225   22.6131 C   0  0  0  0  0  0  0  0  0  0  0  0
   12.4125    0.8479   24.7253 C   0  0  0  0  0  0  0  0  0  0  0  0
   11.5824    0.9695   23.6326 C   0  0  0  0  0  0  0  0  0  0  0  0
    9.3300   -1.3350   23.6390 C   0  0  0  0  0  0  0  0  0  0  0  0
    9.2850   -3.7090   25.1090 C   0  0  0  0  0  0  0  0  0  0  0  0
    5.9810    0.8330   18.8060 C   0  0  0  0  0  0  0  0  0  0  0  0
    7.2210   -0.4620   20.0350 C   0  0  0  0  0  0  0  0  0  0  0  0
    4.9400    1.7060   18.5060 C   0  0  0  0  0  0  0  0  0  0  0  0
    4.0980    2.1130   19.5350 C   0  0  0  0  0  0  0  0  0  0  0  0
    4.2970    1.6690   20.8430 C   0  0  0  0  0  0  0  0  0  0  0  0
    5.3360    0.8000   21.1530 C   0  0  0  0  0  0  0  0  0  0  0  0
    8.9510    0.1280   21.6880 C   0  0  0  0  0  0  0  0  0  0  0  0
    8.2349   -4.9984   26.8025 C   0  0  0  0  0  0  0  0  0  0  0  0
   10.0855    1.0467   23.7186 C   0  0  0  0  0  0  0  0  0  0  0  0
    8.0810   -0.9750   21.0820 C   0  0  0  0  0  0  0  0  0  0  0  0
    6.9440    0.2550   18.0100 N   0  0  0  0  0  0  0  0  0  0  0  0
    7.6830   -0.5170   18.7600 N   0  0  0  0  0  0  0  0  0  0  0  0
    6.1600    0.3870   20.1140 N   0  0  0  0  0  0  0  0  0  0  0  0
    9.4200   -0.0840   22.9530 N   0  0  0  0  0  0  0  0  0  0  0  0
    9.1870    1.1500   21.0630 O   0  0  0  0  0  0  0  0  0  0  0  0
    9.2631   -4.8614   25.8229 O   0  0  0  0  0  0  0  0  0  0  0  0
   14.0633    0.7865   24.2744 S   0  0  0  0  0  0  0  0  0  0  0  0
    7.5951   -0.7786   24.8000 H   0  0  0  0  0  0  0  0  0  0  0  0
   11.0406   -2.1866   22.6351 H   0  0  0  0  0  0  0  0  0  0  0  0
    7.5664   -2.8674   26.1055 H   0  0  0  0  0  0  0  0  0  0  0  0
   11.0119   -4.2671   23.9461 H   0  0  0  0  0  0  0  0  0  0  0  0
   11.8651    1.1045   21.4269 H   0  0  0  0  0  0  0  0  0  0  0  0
   14.4519    0.9293   21.8663 H   0  0  0  0  0  0  0  0  0  0  0  0
   12.1327    0.7906   25.7682 H   0  0  0  0  0  0  0  0  0  0  0  0
    4.7732    2.0709   17.5073 H   0  0  0  0  0  0  0  0  0  0  0  0
    3.2823    2.7848   19.2995 H   0  0  0  0  0  0  0  0  0  0  0  0
    3.6338    1.9971   21.6547 H   0  0  0  0  0  0  0  0  0  0  0  0
    5.5079    0.4527   22.1466 H   0  0  0  0  0  0  0  0  0  0  0  0
    8.3315   -5.9664   27.3003 H   0  0  0  0  0  0  0  0  0  0  0  0
    7.2576   -4.9209   26.3195 H   0  0  0  0  0  0  0  0  0  0  0  0
    8.3386   -4.1997   27.5408 H   0  0  0  0  0  0  0  0  0  0  0  0
    9.7554    0.9938   24.7618 H   0  0  0  0  0  0  0  0  0  0  0  0
    9.7166    1.9927   23.3083 H   0  0  0  0  0  0  0  0  0  0  0  0
    7.4889   -1.4161   21.8965 H   0  0  0  0  0  0  0  0  0  0  0  0
    8.7528   -1.7575   20.7010 H   0  0  0  0  0  0  0  0  0  0  0  0
  1  3  2  0  0  0  0
  1  9  1  0  0  0  0
  2  4  1  0  0  0  0
  2  9  2  0  0  0  0
  3 10  1  0  0  0  0
  4 10  2  0  0  0  0
  5  6  2  0  0  0  0
  5  8  1  0  0  0  0
  6 27  1  0  0  0  0
  7  8  2  0  0  0  0
  7 27  1  0  0  0  0
  8 19  1  0  0  0  0
  9 24  1  0  0  0  0
 10 26  1  0  0  0  0
 11 13  1  0  0  0  0
 11 21  2  0  0  0  0
 11 23  1  0  0  0  0
 12 20  1  0  0  0  0
 12 22  2  0  0  0  0
 12 23  1  0  0  0  0
 13 14  2  0  0  0  0
 14 15  1  0  0  0  0
 15 16  2  0  0  0  0
 16 23  1  0  0  0  0
 17 20  1  0  0  0  0
 17 24  1  0  0  0  0
 17 25  2  0  0  0  0
 18 26  1  0  0  0  0
 19 24  1  0  0  0  0
 21 22  1  0  0  0  0
  1 28  1  0  0  0  0
  2 29  1  0  0  0  0
  3 30  1  0  0  0  0
  4 31  1  0  0  0  0
  5 32  1  0  0  0  0
  6 33  1  0  0  0  0
  7 34  1  0  0  0  0
 13 35  1  0  0  0  0
 14 36  1  0  0  0  0
 15 37  1  0  0  0  0
 16 38  1  0  0  0  0
 18 39  1  0  0  0  0
 18 40  1  0  0  0  0
 18 41  1  0  0  0  0
 19 42  1  0  0  0  0
 19 43  1  0  0  0  0
 20 44  1  0  0  0  0
 20 45  1  0  0  0  0
M  END
> <clash_score>
0

> <docking_score>
-9.489850997924805

> <overlap_score>
0.9674178957939148

$$$$
BENZO_495_1
  -OEChem-08232013513D

 48 51  0     0  0  0  0  0  0999 V2000
    8.3510   -1.5420   24.6110 C   0  0  0  0  0  0  0  0  0  0  0  0
   10.2760   -2.3270   23.4020 C   0  0  0  0  0  0  0  0  0  0  0  0
    8.3310   -2.7170   25.3430 C   0  0  0  0  0  0  0  0  0  0  0  0
   10.2570   -3.5000   24.1350 C   0  0  0  0  0  0  0  0  0  0  0  0
   12.5292    1.6523   24.4195 C   0  0  0  0  0  0  0  0  0  0  0  0
   12.3357    0.2131   22.7684 C   0  0  0  0  0  0  0  0  0  0  0  0
   11.5824    0.9695   23.6326 C   0  0  0  0  0  0  0  0  0  0  0  0
    9.3300   -1.3350   23.6390 C   0  0  0  0  0  0  0  0  0  0  0  0
    9.2850   -3.7090   25.1090 C   0  0  0  0  0  0  0  0  0  0  0  0
    5.9810    0.8330   18.8060 C   0  0  0  0  0  0  0  0  0  0  0  0
    7.2210   -0.4620   20.0350 C   0  0  0  0  0  0  0  0  0  0  0  0
    4.9400    1.7060   18.5060 C   0  0  0  0  0  0  0  0  0  0  0  0
    4.0980    2.1130   19.5350 C   0  0  0  0  0  0  0  0  0  0  0  0
    4.2970    1.6690   20.8430 C   0  0  0  0  0  0  0  0  0  0  0  0
    5.3360    0.8000   21.1530 C   0  0  0  0  0  0  0  0  0  0  0  0
    8.9510    0.1280   21.6880 C   0  0  0  0  0  0  0  0  0  0  0  0
   14.8016   -0.0848   22.4380 C   0  0  0  0  0  0  0  0  0  0  0  0
    8.2349   -4.9984   26.8025 C   0  0  0  0  0  0  0  0  0  0  0  0
   10.0855    1.0467   23.7186 C   0  0  0  0  0  0  0  0  0  0  0  0
    8.0810   -0.9750   21.0820 C   0  0  0  0  0  0  0  0  0  0  0  0
   13.7878    1.3557   24.0850 N   0  0  0  0  0  0  0  0  0  0  0  0
    6.9440    0.2550   18.0100 N   0  0  0  0  0  0  0  0  0  0  0  0
    7.6830   -0.5170   18.7600 N   0  0  0  0  0  0  0  0  0  0  0  0
   13.6371    0.4782   23.0784 N   0  0  0  0  0  0  0  0  0  0  0  0
    6.1600    0.3870   20.1140 N   0  0  0  0  0  0  0  0  0  0  0  0
    9.4200   -0.0840   22.9530 N   0  0  0  0  0  0  0  0  0  0  0  0
    9.1870    1.1500   21.0630 O   0  0  0  0  0  0  0  0  0  0  0  0
    9.2631   -4.8614   25.8229 O   0  0  0  0  0  0  0  0  0  0  0  0
    7.5951   -0.7786   24.8000 H   0  0  0  0  0  0  0  0  0  0  0  0
   11.0406   -2.1866   22.6351 H   0  0  0  0  0  0  0  0  0  0  0  0
    7.5664   -2.8674   26.1055 H   0  0  0  0  0  0  0  0  0  0  0  0
   11.0119   -4.2671   23.9461 H   0  0  0  0  0  0  0  0  0  0  0  0
   12.3569    2.3533   25.2240 H   0  0  0  0  0  0  0  0  0  0  0  0
   12.0632   -0.4751   21.9797 H   0  0  0  0  0  0  0  0  0  0  0  0
    4.7732    2.0709   17.5073 H   0  0  0  0  0  0  0  0  0  0  0  0
    3.2823    2.7848   19.2995 H   0  0  0  0  0  0  0  0  0  0  0  0
    3.6338    1.9971   21.6547 H   0  0  0  0  0  0  0  0  0  0  0  0
    5.5079    0.4527   22.1466 H   0  0  0  0  0  0  0  0  0  0  0  0
   15.0768    0.5674   21.6050 H   0  0  0  0  0  0  0  0  0  0  0  0
   15.6199   -0.1479   23.1607 H   0  0  0  0  0  0  0  0  0  0  0  0
   14.5649   -1.0894   22.0764 H   0  0  0  0  0  0  0  0  0  0  0  0
    8.3315   -5.9664   27.3003 H   0  0  0  0  0  0  0  0  0  0  0  0
    7.2576   -4.9209   26.3195 H   0  0  0  0  0  0  0  0  0  0  0  0
    8.3386   -4.1997   27.5408 H   0  0  0  0  0  0  0  0  0  0  0  0
    9.7554    0.9938   24.7618 H   0  0  0  0  0  0  0  0  0  0  0  0
    9.7166    1.9927   23.3083 H   0  0  0  0  0  0  0  0  0  0  0  0
    7.4889   -1.4161   21.8965 H   0  0  0  0  0  0  0  0  0  0  0  0
    8.7528   -1.7575   20.7010 H   0  0  0  0  0  0  0  0  0  0  0  0
  1  3  2  0  0  0  0
  1  8  1  0  0  0  0
  2  4  1  0  0  0  0
  2  8  2  0  0  0  0
  3  9  1  0  0  0  0
  4  9  2  0  0  0  0
  5  7  1  0  0  0  0
  5 21  2  0  0  0  0
  6  7  2  0  0  0  0
  6 24  1  0  0  0  0
  7 19  1  0  0  0  0
  8 26  1  0  0  0  0
  9 28  1  0  0  0  0
 10 12  1  0  0  0  0
 10 22  2  0  0  0  0
 10 25  1  0  0  0  0
 11 20  1  0  0  0  0
 11 23  2  0  0  0  0
 11 25  1  0  0  0  0
 12 13  2  0  0  0  0
 13 14  1  0  0  0  0
 14 15  2  0  0  0  0
 15 25  1  0  0  0  0
 16 20  1  0  0  0  0
 16 26  1  0  0  0  0
 16 27  2  0  0  0  0
 17 24  1  0  0  0  0
 18 28  1  0  0  0  0
 19 26  1  0  0  0  0
 21 24  1  0  0  0  0
 22 23  1  0  0  0  0
  1 29  1  0  0  0  0
  2 30  1  0  0  0  0
  3 31  1  0  0  0  0
  4 32  1  0  0  0  0
  5 33  1  0  0  0  0
  6 34  1  0  0  0  0
 12 35  1  0  0  0  0
 13 36  1  0  0  0  0
 14 37  1  0  0  0  0
 15 38  1  0  0  0  0
 17 39  1  0  0  0  0
 17 40  1  0  0  0  0
 17 41  1  0  0  0  0
 18 42  1  0  0  0  0
 18 43  1  0  0  0  0
 18 44  1  0  0  0  0
 19 45  1  0  0  0  0
 19 46  1  0  0  0  0
 20 47  1  0  0  0  0
 20 48  1  0  0  0  0
M  END
> <clash_score>
0

> <docking_score>
-9.327879905700684

> <overlap_score>
0.9770566821098328

$$$$
BENZO_494_1
  -OEChem-08232013513D

 48 51  0     0  0  0  0  0  0999 V2000
   13.7608    1.6520   24.4234 C   0  0  0  0  0  0  0  0  0  0  0  0
   12.3701    1.7242   24.5019 C   0  0  0  0  0  0  0  0  0  0  0  0
    8.3510   -1.5420   24.6110 C   0  0  0  0  0  0  0  0  0  0  0  0
   10.2760   -2.3270   23.4020 C   0  0  0  0  0  0  0  0  0  0  0  0
    8.3310   -2.7170   25.3430 C   0  0  0  0  0  0  0  0  0  0  0  0
   10.2570   -3.5000   24.1350 C   0  0  0  0  0  0  0  0  0  0  0  0
   14.3639    0.8253   23.4755 C   0  0  0  0  0  0  0  0  0  0  0  0
   12.1855    0.1427   22.6847 C   0  0  0  0  0  0  0  0  0  0  0  0
   11.5824    0.9695   23.6326 C   0  0  0  0  0  0  0  0  0  0  0  0
    9.3300   -1.3350   23.6390 C   0  0  0  0  0  0  0  0  0  0  0  0
    9.2850   -3.7090   25.1090 C   0  0  0  0  0  0  0  0  0  0  0  0
   13.5762    0.0707   22.6062 C   0  0  0  0  0  0  0  0  0  0  0  0
    5.9810    0.8330   18.8060 C   0  0  0  0  0  0  0  0  0  0  0  0
    7.2210   -0.4620   20.0350 C   0  0  0  0  0  0  0  0  0  0  0  0
    4.9400    1.7060   18.5060 C   0  0  0  0  0  0  0  0  0  0  0  0
    4.0980    2.1130   19.5350 C   0  0  0  0  0  0  0  0  0  0  0  0
    4.2970    1.6690   20.8430 C   0  0  0  0  0  0  0  0  0  0  0  0
    5.3360    0.8000   21.1530 C   0  0  0  0  0  0  0  0  0  0  0  0
    8.9510    0.1280   21.6880 C   0  0  0  0  0  0  0  0  0  0  0  0
    8.2349   -4.9984   26.8025 C   0  0  0  0  0  0  0  0  0  0  0  0
   10.0855    1.0467   23.7186 C   0  0  0  0  0  0  0  0  0  0  0  0
    8.0810   -0.9750   21.0820 C   0  0  0  0  0  0  0  0  0  0  0  0
    6.9440    0.2550   18.0100 N   0  0  0  0  0  0  0  0  0  0  0  0
    7.6830   -0.5170   18.7600 N   0  0  0  0  0  0  0  0  0  0  0  0
    6.1600    0.3870   20.1140 N   0  0  0  0  0  0  0  0  0  0  0  0
    9.4200   -0.0840   22.9530 N   0  0  0  0  0  0  0  0  0  0  0  0
    9.1870    1.1500   21.0630 O   0  0  0  0  0  0  0  0  0  0  0  0
    9.2631   -4.8614   25.8229 O   0  0  0  0  0  0  0  0  0  0  0  0
   14.3209   -0.9500   21.4377 Cl  0  0  0  0  0  0  0  0  0  0  0  0
   14.3739    2.2397   25.1006 H   0  0  0  0  0  0  0  0  0  0  0  0
   11.9087    2.3709   25.2437 H   0  0  0  0  0  0  0  0  0  0  0  0
    7.5951   -0.7786   24.8000 H   0  0  0  0  0  0  0  0  0  0  0  0
   11.0406   -2.1866   22.6351 H   0  0  0  0  0  0  0  0  0  0  0  0
    7.5664   -2.8674   26.1055 H   0  0  0  0  0  0  0  0  0  0  0  0
   11.0119   -4.2671   23.9461 H   0  0  0  0  0  0  0  0  0  0  0  0
   15.4491    0.7788   23.4259 H   0  0  0  0  0  0  0  0  0  0  0  0
   11.5669   -0.4433   22.0089 H   0  0  0  0  0  0  0  0  0  0  0  0
    4.7732    2.0709   17.5073 H   0  0  0  0  0  0  0  0  0  0  0  0
    3.2823    2.7848   19.2995 H   0  0  0  0  0  0  0  0  0  0  0  0
    3.6338    1.9971   21.6547 H   0  0  0  0  0  0  0  0  0  0  0  0
    5.5079    0.4527   22.1466 H   0  0  0  0  0  0  0  0  0  0  0  0
    8.3315   -5.9664   27.3003 H   0  0  0  0  0  0  0  0  0  0  0  0
    7.2576   -4.9209   26.3195 H   0  0  0  0  0  0  0  0  0  0  0  0
    8.3386   -4.1997   27.5408 H   0  0  0  0  0  0  0  0  0  0  0  0
    9.7554    0.9938   24.7618 H   0  0  0  0  0  0  0  0  0  0  0  0
    9.7166    1.9927   23.3083 H   0  0  0  0  0  0  0  0  0  0  0  0
    7.4889   -1.4161   21.8965 H   0  0  0  0  0  0  0  0  0  0  0  0
    8.7528   -1.7575   20.7010 H   0  0  0  0  0  0  0  0  0  0  0  0
  1  2  2  0  0  0  0
  1  7  1  0  0  0  0
  2  9  1  0  0  0  0
  3  5  2  0  0  0  0
  3 10  1  0  0  0  0
  4  6  1  0  0  0  0
  4 10  2  0  0  0  0
  5 11  1  0  0  0  0
  6 11  2  0  0  0  0
  7 12  2  0  0  0  0
  8  9  2  0  0  0  0
  8 12  1  0  0  0  0
  9 21  1  0  0  0  0
 10 26  1  0  0  0  0
 11 28  1  0  0  0  0
 12 29  1  0  0  0  0
 13 15  1  0  0  0  0
 13 23  2  0  0  0  0
 13 25  1  0  0  0  0
 14 22  1  0  0  0  0
 14 24  2  0  0  0  0
 14 25  1  0  0  0  0
 15 16  2  0  0  0  0
 16 17  1  0  0  0  0
 17 18  2  0  0  0  0
 18 25  1  0  0  0  0
 19 22  1  0  0  0  0
 19 26  1  0  0  0  0
 19 27  2  0  0  0  0
 20 28  1  0  0  0  0
 21 26  1  0  0  0  0
 23 24  1  0  0  0  0
  1 30  1  0  0  0  0
  2 31  1  0  0  0  0
  3 32  1  0  0  0  0
  4 33  1  0  0  0  0
  5 34  1  0  0  0  0
  6 35  1  0  0  0  0
  7 36  1  0  0  0  0
  8 37  1  0  0  0  0
 15 38  1  0  0  0  0
 16 39  1  0  0  0  0
 17 40  1  0  0  0  0
 18 41  1  0  0  0  0
 20 42  1  0  0  0  0
 20 43  1  0  0  0  0
 20 44  1  0  0  0  0
 21 45  1  0  0  0  0
 21 46  1  0  0  0  0
 22 47  1  0  0  0  0
 22 48  1  0  0  0  0
M  END
> <clash_score>
0

> <docking_score>
-8.434045791625977

> <overlap_score>
0.9719837307929993

$$$$
BENZO_497_1
  -OEChem-08232013513D

 58 62  0     0  0  0  0  0  0999 V2000
   14.2722    1.1317   23.8497 C   0  0  0  0  0  0  0  0  0  0  0  0
   13.5648    0.4311   24.8266 C   0  0  0  0  0  0  0  0  0  0  0  0
   13.5852    1.8105   22.8432 C   0  0  0  0  0  0  0  0  0  0  0  0
   12.1704    0.4091   24.7969 C   0  0  0  0  0  0  0  0  0  0  0  0
   12.1908    1.7885   22.8136 C   0  0  0  0  0  0  0  0  0  0  0  0
    8.3310   -2.7170   25.3430 C   0  0  0  0  0  0  0  0  0  0  0  0
   10.2570   -3.5000   24.1350 C   0  0  0  0  0  0  0  0  0  0  0  0
    8.3510   -1.5420   24.6110 C   0  0  0  0  0  0  0  0  0  0  0  0
   10.2760   -2.3270   23.4020 C   0  0  0  0  0  0  0  0  0  0  0  0
   11.4834    1.0878   23.7904 C   0  0  0  0  0  0  0  0  0  0  0  0
    9.2850   -3.7090   25.1090 C   0  0  0  0  0  0  0  0  0  0  0  0
    9.3300   -1.3350   23.6390 C   0  0  0  0  0  0  0  0  0  0  0  0
    5.9810    0.8330   18.8060 C   0  0  0  0  0  0  0  0  0  0  0  0
    7.2210   -0.4620   20.0350 C   0  0  0  0  0  0  0  0  0  0  0  0
    4.9400    1.7060   18.5060 C   0  0  0  0  0  0  0  0  0  0  0  0
    4.0980    2.1130   19.5350 C   0  0  0  0  0  0  0  0  0  0  0  0
    4.2970    1.6690   20.8430 C   0  0  0  0  0  0  0  0  0  0  0  0
    5.3360    0.8000   21.1530 C   0  0  0  0  0  0  0  0  0  0  0  0
    8.0635   -5.4710   26.3667 C   0  0  0  0  0  0  0  0  0  0  0  0
    8.9510    0.1280   21.6880 C   0  0  0  0  0  0  0  0  0  0  0  0
    8.2626   -6.7580   27.1475 C   0  0  0  0  0  0  0  0  0  0  0  0
    9.4048   -6.6156   28.1380 C   0  0  0  0  0  0  0  0  0  0  0  0
   10.6949   -6.1500   27.4702 C   0  0  0  0  0  0  0  0  0  0  0  0
   10.4942   -5.7069   26.0219 C   0  0  0  0  0  0  0  0  0  0  0  0
    9.9825    1.0644   23.7577 C   0  0  0  0  0  0  0  0  0  0  0  0
    8.0810   -0.9750   21.0820 C   0  0  0  0  0  0  0  0  0  0  0  0
    6.9440    0.2550   18.0100 N   0  0  0  0  0  0  0  0  0  0  0  0
    7.6830   -0.5170   18.7600 N   0  0  0  0  0  0  0  0  0  0  0  0
    6.1600    0.3870   20.1140 N   0  0  0  0  0  0  0  0  0  0  0  0
    9.2623   -4.9266   25.8635 N   0  0  0  0  0  0  0  0  0  0  0  0
    9.4200   -0.0840   22.9530 N   0  0  0  0  0  0  0  0  0  0  0  0
    6.9244   -5.0476   26.1739 O   0  0  0  0  0  0  0  0  0  0  0  0
    9.1870    1.1500   21.0630 O   0  0  0  0  0  0  0  0  0  0  0  0
   15.3578    1.1499   23.8738 H   0  0  0  0  0  0  0  0  0  0  0  0
   14.0995   -0.0966   25.6110 H   0  0  0  0  0  0  0  0  0  0  0  0
   14.1356    2.3571   22.0832 H   0  0  0  0  0  0  0  0  0  0  0  0
   11.6275   -0.1397   25.5620 H   0  0  0  0  0  0  0  0  0  0  0  0
   11.6640    2.3202   22.0255 H   0  0  0  0  0  0  0  0  0  0  0  0
    7.5639   -2.8621   26.1045 H   0  0  0  0  0  0  0  0  0  0  0  0
   11.0141   -4.2644   23.9422 H   0  0  0  0  0  0  0  0  0  0  0  0
    7.5950   -0.7788   24.8007 H   0  0  0  0  0  0  0  0  0  0  0  0
   11.0408   -2.1861   22.6359 H   0  0  0  0  0  0  0  0  0  0  0  0
    4.7732    2.0709   17.5073 H   0  0  0  0  0  0  0  0  0  0  0  0
    3.2823    2.7848   19.2995 H   0  0  0  0  0  0  0  0  0  0  0  0
    3.6338    1.9971   21.6547 H   0  0  0  0  0  0  0  0  0  0  0  0
    5.5079    0.4527   22.1466 H   0  0  0  0  0  0  0  0  0  0  0  0
    7.3516   -6.9810   27.6812 H   0  0  0  0  0  0  0  0  0  0  0  0
    8.4757   -7.5428   26.4371 H   0  0  0  0  0  0  0  0  0  0  0  0
    9.1234   -5.9016   28.9400 H   0  0  0  0  0  0  0  0  0  0  0  0
    9.5778   -7.5840   28.6491 H   0  0  0  0  0  0  0  0  0  0  0  0
   11.1305   -5.3108   28.0523 H   0  0  0  0  0  0  0  0  0  0  0  0
   11.4565   -6.9587   27.5131 H   0  0  0  0  0  0  0  0  0  0  0  0
   11.3212   -5.0729   25.7168 H   0  0  0  0  0  0  0  0  0  0  0  0
   10.4483   -6.5796   25.3796 H   0  0  0  0  0  0  0  0  0  0  0  0
    9.5754    0.9911   24.7721 H   0  0  0  0  0  0  0  0  0  0  0  0
    9.5848    1.9827   23.3131 H   0  0  0  0  0  0  0  0  0  0  0  0
    7.4781   -1.4136   21.8845 H   0  0  0  0  0  0  0  0  0  0  0  0
    8.7420   -1.7550   20.6889 H   0  0  0  0  0  0  0  0  0  0  0  0
  1  2  1  0  0  0  0
  1  3  2  0  0  0  0
  2  4  2  0  0  0  0
  3  5  1  0  0  0  0
  4 10  1  0  0  0  0
  5 10  2  0  0  0  0
  6  8  2  0  0  0  0
  6 11  1  0  0  0  0
  7  9  1  0  0  0  0
  7 11  2  0  0  0  0
  8 12  1  0  0  0  0
  9 12  2  0  0  0  0
 10 25  1  0  0  0  0
 11 30  1  0  0  0  0
 12 31  1  0  0  0  0
 13 15  1  0  0  0  0
 13 27  2  0  0  0  0
 13 29  1  0  0  0  0
 14 26  1  0  0  0  0
 14 28  2  0  0  0  0
 14 29  1  0  0  0  0
 15 16  2  0  0  0  0
 16 17  1  0  0  0  0
 17 18  2  0  0  0  0
 18 29  1  0  0  0  0
 19 21  1  0  0  0  0
 19 30  1  0  0  0  0
 19 32  2  0  0  0  0
 20 26  1  0  0  0  0
 20 31  1  0  0  0  0
 20 33  2  0  0  0  0
 21 22  1  0  0  0  0
 22 23  1  0  0  0  0
 23 24  1  0  0  0  0
 24 30  1  0  0  0  0
 25 31  1  0  0  0  0
 27 28  1  0  0  0  0
  1 34  1  0  0  0  0
  2 35  1  0  0  0  0
  3 36  1  0  0  0  0
  4 37  1  0  0  0  0
  5 38  1  0  0  0  0
  6 39  1  0  0  0  0
  7 40  1  0  0  0  0
  8 41  1  0  0  0  0
  9 42  1  0  0  0  0
 15 43  1  0  0  0  0
 16 44  1  0  0  0  0
 17 45  1  0  0  0  0
 18 46  1  0  0  0  0
 21 47  1  0  0  0  0
 21 48  1  0  0  0  0
 22 49  1  0  0  0  0
 22 50  1  0  0  0  0
 23 51  1  0  0  0  0
 23 52  1  0  0  0  0
 24 53  1  0  0  0  0
 24 54  1  0  0  0  0
 25 55  1  0  0  0  0
 25 56  1  0  0  0  0
 26 57  1  0  0  0  0
 26 58  1  0  0  0  0
M  END
> <clash_score>
1.272782601224562

> <docking_score>
-7.866777420043945

> <overlap_score>
1.0070691108703613

$$$$
BENZO_496_1
  -OEChem-08232013513D

 55 59  0     0  0  0  0  0  0999 V2000
    8.3310   -2.7170   25.3430 C   0  0  0  0  0  0  0  0  0  0  0  0
   10.2570   -3.5000   24.1350 C   0  0  0  0  0  0  0  0  0  0  0  0
    8.3510   -1.5420   24.6110 C   0  0  0  0  0  0  0  0  0  0  0  0
   10.2760   -2.3270   23.4020 C   0  0  0  0  0  0  0  0  0  0  0  0
   12.3021    1.1778   22.6278 C   0  0  0  0  0  0  0  0  0  0  0  0
   13.6441    1.1796   22.9388 C   0  0  0  0  0  0  0  0  0  0  0  0
   12.2309    1.0241   24.9459 C   0  0  0  0  0  0  0  0  0  0  0  0
   11.4834    1.0878   23.7904 C   0  0  0  0  0  0  0  0  0  0  0  0
    9.2850   -3.7090   25.1090 C   0  0  0  0  0  0  0  0  0  0  0  0
    9.3300   -1.3350   23.6390 C   0  0  0  0  0  0  0  0  0  0  0  0
    5.9810    0.8330   18.8060 C   0  0  0  0  0  0  0  0  0  0  0  0
    7.2210   -0.4620   20.0350 C   0  0  0  0  0  0  0  0  0  0  0  0
    4.9400    1.7060   18.5060 C   0  0  0  0  0  0  0  0  0  0  0  0
    4.0980    2.1130   19.5350 C   0  0  0  0  0  0  0  0  0  0  0  0
    4.2970    1.6690   20.8430 C   0  0  0  0  0  0  0  0  0  0  0  0
    5.3360    0.8000   21.1530 C   0  0  0  0  0  0  0  0  0  0  0  0
    8.0635   -5.4710   26.3667 C   0  0  0  0  0  0  0  0  0  0  0  0
    8.9510    0.1280   21.6880 C   0  0  0  0  0  0  0  0  0  0  0  0
    8.2626   -6.7580   27.1475 C   0  0  0  0  0  0  0  0  0  0  0  0
    9.4048   -6.6156   28.1380 C   0  0  0  0  0  0  0  0  0  0  0  0
   10.6949   -6.1500   27.4702 C   0  0  0  0  0  0  0  0  0  0  0  0
   10.4942   -5.7069   26.0219 C   0  0  0  0  0  0  0  0  0  0  0  0
    9.9825    1.0644   23.7577 C   0  0  0  0  0  0  0  0  0  0  0  0
    8.0810   -0.9750   21.0820 C   0  0  0  0  0  0  0  0  0  0  0  0
    6.9440    0.2550   18.0100 N   0  0  0  0  0  0  0  0  0  0  0  0
    7.6830   -0.5170   18.7600 N   0  0  0  0  0  0  0  0  0  0  0  0
    6.1600    0.3870   20.1140 N   0  0  0  0  0  0  0  0  0  0  0  0
    9.2623   -4.9266   25.8635 N   0  0  0  0  0  0  0  0  0  0  0  0
    9.4200   -0.0840   22.9530 N   0  0  0  0  0  0  0  0  0  0  0  0
    6.9244   -5.0476   26.1739 O   0  0  0  0  0  0  0  0  0  0  0  0
    9.1870    1.1500   21.0630 O   0  0  0  0  0  0  0  0  0  0  0  0
   13.9126    1.0731   24.6267 S   0  0  0  0  0  0  0  0  0  0  0  0
    7.5639   -2.8621   26.1045 H   0  0  0  0  0  0  0  0  0  0  0  0
   11.0141   -4.2644   23.9422 H   0  0  0  0  0  0  0  0  0  0  0  0
    7.5950   -0.7788   24.8007 H   0  0  0  0  0  0  0  0  0  0  0  0
   11.0408   -2.1861   22.6359 H   0  0  0  0  0  0  0  0  0  0  0  0
   11.9298    1.2378   21.6128 H   0  0  0  0  0  0  0  0  0  0  0  0
   14.4797    1.2377   22.2557 H   0  0  0  0  0  0  0  0  0  0  0  0
   11.8741    0.9499   25.9638 H   0  0  0  0  0  0  0  0  0  0  0  0
    4.7732    2.0709   17.5073 H   0  0  0  0  0  0  0  0  0  0  0  0
    3.2823    2.7848   19.2995 H   0  0  0  0  0  0  0  0  0  0  0  0
    3.6338    1.9971   21.6547 H   0  0  0  0  0  0  0  0  0  0  0  0
    5.5079    0.4527   22.1466 H   0  0  0  0  0  0  0  0  0  0  0  0
    7.3516   -6.9810   27.6812 H   0  0  0  0  0  0  0  0  0  0  0  0
    8.4757   -7.5428   26.4371 H   0  0  0  0  0  0  0  0  0  0  0  0
    9.1234   -5.9016   28.9400 H   0  0  0  0  0  0  0  0  0  0  0  0
    9.5778   -7.5840   28.6491 H   0  0  0  0  0  0  0  0  0  0  0  0
   11.1305   -5.3108   28.0523 H   0  0  0  0  0  0  0  0  0  0  0  0
   11.4565   -6.9587   27.5131 H   0  0  0  0  0  0  0  0  0  0  0  0
   11.3212   -5.0729   25.7168 H   0  0  0  0  0  0  0  0  0  0  0  0
   10.4483   -6.5796   25.3796 H   0  0  0  0  0  0  0  0  0  0  0  0
    9.5754    0.9911   24.7721 H   0  0  0  0  0  0  0  0  0  0  0  0
    9.5848    1.9827   23.3131 H   0  0  0  0  0  0  0  0  0  0  0  0
    7.4781   -1.4136   21.8845 H   0  0  0  0  0  0  0  0  0  0  0  0
    8.7420   -1.7550   20.6889 H   0  0  0  0  0  0  0  0  0  0  0  0
  1  3  2  0  0  0  0
  1  9  1  0  0  0  0
  2  4  1  0  0  0  0
  2  9  2  0  0  0  0
  3 10  1  0  0  0  0
  4 10  2  0  0  0  0
  5  6  2  0  0  0  0
  5  8  1  0  0  0  0
  6 32  1  0  0  0  0
  7  8  2  0  0  0  0
  7 32  1  0  0  0  0
  8 23  1  0  0  0  0
  9 28  1  0  0  0  0
 10 29  1  0  0  0  0
 11 13  1  0  0  0  0
 11 25  2  0  0  0  0
 11 27  1  0  0  0  0
 12 24  1  0  0  0  0
 12 26  2  0  0  0  0
 12 27  1  0  0  0  0
 13 14  2  0  0  0  0
 14 15  1  0  0  0  0
 15 16  2  0  0  0  0
 16 27  1  0  0  0  0
 17 19  1  0  0  0  0
 17 28  1  0  0  0  0
 17 30  2  0  0  0  0
 18 24  1  0  0  0  0
 18 29  1  0  0  0  0
 18 31  2  0  0  0  0
 19 20  1  0  0  0  0
 20 21  1  0  0  0  0
 21 22  1  0  0  0  0
 22 28  1  0  0  0  0
 23 29  1  0  0  0  0
 25 26  1  0  0  0  0
  1 33  1  0  0  0  0
  2 34  1  0  0  0  0
  3 35  1  0  0  0  0
  4 36  1  0  0  0  0
  5 37  1  0  0  0  0
  6 38  1  0  0  0  0
  7 39  1  0  0  0  0
 13 40  1  0  0  0  0
 14 41  1  0  0  0  0
 15 42  1  0  0  0  0
 16 43  1  0  0  0  0
 19 44  1  0  0  0  0
 19 45  1  0  0  0  0
 20 46  1  0  0  0  0
 20 47  1  0  0  0  0
 21 48  1  0  0  0  0
 21 49  1  0  0  0  0
 22 50  1  0  0  0  0
 22 51  1  0  0  0  0
 23 52  1  0  0  0  0
 23 53  1  0  0  0  0
 24 54  1  0  0  0  0
 24 55  1  0  0  0  0
M  END
> <clash_score>
1.272782601224562

> <docking_score>
-8.230792045593262

> <overlap_score>
0.9861369132995605

$$$$
BENZO_499_1
  -OEChem-08232013513D

 58 62  0     0  0  0  0  0  0999 V2000
    8.3310   -2.7170   25.3430 C   0  0  0  0  0  0  0  0  0  0  0  0
   10.2570   -3.5000   24.1350 C   0  0  0  0  0  0  0  0  0  0  0  0
    8.3510   -1.5420   24.6110 C   0  0  0  0  0  0  0  0  0  0  0  0
   10.2760   -2.3270   23.4020 C   0  0  0  0  0  0  0  0  0  0  0  0
   12.3172    1.8340   24.6446 C   0  0  0  0  0  0  0  0  0  0  0  0
   12.3515    0.3823   22.9934 C   0  0  0  0  0  0  0  0  0  0  0  0
   11.4834    1.0878   23.7904 C   0  0  0  0  0  0  0  0  0  0  0  0
    9.2850   -3.7090   25.1090 C   0  0  0  0  0  0  0  0  0  0  0  0
    9.3300   -1.3350   23.6390 C   0  0  0  0  0  0  0  0  0  0  0  0
    5.9810    0.8330   18.8060 C   0  0  0  0  0  0  0  0  0  0  0  0
    7.2210   -0.4620   20.0350 C   0  0  0  0  0  0  0  0  0  0  0  0
    4.9400    1.7060   18.5060 C   0  0  0  0  0  0  0  0  0  0  0  0
    4.0980    2.1130   19.5350 C   0  0  0  0  0  0  0  0  0  0  0  0
    4.2970    1.6690   20.8430 C   0  0  0  0  0  0  0  0  0  0  0  0
    5.3360    0.8000   21.1530 C   0  0  0  0  0  0  0  0  0  0  0  0
    8.2930   -5.1714   26.8572 C   0  0  0  0  0  0  0  0  0  0  0  0
    8.9510    0.1280   21.6880 C   0  0  0  0  0  0  0  0  0  0  0  0
    8.4551   -6.5156   27.5444 C   0  0  0  0  0  0  0  0  0  0  0  0
    9.9019   -6.7444   27.9450 C   0  0  0  0  0  0  0  0  0  0  0  0
   10.8596   -6.5882   26.7680 C   0  0  0  0  0  0  0  0  0  0  0  0
   10.1895   -6.0108   25.5223 C   0  0  0  0  0  0  0  0  0  0  0  0
   14.8502    0.2503   22.8602 C   0  0  0  0  0  0  0  0  0  0  0  0
    9.9825    1.0644   23.7577 C   0  0  0  0  0  0  0  0  0  0  0  0
    8.0810   -0.9750   21.0820 C   0  0  0  0  0  0  0  0  0  0  0  0
   13.6154    1.6222   24.4122 N   0  0  0  0  0  0  0  0  0  0  0  0
    6.9440    0.2550   18.0100 N   0  0  0  0  0  0  0  0  0  0  0  0
    7.6830   -0.5170   18.7600 N   0  0  0  0  0  0  0  0  0  0  0  0
   13.6037    0.7348   23.4030 N   0  0  0  0  0  0  0  0  0  0  0  0
    6.1600    0.3870   20.1140 N   0  0  0  0  0  0  0  0  0  0  0  0
    9.2623   -4.9266   25.8635 N   0  0  0  0  0  0  0  0  0  0  0  0
    9.4200   -0.0840   22.9530 N   0  0  0  0  0  0  0  0  0  0  0  0
    7.3370   -4.4527   27.1463 O   0  0  0  0  0  0  0  0  0  0  0  0
    9.1870    1.1500   21.0630 O   0  0  0  0  0  0  0  0  0  0  0  0
    7.5639   -2.8621   26.1045 H   0  0  0  0  0  0  0  0  0  0  0  0
   11.0141   -4.2644   23.9422 H   0  0  0  0  0  0  0  0  0  0  0  0
    7.5950   -0.7788   24.8007 H   0  0  0  0  0  0  0  0  0  0  0  0
   11.0408   -2.1861   22.6359 H   0  0  0  0  0  0  0  0  0  0  0  0
   12.0355    2.5233   25.4280 H   0  0  0  0  0  0  0  0  0  0  0  0
   12.1888   -0.3240   22.1906 H   0  0  0  0  0  0  0  0  0  0  0  0
    4.7732    2.0709   17.5073 H   0  0  0  0  0  0  0  0  0  0  0  0
    3.2823    2.7848   19.2995 H   0  0  0  0  0  0  0  0  0  0  0  0
    3.6338    1.9971   21.6547 H   0  0  0  0  0  0  0  0  0  0  0  0
    5.5079    0.4527   22.1466 H   0  0  0  0  0  0  0  0  0  0  0  0
    7.8332   -6.5283   28.4263 H   0  0  0  0  0  0  0  0  0  0  0  0
    8.1305   -7.2787   26.8530 H   0  0  0  0  0  0  0  0  0  0  0  0
   10.1875   -6.0379   28.7521 H   0  0  0  0  0  0  0  0  0  0  0  0
   10.0116   -7.7568   28.3834 H   0  0  0  0  0  0  0  0  0  0  0  0
   11.7061   -5.9337   27.0644 H   0  0  0  0  0  0  0  0  0  0  0  0
   11.3230   -7.5689   26.5243 H   0  0  0  0  0  0  0  0  0  0  0  0
   10.9445   -5.5959   24.8614 H   0  0  0  0  0  0  0  0  0  0  0  0
    9.6461   -6.7954   25.0072 H   0  0  0  0  0  0  0  0  0  0  0  0
   15.1461    0.9181   22.0469 H   0  0  0  0  0  0  0  0  0  0  0  0
   15.6112    0.2436   23.6455 H   0  0  0  0  0  0  0  0  0  0  0  0
   14.7106   -0.7685   22.4882 H   0  0  0  0  0  0  0  0  0  0  0  0
    9.5754    0.9911   24.7721 H   0  0  0  0  0  0  0  0  0  0  0  0
    9.5848    1.9827   23.3131 H   0  0  0  0  0  0  0  0  0  0  0  0
    7.4781   -1.4136   21.8845 H   0  0  0  0  0  0  0  0  0  0  0  0
    8.7420   -1.7550   20.6889 H   0  0  0  0  0  0  0  0  0  0  0  0
  1  3  2  0  0  0  0
  1  8  1  0  0  0  0
  2  4  1  0  0  0  0
  2  8  2  0  0  0  0
  3  9  1  0  0  0  0
  4  9  2  0  0  0  0
  5  7  1  0  0  0  0
  5 25  2  0  0  0  0
  6  7  2  0  0  0  0
  6 28  1  0  0  0  0
  7 23  1  0  0  0  0
  8 30  1  0  0  0  0
  9 31  1  0  0  0  0
 10 12  1  0  0  0  0
 10 26  2  0  0  0  0
 10 29  1  0  0  0  0
 11 24  1  0  0  0  0
 11 27  2  0  0  0  0
 11 29  1  0  0  0  0
 12 13  2  0  0  0  0
 13 14  1  0  0  0  0
 14 15  2  0  0  0  0
 15 29  1  0  0  0  0
 16 18  1  0  0  0  0
 16 30  1  0  0  0  0
 16 32  2  0  0  0  0
 17 24  1  0  0  0  0
 17 31  1  0  0  0  0
 17 33  2  0  0  0  0
 18 19  1  0  0  0  0
 19 20  1  0  0  0  0
 20 21  1  0  0  0  0
 21 30  1  0  0  0  0
 22 28  1  0  0  0  0
 23 31  1  0  0  0  0
 25 28  1  0  0  0  0
 26 27  1  0  0  0  0
  1 34  1  0  0  0  0
  2 35  1  0  0  0  0
  3 36  1  0  0  0  0
  4 37  1  0  0  0  0
  5 38  1  0  0  0  0
  6 39  1  0  0  0  0
 12 40  1  0  0  0  0
 13 41  1  0  0  0  0
 14 42  1  0  0  0  0
 15 43  1  0  0  0  0
 18 44  1  0  0  0  0
 18 45  1  0  0  0  0
 19 46  1  0  0  0  0
 19 47  1  0  0  0  0
 20 48  1  0  0  0  0
 20 49  1  0  0  0  0
 21 50  1  0  0  0  0
 21 51  1  0  0  0  0
 22 52  1  0  0  0  0
 22 53  1  0  0  0  0
 22 54  1  0  0  0  0
 23 55  1  0  0  0  0
 23 56  1  0  0  0  0
 24 57  1  0  0  0  0
 24 58  1  0  0  0  0
M  END
> <clash_score>
2.0596949410317893

> <docking_score>
-7.654283046722412

> <overlap_score>
0.9955232739448547

$$$$
BENZO_501_1
  -OEChem-08232013513D

 57 61  0     0  0  0  0  0  0999 V2000
   14.2721    1.1321   23.8535 C   0  0  0  0  0  0  0  0  0  0  0  0
   13.5639    0.4317   24.8299 C   0  0  0  0  0  0  0  0  0  0  0  0
   13.5859    1.8106   22.8462 C   0  0  0  0  0  0  0  0  0  0  0  0
   12.1695    0.4095   24.7990 C   0  0  0  0  0  0  0  0  0  0  0  0
   12.1916    1.7885   22.8153 C   0  0  0  0  0  0  0  0  0  0  0  0
    8.3310   -2.7170   25.3430 C   0  0  0  0  0  0  0  0  0  0  0  0
   10.2570   -3.5000   24.1350 C   0  0  0  0  0  0  0  0  0  0  0  0
    8.3510   -1.5420   24.6110 C   0  0  0  0  0  0  0  0  0  0  0  0
   10.2760   -2.3270   23.4020 C   0  0  0  0  0  0  0  0  0  0  0  0
   11.4834    1.0880   23.7917 C   0  0  0  0  0  0  0  0  0  0  0  0
    9.2850   -3.7090   25.1090 C   0  0  0  0  0  0  0  0  0  0  0  0
    9.3300   -1.3350   23.6390 C   0  0  0  0  0  0  0  0  0  0  0  0
    5.9810    0.8330   18.8060 C   0  0  0  0  0  0  0  0  0  0  0  0
    7.2210   -0.4620   20.0350 C   0  0  0  0  0  0  0  0  0  0  0  0
    4.9400    1.7060   18.5060 C   0  0  0  0  0  0  0  0  0  0  0  0
    4.0980    2.1130   19.5350 C   0  0  0  0  0  0  0  0  0  0  0  0
    4.2970    1.6690   20.8430 C   0  0  0  0  0  0  0  0  0  0  0  0
    5.3360    0.8000   21.1530 C   0  0  0  0  0  0  0  0  0  0  0  0
    8.9510    0.1280   21.6880 C   0  0  0  0  0  0  0  0  0  0  0  0
    8.7666   -4.9523   27.2147 C   0  0  0  0  0  0  0  0  0  0  0  0
    9.3034   -6.1866   25.1651 C   0  0  0  0  0  0  0  0  0  0  0  0
    7.3827   -5.5925   27.1999 C   0  0  0  0  0  0  0  0  0  0  0  0
    7.9024   -6.7967   25.2263 C   0  0  0  0  0  0  0  0  0  0  0  0
    9.9825    1.0644   23.7577 C   0  0  0  0  0  0  0  0  0  0  0  0
    8.0810   -0.9750   21.0820 C   0  0  0  0  0  0  0  0  0  0  0  0
    6.9440    0.2550   18.0100 N   0  0  0  0  0  0  0  0  0  0  0  0
    7.6830   -0.5170   18.7600 N   0  0  0  0  0  0  0  0  0  0  0  0
    6.1600    0.3870   20.1140 N   0  0  0  0  0  0  0  0  0  0  0  0
    9.2640   -4.8844   25.8389 N   0  0  0  0  0  0  0  0  0  0  0  0
    9.4200   -0.0840   22.9530 N   0  0  0  0  0  0  0  0  0  0  0  0
    9.1870    1.1500   21.0630 O   0  0  0  0  0  0  0  0  0  0  0  0
    7.4483   -6.8833   26.5817 O   0  0  0  0  0  0  0  0  0  0  0  0
   15.3577    1.1504   23.8785 H   0  0  0  0  0  0  0  0  0  0  0  0
   14.0979   -0.0958   25.6150 H   0  0  0  0  0  0  0  0  0  0  0  0
   14.1370    2.3569   22.0865 H   0  0  0  0  0  0  0  0  0  0  0  0
   11.6260   -0.1390   25.5638 H   0  0  0  0  0  0  0  0  0  0  0  0
   11.6655    2.3198   22.0267 H   0  0  0  0  0  0  0  0  0  0  0  0
    7.5647   -2.8621   26.1053 H   0  0  0  0  0  0  0  0  0  0  0  0
   11.0144   -4.2642   23.9425 H   0  0  0  0  0  0  0  0  0  0  0  0
    7.5958   -0.7779   24.8006 H   0  0  0  0  0  0  0  0  0  0  0  0
   11.0406   -2.1848   22.6356 H   0  0  0  0  0  0  0  0  0  0  0  0
    4.7732    2.0709   17.5073 H   0  0  0  0  0  0  0  0  0  0  0  0
    3.2823    2.7848   19.2995 H   0  0  0  0  0  0  0  0  0  0  0  0
    3.6338    1.9971   21.6547 H   0  0  0  0  0  0  0  0  0  0  0  0
    5.5079    0.4527   22.1466 H   0  0  0  0  0  0  0  0  0  0  0  0
    8.7030   -3.9561   27.6574 H   0  0  0  0  0  0  0  0  0  0  0  0
    9.4460   -5.5639   27.8143 H   0  0  0  0  0  0  0  0  0  0  0  0
   10.0083   -6.8392   25.6817 H   0  0  0  0  0  0  0  0  0  0  0  0
    9.6089   -6.0802   24.1251 H   0  0  0  0  0  0  0  0  0  0  0  0
    7.0281   -5.7334   28.2231 H   0  0  0  0  0  0  0  0  0  0  0  0
    6.6541   -4.9678   26.6754 H   0  0  0  0  0  0  0  0  0  0  0  0
    7.1860   -6.2177   24.6318 H   0  0  0  0  0  0  0  0  0  0  0  0
    7.9246   -7.8119   24.8187 H   0  0  0  0  0  0  0  0  0  0  0  0
    9.5745    0.9898   24.7716 H   0  0  0  0  0  0  0  0  0  0  0  0
    9.5850    1.9832   23.3140 H   0  0  0  0  0  0  0  0  0  0  0  0
    7.4781   -1.4136   21.8845 H   0  0  0  0  0  0  0  0  0  0  0  0
    8.7420   -1.7550   20.6889 H   0  0  0  0  0  0  0  0  0  0  0  0
  1  2  1  0  0  0  0
  1  3  2  0  0  0  0
  2  4  2  0  0  0  0
  3  5  1  0  0  0  0
  4 10  1  0  0  0  0
  5 10  2  0  0  0  0
  6  8  2  0  0  0  0
  6 11  1  0  0  0  0
  7  9  1  0  0  0  0
  7 11  2  0  0  0  0
  8 12  1  0  0  0  0
  9 12  2  0  0  0  0
 10 24  1  0  0  0  0
 11 29  1  0  0  0  0
 12 30  1  0  0  0  0
 13 15  1  0  0  0  0
 13 26  2  0  0  0  0
 13 28  1  0  0  0  0
 14 25  1  0  0  0  0
 14 27  2  0  0  0  0
 14 28  1  0  0  0  0
 15 16  2  0  0  0  0
 16 17  1  0  0  0  0
 17 18  2  0  0  0  0
 18 28  1  0  0  0  0
 19 25  1  0  0  0  0
 19 30  1  0  0  0  0
 19 31  2  0  0  0  0
 20 22  1  0  0  0  0
 20 29  1  0  0  0  0
 21 23  1  0  0  0  0
 21 29  1  0  0  0  0
 22 32  1  0  0  0  0
 23 32  1  0  0  0  0
 24 30  1  0  0  0  0
 26 27  1  0  0  0  0
  1 33  1  0  0  0  0
  2 34  1  0  0  0  0
  3 35  1  0  0  0  0
  4 36  1  0  0  0  0
  5 37  1  0  0  0  0
  6 38  1  0  0  0  0
  7 39  1  0  0  0  0
  8 40  1  0  0  0  0
  9 41  1  0  0  0  0
 15 42  1  0  0  0  0
 16 43  1  0  0  0  0
 17 44  1  0  0  0  0
 18 45  1  0  0  0  0
 20 46  1  0  0  0  0
 20 47  1  0  0  0  0
 21 48  1  0  0  0  0
 21 49  1  0  0  0  0
 22 50  1  0  0  0  0
 22 51  1  0  0  0  0
 23 52  1  0  0  0  0
 23 53  1  0  0  0  0
 24 54  1  0  0  0  0
 24 55  1  0  0  0  0
 25 56  1  0  0  0  0
 25 57  1  0  0  0  0
M  END
> <clash_score>
0

> <docking_score>
-9.10947036743164

> <overlap_score>
1.0075167417526245

$$$$
BENZO_498_1
  -OEChem-08232013513D

 58 62  0     0  0  0  0  0  0999 V2000
   13.5774    2.0303   23.0396 C   0  0  0  0  0  0  0  0  0  0  0  0
   12.1831    2.0072   23.0089 C   0  0  0  0  0  0  0  0  0  0  0  0
    8.3310   -2.7170   25.3430 C   0  0  0  0  0  0  0  0  0  0  0  0
   10.2570   -3.5000   24.1350 C   0  0  0  0  0  0  0  0  0  0  0  0
    8.3510   -1.5420   24.6110 C   0  0  0  0  0  0  0  0  0  0  0  0
   10.2760   -2.3270   23.4020 C   0  0  0  0  0  0  0  0  0  0  0  0
   14.2721    1.1339   23.8518 C   0  0  0  0  0  0  0  0  0  0  0  0
   12.1780    0.1915   24.6027 C   0  0  0  0  0  0  0  0  0  0  0  0
   11.4834    1.0878   23.7904 C   0  0  0  0  0  0  0  0  0  0  0  0
    9.2850   -3.7090   25.1090 C   0  0  0  0  0  0  0  0  0  0  0  0
    9.3300   -1.3350   23.6390 C   0  0  0  0  0  0  0  0  0  0  0  0
   13.5724    0.2145   24.6334 C   0  0  0  0  0  0  0  0  0  0  0  0
    5.9810    0.8330   18.8060 C   0  0  0  0  0  0  0  0  0  0  0  0
    7.2210   -0.4620   20.0350 C   0  0  0  0  0  0  0  0  0  0  0  0
    4.9400    1.7060   18.5060 C   0  0  0  0  0  0  0  0  0  0  0  0
    4.0980    2.1130   19.5350 C   0  0  0  0  0  0  0  0  0  0  0  0
    4.2970    1.6690   20.8430 C   0  0  0  0  0  0  0  0  0  0  0  0
    5.3360    0.8000   21.1530 C   0  0  0  0  0  0  0  0  0  0  0  0
    8.2930   -5.1714   26.8572 C   0  0  0  0  0  0  0  0  0  0  0  0
    8.9510    0.1280   21.6880 C   0  0  0  0  0  0  0  0  0  0  0  0
    8.4551   -6.5156   27.5444 C   0  0  0  0  0  0  0  0  0  0  0  0
    9.9019   -6.7444   27.9450 C   0  0  0  0  0  0  0  0  0  0  0  0
   10.8596   -6.5882   26.7680 C   0  0  0  0  0  0  0  0  0  0  0  0
   10.1895   -6.0108   25.5223 C   0  0  0  0  0  0  0  0  0  0  0  0
    9.9825    1.0644   23.7577 C   0  0  0  0  0  0  0  0  0  0  0  0
    8.0810   -0.9750   21.0820 C   0  0  0  0  0  0  0  0  0  0  0  0
    6.9440    0.2550   18.0100 N   0  0  0  0  0  0  0  0  0  0  0  0
    7.6830   -0.5170   18.7600 N   0  0  0  0  0  0  0  0  0  0  0  0
    6.1600    0.3870   20.1140 N   0  0  0  0  0  0  0  0  0  0  0  0
    9.2623   -4.9266   25.8635 N   0  0  0  0  0  0  0  0  0  0  0  0
    9.4200   -0.0840   22.9530 N   0  0  0  0  0  0  0  0  0  0  0  0
    7.3370   -4.4527   27.1463 O   0  0  0  0  0  0  0  0  0  0  0  0
    9.1870    1.1500   21.0630 O   0  0  0  0  0  0  0  0  0  0  0  0
   14.4299   -0.8903   25.6361 Cl  0  0  0  0  0  0  0  0  0  0  0  0
   14.1219    2.7465   22.4310 H   0  0  0  0  0  0  0  0  0  0  0  0
   11.6501    2.7094   22.3731 H   0  0  0  0  0  0  0  0  0  0  0  0
    7.5639   -2.8621   26.1045 H   0  0  0  0  0  0  0  0  0  0  0  0
   11.0141   -4.2644   23.9422 H   0  0  0  0  0  0  0  0  0  0  0  0
    7.5950   -0.7788   24.8007 H   0  0  0  0  0  0  0  0  0  0  0  0
   11.0408   -2.1861   22.6359 H   0  0  0  0  0  0  0  0  0  0  0  0
   15.3588    1.1635   23.8660 H   0  0  0  0  0  0  0  0  0  0  0  0
   11.6279   -0.5238   25.2098 H   0  0  0  0  0  0  0  0  0  0  0  0
    4.7732    2.0709   17.5073 H   0  0  0  0  0  0  0  0  0  0  0  0
    3.2823    2.7848   19.2995 H   0  0  0  0  0  0  0  0  0  0  0  0
    3.6338    1.9971   21.6547 H   0  0  0  0  0  0  0  0  0  0  0  0
    5.5079    0.4527   22.1466 H   0  0  0  0  0  0  0  0  0  0  0  0
    7.8332   -6.5283   28.4263 H   0  0  0  0  0  0  0  0  0  0  0  0
    8.1305   -7.2787   26.8530 H   0  0  0  0  0  0  0  0  0  0  0  0
   10.1875   -6.0379   28.7521 H   0  0  0  0  0  0  0  0  0  0  0  0
   10.0116   -7.7568   28.3834 H   0  0  0  0  0  0  0  0  0  0  0  0
   11.7061   -5.9337   27.0644 H   0  0  0  0  0  0  0  0  0  0  0  0
   11.3230   -7.5689   26.5243 H   0  0  0  0  0  0  0  0  0  0  0  0
   10.9445   -5.5959   24.8614 H   0  0  0  0  0  0  0  0  0  0  0  0
    9.6461   -6.7954   25.0072 H   0  0  0  0  0  0  0  0  0  0  0  0
    9.5754    0.9911   24.7721 H   0  0  0  0  0  0  0  0  0  0  0  0
    9.5848    1.9827   23.3131 H   0  0  0  0  0  0  0  0  0  0  0  0
    7.4781   -1.4136   21.8845 H   0  0  0  0  0  0  0  0  0  0  0  0
    8.7420   -1.7550   20.6889 H   0  0  0  0  0  0  0  0  0  0  0  0
  1  2  2  0  0  0  0
  1  7  1  0  0  0  0
  2  9  1  0  0  0  0
  3  5  2  0  0  0  0
  3 10  1  0  0  0  0
  4  6  1  0  0  0  0
  4 10  2  0  0  0  0
  5 11  1  0  0  0  0
  6 11  2  0  0  0  0
  7 12  2  0  0  0  0
  8  9  2  0  0  0  0
  8 12  1  0  0  0  0
  9 25  1  0  0  0  0
 10 30  1  0  0  0  0
 11 31  1  0  0  0  0
 12 34  1  0  0  0  0
 13 15  1  0  0  0  0
 13 27  2  0  0  0  0
 13 29  1  0  0  0  0
 14 26  1  0  0  0  0
 14 28  2  0  0  0  0
 14 29  1  0  0  0  0
 15 16  2  0  0  0  0
 16 17  1  0  0  0  0
 17 18  2  0  0  0  0
 18 29  1  0  0  0  0
 19 21  1  0  0  0  0
 19 30  1  0  0  0  0
 19 32  2  0  0  0  0
 20 26  1  0  0  0  0
 20 31  1  0  0  0  0
 20 33  2  0  0  0  0
 21 22  1  0  0  0  0
 22 23  1  0  0  0  0
 23 24  1  0  0  0  0
 24 30  1  0  0  0  0
 25 31  1  0  0  0  0
 27 28  1  0  0  0  0
  1 35  1  0  0  0  0
  2 36  1  0  0  0  0
  3 37  1  0  0  0  0
  4 38  1  0  0  0  0
  5 39  1  0  0  0  0
  6 40  1  0  0  0  0
  7 41  1  0  0  0  0
  8 42  1  0  0  0  0
 15 43  1  0  0  0  0
 16 44  1  0  0  0  0
 17 45  1  0  0  0  0
 18 46  1  0  0  0  0
 21 47  1  0  0  0  0
 21 48  1  0  0  0  0
 22 49  1  0  0  0  0
 22 50  1  0  0  0  0
 23 51  1  0  0  0  0
 23 52  1  0  0  0  0
 24 53  1  0  0  0  0
 24 54  1  0  0  0  0
 25 55  1  0  0  0  0
 25 56  1  0  0  0  0
 26 57  1  0  0  0  0
 26 58  1  0  0  0  0
M  END
> <clash_score>
2.753745569912888

> <docking_score>
-6.702352046966553

> <overlap_score>
1.0087746381759644

$$$$
BENZO_500_1
  -OEChem-08232013513D

 54 58  0     0  0  0  0  0  0999 V2000
    8.3310   -2.7170   25.3430 C   0  0  0  0  0  0  0  0  0  0  0  0
   10.2570   -3.5000   24.1350 C   0  0  0  0  0  0  0  0  0  0  0  0
    8.3510   -1.5420   24.6110 C   0  0  0  0  0  0  0  0  0  0  0  0
   10.2760   -2.3270   23.4020 C   0  0  0  0  0  0  0  0  0  0  0  0
   12.3031    1.1795   22.6299 C   0  0  0  0  0  0  0  0  0  0  0  0
   13.6448    1.1811   22.9421 C   0  0  0  0  0  0  0  0  0  0  0  0
   12.2299    1.0228   24.9478 C   0  0  0  0  0  0  0  0  0  0  0  0
   11.4834    1.0880   23.7917 C   0  0  0  0  0  0  0  0  0  0  0  0
    9.2850   -3.7090   25.1090 C   0  0  0  0  0  0  0  0  0  0  0  0
    9.3300   -1.3350   23.6390 C   0  0  0  0  0  0  0  0  0  0  0  0
    5.9810    0.8330   18.8060 C   0  0  0  0  0  0  0  0  0  0  0  0
    7.2210   -0.4620   20.0350 C   0  0  0  0  0  0  0  0  0  0  0  0
    4.9400    1.7060   18.5060 C   0  0  0  0  0  0  0  0  0  0  0  0
    4.0980    2.1130   19.5350 C   0  0  0  0  0  0  0  0  0  0  0  0
    4.2970    1.6690   20.8430 C   0  0  0  0  0  0  0  0  0  0  0  0
    5.3360    0.8000   21.1530 C   0  0  0  0  0  0  0  0  0  0  0  0
    8.9510    0.1280   21.6880 C   0  0  0  0  0  0  0  0  0  0  0  0
    8.7666   -4.9523   27.2147 C   0  0  0  0  0  0  0  0  0  0  0  0
    9.3034   -6.1866   25.1651 C   0  0  0  0  0  0  0  0  0  0  0  0
    7.3827   -5.5925   27.1999 C   0  0  0  0  0  0  0  0  0  0  0  0
    7.9024   -6.7967   25.2263 C   0  0  0  0  0  0  0  0  0  0  0  0
    9.9825    1.0644   23.7577 C   0  0  0  0  0  0  0  0  0  0  0  0
    8.0810   -0.9750   21.0820 C   0  0  0  0  0  0  0  0  0  0  0  0
    6.9440    0.2550   18.0100 N   0  0  0  0  0  0  0  0  0  0  0  0
    7.6830   -0.5170   18.7600 N   0  0  0  0  0  0  0  0  0  0  0  0
    6.1600    0.3870   20.1140 N   0  0  0  0  0  0  0  0  0  0  0  0
    9.2640   -4.8844   25.8389 N   0  0  0  0  0  0  0  0  0  0  0  0
    9.4200   -0.0840   22.9530 N   0  0  0  0  0  0  0  0  0  0  0  0
    9.1870    1.1500   21.0630 O   0  0  0  0  0  0  0  0  0  0  0  0
    7.4483   -6.8833   26.5817 O   0  0  0  0  0  0  0  0  0  0  0  0
   13.9118    1.0724   24.6301 S   0  0  0  0  0  0  0  0  0  0  0  0
    7.5647   -2.8621   26.1053 H   0  0  0  0  0  0  0  0  0  0  0  0
   11.0144   -4.2642   23.9425 H   0  0  0  0  0  0  0  0  0  0  0  0
    7.5958   -0.7779   24.8006 H   0  0  0  0  0  0  0  0  0  0  0  0
   11.0406   -2.1848   22.6356 H   0  0  0  0  0  0  0  0  0  0  0  0
   11.9317    1.2409   21.6147 H   0  0  0  0  0  0  0  0  0  0  0  0
   14.4809    1.2402   22.2598 H   0  0  0  0  0  0  0  0  0  0  0  0
   11.8722    0.9472   25.9653 H   0  0  0  0  0  0  0  0  0  0  0  0
    4.7732    2.0709   17.5073 H   0  0  0  0  0  0  0  0  0  0  0  0
    3.2823    2.7848   19.2995 H   0  0  0  0  0  0  0  0  0  0  0  0
    3.6338    1.9971   21.6547 H   0  0  0  0  0  0  0  0  0  0  0  0
    5.5079    0.4527   22.1466 H   0  0  0  0  0  0  0  0  0  0  0  0
    8.7030   -3.9561   27.6574 H   0  0  0  0  0  0  0  0  0  0  0  0
    9.4460   -5.5639   27.8143 H   0  0  0  0  0  0  0  0  0  0  0  0
   10.0083   -6.8392   25.6817 H   0  0  0  0  0  0  0  0  0  0  0  0
    9.6089   -6.0802   24.1251 H   0  0  0  0  0  0  0  0  0  0  0  0
    7.0281   -5.7334   28.2231 H   0  0  0  0  0  0  0  0  0  0  0  0
    6.6541   -4.9678   26.6754 H   0  0  0  0  0  0  0  0  0  0  0  0
    7.1860   -6.2177   24.6318 H   0  0  0  0  0  0  0  0  0  0  0  0
    7.9246   -7.8119   24.8187 H   0  0  0  0  0  0  0  0  0  0  0  0
    9.5745    0.9898   24.7716 H   0  0  0  0  0  0  0  0  0  0  0  0
    9.5850    1.9832   23.3140 H   0  0  0  0  0  0  0  0  0  0  0  0
    7.4781   -1.4136   21.8845 H   0  0  0  0  0  0  0  0  0  0  0  0
    8.7420   -1.7550   20.6889 H   0  0  0  0  0  0  0  0  0  0  0  0
  1  3  2  0  0  0  0
  1  9  1  0  0  0  0
  2  4  1  0  0  0  0
  2  9  2  0  0  0  0
  3 10  1  0  0  0  0
  4 10  2  0  0  0  0
  5  6  2  0  0  0  0
  5  8  1  0  0  0  0
  6 31  1  0  0  0  0
  7  8  2  0  0  0  0
  7 31  1  0  0  0  0
  8 22  1  0  0  0  0
  9 27  1  0  0  0  0
 10 28  1  0  0  0  0
 11 13  1  0  0  0  0
 11 24  2  0  0  0  0
 11 26  1  0  0  0  0
 12 23  1  0  0  0  0
 12 25  2  0  0  0  0
 12 26  1  0  0  0  0
 13 14  2  0  0  0  0
 14 15  1  0  0  0  0
 15 16  2  0  0  0  0
 16 26  1  0  0  0  0
 17 23  1  0  0  0  0
 17 28  1  0  0  0  0
 17 29  2  0  0  0  0
 18 20  1  0  0  0  0
 18 27  1  0  0  0  0
 19 21  1  0  0  0  0
 19 27  1  0  0  0  0
 20 30  1  0  0  0  0
 21 30  1  0  0  0  0
 22 28  1  0  0  0  0
 24 25  1  0  0  0  0
  1 32  1  0  0  0  0
  2 33  1  0  0  0  0
  3 34  1  0  0  0  0
  4 35  1  0  0  0  0
  5 36  1  0  0  0  0
  6 37  1  0  0  0  0
  7 38  1  0  0  0  0
 13 39  1  0  0  0  0
 14 40  1  0  0  0  0
 15 41  1  0  0  0  0
 16 42  1  0  0  0  0
 18 43  1  0  0  0  0
 18 44  1  0  0  0  0
 19 45  1  0  0  0  0
 19 46  1  0  0  0  0
 20 47  1  0  0  0  0
 20 48  1  0  0  0  0
 21 49  1  0  0  0  0
 21 50  1  0  0  0  0
 22 51  1  0  0  0  0
 22 52  1  0  0  0  0
 23 53  1  0  0  0  0
 23 54  1  0  0  0  0
M  END
> <clash_score>
0

> <docking_score>
-9.476326942443848

> <overlap_score>
0.9866338968276978

$$$$
BENZO_502_1
  -OEChem-08232013513D

 57 61  0     0  0  0  0  0  0999 V2000
   13.5779    2.0317   23.0440 C   0  0  0  0  0  0  0  0  0  0  0  0
   12.1836    2.0085   23.0120 C   0  0  0  0  0  0  0  0  0  0  0  0
    8.3310   -2.7170   25.3430 C   0  0  0  0  0  0  0  0  0  0  0  0
   10.2570   -3.5000   24.1350 C   0  0  0  0  0  0  0  0  0  0  0  0
    8.3510   -1.5420   24.6110 C   0  0  0  0  0  0  0  0  0  0  0  0
   10.2760   -2.3270   23.4020 C   0  0  0  0  0  0  0  0  0  0  0  0
   14.2720    1.1343   23.8556 C   0  0  0  0  0  0  0  0  0  0  0  0
   12.1774    0.1906   24.6034 C   0  0  0  0  0  0  0  0  0  0  0  0
   11.4834    1.0880   23.7917 C   0  0  0  0  0  0  0  0  0  0  0  0
    9.2850   -3.7090   25.1090 C   0  0  0  0  0  0  0  0  0  0  0  0
    9.3300   -1.3350   23.6390 C   0  0  0  0  0  0  0  0  0  0  0  0
   13.5717    0.2138   24.6353 C   0  0  0  0  0  0  0  0  0  0  0  0
    5.9810    0.8330   18.8060 C   0  0  0  0  0  0  0  0  0  0  0  0
    7.2210   -0.4620   20.0350 C   0  0  0  0  0  0  0  0  0  0  0  0
    4.9400    1.7060   18.5060 C   0  0  0  0  0  0  0  0  0  0  0  0
    4.0980    2.1130   19.5350 C   0  0  0  0  0  0  0  0  0  0  0  0
    4.2970    1.6690   20.8430 C   0  0  0  0  0  0  0  0  0  0  0  0
    5.3360    0.8000   21.1530 C   0  0  0  0  0  0  0  0  0  0  0  0
    8.9510    0.1280   21.6880 C   0  0  0  0  0  0  0  0  0  0  0  0
    8.7666   -4.9523   27.2147 C   0  0  0  0  0  0  0  0  0  0  0  0
    9.3034   -6.1866   25.1651 C   0  0  0  0  0  0  0  0  0  0  0  0
    7.3827   -5.5925   27.1999 C   0  0  0  0  0  0  0  0  0  0  0  0
    7.9024   -6.7967   25.2263 C   0  0  0  0  0  0  0  0  0  0  0  0
    9.9825    1.0644   23.7577 C   0  0  0  0  0  0  0  0  0  0  0  0
    8.0810   -0.9750   21.0820 C   0  0  0  0  0  0  0  0  0  0  0  0
    6.9440    0.2550   18.0100 N   0  0  0  0  0  0  0  0  0  0  0  0
    7.6830   -0.5170   18.7600 N   0  0  0  0  0  0  0  0  0  0  0  0
    6.1600    0.3870   20.1140 N   0  0  0  0  0  0  0  0  0  0  0  0
    9.2640   -4.8844   25.8389 N   0  0  0  0  0  0  0  0  0  0  0  0
    9.4200   -0.0840   22.9530 N   0  0  0  0  0  0  0  0  0  0  0  0
    9.1870    1.1500   21.0630 O   0  0  0  0  0  0  0  0  0  0  0  0
    7.4483   -6.8833   26.5817 O   0  0  0  0  0  0  0  0  0  0  0  0
   14.4285   -0.8923   25.6374 Cl  0  0  0  0  0  0  0  0  0  0  0  0
   14.1228    2.7487   22.4368 H   0  0  0  0  0  0  0  0  0  0  0  0
   11.6511    2.7114   22.3768 H   0  0  0  0  0  0  0  0  0  0  0  0
    7.5647   -2.8621   26.1053 H   0  0  0  0  0  0  0  0  0  0  0  0
   11.0144   -4.2642   23.9425 H   0  0  0  0  0  0  0  0  0  0  0  0
    7.5958   -0.7779   24.8006 H   0  0  0  0  0  0  0  0  0  0  0  0
   11.0406   -2.1848   22.6356 H   0  0  0  0  0  0  0  0  0  0  0  0
   15.3587    1.1640   23.8707 H   0  0  0  0  0  0  0  0  0  0  0  0
   11.6268   -0.5255   25.2091 H   0  0  0  0  0  0  0  0  0  0  0  0
    4.7732    2.0709   17.5073 H   0  0  0  0  0  0  0  0  0  0  0  0
    3.2823    2.7848   19.2995 H   0  0  0  0  0  0  0  0  0  0  0  0
    3.6338    1.9971   21.6547 H   0  0  0  0  0  0  0  0  0  0  0  0
    5.5079    0.4527   22.1466 H   0  0  0  0  0  0  0  0  0  0  0  0
    8.7030   -3.9561   27.6574 H   0  0  0  0  0  0  0  0  0  0  0  0
    9.4460   -5.5639   27.8143 H   0  0  0  0  0  0  0  0  0  0  0  0
   10.0083   -6.8392   25.6817 H   0  0  0  0  0  0  0  0  0  0  0  0
    9.6089   -6.0802   24.1251 H   0  0  0  0  0  0  0  0  0  0  0  0
    7.0281   -5.7334   28.2231 H   0  0  0  0  0  0  0  0  0  0  0  0
    6.6541   -4.9678   26.6754 H   0  0  0  0  0  0  0  0  0  0  0  0
    7.1860   -6.2177   24.6318 H   0  0  0  0  0  0  0  0  0  0  0  0
    7.9246   -7.8119   24.8187 H   0  0  0  0  0  0  0  0  0  0  0  0
    9.5745    0.9898   24.7716 H   0  0  0  0  0  0  0  0  0  0  0  0
    9.5850    1.9832   23.3140 H   0  0  0  0  0  0  0  0  0  0  0  0
    7.4781   -1.4136   21.8845 H   0  0  0  0  0  0  0  0  0  0  0  0
    8.7420   -1.7550   20.6889 H   0  0  0  0  0  0  0  0  0  0  0  0
  1  2  2  0  0  0  0
  1  7  1  0  0  0  0
  2  9  1  0  0  0  0
  3  5  2  0  0  0  0
  3 10  1  0  0  0  0
  4  6  1  0  0  0  0
  4 10  2  0  0  0  0
  5 11  1  0  0  0  0
  6 11  2  0  0  0  0
  7 12  2  0  0  0  0
  8  9  2  0  0  0  0
  8 12  1  0  0  0  0
  9 24  1  0  0  0  0
 10 29  1  0  0  0  0
 11 30  1  0  0  0  0
 12 33  1  0  0  0  0
 13 15  1  0  0  0  0
 13 26  2  0  0  0  0
 13 28  1  0  0  0  0
 14 25  1  0  0  0  0
 14 27  2  0  0  0  0
 14 28  1  0  0  0  0
 15 16  2  0  0  0  0
 16 17  1  0  0  0  0
 17 18  2  0  0  0  0
 18 28  1  0  0  0  0
 19 25  1  0  0  0  0
 19 30  1  0  0  0  0
 19 31  2  0  0  0  0
 20 22  1  0  0  0  0
 20 29  1  0  0  0  0
 21 23  1  0  0  0  0
 21 29  1  0  0  0  0
 22 32  1  0  0  0  0
 23 32  1  0  0  0  0
 24 30  1  0  0  0  0
 26 27  1  0  0  0  0
  1 34  1  0  0  0  0
  2 35  1  0  0  0  0
  3 36  1  0  0  0  0
  4 37  1  0  0  0  0
  5 38  1  0  0  0  0
  6 39  1  0  0  0  0
  7 40  1  0  0  0  0
  8 41  1  0  0  0  0
 15 42  1  0  0  0  0
 16 43  1  0  0  0  0
 17 44  1  0  0  0  0
 18 45  1  0  0  0  0
 20 46  1  0  0  0  0
 20 47  1  0  0  0  0
 21 48  1  0  0  0  0
 21 49  1  0  0  0  0
 22 50  1  0  0  0  0
 22 51  1  0  0  0  0
 23 52  1  0  0  0  0
 23 53  1  0  0  0  0
 24 54  1  0  0  0  0
 24 55  1  0  0  0  0
 25 56  1  0  0  0  0
 25 57  1  0  0  0  0
M  END
> <clash_score>
0.6944094687284152

> <docking_score>
-7.930944442749023

> <overlap_score>
1.0084718465805054

$$$$
BENZO_503_1
  -OEChem-08232013513D

 57 61  0     0  0  0  0  0  0999 V2000
    8.3310   -2.7170   25.3430 C   0  0  0  0  0  0  0  0  0  0  0  0
   10.2570   -3.5000   24.1350 C   0  0  0  0  0  0  0  0  0  0  0  0
    8.3510   -1.5420   24.6110 C   0  0  0  0  0  0  0  0  0  0  0  0
   10.2760   -2.3270   23.4020 C   0  0  0  0  0  0  0  0  0  0  0  0
   12.3164    1.8331   24.6476 C   0  0  0  0  0  0  0  0  0  0  0  0
   12.3522    0.3836   22.9946 C   0  0  0  0  0  0  0  0  0  0  0  0
   11.4834    1.0880   23.7917 C   0  0  0  0  0  0  0  0  0  0  0  0
    9.2850   -3.7090   25.1090 C   0  0  0  0  0  0  0  0  0  0  0  0
    9.3300   -1.3350   23.6390 C   0  0  0  0  0  0  0  0  0  0  0  0
    5.9810    0.8330   18.8060 C   0  0  0  0  0  0  0  0  0  0  0  0
    7.2210   -0.4620   20.0350 C   0  0  0  0  0  0  0  0  0  0  0  0
    4.9400    1.7060   18.5060 C   0  0  0  0  0  0  0  0  0  0  0  0
    4.0980    2.1130   19.5350 C   0  0  0  0  0  0  0  0  0  0  0  0
    4.2970    1.6690   20.8430 C   0  0  0  0  0  0  0  0  0  0  0  0
    5.3360    0.8000   21.1530 C   0  0  0  0  0  0  0  0  0  0  0  0
    8.9510    0.1280   21.6880 C   0  0  0  0  0  0  0  0  0  0  0  0
    8.7666   -4.9523   27.2147 C   0  0  0  0  0  0  0  0  0  0  0  0
    9.3034   -6.1866   25.1651 C   0  0  0  0  0  0  0  0  0  0  0  0
    7.3827   -5.5925   27.1999 C   0  0  0  0  0  0  0  0  0  0  0  0
    7.9024   -6.7967   25.2263 C   0  0  0  0  0  0  0  0  0  0  0  0
   14.8510    0.2521   22.8633 C   0  0  0  0  0  0  0  0  0  0  0  0
    9.9825    1.0644   23.7577 C   0  0  0  0  0  0  0  0  0  0  0  0
    8.0810   -0.9750   21.0820 C   0  0  0  0  0  0  0  0  0  0  0  0
   13.6147    1.6217   24.4161 N   0  0  0  0  0  0  0  0  0  0  0  0
    6.9440    0.2550   18.0100 N   0  0  0  0  0  0  0  0  0  0  0  0
    7.6830   -0.5170   18.7600 N   0  0  0  0  0  0  0  0  0  0  0  0
   13.6041    0.7357   23.4057 N   0  0  0  0  0  0  0  0  0  0  0  0
    6.1600    0.3870   20.1140 N   0  0  0  0  0  0  0  0  0  0  0  0
    9.2640   -4.8844   25.8389 N   0  0  0  0  0  0  0  0  0  0  0  0
    9.4200   -0.0840   22.9530 N   0  0  0  0  0  0  0  0  0  0  0  0
    9.1870    1.1500   21.0630 O   0  0  0  0  0  0  0  0  0  0  0  0
    7.4483   -6.8833   26.5817 O   0  0  0  0  0  0  0  0  0  0  0  0
    7.5647   -2.8621   26.1053 H   0  0  0  0  0  0  0  0  0  0  0  0
   11.0144   -4.2642   23.9425 H   0  0  0  0  0  0  0  0  0  0  0  0
    7.5958   -0.7779   24.8006 H   0  0  0  0  0  0  0  0  0  0  0  0
   11.0406   -2.1848   22.6356 H   0  0  0  0  0  0  0  0  0  0  0  0
   12.0338    2.5213   25.4317 H   0  0  0  0  0  0  0  0  0  0  0  0
   12.1903   -0.3216   22.1906 H   0  0  0  0  0  0  0  0  0  0  0  0
    4.7732    2.0709   17.5073 H   0  0  0  0  0  0  0  0  0  0  0  0
    3.2823    2.7848   19.2995 H   0  0  0  0  0  0  0  0  0  0  0  0
    3.6338    1.9971   21.6547 H   0  0  0  0  0  0  0  0  0  0  0  0
    5.5079    0.4527   22.1466 H   0  0  0  0  0  0  0  0  0  0  0  0
    8.7030   -3.9561   27.6574 H   0  0  0  0  0  0  0  0  0  0  0  0
    9.4460   -5.5639   27.8143 H   0  0  0  0  0  0  0  0  0  0  0  0
   10.0083   -6.8392   25.6817 H   0  0  0  0  0  0  0  0  0  0  0  0
    9.6089   -6.0802   24.1251 H   0  0  0  0  0  0  0  0  0  0  0  0
    7.0281   -5.7334   28.2231 H   0  0  0  0  0  0  0  0  0  0  0  0
    6.6541   -4.9678   26.6754 H   0  0  0  0  0  0  0  0  0  0  0  0
    7.1860   -6.2177   24.6318 H   0  0  0  0  0  0  0  0  0  0  0  0
    7.9246   -7.8119   24.8187 H   0  0  0  0  0  0  0  0  0  0  0  0
   15.1476    0.9210   22.0511 H   0  0  0  0  0  0  0  0  0  0  0  0
   15.6114    0.2444   23.6493 H   0  0  0  0  0  0  0  0  0  0  0  0
   14.7119   -0.7663   22.4898 H   0  0  0  0  0  0  0  0  0  0  0  0
    9.5745    0.9898   24.7716 H   0  0  0  0  0  0  0  0  0  0  0  0
    9.5850    1.9832   23.3140 H   0  0  0  0  0  0  0  0  0  0  0  0
    7.4781   -1.4136   21.8845 H   0  0  0  0  0  0  0  0  0  0  0  0
    8.7420   -1.7550   20.6889 H   0  0  0  0  0  0  0  0  0  0  0  0
  1  3  2  0  0  0  0
  1  8  1  0  0  0  0
  2  4  1  0  0  0  0
  2  8  2  0  0  0  0
  3  9  1  0  0  0  0
  4  9  2  0  0  0  0
  5  7  1  0  0  0  0
  5 24  2  0  0  0  0
  6  7  2  0  0  0  0
  6 27  1  0  0  0  0
  7 22  1  0  0  0  0
  8 29  1  0  0  0  0
  9 30  1  0  0  0  0
 10 12  1  0  0  0  0
 10 25  2  0  0  0  0
 10 28  1  0  0  0  0
 11 23  1  0  0  0  0
 11 26  2  0  0  0  0
 11 28  1  0  0  0  0
 12 13  2  0  0  0  0
 13 14  1  0  0  0  0
 14 15  2  0  0  0  0
 15 28  1  0  0  0  0
 16 23  1  0  0  0  0
 16 30  1  0  0  0  0
 16 31  2  0  0  0  0
 17 19  1  0  0  0  0
 17 29  1  0  0  0  0
 18 20  1  0  0  0  0
 18 29  1  0  0  0  0
 19 32  1  0  0  0  0
 20 32  1  0  0  0  0
 21 27  1  0  0  0  0
 22 30  1  0  0  0  0
 24 27  1  0  0  0  0
 25 26  1  0  0  0  0
  1 33  1  0  0  0  0
  2 34  1  0  0  0  0
  3 35  1  0  0  0  0
  4 36  1  0  0  0  0
  5 37  1  0  0  0  0
  6 38  1  0  0  0  0
 12 39  1  0  0  0  0
 13 40  1  0  0  0  0
 14 41  1  0  0  0  0
 15 42  1  0  0  0  0
 17 43  1  0  0  0  0
 17 44  1  0  0  0  0
 18 45  1  0  0  0  0
 18 46  1  0  0  0  0
 19 47  1  0  0  0  0
 19 48  1  0  0  0  0
 20 49  1  0  0  0  0
 20 50  1  0  0  0  0
 21 51  1  0  0  0  0
 21 52  1  0  0  0  0
 21 53  1  0  0  0  0
 22 54  1  0  0  0  0
 22 55  1  0  0  0  0
 23 56  1  0  0  0  0
 23 57  1  0  0  0  0
M  END
> <clash_score>
0

> <docking_score>
-8.887225151062012

> <overlap_score>
0.9952516555786133

$$$$
