ALP-POS-c59291d4-2
  -OEChem-09012022313D

 51 54  0     0  0  0  0  0  0999 V2000
    8.0200   -4.4440   25.9270 N   0  0  0  0  0  0  0  0  0  0  0  0
    6.7870   -5.8860   28.7460 C   0  0  0  0  0  0  0  0  0  0  0  0
    8.9790   -3.8150   27.8980 O   0  0  0  0  0  0  0  0  0  0  0  0
    7.9350   -5.9760   27.7610 C   0  0  0  0  0  0  0  0  0  0  0  0
    9.5820   -0.1080   22.7000 N   0  0  0  0  0  0  0  0  0  0  0  0
    9.2950    1.3000   20.9480 O   0  0  0  0  0  0  0  0  0  0  0  0
    8.3630   -4.6360   27.2220 C   0  0  0  0  0  0  0  0  0  0  0  0
    7.2710   -0.1460   19.8310 N   0  0  0  0  0  0  0  0  0  0  0  0
    8.3450   -3.3440   25.0980 C   0  0  0  0  0  0  0  0  0  0  0  0
    7.5840   -0.2700   18.5160 N   0  0  0  0  0  0  0  0  0  0  0  0
    9.1890   -3.5540   24.0140 C   0  0  0  0  0  0  0  0  0  0  0  0
    6.7100    0.3850   17.8100 N   0  0  0  0  0  0  0  0  0  0  0  0
    9.5890   -2.4950   23.2210 C   0  0  0  0  0  0  0  0  0  0  0  0
    9.1280   -1.2090   23.4870 C   0  0  0  0  0  0  0  0  0  0  0  0
    8.2550   -1.0010   24.5520 C   0  0  0  0  0  0  0  0  0  0  0  0
    7.8700   -2.0610   25.3550 C   0  0  0  0  0  0  0  0  0  0  0  0
   10.7220    0.6590   23.1850 C   0  0  0  0  0  0  0  0  0  0  0  0
   12.0010   -0.1370   23.1560 C   0  0  0  0  0  0  0  0  0  0  0  0
   12.4650   -0.9240   22.0610 C   0  0  0  0  0  0  0  0  0  0  0  0
   13.5940   -1.6420   22.3430 C   0  0  0  0  0  0  0  0  0  0  0  0
   12.8090   -0.2700   24.2450 C   0  0  0  0  0  0  0  0  0  0  0  0
    9.0430    0.2380   21.4940 C   0  0  0  0  0  0  0  0  0  0  0  0
    8.0950   -0.7700   20.8440 C   0  0  0  0  0  0  0  0  0  0  0  0
    5.7970    0.9500   18.6730 C   0  0  0  0  0  0  0  0  0  0  0  0
    4.6610    1.7170   18.4380 C   0  0  0  0  0  0  0  0  0  0  0  0
    3.8860    2.1050   19.5250 C   0  0  0  0  0  0  0  0  0  0  0  0
    4.2460    1.7520   20.8250 C   0  0  0  0  0  0  0  0  0  0  0  0
    5.3890    1.0010   21.0690 C   0  0  0  0  0  0  0  0  0  0  0  0
    6.1460    0.6070   19.9750 C   0  0  0  0  0  0  0  0  0  0  0  0
   14.0980   -1.3460   23.9570 S   0  0  0  0  0  0  0  0  0  0  0  0
    7.4712   -5.1658   25.5054 H   0  0  0  0  0  0  0  0  0  0  0  0
    6.5259   -6.8947   29.0987 H   0  0  0  0  0  0  0  0  0  0  0  0
    7.0868   -5.2644   29.6025 H   0  0  0  0  0  0  0  0  0  0  0  0
    5.9147   -5.4333   28.2519 H   0  0  0  0  0  0  0  0  0  0  0  0
    8.7944   -6.4394   28.2676 H   0  0  0  0  0  0  0  0  0  0  0  0
    7.6223   -6.6083   26.9170 H   0  0  0  0  0  0  0  0  0  0  0  0
    9.5349   -4.5522   23.7896 H   0  0  0  0  0  0  0  0  0  0  0  0
   10.2609   -2.6658   22.3929 H   0  0  0  0  0  0  0  0  0  0  0  0
    7.8770   -0.0093   24.7522 H   0  0  0  0  0  0  0  0  0  0  0  0
    7.1986   -1.8919   26.1839 H   0  0  0  0  0  0  0  0  0  0  0  0
   10.8450    1.5492   22.5507 H   0  0  0  0  0  0  0  0  0  0  0  0
   10.5232    0.9714   24.2208 H   0  0  0  0  0  0  0  0  0  0  0  0
   11.9717   -0.9504   21.1006 H   0  0  0  0  0  0  0  0  0  0  0  0
   14.0964   -2.3006   21.6500 H   0  0  0  0  0  0  0  0  0  0  0  0
   12.6509    0.2459   25.1805 H   0  0  0  0  0  0  0  0  0  0  0  0
    7.4440   -1.1999   21.6194 H   0  0  0  0  0  0  0  0  0  0  0  0
    8.6888   -1.5705   20.3786 H   0  0  0  0  0  0  0  0  0  0  0  0
    4.3870    2.0047   17.4337 H   0  0  0  0  0  0  0  0  0  0  0  0
    2.9921    2.6883   19.3601 H   0  0  0  0  0  0  0  0  0  0  0  0
    3.6282    2.0665   21.6531 H   0  0  0  0  0  0  0  0  0  0  0  0
    5.6781    0.7333   22.0746 H   0  0  0  0  0  0  0  0  0  0  0  0
  1  7  1  0  0  0  0
  1  9  1  0  0  0  0
  2  4  1  0  0  0  0
  3  7  2  0  0  0  0
  4  7  1  0  0  0  0
  5 14  1  0  0  0  0
  5 17  1  0  0  0  0
  5 22  1  0  0  0  0
  6 22  2  0  0  0  0
  8 10  1  0  0  0  0
  8 23  1  0  0  0  0
  8 29  1  0  0  0  0
  9 11  2  0  0  0  0
  9 16  1  0  0  0  0
 10 12  2  0  0  0  0
 11 13  1  0  0  0  0
 12 24  1  0  0  0  0
 13 14  2  0  0  0  0
 14 15  1  0  0  0  0
 15 16  2  0  0  0  0
 17 18  1  0  0  0  0
 18 19  1  0  0  0  0
 18 21  2  0  0  0  0
 19 20  2  0  0  0  0
 20 30  1  0  0  0  0
 21 30  1  0  0  0  0
 22 23  1  0  0  0  0
 24 25  2  0  0  0  0
 24 29  1  0  0  0  0
 25 26  1  0  0  0  0
 26 27  2  0  0  0  0
 27 28  1  0  0  0  0
 28 29  2  0  0  0  0
  1 31  1  0  0  0  0
  2 32  1  0  0  0  0
  2 33  1  0  0  0  0
  2 34  1  0  0  0  0
  4 35  1  0  0  0  0
  4 36  1  0  0  0  0
 11 37  1  0  0  0  0
 13 38  1  0  0  0  0
 15 39  1  0  0  0  0
 16 40  1  0  0  0  0
 17 41  1  0  0  0  0
 17 42  1  0  0  0  0
 19 43  1  0  0  0  0
 20 44  1  0  0  0  0
 21 45  1  0  0  0  0
 23 46  1  0  0  0  0
 23 47  1  0  0  0  0
 25 48  1  0  0  0  0
 26 49  1  0  0  0  0
 27 50  1  0  0  0  0
 28 51  1  0  0  0  0
M  END
> <canonical_CID>
ALP-POS-c59291d4-2

> <r_inhibition_at_20_uM>

> <r_inhibition_at_50_uM>
78.12914402174

> <r_avg_IC50>
12.5622562146219

> <f_inhibition_at_20_uM>
79.65146

> <f_inhibition_at_50_uM>
89.29024

> <f_avg_IC50>
1.62763709078255

> <f_avg_pIC50>
5.78844242195303

> <relative_solubility_at_20_uM>
0.95

> <relative_solubility_at_100_uM>
0.9

> <trypsin_IC50>
99.0

> <NMR_std_ratio>
195.7160573

> <acrylamide>
False

> <chloroacetamide>
False

> <series>
3-aminopyridine-like

> <Protease Assay (Fluorescence) Dose-Response: IC50 (µM)>
> 99.5

> <Protease Assay (Fluorescence) Dose-Response: IC50 (µM)>
1.79

> <Protease Assay (Fluorescence) Dose-Response: IC50 (µM)>
4.33

> <Protease Assay (Fluorescence) Dose-Response: IC50 (µM)>
3.99

> <Protease Assay (Fluorescence) Dose-Response: IC50 (µM)>
1.63

> <Protease Assay (Fluorescence) Dose-Response: IC50 (µM)>
5.32

> <Protease Assay (Fluorescence) Dose-Response: IC50 (µM)>
> 99.5

> <Protease Assay (Fluorescence) Dose-Response: IC50 (µM)>
> 99.5

> <Protease Assay (Fluorescence) Dose-Response: IC50 (µM)>
> 99.5

> <Protease Assay (Fluorescence) Dose-Response: IC50 (µM)>
> 99.5

> <Protease Assay (Fluorescence) Dose-Response: IC50 (µM)>
37.8

> <Protease Assay (Fluorescence) Dose-Response: IC50 (µM)>
78.5

> <clash_score>
0.0

$$$$
EDJ-MED-06d94977-2_1
  -OEChem-09012022313D

 37 39  0     0  0  0  0  0  0999 V2000
    3.8860    2.1050   19.5250 C   0  0  0  0  0  0  0  0  0  0  0  0
    4.2460    1.7520   20.8250 C   0  0  0  0  0  0  0  0  0  0  0  0
   13.5427   -0.8542   25.1184 C   0  0  0  0  0  0  0  0  0  0  0  0
   12.3074   -0.2296   24.9465 C   0  0  0  0  0  0  0  0  0  0  0  0
    4.6610    1.7170   18.4380 C   0  0  0  0  0  0  0  0  0  0  0  0
    5.3890    1.0010   21.0690 C   0  0  0  0  0  0  0  0  0  0  0  0
   14.3069   -1.2065   24.0059 C   0  0  0  0  0  0  0  0  0  0  0  0
   12.6005   -0.3096   22.5496 C   0  0  0  0  0  0  0  0  0  0  0  0
   11.8363    0.0427   23.6621 C   0  0  0  0  0  0  0  0  0  0  0  0
    5.7970    0.9500   18.6730 C   0  0  0  0  0  0  0  0  0  0  0  0
    6.1460    0.6070   19.9750 C   0  0  0  0  0  0  0  0  0  0  0  0
   13.8358   -0.9342   22.7216 C   0  0  0  0  0  0  0  0  0  0  0  0
    9.0430    0.2380   21.4940 C   0  0  0  0  0  0  0  0  0  0  0  0
    9.2398   -1.3924   23.2983 C   0  0  0  0  0  0  0  0  0  0  0  0
   10.5061    0.7140   23.4778 C   0  0  0  0  0  0  0  0  0  0  0  0
    8.0950   -0.7700   20.8440 C   0  0  0  0  0  0  0  0  0  0  0  0
    6.7100    0.3850   17.8100 N   0  0  0  0  0  0  0  0  0  0  0  0
    7.5840   -0.2700   18.5160 N   0  0  0  0  0  0  0  0  0  0  0  0
    7.2710   -0.1460   19.8310 N   0  0  0  0  0  0  0  0  0  0  0  0
    9.5820   -0.1080   22.7000 N   0  0  0  0  0  0  0  0  0  0  0  0
    9.2950    1.3000   20.9480 O   0  0  0  0  0  0  0  0  0  0  0  0
   14.7786   -1.3701   21.3494 Cl  0  0  0  0  0  0  0  0  0  0  0  0
    2.9847    2.6930   19.3611 H   0  0  0  0  0  0  0  0  0  0  0  0
    3.6232    2.0694   21.6565 H   0  0  0  0  0  0  0  0  0  0  0  0
   13.9091   -1.0662   26.1187 H   0  0  0  0  0  0  0  0  0  0  0  0
   11.7186    0.0413   25.8190 H   0  0  0  0  0  0  0  0  0  0  0  0
    4.3785    2.0112   17.4257 H   0  0  0  0  0  0  0  0  0  0  0  0
    5.6780    0.7321   22.0906 H   0  0  0  0  0  0  0  0  0  0  0  0
   15.2677   -1.6930   24.1550 H   0  0  0  0  0  0  0  0  0  0  0  0
   12.2290   -0.0947   21.5503 H   0  0  0  0  0  0  0  0  0  0  0  0
    9.9571   -2.1562   22.9636 H   0  0  0  0  0  0  0  0  0  0  0  0
    9.2788   -1.3082   24.3944 H   0  0  0  0  0  0  0  0  0  0  0  0
    8.2248   -1.6821   22.9887 H   0  0  0  0  0  0  0  0  0  0  0  0
   10.0399    0.9199   24.4476 H   0  0  0  0  0  0  0  0  0  0  0  0
   10.6180    1.6727   22.9606 H   0  0  0  0  0  0  0  0  0  0  0  0
    8.6725   -1.5633   20.3681 H   0  0  0  0  0  0  0  0  0  0  0  0
    7.4349   -1.1951   21.6009 H   0  0  0  0  0  0  0  0  0  0  0  0
  1  2  1  0  0  0  0
  1  5  2  0  0  0  0
  2  6  2  0  0  0  0
  3  4  2  0  0  0  0
  3  7  1  0  0  0  0
  4  9  1  0  0  0  0
  5 10  1  0  0  0  0
  6 11  1  0  0  0  0
  7 12  2  0  0  0  0
  8  9  2  0  0  0  0
  8 12  1  0  0  0  0
  9 15  1  0  0  0  0
 10 11  2  0  0  0  0
 10 17  1  0  0  0  0
 11 19  1  0  0  0  0
 12 22  1  0  0  0  0
 13 16  1  0  0  0  0
 13 20  1  0  0  0  0
 13 21  2  0  0  0  0
 14 20  1  0  0  0  0
 15 20  1  0  0  0  0
 16 19  1  0  0  0  0
 17 18  2  0  0  0  0
 18 19  1  0  0  0  0
  1 23  1  0  0  0  0
  2 24  1  0  0  0  0
  3 25  1  0  0  0  0
  4 26  1  0  0  0  0
  5 27  1  0  0  0  0
  6 28  1  0  0  0  0
  7 29  1  0  0  0  0
  8 30  1  0  0  0  0
 14 31  1  0  0  0  0
 14 32  1  0  0  0  0
 14 33  1  0  0  0  0
 15 34  1  0  0  0  0
 15 35  1  0  0  0  0
 16 36  1  0  0  0  0
 16 37  1  0  0  0  0
M  END
> <Protease Assay (Fluorescence) Dose-Response: IC50 (µM)>
> 99.5

> <clash_score>
0

> <docking_score>
-7.121298313140869

> <overlap_score>
0.6990779638290405

$$$$
EDJ-MED-06d94977-1_1
  -OEChem-09012022313D

 44 46  0     0  0  0  0  0  0999 V2000
    3.8860    2.1050   19.5250 C   0  0  0  0  0  0  0  0  0  0  0  0
    4.2460    1.7520   20.8250 C   0  0  0  0  0  0  0  0  0  0  0  0
    4.6610    1.7170   18.4380 C   0  0  0  0  0  0  0  0  0  0  0  0
    5.3890    1.0010   21.0690 C   0  0  0  0  0  0  0  0  0  0  0  0
    9.0009   -3.7351   23.4116 C   0  0  0  0  0  0  0  0  0  0  0  0
    8.2306   -2.4368   25.2979 C   0  0  0  0  0  0  0  0  0  0  0  0
    9.3815   -2.5622   22.7597 C   0  0  0  0  0  0  0  0  0  0  0  0
    8.6113   -1.2639   24.6460 C   0  0  0  0  0  0  0  0  0  0  0  0
    5.7970    0.9500   18.6730 C   0  0  0  0  0  0  0  0  0  0  0  0
    6.1460    0.6070   19.9750 C   0  0  0  0  0  0  0  0  0  0  0  0
    8.4254   -3.6724   24.6807 C   0  0  0  0  0  0  0  0  0  0  0  0
    9.1867   -1.3266   23.3769 C   0  0  0  0  0  0  0  0  0  0  0  0
    7.4550   -4.9826   26.6000 C   0  0  0  0  0  0  0  0  0  0  0  0
    9.0430    0.2380   21.4940 C   0  0  0  0  0  0  0  0  0  0  0  0
    6.5937   -6.6369   28.3110 C   0  0  0  0  0  0  0  0  0  0  0  0
   10.5058    0.7768   23.4267 C   0  0  0  0  0  0  0  0  0  0  0  0
    7.1997   -6.4453   26.9322 C   0  0  0  0  0  0  0  0  0  0  0  0
    8.0950   -0.7700   20.8440 C   0  0  0  0  0  0  0  0  0  0  0  0
    6.7100    0.3850   17.8100 N   0  0  0  0  0  0  0  0  0  0  0  0
    7.5840   -0.2700   18.5160 N   0  0  0  0  0  0  0  0  0  0  0  0
    7.2710   -0.1460   19.8310 N   0  0  0  0  0  0  0  0  0  0  0  0
    8.0443   -4.8454   25.3327 N   0  0  0  0  0  0  0  0  0  0  0  0
    9.5820   -0.1080   22.7000 N   0  0  0  0  0  0  0  0  0  0  0  0
    7.1635   -4.0788   27.3763 O   0  0  0  0  0  0  0  0  0  0  0  0
    9.2950    1.3000   20.9480 O   0  0  0  0  0  0  0  0  0  0  0  0
    2.9847    2.6930   19.3611 H   0  0  0  0  0  0  0  0  0  0  0  0
    3.6232    2.0694   21.6565 H   0  0  0  0  0  0  0  0  0  0  0  0
    4.3785    2.0112   17.4257 H   0  0  0  0  0  0  0  0  0  0  0  0
    5.6780    0.7321   22.0906 H   0  0  0  0  0  0  0  0  0  0  0  0
    9.1575   -4.6922   22.9208 H   0  0  0  0  0  0  0  0  0  0  0  0
    7.7833   -2.3763   26.2868 H   0  0  0  0  0  0  0  0  0  0  0  0
    9.8286   -2.6236   21.7706 H   0  0  0  0  0  0  0  0  0  0  0  0
    8.4541   -0.3066   25.1360 H   0  0  0  0  0  0  0  0  0  0  0  0
    7.2488   -6.2300   29.0884 H   0  0  0  0  0  0  0  0  0  0  0  0
    6.4405   -7.7010   28.5154 H   0  0  0  0  0  0  0  0  0  0  0  0
    5.6259   -6.1307   28.3888 H   0  0  0  0  0  0  0  0  0  0  0  0
   11.5433    0.5016   23.1862 H   0  0  0  0  0  0  0  0  0  0  0  0
   10.3248    1.8201   23.1285 H   0  0  0  0  0  0  0  0  0  0  0  0
   10.3398    0.6707   24.5089 H   0  0  0  0  0  0  0  0  0  0  0  0
    6.5244   -6.8607   26.1754 H   0  0  0  0  0  0  0  0  0  0  0  0
    8.1509   -6.9865   26.8725 H   0  0  0  0  0  0  0  0  0  0  0  0
    8.6619   -1.5627   20.3589 H   0  0  0  0  0  0  0  0  0  0  0  0
    7.4230   -1.1880   21.5916 H   0  0  0  0  0  0  0  0  0  0  0  0
    8.2133   -5.7227   24.8268 H   0  0  0  0  0  0  0  0  0  0  0  0
  1  2  1  0  0  0  0
  1  3  2  0  0  0  0
  2  4  2  0  0  0  0
  3  9  1  0  0  0  0
  4 10  1  0  0  0  0
  5  7  2  0  0  0  0
  5 11  1  0  0  0  0
  6  8  1  0  0  0  0
  6 11  2  0  0  0  0
  7 12  1  0  0  0  0
  8 12  2  0  0  0  0
  9 10  2  0  0  0  0
  9 19  1  0  0  0  0
 10 21  1  0  0  0  0
 11 22  1  0  0  0  0
 12 23  1  0  0  0  0
 13 17  1  0  0  0  0
 13 22  1  0  0  0  0
 13 24  2  0  0  0  0
 14 18  1  0  0  0  0
 14 23  1  0  0  0  0
 14 25  2  0  0  0  0
 15 17  1  0  0  0  0
 16 23  1  0  0  0  0
 18 21  1  0  0  0  0
 19 20  2  0  0  0  0
 20 21  1  0  0  0  0
  1 26  1  0  0  0  0
  2 27  1  0  0  0  0
  3 28  1  0  0  0  0
  4 29  1  0  0  0  0
  5 30  1  0  0  0  0
  6 31  1  0  0  0  0
  7 32  1  0  0  0  0
  8 33  1  0  0  0  0
 15 34  1  0  0  0  0
 15 35  1  0  0  0  0
 15 36  1  0  0  0  0
 16 37  1  0  0  0  0
 16 38  1  0  0  0  0
 16 39  1  0  0  0  0
 17 40  1  0  0  0  0
 17 41  1  0  0  0  0
 18 42  1  0  0  0  0
 18 43  1  0  0  0  0
 22 44  1  0  0  0  0
M  END
> <Protease Assay (Fluorescence) Dose-Response: IC50 (µM)>
> 99.5

> <clash_score>
0

> <docking_score>
-5.574260711669922

> <overlap_score>
0.7977242469787598

$$$$
ALP-POS-d2866bdf-1_1
  -OEChem-09012022313D

 49 52  0     0  0  0  0  0  0999 V2000
    3.8860    2.1050   19.5250 C   0  0  0  0  0  0  0  0  0  0  0  0
    4.2460    1.7520   20.8250 C   0  0  0  0  0  0  0  0  0  0  0  0
    4.6610    1.7170   18.4380 C   0  0  0  0  0  0  0  0  0  0  0  0
    5.3890    1.0010   21.0690 C   0  0  0  0  0  0  0  0  0  0  0  0
    9.3818   -2.5619   22.7591 C   0  0  0  0  0  0  0  0  0  0  0  0
    8.6126   -1.2647   24.6466 C   0  0  0  0  0  0  0  0  0  0  0  0
    9.0028   -3.7353   23.4111 C   0  0  0  0  0  0  0  0  0  0  0  0
    8.2336   -2.4381   25.2986 C   0  0  0  0  0  0  0  0  0  0  0  0
   13.0477    1.2188   23.3108 C   0  0  0  0  0  0  0  0  0  0  0  0
   14.2438    0.5506   23.1677 C   0  0  0  0  0  0  0  0  0  0  0  0
   12.3200   -0.9816   23.1351 C   0  0  0  0  0  0  0  0  0  0  0  0
   11.9332    0.3313   23.2920 C   0  0  0  0  0  0  0  0  0  0  0  0
    5.7970    0.9500   18.6730 C   0  0  0  0  0  0  0  0  0  0  0  0
    6.1460    0.6070   19.9750 C   0  0  0  0  0  0  0  0  0  0  0  0
    9.1867   -1.3266   23.3769 C   0  0  0  0  0  0  0  0  0  0  0  0
    8.4287   -3.6734   24.6808 C   0  0  0  0  0  0  0  0  0  0  0  0
    9.0430    0.2380   21.4940 C   0  0  0  0  0  0  0  0  0  0  0  0
    9.0269   -5.8824   25.6414 C   0  0  0  0  0  0  0  0  0  0  0  0
    6.6659   -5.0668   25.7350 C   0  0  0  0  0  0  0  0  0  0  0  0
   10.5058    0.7768   23.4267 C   0  0  0  0  0  0  0  0  0  0  0  0
    8.0950   -0.7700   20.8440 C   0  0  0  0  0  0  0  0  0  0  0  0
    6.7100    0.3850   17.8100 N   0  0  0  0  0  0  0  0  0  0  0  0
    7.5840   -0.2700   18.5160 N   0  0  0  0  0  0  0  0  0  0  0  0
    7.2710   -0.1460   19.8310 N   0  0  0  0  0  0  0  0  0  0  0  0
    9.5820   -0.1080   22.7000 N   0  0  0  0  0  0  0  0  0  0  0  0
    8.0449   -4.8602   25.3394 N   0  0  0  0  0  0  0  0  0  0  0  0
    9.2950    1.3000   20.9480 O   0  0  0  0  0  0  0  0  0  0  0  0
   14.0205   -1.1400   23.0115 S   0  0  0  0  0  0  0  0  0  0  0  0
    2.9847    2.6930   19.3611 H   0  0  0  0  0  0  0  0  0  0  0  0
    3.6232    2.0694   21.6565 H   0  0  0  0  0  0  0  0  0  0  0  0
    4.3785    2.0112   17.4257 H   0  0  0  0  0  0  0  0  0  0  0  0
    5.6780    0.7321   22.0906 H   0  0  0  0  0  0  0  0  0  0  0  0
    9.8286   -2.6221   21.7698 H   0  0  0  0  0  0  0  0  0  0  0  0
    8.4559   -0.3074   25.1372 H   0  0  0  0  0  0  0  0  0  0  0  0
    9.1595   -4.6928   22.9208 H   0  0  0  0  0  0  0  0  0  0  0  0
    7.7878   -2.3789   26.2879 H   0  0  0  0  0  0  0  0  0  0  0  0
   12.9800    2.2936   23.4229 H   0  0  0  0  0  0  0  0  0  0  0  0
   15.2379    0.9743   23.1467 H   0  0  0  0  0  0  0  0  0  0  0  0
   11.6887   -1.8580   23.0854 H   0  0  0  0  0  0  0  0  0  0  0  0
    8.5359   -6.7237   26.1525 H   0  0  0  0  0  0  0  0  0  0  0  0
    9.4850   -6.2383   24.7068 H   0  0  0  0  0  0  0  0  0  0  0  0
    9.8056   -5.4611   26.2942 H   0  0  0  0  0  0  0  0  0  0  0  0
    6.5685   -6.0441   26.2305 H   0  0  0  0  0  0  0  0  0  0  0  0
    6.3610   -4.2711   26.4307 H   0  0  0  0  0  0  0  0  0  0  0  0
    6.0212   -5.0417   24.8441 H   0  0  0  0  0  0  0  0  0  0  0  0
   10.2029    0.7893   24.4794 H   0  0  0  0  0  0  0  0  0  0  0  0
   10.3726    1.7919   23.0378 H   0  0  0  0  0  0  0  0  0  0  0  0
    8.6619   -1.5627   20.3589 H   0  0  0  0  0  0  0  0  0  0  0  0
    7.4230   -1.1880   21.5916 H   0  0  0  0  0  0  0  0  0  0  0  0
  1  2  1  0  0  0  0
  1  3  2  0  0  0  0
  2  4  2  0  0  0  0
  3 13  1  0  0  0  0
  4 14  1  0  0  0  0
  5  7  2  0  0  0  0
  5 15  1  0  0  0  0
  6  8  1  0  0  0  0
  6 15  2  0  0  0  0
  7 16  1  0  0  0  0
  8 16  2  0  0  0  0
  9 10  2  0  0  0  0
  9 12  1  0  0  0  0
 10 28  1  0  0  0  0
 11 12  2  0  0  0  0
 11 28  1  0  0  0  0
 12 20  1  0  0  0  0
 13 14  2  0  0  0  0
 13 22  1  0  0  0  0
 14 24  1  0  0  0  0
 15 25  1  0  0  0  0
 16 26  1  0  0  0  0
 17 21  1  0  0  0  0
 17 25  1  0  0  0  0
 17 27  2  0  0  0  0
 18 26  1  0  0  0  0
 19 26  1  0  0  0  0
 20 25  1  0  0  0  0
 21 24  1  0  0  0  0
 22 23  2  0  0  0  0
 23 24  1  0  0  0  0
  1 29  1  0  0  0  0
  2 30  1  0  0  0  0
  3 31  1  0  0  0  0
  4 32  1  0  0  0  0
  5 33  1  0  0  0  0
  6 34  1  0  0  0  0
  7 35  1  0  0  0  0
  8 36  1  0  0  0  0
  9 37  1  0  0  0  0
 10 38  1  0  0  0  0
 11 39  1  0  0  0  0
 18 40  1  0  0  0  0
 18 41  1  0  0  0  0
 18 42  1  0  0  0  0
 19 43  1  0  0  0  0
 19 44  1  0  0  0  0
 19 45  1  0  0  0  0
 20 46  1  0  0  0  0
 20 47  1  0  0  0  0
 21 48  1  0  0  0  0
 21 49  1  0  0  0  0
M  END
> <Protease Assay (Fluorescence) Dose-Response: IC50 (µM)>
1.79

> <clash_score>
0

> <docking_score>
-9.251805305480957

> <overlap_score>
0.854231595993042

$$$$
ALP-POS-c59291d4-1_1
  -OEChem-09012022313D

 51 55  0     0  0  0  0  0  0999 V2000
    7.2651   -7.2368   26.6551 C   0  0  0  0  0  0  0  0  0  0  0  0
    6.5750   -6.0489   26.8963 C   0  0  0  0  0  0  0  0  0  0  0  0
    8.3374   -7.2517   25.7631 C   0  0  0  0  0  0  0  0  0  0  0  0
    3.8860    2.1050   19.5250 C   0  0  0  0  0  0  0  0  0  0  0  0
    4.2460    1.7520   20.8250 C   0  0  0  0  0  0  0  0  0  0  0  0
    6.9571   -4.8758   26.2455 C   0  0  0  0  0  0  0  0  0  0  0  0
    8.7195   -6.0786   25.1123 C   0  0  0  0  0  0  0  0  0  0  0  0
    9.0015   -3.7352   23.4097 C   0  0  0  0  0  0  0  0  0  0  0  0
    8.2305   -2.4385   25.2968 C   0  0  0  0  0  0  0  0  0  0  0  0
    4.6610    1.7170   18.4380 C   0  0  0  0  0  0  0  0  0  0  0  0
    5.3890    1.0010   21.0690 C   0  0  0  0  0  0  0  0  0  0  0  0
    9.3819   -2.5617   22.7588 C   0  0  0  0  0  0  0  0  0  0  0  0
    8.6110   -1.2650   24.6459 C   0  0  0  0  0  0  0  0  0  0  0  0
   13.0477    1.2188   23.3108 C   0  0  0  0  0  0  0  0  0  0  0  0
   14.2438    0.5506   23.1677 C   0  0  0  0  0  0  0  0  0  0  0  0
   12.3200   -0.9816   23.1351 C   0  0  0  0  0  0  0  0  0  0  0  0
    8.0294   -4.8907   25.3535 C   0  0  0  0  0  0  0  0  0  0  0  0
    8.4257   -3.6736   24.6787 C   0  0  0  0  0  0  0  0  0  0  0  0
   11.9332    0.3313   23.2920 C   0  0  0  0  0  0  0  0  0  0  0  0
    5.7970    0.9500   18.6730 C   0  0  0  0  0  0  0  0  0  0  0  0
    6.1460    0.6070   19.9750 C   0  0  0  0  0  0  0  0  0  0  0  0
    9.1867   -1.3266   23.3769 C   0  0  0  0  0  0  0  0  0  0  0  0
    9.0430    0.2380   21.4940 C   0  0  0  0  0  0  0  0  0  0  0  0
   10.5058    0.7768   23.4267 C   0  0  0  0  0  0  0  0  0  0  0  0
    8.0950   -0.7700   20.8440 C   0  0  0  0  0  0  0  0  0  0  0  0
    6.7100    0.3850   17.8100 N   0  0  0  0  0  0  0  0  0  0  0  0
    7.5840   -0.2700   18.5160 N   0  0  0  0  0  0  0  0  0  0  0  0
    7.2710   -0.1460   19.8310 N   0  0  0  0  0  0  0  0  0  0  0  0
    9.5820   -0.1080   22.7000 N   0  0  0  0  0  0  0  0  0  0  0  0
    9.2950    1.3000   20.9480 O   0  0  0  0  0  0  0  0  0  0  0  0
   14.0205   -1.1400   23.0115 S   0  0  0  0  0  0  0  0  0  0  0  0
    6.9684   -8.1496   27.1632 H   0  0  0  0  0  0  0  0  0  0  0  0
    5.7411   -6.0367   27.5921 H   0  0  0  0  0  0  0  0  0  0  0  0
    8.8760   -8.1760   25.5759 H   0  0  0  0  0  0  0  0  0  0  0  0
    2.9847    2.6930   19.3611 H   0  0  0  0  0  0  0  0  0  0  0  0
    3.6232    2.0694   21.6565 H   0  0  0  0  0  0  0  0  0  0  0  0
    6.4093   -3.9577   26.4444 H   0  0  0  0  0  0  0  0  0  0  0  0
    9.5578   -6.1055   24.4201 H   0  0  0  0  0  0  0  0  0  0  0  0
    9.1593   -4.6907   22.9149 H   0  0  0  0  0  0  0  0  0  0  0  0
    7.7820   -2.3736   26.2852 H   0  0  0  0  0  0  0  0  0  0  0  0
    4.3785    2.0112   17.4257 H   0  0  0  0  0  0  0  0  0  0  0  0
    5.6780    0.7321   22.0906 H   0  0  0  0  0  0  0  0  0  0  0  0
    9.8276   -2.6216   21.7691 H   0  0  0  0  0  0  0  0  0  0  0  0
    8.4525   -0.3075   25.1360 H   0  0  0  0  0  0  0  0  0  0  0  0
   12.9800    2.2936   23.4229 H   0  0  0  0  0  0  0  0  0  0  0  0
   15.2379    0.9743   23.1467 H   0  0  0  0  0  0  0  0  0  0  0  0
   11.6887   -1.8580   23.0854 H   0  0  0  0  0  0  0  0  0  0  0  0
   10.2029    0.7893   24.4793 H   0  0  0  0  0  0  0  0  0  0  0  0
   10.3726    1.7919   23.0378 H   0  0  0  0  0  0  0  0  0  0  0  0
    8.6619   -1.5627   20.3589 H   0  0  0  0  0  0  0  0  0  0  0  0
    7.4230   -1.1880   21.5916 H   0  0  0  0  0  0  0  0  0  0  0  0
  1  2  1  0  0  0  0
  1  3  2  0  0  0  0
  2  6  2  0  0  0  0
  3  7  1  0  0  0  0
  4  5  1  0  0  0  0
  4 10  2  0  0  0  0
  5 11  2  0  0  0  0
  6 17  1  0  0  0  0
  7 17  2  0  0  0  0
  8 12  2  0  0  0  0
  8 18  1  0  0  0  0
  9 13  1  0  0  0  0
  9 18  2  0  0  0  0
 10 20  1  0  0  0  0
 11 21  1  0  0  0  0
 12 22  1  0  0  0  0
 13 22  2  0  0  0  0
 14 15  2  0  0  0  0
 14 19  1  0  0  0  0
 15 31  1  0  0  0  0
 16 19  2  0  0  0  0
 16 31  1  0  0  0  0
 17 18  1  0  0  0  0
 19 24  1  0  0  0  0
 20 21  2  0  0  0  0
 20 26  1  0  0  0  0
 21 28  1  0  0  0  0
 22 29  1  0  0  0  0
 23 25  1  0  0  0  0
 23 29  1  0  0  0  0
 23 30  2  0  0  0  0
 24 29  1  0  0  0  0
 25 28  1  0  0  0  0
 26 27  2  0  0  0  0
 27 28  1  0  0  0  0
  1 32  1  0  0  0  0
  2 33  1  0  0  0  0
  3 34  1  0  0  0  0
  4 35  1  0  0  0  0
  5 36  1  0  0  0  0
  6 37  1  0  0  0  0
  7 38  1  0  0  0  0
  8 39  1  0  0  0  0
  9 40  1  0  0  0  0
 10 41  1  0  0  0  0
 11 42  1  0  0  0  0
 12 43  1  0  0  0  0
 13 44  1  0  0  0  0
 14 45  1  0  0  0  0
 15 46  1  0  0  0  0
 16 47  1  0  0  0  0
 24 48  1  0  0  0  0
 24 49  1  0  0  0  0
 25 50  1  0  0  0  0
 25 51  1  0  0  0  0
M  END
> <Protease Assay (Fluorescence) Dose-Response: IC50 (µM)>
5.32

> <clash_score>
0

> <docking_score>
-7.602522373199463

> <overlap_score>
0.8731247186660767

$$$$
ALP-POS-c0c213c9-18_1
  -OEChem-09012022313D

 49 53  0     0  0  0  0  0  0999 V2000
    3.8860    2.1050   19.5250 C   0  0  0  0  0  0  0  0  0  0  0  0
    4.2460    1.7520   20.8250 C   0  0  0  0  0  0  0  0  0  0  0  0
   14.1346   -0.1821   23.2391 C   0  0  0  0  0  0  0  0  0  0  0  0
   14.1882   -1.1337   24.2515 C   0  0  0  0  0  0  0  0  0  0  0  0
    4.6610    1.7170   18.4380 C   0  0  0  0  0  0  0  0  0  0  0  0
    5.3890    1.0010   21.0690 C   0  0  0  0  0  0  0  0  0  0  0  0
    9.4984   -3.6871   23.7863 C   0  0  0  0  0  0  0  0  0  0  0  0
    7.7337   -2.4873   24.9191 C   0  0  0  0  0  0  0  0  0  0  0  0
    9.8788   -2.5134   23.1357 C   0  0  0  0  0  0  0  0  0  0  0  0
    8.1142   -1.3135   24.2686 C   0  0  0  0  0  0  0  0  0  0  0  0
   12.9321    0.4556   22.9550 C   0  0  0  0  0  0  0  0  0  0  0  0
   13.0207   -1.4095   24.9448 C   0  0  0  0  0  0  0  0  0  0  0  0
    8.8517   -5.8810   25.6734 C   0  0  0  0  0  0  0  0  0  0  0  0
    6.7992   -5.1795   25.7416 C   0  0  0  0  0  0  0  0  0  0  0  0
    5.7970    0.9500   18.6730 C   0  0  0  0  0  0  0  0  0  0  0  0
    6.1460    0.6070   19.9750 C   0  0  0  0  0  0  0  0  0  0  0  0
    8.4257   -3.6741   24.6780 C   0  0  0  0  0  0  0  0  0  0  0  0
    9.1867   -1.3266   23.3769 C   0  0  0  0  0  0  0  0  0  0  0  0
   11.8208    0.1085   23.7062 C   0  0  0  0  0  0  0  0  0  0  0  0
    9.0430    0.2380   21.4940 C   0  0  0  0  0  0  0  0  0  0  0  0
   10.5058    0.7768   23.4267 C   0  0  0  0  0  0  0  0  0  0  0  0
    8.0950   -0.7700   20.8440 C   0  0  0  0  0  0  0  0  0  0  0  0
   11.8342   -0.8108   24.6974 N   0  0  0  0  0  0  0  0  0  0  0  0
    8.1374   -6.8078   26.2711 N   0  0  0  0  0  0  0  0  0  0  0  0
    6.8316   -6.3615   26.3145 N   0  0  0  0  0  0  0  0  0  0  0  0
    6.7100    0.3850   17.8100 N   0  0  0  0  0  0  0  0  0  0  0  0
    7.5840   -0.2700   18.5160 N   0  0  0  0  0  0  0  0  0  0  0  0
    8.0494   -4.8377   25.3231 N   0  0  0  0  0  0  0  0  0  0  0  0
    7.2710   -0.1460   19.8310 N   0  0  0  0  0  0  0  0  0  0  0  0
    9.5820   -0.1080   22.7000 N   0  0  0  0  0  0  0  0  0  0  0  0
    9.2950    1.3000   20.9480 O   0  0  0  0  0  0  0  0  0  0  0  0
    2.9847    2.6930   19.3611 H   0  0  0  0  0  0  0  0  0  0  0  0
    3.6232    2.0694   21.6565 H   0  0  0  0  0  0  0  0  0  0  0  0
   15.0283    0.0620   22.6727 H   0  0  0  0  0  0  0  0  0  0  0  0
   15.1146   -1.6433   24.4903 H   0  0  0  0  0  0  0  0  0  0  0  0
    4.3785    2.0112   17.4257 H   0  0  0  0  0  0  0  0  0  0  0  0
    5.6780    0.7321   22.0906 H   0  0  0  0  0  0  0  0  0  0  0  0
   10.0460   -4.6054   23.5885 H   0  0  0  0  0  0  0  0  0  0  0  0
    6.8955   -2.4628   25.6113 H   0  0  0  0  0  0  0  0  0  0  0  0
   10.7162   -2.5349   22.4428 H   0  0  0  0  0  0  0  0  0  0  0  0
    7.5674   -0.3944   24.4640 H   0  0  0  0  0  0  0  0  0  0  0  0
   12.8770    1.1998   22.1678 H   0  0  0  0  0  0  0  0  0  0  0  0
   13.0096   -2.1436   25.7437 H   0  0  0  0  0  0  0  0  0  0  0  0
    9.9147   -5.9174   25.4795 H   0  0  0  0  0  0  0  0  0  0  0  0
    5.9259   -4.5558   25.6095 H   0  0  0  0  0  0  0  0  0  0  0  0
   10.0195    1.0781   24.3609 H   0  0  0  0  0  0  0  0  0  0  0  0
   10.6447    1.6818   22.8259 H   0  0  0  0  0  0  0  0  0  0  0  0
    8.6619   -1.5627   20.3589 H   0  0  0  0  0  0  0  0  0  0  0  0
    7.4230   -1.1880   21.5916 H   0  0  0  0  0  0  0  0  0  0  0  0
  1  2  1  0  0  0  0
  1  5  2  0  0  0  0
  2  6  2  0  0  0  0
  3  4  1  0  0  0  0
  3 11  2  0  0  0  0
  4 12  2  0  0  0  0
  5 15  1  0  0  0  0
  6 16  1  0  0  0  0
  7  9  2  0  0  0  0
  7 17  1  0  0  0  0
  8 10  1  0  0  0  0
  8 17  2  0  0  0  0
  9 18  1  0  0  0  0
 10 18  2  0  0  0  0
 11 19  1  0  0  0  0
 12 23  1  0  0  0  0
 13 24  2  0  0  0  0
 13 28  1  0  0  0  0
 14 25  2  0  0  0  0
 14 28  1  0  0  0  0
 15 16  2  0  0  0  0
 15 26  1  0  0  0  0
 16 29  1  0  0  0  0
 17 28  1  0  0  0  0
 18 30  1  0  0  0  0
 19 21  1  0  0  0  0
 19 23  2  0  0  0  0
 20 22  1  0  0  0  0
 20 30  1  0  0  0  0
 20 31  2  0  0  0  0
 21 30  1  0  0  0  0
 22 29  1  0  0  0  0
 24 25  1  0  0  0  0
 26 27  2  0  0  0  0
 27 29  1  0  0  0  0
  1 32  1  0  0  0  0
  2 33  1  0  0  0  0
  3 34  1  0  0  0  0
  4 35  1  0  0  0  0
  5 36  1  0  0  0  0
  6 37  1  0  0  0  0
  7 38  1  0  0  0  0
  8 39  1  0  0  0  0
  9 40  1  0  0  0  0
 10 41  1  0  0  0  0
 11 42  1  0  0  0  0
 12 43  1  0  0  0  0
 13 44  1  0  0  0  0
 14 45  1  0  0  0  0
 21 46  1  0  0  0  0
 21 47  1  0  0  0  0
 22 48  1  0  0  0  0
 22 49  1  0  0  0  0
M  END
> <Protease Assay (Fluorescence) Dose-Response: IC50 (µM)>
> 99.5

> <clash_score>
0

> <docking_score>
-8.244112014770508

> <overlap_score>
0.8794225454330444

$$$$
ALP-POS-c59291d4-4_1
  -OEChem-09012022313D

 46 49  0     0  0  0  0  0  0999 V2000
    3.8860    2.1050   19.5250 C   0  0  0  0  0  0  0  0  0  0  0  0
    4.2460    1.7520   20.8250 C   0  0  0  0  0  0  0  0  0  0  0  0
    4.6610    1.7170   18.4380 C   0  0  0  0  0  0  0  0  0  0  0  0
    5.3890    1.0010   21.0690 C   0  0  0  0  0  0  0  0  0  0  0  0
    8.2307   -2.4373   25.2976 C   0  0  0  0  0  0  0  0  0  0  0  0
    9.0010   -3.7352   23.4111 C   0  0  0  0  0  0  0  0  0  0  0  0
    8.6113   -1.2642   24.6460 C   0  0  0  0  0  0  0  0  0  0  0  0
    9.3816   -2.5621   22.7594 C   0  0  0  0  0  0  0  0  0  0  0  0
   13.0477    1.2188   23.3108 C   0  0  0  0  0  0  0  0  0  0  0  0
   14.2438    0.5506   23.1677 C   0  0  0  0  0  0  0  0  0  0  0  0
   12.3200   -0.9816   23.1351 C   0  0  0  0  0  0  0  0  0  0  0  0
   11.9332    0.3313   23.2920 C   0  0  0  0  0  0  0  0  0  0  0  0
    5.7970    0.9500   18.6730 C   0  0  0  0  0  0  0  0  0  0  0  0
    6.1460    0.6070   19.9750 C   0  0  0  0  0  0  0  0  0  0  0  0
    8.4256   -3.6728   24.6802 C   0  0  0  0  0  0  0  0  0  0  0  0
    9.1867   -1.3266   23.3769 C   0  0  0  0  0  0  0  0  0  0  0  0
    9.0430    0.2380   21.4940 C   0  0  0  0  0  0  0  0  0  0  0  0
    8.7069   -6.1095   25.1375 C   0  0  0  0  0  0  0  0  0  0  0  0
   10.5058    0.7768   23.4267 C   0  0  0  0  0  0  0  0  0  0  0  0
    8.0950   -0.7700   20.8440 C   0  0  0  0  0  0  0  0  0  0  0  0
    6.7100    0.3850   17.8100 N   0  0  0  0  0  0  0  0  0  0  0  0
    7.5840   -0.2700   18.5160 N   0  0  0  0  0  0  0  0  0  0  0  0
    7.2710   -0.1460   19.8310 N   0  0  0  0  0  0  0  0  0  0  0  0
    8.0426   -4.8592   25.3398 N   0  0  0  0  0  0  0  0  0  0  0  0
    9.5820   -0.1080   22.7000 N   0  0  0  0  0  0  0  0  0  0  0  0
    9.2950    1.3000   20.9480 O   0  0  0  0  0  0  0  0  0  0  0  0
   14.0205   -1.1400   23.0115 S   0  0  0  0  0  0  0  0  0  0  0  0
    2.9847    2.6930   19.3611 H   0  0  0  0  0  0  0  0  0  0  0  0
    3.6232    2.0694   21.6565 H   0  0  0  0  0  0  0  0  0  0  0  0
    4.3785    2.0112   17.4257 H   0  0  0  0  0  0  0  0  0  0  0  0
    5.6780    0.7321   22.0906 H   0  0  0  0  0  0  0  0  0  0  0  0
    7.7842   -2.3768   26.2868 H   0  0  0  0  0  0  0  0  0  0  0  0
    9.1577   -4.6926   22.9207 H   0  0  0  0  0  0  0  0  0  0  0  0
    8.4560   -0.3067   25.1369 H   0  0  0  0  0  0  0  0  0  0  0  0
    9.8301   -2.6214   21.7710 H   0  0  0  0  0  0  0  0  0  0  0  0
   12.9800    2.2936   23.4229 H   0  0  0  0  0  0  0  0  0  0  0  0
   15.2379    0.9743   23.1467 H   0  0  0  0  0  0  0  0  0  0  0  0
   11.6887   -1.8580   23.0854 H   0  0  0  0  0  0  0  0  0  0  0  0
    9.5253   -5.9777   24.4144 H   0  0  0  0  0  0  0  0  0  0  0  0
    9.1168   -6.4657   26.0941 H   0  0  0  0  0  0  0  0  0  0  0  0
    7.9894   -6.8471   24.7486 H   0  0  0  0  0  0  0  0  0  0  0  0
   10.2029    0.7893   24.4793 H   0  0  0  0  0  0  0  0  0  0  0  0
   10.3726    1.7919   23.0378 H   0  0  0  0  0  0  0  0  0  0  0  0
    8.6619   -1.5627   20.3589 H   0  0  0  0  0  0  0  0  0  0  0  0
    7.4230   -1.1880   21.5916 H   0  0  0  0  0  0  0  0  0  0  0  0
    7.2671   -4.7974   25.9721 H   0  0  0  0  0  0  0  0  0  0  0  0
  1  2  1  0  0  0  0
  1  3  2  0  0  0  0
  2  4  2  0  0  0  0
  3 13  1  0  0  0  0
  4 14  1  0  0  0  0
  5  7  2  0  0  0  0
  5 15  1  0  0  0  0
  6  8  1  0  0  0  0
  6 15  2  0  0  0  0
  7 16  1  0  0  0  0
  8 16  2  0  0  0  0
  9 10  2  0  0  0  0
  9 12  1  0  0  0  0
 10 27  1  0  0  0  0
 11 12  2  0  0  0  0
 11 27  1  0  0  0  0
 12 19  1  0  0  0  0
 13 14  2  0  0  0  0
 13 21  1  0  0  0  0
 14 23  1  0  0  0  0
 15 24  1  0  0  0  0
 16 25  1  0  0  0  0
 17 20  1  0  0  0  0
 17 25  1  0  0  0  0
 17 26  2  0  0  0  0
 18 24  1  0  0  0  0
 19 25  1  0  0  0  0
 20 23  1  0  0  0  0
 21 22  2  0  0  0  0
 22 23  1  0  0  0  0
  1 28  1  0  0  0  0
  2 29  1  0  0  0  0
  3 30  1  0  0  0  0
  4 31  1  0  0  0  0
  5 32  1  0  0  0  0
  6 33  1  0  0  0  0
  7 34  1  0  0  0  0
  8 35  1  0  0  0  0
  9 36  1  0  0  0  0
 10 37  1  0  0  0  0
 11 38  1  0  0  0  0
 18 39  1  0  0  0  0
 18 40  1  0  0  0  0
 18 41  1  0  0  0  0
 19 42  1  0  0  0  0
 19 43  1  0  0  0  0
 20 44  1  0  0  0  0
 20 45  1  0  0  0  0
 24 46  1  0  0  0  0
M  END
> <Protease Assay (Fluorescence) Dose-Response: IC50 (µM)>
4.33

> <clash_score>
0

> <docking_score>
-8.844744682312012

> <overlap_score>
0.8416992425918579

$$$$
ALP-POS-c59291d4-3_1
  -OEChem-09012022313D

 52 56  0     0  0  0  0  0  0999 V2000
    3.8860    2.1050   19.5250 C   0  0  0  0  0  0  0  0  0  0  0  0
    4.2460    1.7520   20.8250 C   0  0  0  0  0  0  0  0  0  0  0  0
    4.6610    1.7170   18.4380 C   0  0  0  0  0  0  0  0  0  0  0  0
    5.3890    1.0010   21.0690 C   0  0  0  0  0  0  0  0  0  0  0  0
    9.0009   -3.7351   23.4116 C   0  0  0  0  0  0  0  0  0  0  0  0
    8.2306   -2.4368   25.2979 C   0  0  0  0  0  0  0  0  0  0  0  0
    9.3815   -2.5622   22.7597 C   0  0  0  0  0  0  0  0  0  0  0  0
    8.6113   -1.2639   24.6460 C   0  0  0  0  0  0  0  0  0  0  0  0
   13.0477    1.2188   23.3108 C   0  0  0  0  0  0  0  0  0  0  0  0
   14.2438    0.5506   23.1677 C   0  0  0  0  0  0  0  0  0  0  0  0
   12.3200   -0.9816   23.1351 C   0  0  0  0  0  0  0  0  0  0  0  0
   11.9332    0.3313   23.2920 C   0  0  0  0  0  0  0  0  0  0  0  0
    5.7970    0.9500   18.6730 C   0  0  0  0  0  0  0  0  0  0  0  0
    6.1460    0.6070   19.9750 C   0  0  0  0  0  0  0  0  0  0  0  0
    8.4254   -3.6724   24.6807 C   0  0  0  0  0  0  0  0  0  0  0  0
    9.1867   -1.3266   23.3769 C   0  0  0  0  0  0  0  0  0  0  0  0
    7.4557   -4.9804   26.5973 C   0  0  0  0  0  0  0  0  0  0  0  0
    9.0430    0.2380   21.4940 C   0  0  0  0  0  0  0  0  0  0  0  0
    7.3370   -6.8403   28.3609 C   0  0  0  0  0  0  0  0  0  0  0  0
    5.9797   -6.7446   27.7317 C   0  0  0  0  0  0  0  0  0  0  0  0
    7.1962   -6.4255   26.9420 C   0  0  0  0  0  0  0  0  0  0  0  0
   10.5058    0.7768   23.4267 C   0  0  0  0  0  0  0  0  0  0  0  0
    8.0950   -0.7700   20.8440 C   0  0  0  0  0  0  0  0  0  0  0  0
    6.7100    0.3850   17.8100 N   0  0  0  0  0  0  0  0  0  0  0  0
    7.5840   -0.2700   18.5160 N   0  0  0  0  0  0  0  0  0  0  0  0
    7.2710   -0.1460   19.8310 N   0  0  0  0  0  0  0  0  0  0  0  0
    8.0443   -4.8454   25.3327 N   0  0  0  0  0  0  0  0  0  0  0  0
    9.5820   -0.1080   22.7000 N   0  0  0  0  0  0  0  0  0  0  0  0
    7.1568   -4.0845   27.3801 O   0  0  0  0  0  0  0  0  0  0  0  0
    9.2950    1.3000   20.9480 O   0  0  0  0  0  0  0  0  0  0  0  0
   14.0205   -1.1400   23.0115 S   0  0  0  0  0  0  0  0  0  0  0  0
    2.9847    2.6930   19.3611 H   0  0  0  0  0  0  0  0  0  0  0  0
    3.6232    2.0694   21.6565 H   0  0  0  0  0  0  0  0  0  0  0  0
    4.3785    2.0112   17.4257 H   0  0  0  0  0  0  0  0  0  0  0  0
    5.6780    0.7321   22.0906 H   0  0  0  0  0  0  0  0  0  0  0  0
    9.1575   -4.6922   22.9208 H   0  0  0  0  0  0  0  0  0  0  0  0
    7.7833   -2.3763   26.2868 H   0  0  0  0  0  0  0  0  0  0  0  0
    9.8286   -2.6236   21.7706 H   0  0  0  0  0  0  0  0  0  0  0  0
    8.4541   -0.3066   25.1360 H   0  0  0  0  0  0  0  0  0  0  0  0
   12.9800    2.2936   23.4229 H   0  0  0  0  0  0  0  0  0  0  0  0
   15.2379    0.9743   23.1467 H   0  0  0  0  0  0  0  0  0  0  0  0
   11.6887   -1.8580   23.0854 H   0  0  0  0  0  0  0  0  0  0  0  0
    7.5947   -6.1080   29.1164 H   0  0  0  0  0  0  0  0  0  0  0  0
    7.7422   -7.8289   28.5391 H   0  0  0  0  0  0  0  0  0  0  0  0
    5.4709   -7.6690   27.4868 H   0  0  0  0  0  0  0  0  0  0  0  0
    5.3253   -5.9491   28.0668 H   0  0  0  0  0  0  0  0  0  0  0  0
    7.5069   -7.0934   26.1680 H   0  0  0  0  0  0  0  0  0  0  0  0
   10.2029    0.7893   24.4793 H   0  0  0  0  0  0  0  0  0  0  0  0
   10.3726    1.7919   23.0378 H   0  0  0  0  0  0  0  0  0  0  0  0
    8.6619   -1.5627   20.3589 H   0  0  0  0  0  0  0  0  0  0  0  0
    7.4230   -1.1880   21.5916 H   0  0  0  0  0  0  0  0  0  0  0  0
    8.2129   -5.7232   24.8276 H   0  0  0  0  0  0  0  0  0  0  0  0
  1  2  1  0  0  0  0
  1  3  2  0  0  0  0
  2  4  2  0  0  0  0
  3 13  1  0  0  0  0
  4 14  1  0  0  0  0
  5  7  2  0  0  0  0
  5 15  1  0  0  0  0
  6  8  1  0  0  0  0
  6 15  2  0  0  0  0
  7 16  1  0  0  0  0
  8 16  2  0  0  0  0
  9 10  2  0  0  0  0
  9 12  1  0  0  0  0
 10 31  1  0  0  0  0
 11 12  2  0  0  0  0
 11 31  1  0  0  0  0
 12 22  1  0  0  0  0
 13 14  2  0  0  0  0
 13 24  1  0  0  0  0
 14 26  1  0  0  0  0
 15 27  1  0  0  0  0
 16 28  1  0  0  0  0
 17 21  1  0  0  0  0
 17 27  1  0  0  0  0
 17 29  2  0  0  0  0
 18 23  1  0  0  0  0
 18 28  1  0  0  0  0
 18 30  2  0  0  0  0
 19 20  1  0  0  0  0
 19 21  1  0  0  0  0
 20 21  1  0  0  0  0
 22 28  1  0  0  0  0
 23 26  1  0  0  0  0
 24 25  2  0  0  0  0
 25 26  1  0  0  0  0
  1 32  1  0  0  0  0
  2 33  1  0  0  0  0
  3 34  1  0  0  0  0
  4 35  1  0  0  0  0
  5 36  1  0  0  0  0
  6 37  1  0  0  0  0
  7 38  1  0  0  0  0
  8 39  1  0  0  0  0
  9 40  1  0  0  0  0
 10 41  1  0  0  0  0
 11 42  1  0  0  0  0
 19 43  1  0  0  0  0
 19 44  1  0  0  0  0
 20 45  1  0  0  0  0
 20 46  1  0  0  0  0
 21 47  1  0  0  0  0
 22 48  1  0  0  0  0
 22 49  1  0  0  0  0
 23 50  1  0  0  0  0
 23 51  1  0  0  0  0
 27 52  1  0  0  0  0
M  END
> <Protease Assay (Fluorescence) Dose-Response: IC50 (µM)>
3.99

> <clash_score>
0

> <docking_score>
-8.10586929321289

> <overlap_score>
0.9177359342575073

$$$$
ALP-POS-c59291d4-2_1
  -OEChem-09012022313D

 51 54  0     0  0  0  0  0  0999 V2000
    3.8860    2.1050   19.5250 C   0  0  0  0  0  0  0  0  0  0  0  0
    4.2460    1.7520   20.8250 C   0  0  0  0  0  0  0  0  0  0  0  0
    4.6610    1.7170   18.4380 C   0  0  0  0  0  0  0  0  0  0  0  0
    5.3890    1.0010   21.0690 C   0  0  0  0  0  0  0  0  0  0  0  0
    9.0009   -3.7351   23.4116 C   0  0  0  0  0  0  0  0  0  0  0  0
    8.2306   -2.4368   25.2979 C   0  0  0  0  0  0  0  0  0  0  0  0
    9.3815   -2.5622   22.7597 C   0  0  0  0  0  0  0  0  0  0  0  0
    8.6113   -1.2639   24.6460 C   0  0  0  0  0  0  0  0  0  0  0  0
   13.0477    1.2188   23.3108 C   0  0  0  0  0  0  0  0  0  0  0  0
   14.2438    0.5506   23.1677 C   0  0  0  0  0  0  0  0  0  0  0  0
   12.3200   -0.9816   23.1351 C   0  0  0  0  0  0  0  0  0  0  0  0
   11.9332    0.3313   23.2920 C   0  0  0  0  0  0  0  0  0  0  0  0
    5.7970    0.9500   18.6730 C   0  0  0  0  0  0  0  0  0  0  0  0
    6.1460    0.6070   19.9750 C   0  0  0  0  0  0  0  0  0  0  0  0
    8.4254   -3.6724   24.6807 C   0  0  0  0  0  0  0  0  0  0  0  0
    9.1867   -1.3266   23.3769 C   0  0  0  0  0  0  0  0  0  0  0  0
    7.4550   -4.9826   26.6000 C   0  0  0  0  0  0  0  0  0  0  0  0
    9.0430    0.2380   21.4940 C   0  0  0  0  0  0  0  0  0  0  0  0
    6.5937   -6.6369   28.3110 C   0  0  0  0  0  0  0  0  0  0  0  0
   10.5058    0.7768   23.4267 C   0  0  0  0  0  0  0  0  0  0  0  0
    7.1997   -6.4453   26.9322 C   0  0  0  0  0  0  0  0  0  0  0  0
    8.0950   -0.7700   20.8440 C   0  0  0  0  0  0  0  0  0  0  0  0
    6.7100    0.3850   17.8100 N   0  0  0  0  0  0  0  0  0  0  0  0
    7.5840   -0.2700   18.5160 N   0  0  0  0  0  0  0  0  0  0  0  0
    7.2710   -0.1460   19.8310 N   0  0  0  0  0  0  0  0  0  0  0  0
    8.0443   -4.8454   25.3327 N   0  0  0  0  0  0  0  0  0  0  0  0
    9.5820   -0.1080   22.7000 N   0  0  0  0  0  0  0  0  0  0  0  0
    7.1635   -4.0788   27.3763 O   0  0  0  0  0  0  0  0  0  0  0  0
    9.2950    1.3000   20.9480 O   0  0  0  0  0  0  0  0  0  0  0  0
   14.0205   -1.1400   23.0115 S   0  0  0  0  0  0  0  0  0  0  0  0
    2.9847    2.6930   19.3611 H   0  0  0  0  0  0  0  0  0  0  0  0
    3.6232    2.0694   21.6565 H   0  0  0  0  0  0  0  0  0  0  0  0
    4.3785    2.0112   17.4257 H   0  0  0  0  0  0  0  0  0  0  0  0
    5.6780    0.7321   22.0906 H   0  0  0  0  0  0  0  0  0  0  0  0
    9.1575   -4.6922   22.9208 H   0  0  0  0  0  0  0  0  0  0  0  0
    7.7833   -2.3763   26.2868 H   0  0  0  0  0  0  0  0  0  0  0  0
    9.8286   -2.6236   21.7706 H   0  0  0  0  0  0  0  0  0  0  0  0
    8.4541   -0.3066   25.1360 H   0  0  0  0  0  0  0  0  0  0  0  0
   12.9800    2.2936   23.4229 H   0  0  0  0  0  0  0  0  0  0  0  0
   15.2379    0.9743   23.1467 H   0  0  0  0  0  0  0  0  0  0  0  0
   11.6887   -1.8580   23.0854 H   0  0  0  0  0  0  0  0  0  0  0  0
    7.2488   -6.2300   29.0884 H   0  0  0  0  0  0  0  0  0  0  0  0
    6.4405   -7.7010   28.5154 H   0  0  0  0  0  0  0  0  0  0  0  0
    5.6259   -6.1307   28.3888 H   0  0  0  0  0  0  0  0  0  0  0  0
   10.2029    0.7893   24.4793 H   0  0  0  0  0  0  0  0  0  0  0  0
   10.3726    1.7919   23.0378 H   0  0  0  0  0  0  0  0  0  0  0  0
    6.5244   -6.8607   26.1754 H   0  0  0  0  0  0  0  0  0  0  0  0
    8.1509   -6.9865   26.8725 H   0  0  0  0  0  0  0  0  0  0  0  0
    8.6619   -1.5627   20.3589 H   0  0  0  0  0  0  0  0  0  0  0  0
    7.4230   -1.1880   21.5916 H   0  0  0  0  0  0  0  0  0  0  0  0
    8.2133   -5.7227   24.8268 H   0  0  0  0  0  0  0  0  0  0  0  0
  1  2  1  0  0  0  0
  1  3  2  0  0  0  0
  2  4  2  0  0  0  0
  3 13  1  0  0  0  0
  4 14  1  0  0  0  0
  5  7  2  0  0  0  0
  5 15  1  0  0  0  0
  6  8  1  0  0  0  0
  6 15  2  0  0  0  0
  7 16  1  0  0  0  0
  8 16  2  0  0  0  0
  9 10  2  0  0  0  0
  9 12  1  0  0  0  0
 10 30  1  0  0  0  0
 11 12  2  0  0  0  0
 11 30  1  0  0  0  0
 12 20  1  0  0  0  0
 13 14  2  0  0  0  0
 13 23  1  0  0  0  0
 14 25  1  0  0  0  0
 15 26  1  0  0  0  0
 16 27  1  0  0  0  0
 17 21  1  0  0  0  0
 17 26  1  0  0  0  0
 17 28  2  0  0  0  0
 18 22  1  0  0  0  0
 18 27  1  0  0  0  0
 18 29  2  0  0  0  0
 19 21  1  0  0  0  0
 20 27  1  0  0  0  0
 22 25  1  0  0  0  0
 23 24  2  0  0  0  0
 24 25  1  0  0  0  0
  1 31  1  0  0  0  0
  2 32  1  0  0  0  0
  3 33  1  0  0  0  0
  4 34  1  0  0  0  0
  5 35  1  0  0  0  0
  6 36  1  0  0  0  0
  7 37  1  0  0  0  0
  8 38  1  0  0  0  0
  9 39  1  0  0  0  0
 10 40  1  0  0  0  0
 11 41  1  0  0  0  0
 19 42  1  0  0  0  0
 19 43  1  0  0  0  0
 19 44  1  0  0  0  0
 20 45  1  0  0  0  0
 20 46  1  0  0  0  0
 21 47  1  0  0  0  0
 21 48  1  0  0  0  0
 22 49  1  0  0  0  0
 22 50  1  0  0  0  0
 26 51  1  0  0  0  0
M  END
> <Protease Assay (Fluorescence) Dose-Response: IC50 (µM)>
1.63

> <clash_score>
0

> <docking_score>
-8.257739067077637

> <overlap_score>
0.9103390574455261

$$$$
AAR-POS-8a4e0f60-7_1
  -OEChem-09012022313D

 47 50  0     0  0  0  0  0  0999 V2000
    3.8860    2.1050   19.5250 C   0  0  0  0  0  0  0  0  0  0  0  0
    4.2460    1.7520   20.8250 C   0  0  0  0  0  0  0  0  0  0  0  0
    5.1622   -5.9839   27.2029 C   0  0  0  0  0  0  0  0  0  0  0  0
    4.6610    1.7170   18.4380 C   0  0  0  0  0  0  0  0  0  0  0  0
    5.3890    1.0010   21.0690 C   0  0  0  0  0  0  0  0  0  0  0  0
    9.3816   -2.5622   22.7595 C   0  0  0  0  0  0  0  0  0  0  0  0
    8.6113   -1.2641   24.6460 C   0  0  0  0  0  0  0  0  0  0  0  0
    9.0011   -3.7352   23.4112 C   0  0  0  0  0  0  0  0  0  0  0  0
    8.2307   -2.4372   25.2977 C   0  0  0  0  0  0  0  0  0  0  0  0
    6.4103   -5.9888   26.5901 C   0  0  0  0  0  0  0  0  0  0  0  0
    4.8650   -3.7435   26.4621 C   0  0  0  0  0  0  0  0  0  0  0  0
    4.3686   -4.8438   27.1422 C   0  0  0  0  0  0  0  0  0  0  0  0
    5.7970    0.9500   18.6730 C   0  0  0  0  0  0  0  0  0  0  0  0
    6.1460    0.6070   19.9750 C   0  0  0  0  0  0  0  0  0  0  0  0
    9.1867   -1.3266   23.3769 C   0  0  0  0  0  0  0  0  0  0  0  0
    8.4256   -3.6727   24.6803 C   0  0  0  0  0  0  0  0  0  0  0  0
    6.8153   -4.8373   25.9345 C   0  0  0  0  0  0  0  0  0  0  0  0
    9.0430    0.2380   21.4940 C   0  0  0  0  0  0  0  0  0  0  0  0
   10.5058    0.7768   23.4267 C   0  0  0  0  0  0  0  0  0  0  0  0
    8.0950   -0.7700   20.8440 C   0  0  0  0  0  0  0  0  0  0  0  0
    3.0290   -4.8072   27.7873 C   0  0  0  0  0  0  0  0  0  0  0  0
    6.0722   -3.7107   25.8544 N   0  0  0  0  0  0  0  0  0  0  0  0
    6.7100    0.3850   17.8100 N   0  0  0  0  0  0  0  0  0  0  0  0
    7.5840   -0.2700   18.5160 N   0  0  0  0  0  0  0  0  0  0  0  0
    7.2710   -0.1460   19.8310 N   0  0  0  0  0  0  0  0  0  0  0  0
    9.5820   -0.1080   22.7000 N   0  0  0  0  0  0  0  0  0  0  0  0
    9.2950    1.3000   20.9480 O   0  0  0  0  0  0  0  0  0  0  0  0
    8.0543   -4.8173   25.3164 O   0  0  0  0  0  0  0  0  0  0  0  0
    2.6878   -5.9725   28.4167 F   0  0  0  0  0  0  0  0  0  0  0  0
    2.9056   -3.8399   28.7461 F   0  0  0  0  0  0  0  0  0  0  0  0
    2.0197   -4.5669   26.8980 F   0  0  0  0  0  0  0  0  0  0  0  0
    2.9847    2.6930   19.3611 H   0  0  0  0  0  0  0  0  0  0  0  0
    3.6232    2.0694   21.6565 H   0  0  0  0  0  0  0  0  0  0  0  0
    4.8162   -6.8718   27.7248 H   0  0  0  0  0  0  0  0  0  0  0  0
    4.3785    2.0112   17.4257 H   0  0  0  0  0  0  0  0  0  0  0  0
    5.6780    0.7321   22.0906 H   0  0  0  0  0  0  0  0  0  0  0  0
    9.8290   -2.6226   21.7706 H   0  0  0  0  0  0  0  0  0  0  0  0
    8.4546   -0.3069   25.1368 H   0  0  0  0  0  0  0  0  0  0  0  0
    9.1554   -4.6947   22.9252 H   0  0  0  0  0  0  0  0  0  0  0  0
    7.7830   -2.3821   26.2863 H   0  0  0  0  0  0  0  0  0  0  0  0
    7.0412   -6.8701   26.6284 H   0  0  0  0  0  0  0  0  0  0  0  0
    4.2907   -2.8257   26.3815 H   0  0  0  0  0  0  0  0  0  0  0  0
   11.5433    0.5016   23.1862 H   0  0  0  0  0  0  0  0  0  0  0  0
   10.3248    1.8201   23.1285 H   0  0  0  0  0  0  0  0  0  0  0  0
   10.3398    0.6707   24.5089 H   0  0  0  0  0  0  0  0  0  0  0  0
    8.6619   -1.5627   20.3589 H   0  0  0  0  0  0  0  0  0  0  0  0
    7.4230   -1.1880   21.5916 H   0  0  0  0  0  0  0  0  0  0  0  0
  1  2  1  0  0  0  0
  1  4  2  0  0  0  0
  2  5  2  0  0  0  0
  3 10  2  0  0  0  0
  3 12  1  0  0  0  0
  4 13  1  0  0  0  0
  5 14  1  0  0  0  0
  6  8  2  0  0  0  0
  6 15  1  0  0  0  0
  7  9  1  0  0  0  0
  7 15  2  0  0  0  0
  8 16  1  0  0  0  0
  9 16  2  0  0  0  0
 10 17  1  0  0  0  0
 11 12  2  0  0  0  0
 11 22  1  0  0  0  0
 12 21  1  0  0  0  0
 13 14  2  0  0  0  0
 13 23  1  0  0  0  0
 14 25  1  0  0  0  0
 15 26  1  0  0  0  0
 16 28  1  0  0  0  0
 17 22  2  0  0  0  0
 17 28  1  0  0  0  0
 18 20  1  0  0  0  0
 18 26  1  0  0  0  0
 18 27  2  0  0  0  0
 19 26  1  0  0  0  0
 20 25  1  0  0  0  0
 21 29  1  0  0  0  0
 21 30  1  0  0  0  0
 21 31  1  0  0  0  0
 23 24  2  0  0  0  0
 24 25  1  0  0  0  0
  1 32  1  0  0  0  0
  2 33  1  0  0  0  0
  3 34  1  0  0  0  0
  4 35  1  0  0  0  0
  5 36  1  0  0  0  0
  6 37  1  0  0  0  0
  7 38  1  0  0  0  0
  8 39  1  0  0  0  0
  9 40  1  0  0  0  0
 10 41  1  0  0  0  0
 11 42  1  0  0  0  0
 19 43  1  0  0  0  0
 19 44  1  0  0  0  0
 19 45  1  0  0  0  0
 20 46  1  0  0  0  0
 20 47  1  0  0  0  0
M  END
> <Protease Assay (Fluorescence) Dose-Response: IC50 (µM)>
37.8

> <clash_score>
0

> <docking_score>
-4.84885311126709

> <overlap_score>
0.7426750063896179

$$$$
ALP-POS-c0c213c9-15_1
  -OEChem-09012022313D

 51 55  0     0  0  0  0  0  0999 V2000
    7.3026   -7.1430   26.6064 C   0  0  0  0  0  0  0  0  0  0  0  0
    8.5892   -6.6335   26.7813 C   0  0  0  0  0  0  0  0  0  0  0  0
    6.3959   -6.4791   25.7801 C   0  0  0  0  0  0  0  0  0  0  0  0
    3.8860    2.1050   19.5250 C   0  0  0  0  0  0  0  0  0  0  0  0
    4.2460    1.7520   20.8250 C   0  0  0  0  0  0  0  0  0  0  0  0
   14.1346   -0.1821   23.2391 C   0  0  0  0  0  0  0  0  0  0  0  0
   14.1882   -1.1337   24.2515 C   0  0  0  0  0  0  0  0  0  0  0  0
    8.9691   -5.4601   26.1299 C   0  0  0  0  0  0  0  0  0  0  0  0
    6.7758   -5.3056   25.1287 C   0  0  0  0  0  0  0  0  0  0  0  0
    4.6610    1.7170   18.4380 C   0  0  0  0  0  0  0  0  0  0  0  0
    5.3890    1.0010   21.0690 C   0  0  0  0  0  0  0  0  0  0  0  0
   12.9321    0.4556   22.9550 C   0  0  0  0  0  0  0  0  0  0  0  0
   13.0207   -1.4095   24.9448 C   0  0  0  0  0  0  0  0  0  0  0  0
    9.3587   -2.5721   22.8081 C   0  0  0  0  0  0  0  0  0  0  0  0
    8.6141   -1.3176   24.6324 C   0  0  0  0  0  0  0  0  0  0  0  0
    8.0624   -4.7961   25.3036 C   0  0  0  0  0  0  0  0  0  0  0  0
    5.7970    0.9500   18.6730 C   0  0  0  0  0  0  0  0  0  0  0  0
    6.1460    0.6070   19.9750 C   0  0  0  0  0  0  0  0  0  0  0  0
    9.1867   -1.3266   23.3769 C   0  0  0  0  0  0  0  0  0  0  0  0
   11.8208    0.1085   23.7062 C   0  0  0  0  0  0  0  0  0  0  0  0
    8.4550   -3.5851   24.6313 C   0  0  0  0  0  0  0  0  0  0  0  0
    9.0430    0.2380   21.4940 C   0  0  0  0  0  0  0  0  0  0  0  0
   10.5058    0.7768   23.4267 C   0  0  0  0  0  0  0  0  0  0  0  0
    8.0950   -0.7700   20.8440 C   0  0  0  0  0  0  0  0  0  0  0  0
   11.8342   -0.8108   24.6974 N   0  0  0  0  0  0  0  0  0  0  0  0
    9.0030   -3.7263   23.4093 N   0  0  0  0  0  0  0  0  0  0  0  0
    8.2346   -2.4321   25.2913 N   0  0  0  0  0  0  0  0  0  0  0  0
    6.7100    0.3850   17.8100 N   0  0  0  0  0  0  0  0  0  0  0  0
    7.5840   -0.2700   18.5160 N   0  0  0  0  0  0  0  0  0  0  0  0
    7.2710   -0.1460   19.8310 N   0  0  0  0  0  0  0  0  0  0  0  0
    9.5820   -0.1080   22.7000 N   0  0  0  0  0  0  0  0  0  0  0  0
    9.2950    1.3000   20.9480 O   0  0  0  0  0  0  0  0  0  0  0  0
    7.0075   -8.0576   27.1124 H   0  0  0  0  0  0  0  0  0  0  0  0
    9.2958   -7.1512   27.4233 H   0  0  0  0  0  0  0  0  0  0  0  0
    5.3943   -6.8760   25.6424 H   0  0  0  0  0  0  0  0  0  0  0  0
    2.9847    2.6930   19.3611 H   0  0  0  0  0  0  0  0  0  0  0  0
    3.6232    2.0694   21.6565 H   0  0  0  0  0  0  0  0  0  0  0  0
   15.0283    0.0620   22.6727 H   0  0  0  0  0  0  0  0  0  0  0  0
   15.1146   -1.6433   24.4903 H   0  0  0  0  0  0  0  0  0  0  0  0
    9.9759   -5.0757   26.2762 H   0  0  0  0  0  0  0  0  0  0  0  0
    6.0584   -4.7994   24.4872 H   0  0  0  0  0  0  0  0  0  0  0  0
    4.3785    2.0112   17.4257 H   0  0  0  0  0  0  0  0  0  0  0  0
    5.6780    0.7321   22.0906 H   0  0  0  0  0  0  0  0  0  0  0  0
   12.8770    1.1998   22.1678 H   0  0  0  0  0  0  0  0  0  0  0  0
   13.0096   -2.1436   25.7437 H   0  0  0  0  0  0  0  0  0  0  0  0
    9.8001   -2.6885   21.8228 H   0  0  0  0  0  0  0  0  0  0  0  0
    8.4362   -0.3893   25.1665 H   0  0  0  0  0  0  0  0  0  0  0  0
   10.0195    1.0781   24.3609 H   0  0  0  0  0  0  0  0  0  0  0  0
   10.6447    1.6818   22.8259 H   0  0  0  0  0  0  0  0  0  0  0  0
    8.6619   -1.5627   20.3589 H   0  0  0  0  0  0  0  0  0  0  0  0
    7.4230   -1.1880   21.5916 H   0  0  0  0  0  0  0  0  0  0  0  0
  1  2  1  0  0  0  0
  1  3  2  0  0  0  0
  2  8  2  0  0  0  0
  3  9  1  0  0  0  0
  4  5  1  0  0  0  0
  4 10  2  0  0  0  0
  5 11  2  0  0  0  0
  6  7  1  0  0  0  0
  6 12  2  0  0  0  0
  7 13  2  0  0  0  0
  8 16  1  0  0  0  0
  9 16  2  0  0  0  0
 10 17  1  0  0  0  0
 11 18  1  0  0  0  0
 12 20  1  0  0  0  0
 13 25  1  0  0  0  0
 14 19  1  0  0  0  0
 14 26  2  0  0  0  0
 15 19  2  0  0  0  0
 15 27  1  0  0  0  0
 16 21  1  0  0  0  0
 17 18  2  0  0  0  0
 17 28  1  0  0  0  0
 18 30  1  0  0  0  0
 19 31  1  0  0  0  0
 20 23  1  0  0  0  0
 20 25  2  0  0  0  0
 21 26  1  0  0  0  0
 21 27  2  0  0  0  0
 22 24  1  0  0  0  0
 22 31  1  0  0  0  0
 22 32  2  0  0  0  0
 23 31  1  0  0  0  0
 24 30  1  0  0  0  0
 28 29  2  0  0  0  0
 29 30  1  0  0  0  0
  1 33  1  0  0  0  0
  2 34  1  0  0  0  0
  3 35  1  0  0  0  0
  4 36  1  0  0  0  0
  5 37  1  0  0  0  0
  6 38  1  0  0  0  0
  7 39  1  0  0  0  0
  8 40  1  0  0  0  0
  9 41  1  0  0  0  0
 10 42  1  0  0  0  0
 11 43  1  0  0  0  0
 12 44  1  0  0  0  0
 13 45  1  0  0  0  0
 14 46  1  0  0  0  0
 15 47  1  0  0  0  0
 23 48  1  0  0  0  0
 23 49  1  0  0  0  0
 24 50  1  0  0  0  0
 24 51  1  0  0  0  0
M  END
> <Protease Assay (Fluorescence) Dose-Response: IC50 (µM)>
> 99.5

> <clash_score>
0

> <docking_score>
-5.946300983428955

> <overlap_score>
0.8890714049339294

$$$$
ALP-POS-c0c213c9-13_1
  -OEChem-09012022313D

 61 65  0     1  0  0  0  0  0999 V2000
    3.8860    2.1050   19.5250 C   0  0  0  0  0  0  0  0  0  0  0  0
    4.2460    1.7520   20.8250 C   0  0  0  0  0  0  0  0  0  0  0  0
    8.2881   -2.9935   24.6031 C   0  0  0  0  0  0  0  0  0  0  0  0
    7.4260   -0.9555   25.5730 C   0  0  0  0  0  0  0  0  0  0  0  0
    4.6610    1.7170   18.4380 C   0  0  0  0  0  0  0  0  0  0  0  0
    5.3890    1.0010   21.0690 C   0  0  0  0  0  0  0  0  0  0  0  0
    8.9780   -2.2471   23.6479 C   0  0  0  0  0  0  0  0  0  0  0  0
    8.1159   -0.2091   24.6177 C   0  0  0  0  0  0  0  0  0  0  0  0
    7.5121   -2.3477   25.5657 C   0  0  0  0  0  0  0  0  0  0  0  0
    5.7970    0.9500   18.6730 C   0  0  0  0  0  0  0  0  0  0  0  0
    6.1460    0.6070   19.9750 C   0  0  0  0  0  0  0  0  0  0  0  0
    8.8919   -0.8549   23.6552 C   0  0  0  0  0  0  0  0  0  0  0  0
    9.0430    0.2380   21.4940 C   0  0  0  0  0  0  0  0  0  0  0  0
    7.6966   -4.0699   27.4209 C   0  0  0  0  0  0  0  0  0  0  0  0
    5.9082   -2.2761   27.5315 C   0  0  0  0  0  0  0  0  0  0  0  0
   13.3170   -0.2461   23.6476 C   0  0  0  0  0  0  0  0  0  0  0  0
    6.9239   -4.8811   28.4510 C   0  0  0  0  0  0  0  0  0  0  0  0
    5.1581   -3.1103   28.5602 C   0  0  0  0  0  0  0  0  0  0  0  0
   14.1360   -1.4813   23.3364 C   0  0  0  0  0  0  0  0  0  0  0  0
   12.1907   -1.5506   22.0562 C   0  0  0  0  0  0  0  0  0  0  0  0
    6.7637   -3.1576   26.6020 C   0  0  0  0  0  0  0  0  0  0  0  0
   11.9207   -0.7063   23.2895 C   0  0  2  0  0  0  0  0  0  0  0  0
    8.0950   -0.7700   20.8440 C   0  0  0  0  0  0  0  0  0  0  0  0
   10.9352    0.4222   23.0545 C   0  0  0  0  0  0  0  0  0  0  0  0
    6.7100    0.3850   17.8100 N   0  0  0  0  0  0  0  0  0  0  0  0
    7.5840   -0.2700   18.5160 N   0  0  0  0  0  0  0  0  0  0  0  0
    7.2710   -0.1460   19.8310 N   0  0  0  0  0  0  0  0  0  0  0  0
    9.5820   -0.1080   22.7000 N   0  0  0  0  0  0  0  0  0  0  0  0
    6.1319   -3.9550   29.3134 N   0  3  0  0  0  0  0  0  0  0  0  0
    9.2950    1.3000   20.9480 O   0  0  0  0  0  0  0  0  0  0  0  0
   13.4813   -2.1501   22.2484 O   0  0  0  0  0  0  0  0  0  0  0  0
    2.9847    2.6930   19.3611 H   0  0  0  0  0  0  0  0  0  0  0  0
    3.6232    2.0694   21.6565 H   0  0  0  0  0  0  0  0  0  0  0  0
    8.3592   -4.0779   24.5886 H   0  0  0  0  0  0  0  0  0  0  0  0
    6.8231   -0.4442   26.3188 H   0  0  0  0  0  0  0  0  0  0  0  0
    4.3785    2.0112   17.4257 H   0  0  0  0  0  0  0  0  0  0  0  0
    5.6780    0.7321   22.0906 H   0  0  0  0  0  0  0  0  0  0  0  0
    9.5801   -2.7608   22.9026 H   0  0  0  0  0  0  0  0  0  0  0  0
    8.0409    0.8754   24.6319 H   0  0  0  0  0  0  0  0  0  0  0  0
    8.4620   -3.4690   27.9306 H   0  0  0  0  0  0  0  0  0  0  0  0
    8.2354   -4.7518   26.7512 H   0  0  0  0  0  0  0  0  0  0  0  0
    5.1891   -1.6963   26.9397 H   0  0  0  0  0  0  0  0  0  0  0  0
    6.5431   -1.5443   28.0495 H   0  0  0  0  0  0  0  0  0  0  0  0
   13.4203    0.0775   24.6871 H   0  0  0  0  0  0  0  0  0  0  0  0
   13.6294    0.5816   22.9991 H   0  0  0  0  0  0  0  0  0  0  0  0
    6.2191   -5.5767   27.9840 H   0  0  0  0  0  0  0  0  0  0  0  0
    7.5974   -5.4360   29.1107 H   0  0  0  0  0  0  0  0  0  0  0  0
    4.6480   -2.4783   29.2931 H   0  0  0  0  0  0  0  0  0  0  0  0
    4.4317   -3.7844   28.0943 H   0  0  0  0  0  0  0  0  0  0  0  0
   15.1659   -1.2429   23.0567 H   0  0  0  0  0  0  0  0  0  0  0  0
   14.1552   -2.1698   24.1880 H   0  0  0  0  0  0  0  0  0  0  0  0
   11.4424   -2.3361   21.9148 H   0  0  0  0  0  0  0  0  0  0  0  0
   12.2381   -0.9466   21.1433 H   0  0  0  0  0  0  0  0  0  0  0  0
    6.0617   -3.8220   26.0274 H   0  0  0  0  0  0  0  0  0  0  0  0
   11.5389   -1.3474   24.0919 H   0  0  0  0  0  0  0  0  0  0  0  0
    8.6688   -1.5655   20.3666 H   0  0  0  0  0  0  0  0  0  0  0  0
    7.4298   -1.1908   21.5994 H   0  0  0  0  0  0  0  0  0  0  0  0
   10.8556    1.0259   23.9705 H   0  0  0  0  0  0  0  0  0  0  0  0
   11.3010    1.0525   22.2305 H   0  0  0  0  0  0  0  0  0  0  0  0
    5.6225   -4.5063   30.0176 H   0  0  0  0  0  0  0  0  0  0  0  0
    6.7721   -3.3493   29.8458 H   0  0  0  0  0  0  0  0  0  0  0  0
  1  2  1  0  0  0  0
  1  5  2  0  0  0  0
  2  6  2  0  0  0  0
  3  7  2  0  0  0  0
  3  9  1  0  0  0  0
  4  8  1  0  0  0  0
  4  9  2  0  0  0  0
  5 10  1  0  0  0  0
  6 11  1  0  0  0  0
  7 12  1  0  0  0  0
  8 12  2  0  0  0  0
  9 21  1  0  0  0  0
 10 11  2  0  0  0  0
 10 25  1  0  0  0  0
 11 27  1  0  0  0  0
 12 28  1  0  0  0  0
 13 23  1  0  0  0  0
 13 28  1  0  0  0  0
 13 30  2  0  0  0  0
 14 17  1  0  0  0  0
 14 21  1  0  0  0  0
 15 18  1  0  0  0  0
 15 21  1  0  0  0  0
 16 19  1  0  0  0  0
 16 22  1  0  0  0  0
 17 29  1  0  0  0  0
 18 29  1  0  0  0  0
 19 31  1  0  0  0  0
 20 22  1  0  0  0  0
 20 31  1  0  0  0  0
 22 24  1  1  0  0  0
 23 27  1  0  0  0  0
 24 28  1  0  0  0  0
 25 26  2  0  0  0  0
 26 27  1  0  0  0  0
  1 32  1  0  0  0  0
  2 33  1  0  0  0  0
  3 34  1  0  0  0  0
  4 35  1  0  0  0  0
  5 36  1  0  0  0  0
  6 37  1  0  0  0  0
  7 38  1  0  0  0  0
  8 39  1  0  0  0  0
 14 40  1  0  0  0  0
 14 41  1  0  0  0  0
 15 42  1  0  0  0  0
 15 43  1  0  0  0  0
 16 44  1  0  0  0  0
 16 45  1  0  0  0  0
 17 46  1  0  0  0  0
 17 47  1  0  0  0  0
 18 48  1  0  0  0  0
 18 49  1  0  0  0  0
 19 50  1  0  0  0  0
 19 51  1  0  0  0  0
 20 52  1  0  0  0  0
 20 53  1  0  0  0  0
 21 54  1  0  0  0  0
 22 55  1  0  0  0  0
 23 56  1  0  0  0  0
 23 57  1  0  0  0  0
 24 58  1  0  0  0  0
 24 59  1  0  0  0  0
 29 60  1  0  0  0  0
 29 61  1  0  0  0  0
M  CHG  1  29   1
M  END
> <Protease Assay (Fluorescence) Dose-Response: IC50 (µM)>
> 99.5

> <clash_score>
0

> <docking_score>
-9.547660827636719

> <overlap_score>
0.8768686056137085

$$$$
ALP-POS-c0c213c9-13_2
  -OEChem-09012022313D

 61 65  0     1  0  0  0  0  0999 V2000
    3.8860    2.1050   19.5250 C   0  0  0  0  0  0  0  0  0  0  0  0
    4.2460    1.7520   20.8250 C   0  0  0  0  0  0  0  0  0  0  0  0
    9.0944   -3.6842   23.4715 C   0  0  0  0  0  0  0  0  0  0  0  0
    8.3270   -2.3600   25.3409 C   0  0  0  0  0  0  0  0  0  0  0  0
    4.6610    1.7170   18.4380 C   0  0  0  0  0  0  0  0  0  0  0  0
    5.3890    1.0010   21.0690 C   0  0  0  0  0  0  0  0  0  0  0  0
    9.4428   -2.5187   22.7889 C   0  0  0  0  0  0  0  0  0  0  0  0
    8.6755   -1.1945   24.6584 C   0  0  0  0  0  0  0  0  0  0  0  0
    8.5364   -3.6048   24.7475 C   0  0  0  0  0  0  0  0  0  0  0  0
    5.7970    0.9500   18.6730 C   0  0  0  0  0  0  0  0  0  0  0  0
    6.1460    0.6070   19.9750 C   0  0  0  0  0  0  0  0  0  0  0  0
    9.2334   -1.2739   23.3823 C   0  0  0  0  0  0  0  0  0  0  0  0
    9.0430    0.2380   21.4940 C   0  0  0  0  0  0  0  0  0  0  0  0
    9.3510   -5.8296   25.6577 C   0  0  0  0  0  0  0  0  0  0  0  0
    7.4939   -4.5784   26.8468 C   0  0  0  0  0  0  0  0  0  0  0  0
   12.3605   -0.6170   22.4232 C   0  0  0  0  0  0  0  0  0  0  0  0
    8.9482   -7.0975   26.3969 C   0  0  0  0  0  0  0  0  0  0  0  0
    7.1146   -5.8624   27.5708 C   0  0  0  0  0  0  0  0  0  0  0  0
   13.8522   -0.6697   22.6793 C   0  0  0  0  0  0  0  0  0  0  0  0
   13.0037    1.2539   23.6833 C   0  0  0  0  0  0  0  0  0  0  0  0
    8.1584   -4.8693   25.4879 C   0  0  0  0  0  0  0  0  0  0  0  0
   11.8813    0.2361   23.5775 C   0  0  1  0  0  0  0  0  0  0  0  0
    8.0950   -0.7700   20.8440 C   0  0  0  0  0  0  0  0  0  0  0  0
   10.5126    0.8546   23.3674 C   0  0  0  0  0  0  0  0  0  0  0  0
    6.7100    0.3850   17.8100 N   0  0  0  0  0  0  0  0  0  0  0  0
    7.5840   -0.2700   18.5160 N   0  0  0  0  0  0  0  0  0  0  0  0
    7.2710   -0.1460   19.8310 N   0  0  0  0  0  0  0  0  0  0  0  0
    9.5820   -0.1080   22.7000 N   0  0  0  0  0  0  0  0  0  0  0  0
    8.3232   -6.7291   27.7017 N   0  3  0  0  0  0  0  0  0  0  0  0
    9.2950    1.3000   20.9480 O   0  0  0  0  0  0  0  0  0  0  0  0
   14.2095    0.5694   23.3094 O   0  0  0  0  0  0  0  0  0  0  0  0
    2.9847    2.6930   19.3611 H   0  0  0  0  0  0  0  0  0  0  0  0
    3.6232    2.0694   21.6565 H   0  0  0  0  0  0  0  0  0  0  0  0
    9.2590   -4.6498   23.0006 H   0  0  0  0  0  0  0  0  0  0  0  0
    7.8922   -2.2888   26.3344 H   0  0  0  0  0  0  0  0  0  0  0  0
    4.3785    2.0112   17.4257 H   0  0  0  0  0  0  0  0  0  0  0  0
    5.6780    0.7321   22.0906 H   0  0  0  0  0  0  0  0  0  0  0  0
    9.8772   -2.5924   21.7951 H   0  0  0  0  0  0  0  0  0  0  0  0
    8.5070   -0.2295   25.1298 H   0  0  0  0  0  0  0  0  0  0  0  0
   10.1631   -5.3318   26.2049 H   0  0  0  0  0  0  0  0  0  0  0  0
    9.7595   -6.0962   24.6749 H   0  0  0  0  0  0  0  0  0  0  0  0
    6.5962   -3.9650   26.7005 H   0  0  0  0  0  0  0  0  0  0  0  0
    8.1705   -3.9894   27.4810 H   0  0  0  0  0  0  0  0  0  0  0  0
   12.1640   -0.1183   21.4662 H   0  0  0  0  0  0  0  0  0  0  0  0
   11.9029   -1.6097   22.3905 H   0  0  0  0  0  0  0  0  0  0  0  0
    8.2141   -7.6860   25.8368 H   0  0  0  0  0  0  0  0  0  0  0  0
    9.8172   -7.7224   26.6229 H   0  0  0  0  0  0  0  0  0  0  0  0
    6.7545   -5.6595   28.5837 H   0  0  0  0  0  0  0  0  0  0  0  0
    6.3581   -6.4358   27.0250 H   0  0  0  0  0  0  0  0  0  0  0  0
   14.1079   -1.4807   23.3695 H   0  0  0  0  0  0  0  0  0  0  0  0
   14.4318   -0.7970   21.7607 H   0  0  0  0  0  0  0  0  0  0  0  0
   12.8693    2.0919   22.9904 H   0  0  0  0  0  0  0  0  0  0  0  0
   13.1118    1.6538   24.6958 H   0  0  0  0  0  0  0  0  0  0  0  0
    7.3965   -5.3885   24.8443 H   0  0  0  0  0  0  0  0  0  0  0  0
   11.8574   -0.3740   24.4873 H   0  0  0  0  0  0  0  0  0  0  0  0
    8.6688   -1.5655   20.3666 H   0  0  0  0  0  0  0  0  0  0  0  0
    7.4298   -1.1908   21.5994 H   0  0  0  0  0  0  0  0  0  0  0  0
   10.0940    1.1403   24.3437 H   0  0  0  0  0  0  0  0  0  0  0  0
   10.6161    1.7498   22.7367 H   0  0  0  0  0  0  0  0  0  0  0  0
    8.0657   -7.5894   28.2045 H   0  0  0  0  0  0  0  0  0  0  0  0
    9.0204   -6.2589   28.2960 H   0  0  0  0  0  0  0  0  0  0  0  0
  1  2  1  0  0  0  0
  1  5  2  0  0  0  0
  2  6  2  0  0  0  0
  3  7  2  0  0  0  0
  3  9  1  0  0  0  0
  4  8  1  0  0  0  0
  4  9  2  0  0  0  0
  5 10  1  0  0  0  0
  6 11  1  0  0  0  0
  7 12  1  0  0  0  0
  8 12  2  0  0  0  0
  9 21  1  0  0  0  0
 10 11  2  0  0  0  0
 10 25  1  0  0  0  0
 11 27  1  0  0  0  0
 12 28  1  0  0  0  0
 13 23  1  0  0  0  0
 13 28  1  0  0  0  0
 13 30  2  0  0  0  0
 14 17  1  0  0  0  0
 14 21  1  0  0  0  0
 15 18  1  0  0  0  0
 15 21  1  0  0  0  0
 16 19  1  0  0  0  0
 16 22  1  0  0  0  0
 17 29  1  0  0  0  0
 18 29  1  0  0  0  0
 19 31  1  0  0  0  0
 20 22  1  0  0  0  0
 20 31  1  0  0  0  0
 22 24  1  6  0  0  0
 23 27  1  0  0  0  0
 24 28  1  0  0  0  0
 25 26  2  0  0  0  0
 26 27  1  0  0  0  0
  1 32  1  0  0  0  0
  2 33  1  0  0  0  0
  3 34  1  0  0  0  0
  4 35  1  0  0  0  0
  5 36  1  0  0  0  0
  6 37  1  0  0  0  0
  7 38  1  0  0  0  0
  8 39  1  0  0  0  0
 14 40  1  0  0  0  0
 14 41  1  0  0  0  0
 15 42  1  0  0  0  0
 15 43  1  0  0  0  0
 16 44  1  0  0  0  0
 16 45  1  0  0  0  0
 17 46  1  0  0  0  0
 17 47  1  0  0  0  0
 18 48  1  0  0  0  0
 18 49  1  0  0  0  0
 19 50  1  0  0  0  0
 19 51  1  0  0  0  0
 20 52  1  0  0  0  0
 20 53  1  0  0  0  0
 21 54  1  0  0  0  0
 22 55  1  0  0  0  0
 23 56  1  0  0  0  0
 23 57  1  0  0  0  0
 24 58  1  0  0  0  0
 24 59  1  0  0  0  0
 29 60  1  0  0  0  0
 29 61  1  0  0  0  0
M  CHG  1  29   1
M  END
> <Protease Assay (Fluorescence) Dose-Response: IC50 (µM)>
> 99.5

> <clash_score>
0

> <docking_score>
-8.851272583007812

> <overlap_score>
0.9135972857475281

$$$$
RUT-UNI-630c5802-20_1
  -OEChem-09012022313D

 52 54  0     0  0  0  0  0  0999 V2000
    3.8860    2.1050   19.5250 C   0  0  0  0  0  0  0  0  0  0  0  0
    4.2460    1.7520   20.8250 C   0  0  0  0  0  0  0  0  0  0  0  0
    4.6610    1.7170   18.4380 C   0  0  0  0  0  0  0  0  0  0  0  0
    5.3890    1.0010   21.0690 C   0  0  0  0  0  0  0  0  0  0  0  0
   12.6870   -0.1745   22.4390 C   0  0  0  0  0  0  0  0  0  0  0  0
   13.9035   -0.6530   22.8734 C   0  0  0  0  0  0  0  0  0  0  0  0
   12.4957    0.1187   24.7368 C   0  0  0  0  0  0  0  0  0  0  0  0
   11.8714    0.2727   23.5183 C   0  0  0  0  0  0  0  0  0  0  0  0
    5.7970    0.9500   18.6730 C   0  0  0  0  0  0  0  0  0  0  0  0
    6.1460    0.6070   19.9750 C   0  0  0  0  0  0  0  0  0  0  0  0
    9.0430    0.2380   21.4940 C   0  0  0  0  0  0  0  0  0  0  0  0
    8.6876   -4.1193   26.9894 C   0  0  0  0  0  0  0  0  0  0  0  0
    7.4161   -3.6201   24.2687 C   0  0  0  0  0  0  0  0  0  0  0  0
    6.5667   -2.1196   26.0657 C   0  0  0  0  0  0  0  0  0  0  0  0
   10.4934    0.8433   23.3459 C   0  0  0  0  0  0  0  0  0  0  0  0
    8.0950   -0.7700   20.8440 C   0  0  0  0  0  0  0  0  0  0  0  0
    8.9749   -2.9163   26.0991 C   0  0  0  0  0  0  0  0  0  0  0  0
    8.1433   -1.1905   24.3545 C   0  0  0  0  0  0  0  0  0  0  0  0
    9.3391   -1.3327   23.4147 C   0  0  0  0  0  0  0  0  0  0  0  0
    7.8000   -2.4489   25.1979 C   0  0  0  0  0  0  0  0  0  0  0  0
    6.7100    0.3850   17.8100 N   0  0  0  0  0  0  0  0  0  0  0  0
    7.5840   -0.2700   18.5160 N   0  0  0  0  0  0  0  0  0  0  0  0
    7.2710   -0.1460   19.8310 N   0  0  0  0  0  0  0  0  0  0  0  0
    9.5820   -0.1080   22.7000 N   0  0  0  0  0  0  0  0  0  0  0  0
    9.2950    1.3000   20.9480 O   0  0  0  0  0  0  0  0  0  0  0  0
   14.0586   -0.5622   24.5763 S   0  0  0  0  0  0  0  0  0  0  0  0
    2.9847    2.6930   19.3611 H   0  0  0  0  0  0  0  0  0  0  0  0
    3.6232    2.0694   21.6565 H   0  0  0  0  0  0  0  0  0  0  0  0
    4.3785    2.0112   17.4257 H   0  0  0  0  0  0  0  0  0  0  0  0
    5.6780    0.7321   22.0906 H   0  0  0  0  0  0  0  0  0  0  0  0
   12.3997   -0.1488   21.3954 H   0  0  0  0  0  0  0  0  0  0  0  0
   14.7083   -1.0521   22.2724 H   0  0  0  0  0  0  0  0  0  0  0  0
   12.1119    0.3710   25.7156 H   0  0  0  0  0  0  0  0  0  0  0  0
    8.3520   -4.9822   26.4079 H   0  0  0  0  0  0  0  0  0  0  0  0
    9.6009   -4.4147   27.5170 H   0  0  0  0  0  0  0  0  0  0  0  0
    7.9316   -3.8923   27.7461 H   0  0  0  0  0  0  0  0  0  0  0  0
    8.2563   -3.9020   23.6233 H   0  0  0  0  0  0  0  0  0  0  0  0
    7.1301   -4.5068   24.8456 H   0  0  0  0  0  0  0  0  0  0  0  0
    6.5777   -3.3608   23.6138 H   0  0  0  0  0  0  0  0  0  0  0  0
    6.7648   -1.2924   26.7551 H   0  0  0  0  0  0  0  0  0  0  0  0
    6.2573   -2.9860   26.6608 H   0  0  0  0  0  0  0  0  0  0  0  0
    5.7145   -1.8249   25.4425 H   0  0  0  0  0  0  0  0  0  0  0  0
   10.0642    1.1159   24.3162 H   0  0  0  0  0  0  0  0  0  0  0  0
   10.5178    1.7514   22.7344 H   0  0  0  0  0  0  0  0  0  0  0  0
    8.6725   -1.5633   20.3681 H   0  0  0  0  0  0  0  0  0  0  0  0
    7.4349   -1.1951   21.6009 H   0  0  0  0  0  0  0  0  0  0  0  0
    9.3056   -2.0880   26.7377 H   0  0  0  0  0  0  0  0  0  0  0  0
    9.8371   -3.1635   25.4654 H   0  0  0  0  0  0  0  0  0  0  0  0
    7.2642   -0.9103   23.7568 H   0  0  0  0  0  0  0  0  0  0  0  0
    8.3182   -0.3356   25.0213 H   0  0  0  0  0  0  0  0  0  0  0  0
   10.2568   -1.5672   23.9604 H   0  0  0  0  0  0  0  0  0  0  0  0
    9.1713   -2.1092   22.6637 H   0  0  0  0  0  0  0  0  0  0  0  0
  1  2  1  0  0  0  0
  1  3  2  0  0  0  0
  2  4  2  0  0  0  0
  3  9  1  0  0  0  0
  4 10  1  0  0  0  0
  5  6  2  0  0  0  0
  5  8  1  0  0  0  0
  6 26  1  0  0  0  0
  7  8  2  0  0  0  0
  7 26  1  0  0  0  0
  8 15  1  0  0  0  0
  9 10  2  0  0  0  0
  9 21  1  0  0  0  0
 10 23  1  0  0  0  0
 11 16  1  0  0  0  0
 11 24  1  0  0  0  0
 11 25  2  0  0  0  0
 12 17  1  0  0  0  0
 13 20  1  0  0  0  0
 14 20  1  0  0  0  0
 15 24  1  0  0  0  0
 16 23  1  0  0  0  0
 17 20  1  0  0  0  0
 18 19  1  0  0  0  0
 18 20  1  0  0  0  0
 19 24  1  0  0  0  0
 21 22  2  0  0  0  0
 22 23  1  0  0  0  0
  1 27  1  0  0  0  0
  2 28  1  0  0  0  0
  3 29  1  0  0  0  0
  4 30  1  0  0  0  0
  5 31  1  0  0  0  0
  6 32  1  0  0  0  0
  7 33  1  0  0  0  0
 12 34  1  0  0  0  0
 12 35  1  0  0  0  0
 12 36  1  0  0  0  0
 13 37  1  0  0  0  0
 13 38  1  0  0  0  0
 13 39  1  0  0  0  0
 14 40  1  0  0  0  0
 14 41  1  0  0  0  0
 14 42  1  0  0  0  0
 15 43  1  0  0  0  0
 15 44  1  0  0  0  0
 16 45  1  0  0  0  0
 16 46  1  0  0  0  0
 17 47  1  0  0  0  0
 17 48  1  0  0  0  0
 18 49  1  0  0  0  0
 18 50  1  0  0  0  0
 19 51  1  0  0  0  0
 19 52  1  0  0  0  0
M  END
> <Protease Assay (Fluorescence) Dose-Response: IC50 (µM)>
78.5

> <clash_score>
0

> <docking_score>
-7.947739124298096

> <overlap_score>
0.8232547044754028

$$$$
ALP-POS-c0c213c9-3_1
  -OEChem-09012022313D

 61 65  0     0  0  0  0  0  0999 V2000
    7.0289   -7.3424   26.3448 C   0  0  0  0  0  0  0  0  0  0  0  0
    7.4373   -6.2690   27.1364 C   0  0  0  0  0  0  0  0  0  0  0  0
    7.0405   -7.2279   24.9546 C   0  0  0  0  0  0  0  0  0  0  0  0
    3.8860    2.1050   19.5250 C   0  0  0  0  0  0  0  0  0  0  0  0
    4.2460    1.7520   20.8250 C   0  0  0  0  0  0  0  0  0  0  0  0
    7.8571   -5.0811   26.5380 C   0  0  0  0  0  0  0  0  0  0  0  0
    7.4603   -6.0399   24.3562 C   0  0  0  0  0  0  0  0  0  0  0  0
    8.9102   -3.7616   23.2712 C   0  0  0  0  0  0  0  0  0  0  0  0
    8.1173   -2.5183   25.1851 C   0  0  0  0  0  0  0  0  0  0  0  0
    4.6610    1.7170   18.4380 C   0  0  0  0  0  0  0  0  0  0  0  0
    5.3890    1.0010   21.0690 C   0  0  0  0  0  0  0  0  0  0  0  0
    9.3287   -2.5733   22.6727 C   0  0  0  0  0  0  0  0  0  0  0  0
    8.5359   -1.3300   24.5865 C   0  0  0  0  0  0  0  0  0  0  0  0
    7.8686   -4.9665   25.1478 C   0  0  0  0  0  0  0  0  0  0  0  0
    8.3044   -3.7341   24.5274 C   0  0  0  0  0  0  0  0  0  0  0  0
    5.7970    0.9500   18.6730 C   0  0  0  0  0  0  0  0  0  0  0  0
    6.1460    0.6070   19.9750 C   0  0  0  0  0  0  0  0  0  0  0  0
    9.1417   -1.3575   23.3303 C   0  0  0  0  0  0  0  0  0  0  0  0
   11.8784    0.3769   22.9826 C   0  0  0  0  0  0  0  0  0  0  0  0
    9.0430    0.2380   21.4940 C   0  0  0  0  0  0  0  0  0  0  0  0
   12.7042    2.4668   24.0200 C   0  0  0  0  0  0  0  0  0  0  0  0
   14.0216    1.4853   22.1749 C   0  0  0  0  0  0  0  0  0  0  0  0
   12.7819    3.8374   23.3661 C   0  0  0  0  0  0  0  0  0  0  0  0
   14.1161    2.8475   21.5033 C   0  0  0  0  0  0  0  0  0  0  0  0
   10.4830    0.7300   23.4314 C   0  0  0  0  0  0  0  0  0  0  0  0
    8.0950   -0.7700   20.8440 C   0  0  0  0  0  0  0  0  0  0  0  0
    6.7100    0.3850   17.8100 N   0  0  0  0  0  0  0  0  0  0  0  0
    7.5840   -0.2700   18.5160 N   0  0  0  0  0  0  0  0  0  0  0  0
    7.2710   -0.1460   19.8310 N   0  0  0  0  0  0  0  0  0  0  0  0
   12.8250    1.3998   23.0231 N   0  0  0  0  0  0  0  0  0  0  0  0
    9.5820   -0.1080   22.7000 N   0  0  0  0  0  0  0  0  0  0  0  0
   14.0325    3.9133   22.5493 N   0  3  0  0  0  0  0  0  0  0  0  0
   12.1187   -0.7744   22.6101 O   0  0  0  0  0  0  0  0  0  0  0  0
    9.2950    1.3000   20.9480 O   0  0  0  0  0  0  0  0  0  0  0  0
    6.7037   -8.2678   26.8109 H   0  0  0  0  0  0  0  0  0  0  0  0
    7.4300   -6.3586   28.2187 H   0  0  0  0  0  0  0  0  0  0  0  0
    6.7240   -8.0637   24.3376 H   0  0  0  0  0  0  0  0  0  0  0  0
    2.9847    2.6930   19.3611 H   0  0  0  0  0  0  0  0  0  0  0  0
    3.6232    2.0694   21.6565 H   0  0  0  0  0  0  0  0  0  0  0  0
    8.1727   -4.2534   27.1688 H   0  0  0  0  0  0  0  0  0  0  0  0
    7.4645   -5.9655   23.2713 H   0  0  0  0  0  0  0  0  0  0  0  0
    9.0621   -4.7017   22.7460 H   0  0  0  0  0  0  0  0  0  0  0  0
    7.6458   -2.4800   26.1641 H   0  0  0  0  0  0  0  0  0  0  0  0
    4.3785    2.0112   17.4257 H   0  0  0  0  0  0  0  0  0  0  0  0
    5.6780    0.7321   22.0906 H   0  0  0  0  0  0  0  0  0  0  0  0
    9.7976   -2.6065   21.6925 H   0  0  0  0  0  0  0  0  0  0  0  0
    8.3835   -0.3878   25.1070 H   0  0  0  0  0  0  0  0  0  0  0  0
   13.5193    2.3340   24.7416 H   0  0  0  0  0  0  0  0  0  0  0  0
   11.7641    2.3755   24.5730 H   0  0  0  0  0  0  0  0  0  0  0  0
   14.0349    0.7073   21.4097 H   0  0  0  0  0  0  0  0  0  0  0  0
   14.8899    1.3145   22.8228 H   0  0  0  0  0  0  0  0  0  0  0  0
   11.9375    4.0266   22.6951 H   0  0  0  0  0  0  0  0  0  0  0  0
   12.8399    4.6359   24.1114 H   0  0  0  0  0  0  0  0  0  0  0  0
   15.0750    2.9780   20.9936 H   0  0  0  0  0  0  0  0  0  0  0  0
   13.3000    3.0177   20.7932 H   0  0  0  0  0  0  0  0  0  0  0  0
   10.3114    1.7794   23.2111 H   0  0  0  0  0  0  0  0  0  0  0  0
   10.4134    0.5456   24.4995 H   0  0  0  0  0  0  0  0  0  0  0  0
    8.6688   -1.5655   20.3666 H   0  0  0  0  0  0  0  0  0  0  0  0
    7.4298   -1.1908   21.5994 H   0  0  0  0  0  0  0  0  0  0  0  0
   14.0895    4.8372   22.0993 H   0  0  0  0  0  0  0  0  0  0  0  0
   14.8528    3.8531   23.1687 H   0  0  0  0  0  0  0  0  0  0  0  0
  1  2  1  0  0  0  0
  1  3  2  0  0  0  0
  2  6  2  0  0  0  0
  3  7  1  0  0  0  0
  4  5  1  0  0  0  0
  4 10  2  0  0  0  0
  5 11  2  0  0  0  0
  6 14  1  0  0  0  0
  7 14  2  0  0  0  0
  8 12  2  0  0  0  0
  8 15  1  0  0  0  0
  9 13  1  0  0  0  0
  9 15  2  0  0  0  0
 10 16  1  0  0  0  0
 11 17  1  0  0  0  0
 12 18  1  0  0  0  0
 13 18  2  0  0  0  0
 14 15  1  0  0  0  0
 16 17  2  0  0  0  0
 16 27  1  0  0  0  0
 17 29  1  0  0  0  0
 18 31  1  0  0  0  0
 19 25  1  0  0  0  0
 19 30  1  0  0  0  0
 19 33  2  0  0  0  0
 20 26  1  0  0  0  0
 20 31  1  0  0  0  0
 20 34  2  0  0  0  0
 21 23  1  0  0  0  0
 21 30  1  0  0  0  0
 22 24  1  0  0  0  0
 22 30  1  0  0  0  0
 23 32  1  0  0  0  0
 24 32  1  0  0  0  0
 25 31  1  0  0  0  0
 26 29  1  0  0  0  0
 27 28  2  0  0  0  0
 28 29  1  0  0  0  0
  1 35  1  0  0  0  0
  2 36  1  0  0  0  0
  3 37  1  0  0  0  0
  4 38  1  0  0  0  0
  5 39  1  0  0  0  0
  6 40  1  0  0  0  0
  7 41  1  0  0  0  0
  8 42  1  0  0  0  0
  9 43  1  0  0  0  0
 10 44  1  0  0  0  0
 11 45  1  0  0  0  0
 12 46  1  0  0  0  0
 13 47  1  0  0  0  0
 21 48  1  0  0  0  0
 21 49  1  0  0  0  0
 22 50  1  0  0  0  0
 22 51  1  0  0  0  0
 23 52  1  0  0  0  0
 23 53  1  0  0  0  0
 24 54  1  0  0  0  0
 24 55  1  0  0  0  0
 25 56  1  0  0  0  0
 25 57  1  0  0  0  0
 26 58  1  0  0  0  0
 26 59  1  0  0  0  0
 32 60  1  0  0  0  0
 32 61  1  0  0  0  0
M  CHG  1  32   1
M  END
> <Protease Assay (Fluorescence) Dose-Response: IC50 (µM)>
> 99.5

> <clash_score>
0.698103115833872

> <docking_score>
-5.124917030334473

> <overlap_score>
0.8385295271873474

$$$$
