JOH-MSK-ec6-4
 OpenBabel03242009303D

 37 39  0  0  1  0  0  0  0  0999 V2000
   10.5805   -5.1464   26.2246 C   0  0  0  0  0  0  0  0  0  0  0  0
   10.1103   -4.1165   25.3925 C   0  0  0  0  0  0  0  0  0  0  0  0
    9.6869   -6.0125   26.8573 C   0  0  0  0  0  0  0  0  0  0  0  0
    8.7400   -3.9379   25.1846 C   0  0  0  0  0  0  0  0  0  0  0  0
    7.8666   -4.8091   25.8088 C   0  0  0  0  0  0  0  0  0  0  0  0
    8.3379   -5.8250   26.6270 C   0  0  0  0  0  0  0  0  0  0  0  0
   11.5049   -1.5582   22.4241 C   0  0  0  0  0  0  0  0  0  0  0  0
    6.3877   -4.8181   25.8182 C   0  0  0  0  0  0  0  0  0  0  0  0
    7.3159   -3.1071   23.1454 C   0  0  0  0  0  0  0  0  0  0  0  0
    6.1598   -6.1976   26.4380 C   0  0  0  0  0  0  0  0  0  0  0  0
    8.2403   -2.8138   24.3073 C   0  0  2  0  0  0  0  0  0  0  0  0
    8.7325   -2.6924   22.8800 C   0  0  2  0  0  0  0  0  0  0  0  0
   13.9556   -0.9617   22.2961 C   0  0  0  0  0  0  0  0  0  0  0  0
   12.7348   -1.4555   21.5411 C   0  0  0  0  0  0  0  0  0  0  0  0
    9.0258   -1.3506   22.3032 C   0  0  0  0  0  0  0  0  0  0  0  0
   10.3348   -1.3148   21.7111 N   0  0  0  0  0  0  0  0  0  0  0  0
   11.5578   -1.8274   23.6211 O   0  0  0  0  0  0  0  0  0  0  0  0
    7.3398   -6.5853   27.1813 O   0  0  0  0  0  0  0  0  0  0  0  0
   11.6496   -5.2673   26.3771 H   0  0  0  0  0  0  0  0  0  0  0  0
   10.8287   -3.4535   24.9161 H   0  0  0  0  0  0  0  0  0  0  0  0
   10.0459   -6.8053   27.5038 H   0  0  0  0  0  0  0  0  0  0  0  0
    6.0061   -4.0262   26.4706 H   0  0  0  0  0  0  0  0  0  0  0  0
    5.9328   -4.7402   24.8275 H   0  0  0  0  0  0  0  0  0  0  0  0
    7.0464   -4.1358   22.9373 H   0  0  0  0  0  0  0  0  0  0  0  0
    6.5226   -2.3956   22.9494 H   0  0  0  0  0  0  0  0  0  0  0  0
    5.2937   -6.1993   27.1078 H   0  0  0  0  0  0  0  0  0  0  0  0
    5.9902   -6.9559   25.6625 H   0  0  0  0  0  0  0  0  0  0  0  0
    8.0506   -1.8821   24.8407 H   0  0  0  0  0  0  0  0  0  0  0  0
    9.4093   -3.4486   22.4972 H   0  0  0  0  0  0  0  0  0  0  0  0
   13.7759    0.0271   22.7310 H   0  0  0  0  0  0  0  0  0  0  0  0
   14.2067   -1.6516   23.1075 H   0  0  0  0  0  0  0  0  0  0  0  0
   14.8235   -0.8842   21.6329 H   0  0  0  0  0  0  0  0  0  0  0  0
   12.9409   -2.4448   21.1168 H   0  0  0  0  0  0  0  0  0  0  0  0
   12.5131   -0.7713   20.7143 H   0  0  0  0  0  0  0  0  0  0  0  0
    8.2768   -1.1192   21.5311 H   0  0  0  0  0  0  0  0  0  0  0  0
    8.9730   -0.5960   23.1022 H   0  0  0  0  0  0  0  0  0  0  0  0
   10.4102   -1.1000   20.7173 H   0  0  0  0  0  0  0  0  0  0  0  0
  1  2  2  0  0  0  0
  1  3  1  0  0  0  0
  1 19  1  0  0  0  0
  2  4  1  0  0  0  0
  2 20  1  0  0  0  0
  3  6  2  0  0  0  0
  3 21  1  0  0  0  0
  4  5  2  0  0  0  0
  4 11  1  0  0  0  0
  5  6  1  0  0  0  0
  5  8  1  0  0  0  0
  6 18  1  0  0  0  0
  7 14  1  0  0  0  0
  7 16  1  0  0  0  0
  7 17  2  0  0  0  0
  8 10  1  0  0  0  0
  8 22  1  0  0  0  0
  8 23  1  0  0  0  0
  9 11  1  0  0  0  0
  9 12  1  0  0  0  0
  9 24  1  0  0  0  0
  9 25  1  0  0  0  0
 10 18  1  0  0  0  0
 10 26  1  0  0  0  0
 10 27  1  0  0  0  0
 11 12  1  0  0  0  0
 11 28  1  1  0  0  0
 12 15  1  0  0  0  0
 12 29  1  6  0  0  0
 13 14  1  0  0  0  0
 13 30  1  0  0  0  0
 13 31  1  0  0  0  0
 13 32  1  0  0  0  0
 14 33  1  0  0  0  0
 14 34  1  0  0  0  0
 15 16  1  0  0  0  0
 15 35  1  0  0  0  0
 15 36  1  0  0  0  0
 16 37  1  0  0  0  0
M  END
>  <Chemgauss4 Score>
-4.76919651031494

>  <Number of Confs>
200

$$$$
