AGN-NEW-63f-1
 OpenBabel03242009303D

 48 50  0  0  1  0  0  0  0  0999 V2000
   13.8169   -1.3959   22.2052 C   0  0  0  0  0  0  0  0  0  0  0  0
    8.5141   -4.2531   26.1907 C   0  0  0  0  0  0  0  0  0  0  0  0
    6.9450   -5.9700   26.8440 C   0  0  0  0  0  0  0  0  0  0  0  0
    6.8589   -5.0392   24.6161 C   0  0  0  0  0  0  0  0  0  0  0  0
   14.0270   -0.2768   22.9948 C   0  0  0  0  0  0  0  0  0  0  0  0
   11.8439   -0.2613   23.7101 C   0  0  0  0  0  0  0  0  0  0  0  0
   12.5425   -1.9517   22.1900 C   0  0  0  0  0  0  0  0  0  0  0  0
    8.0197   -5.1356   27.1511 C   0  0  0  0  0  0  0  0  0  0  0  0
    7.9336   -4.2048   24.9233 C   0  0  0  0  0  0  0  0  0  0  0  0
   11.5314   -1.3795   22.9539 C   0  0  0  0  0  0  0  0  0  0  0  0
    6.3645   -5.9218   25.5765 C   0  0  0  0  0  0  0  0  0  0  0  0
    9.8171   -2.9118   23.9212 C   0  0  0  0  0  0  0  0  0  0  0  0
    6.4135    0.3930   18.2520 C   0  0  0  0  0  0  0  0  0  0  0  0
    6.0368    0.2071   19.5207 C   0  0  0  0  0  0  0  0  0  0  0  0
    7.0549    0.0783   20.5971 C   0  0  0  0  0  0  0  0  0  0  0  0
    7.5199   -2.8835   22.8611 C   0  0  0  0  0  0  0  0  0  0  0  0
    9.2894   -1.4965   21.8916 C   0  0  0  0  0  0  0  0  0  0  0  0
    7.8442   -1.5011   22.3390 C   0  0  1  0  0  0  0  0  0  0  0  0
   12.2878   -3.1581   21.3471 C   0  0  0  0  0  0  0  0  0  0  0  0
    8.6399   -5.1866   28.5065 C   0  0  0  0  0  0  0  0  0  0  0  0
   13.0699    0.3069   23.7503 N   0  0  0  0  0  0  0  0  0  0  0  0
    8.4461   -3.2881   23.9269 N   0  0  0  0  0  0  0  0  0  0  0  0
   10.1888   -1.9203   22.9726 N   0  0  0  0  0  0  0  0  0  0  0  0
    6.9658   -1.1398   21.2527 N   0  0  0  0  0  0  0  0  0  0  0  0
   10.6473   -3.4534   24.6605 O   0  0  0  0  0  0  0  0  0  0  0  0
    7.8626    0.9660   20.8515 O   0  0  0  0  0  0  0  0  0  0  0  0
    5.0371   -6.9498   25.1980 Cl  0  0  0  0  0  0  0  0  0  0  0  0
   14.6273   -1.8179   21.6206 H   0  0  0  0  0  0  0  0  0  0  0  0
    9.3523   -3.6032   26.4327 H   0  0  0  0  0  0  0  0  0  0  0  0
    6.5635   -6.6565   27.5965 H   0  0  0  0  0  0  0  0  0  0  0  0
    6.4080   -4.9997   23.6266 H   0  0  0  0  0  0  0  0  0  0  0  0
   15.0032    0.1946   23.0413 H   0  0  0  0  0  0  0  0  0  0  0  0
   11.0976    0.2300   24.3274 H   0  0  0  0  0  0  0  0  0  0  0  0
    5.6649    0.4850   17.4720 H   0  0  0  0  0  0  0  0  0  0  0  0
    7.4544    0.4591   17.9551 H   0  0  0  0  0  0  0  0  0  0  0  0
    4.9842    0.1471   19.7753 H   0  0  0  0  0  0  0  0  0  0  0  0
    6.4972   -2.9079   23.2580 H   0  0  0  0  0  0  0  0  0  0  0  0
    7.5981   -3.6363   22.0661 H   0  0  0  0  0  0  0  0  0  0  0  0
    9.4485   -2.1881   21.0543 H   0  0  0  0  0  0  0  0  0  0  0  0
    9.5820   -0.4902   21.5665 H   0  0  0  0  0  0  0  0  0  0  0  0
    7.6892   -0.7511   23.1236 H   0  0  0  0  0  0  0  0  0  0  0  0
   12.4778   -4.0710   21.9233 H   0  0  0  0  0  0  0  0  0  0  0  0
   11.2510   -3.1799   20.9894 H   0  0  0  0  0  0  0  0  0  0  0  0
   12.9321   -3.1644   20.4592 H   0  0  0  0  0  0  0  0  0  0  0  0
    8.1440   -4.4774   29.1803 H   0  0  0  0  0  0  0  0  0  0  0  0
    8.5639   -6.1915   28.9418 H   0  0  0  0  0  0  0  0  0  0  0  0
    9.7085   -4.9384   28.4652 H   0  0  0  0  0  0  0  0  0  0  0  0
    6.2401   -1.8031   20.9909 H   0  0  0  0  0  0  0  0  0  0  0  0
  1  5  2  0  0  0  0
  1  7  1  0  0  0  0
  1 28  1  0  0  0  0
  2  8  2  0  0  0  0
  2  9  1  0  0  0  0
  2 29  1  0  0  0  0
  3  8  1  0  0  0  0
  3 11  2  0  0  0  0
  3 30  1  0  0  0  0
  4  9  2  0  0  0  0
  4 11  1  0  0  0  0
  4 31  1  0  0  0  0
  5 21  1  0  0  0  0
  5 32  1  0  0  0  0
  6 10  1  0  0  0  0
  6 21  2  0  0  0  0
  6 33  1  0  0  0  0
  7 10  2  0  0  0  0
  7 19  1  0  0  0  0
  8 20  1  0  0  0  0
  9 22  1  0  0  0  0
 10 23  1  0  0  0  0
 11 27  1  0  0  0  0
 12 22  1  0  0  0  0
 12 23  1  0  0  0  0
 12 25  2  0  0  0  0
 13 14  2  0  0  0  0
 13 34  1  0  0  0  0
 13 35  1  0  0  0  0
 14 15  1  0  0  0  0
 14 36  1  0  0  0  0
 15 24  1  0  0  0  0
 15 26  2  0  0  0  0
 16 18  1  0  0  0  0
 16 22  1  0  0  0  0
 16 37  1  0  0  0  0
 16 38  1  0  0  0  0
 17 18  1  0  0  0  0
 17 23  1  0  0  0  0
 17 39  1  0  0  0  0
 17 40  1  0  0  0  0
 18 24  1  0  0  0  0
 18 41  1  1  0  0  0
 19 42  1  0  0  0  0
 19 43  1  0  0  0  0
 19 44  1  0  0  0  0
 20 45  1  0  0  0  0
 20 46  1  0  0  0  0
 20 47  1  0  0  0  0
 24 48  1  0  0  0  0
M  END
>  <Chemgauss4 Score>
-4.63797521591187

>  <Number of Confs>
180

$$$$
