JOH-MEM-5e3-2
 OpenBabel03242009303D

 36 37  0  0  1  0  0  0  0  0999 V2000
    7.5564   -2.5224   23.7442 C   0  0  0  0  0  0  0  0  0  0  0  0
    8.4705   -1.6077   23.2153 C   0  0  0  0  0  0  0  0  0  0  0  0
   10.3372   -2.9517   24.0023 C   0  0  0  0  0  0  0  0  0  0  0  0
    9.4213   -3.8485   24.5289 C   0  0  0  0  0  0  0  0  0  0  0  0
    8.0446   -3.6287   24.4184 C   0  0  0  0  0  0  0  0  0  0  0  0
    9.8513   -1.8193   23.3464 C   0  0  0  0  0  0  0  0  0  0  0  0
    8.5830   -2.8554   28.1696 C   0  0  0  0  0  0  0  0  0  0  0  0
    8.2273   -5.4971   25.7347 C   0  0  0  0  0  0  0  0  0  0  0  0
    9.6557   -5.1560   25.2279 C   0  0  2  0  0  0  0  0  0  0  0  0
    7.9480   -1.5069   28.0625 C   0  0  0  0  0  0  0  0  0  0  0  0
   12.1150   -1.1874   22.9830 C   0  0  0  0  0  0  0  0  0  0  0  0
   10.6797   -5.0949   26.3530 C   0  0  0  0  0  0  0  0  0  0  0  0
   10.0939   -4.5495   27.6492 C   0  0  0  0  0  0  0  0  0  0  0  0
    9.5775   -3.1973   27.4310 N   0  0  0  0  0  0  0  0  0  0  0  0
    7.3001   -4.6719   24.9649 N   0  0  0  0  0  0  0  0  0  0  0  0
    8.0129   -3.6525   29.1021 O   0  0  0  0  0  0  0  0  0  0  0  0
   10.0636   -6.1149   24.2578 O   0  0  0  0  0  0  0  0  0  0  0  0
   10.7246   -0.9172   22.8172 O   0  0  0  0  0  0  0  0  0  0  0  0
    6.4897   -2.3599   23.6279 H   0  0  0  0  0  0  0  0  0  0  0  0
    8.1033   -0.7286   22.6914 H   0  0  0  0  0  0  0  0  0  0  0  0
   11.4043   -3.1286   24.0868 H   0  0  0  0  0  0  0  0  0  0  0  0
    7.9834   -6.5570   25.6071 H   0  0  0  0  0  0  0  0  0  0  0  0
    8.1125   -5.2397   26.7948 H   0  0  0  0  0  0  0  0  0  0  0  0
    7.1402   -1.5394   27.3265 H   0  0  0  0  0  0  0  0  0  0  0  0
    7.5474   -1.2120   29.0361 H   0  0  0  0  0  0  0  0  0  0  0  0
    8.6852   -0.7642   27.7447 H   0  0  0  0  0  0  0  0  0  0  0  0
   12.6999   -0.3916   22.5154 H   0  0  0  0  0  0  0  0  0  0  0  0
   12.3573   -2.1496   22.5248 H   0  0  0  0  0  0  0  0  0  0  0  0
   12.3448   -1.2263   24.0504 H   0  0  0  0  0  0  0  0  0  0  0  0
   11.5082   -4.4501   26.0382 H   0  0  0  0  0  0  0  0  0  0  0  0
   11.0927   -6.0968   26.5188 H   0  0  0  0  0  0  0  0  0  0  0  0
    9.2711   -5.1908   27.9814 H   0  0  0  0  0  0  0  0  0  0  0  0
   10.8478   -4.5314   28.4431 H   0  0  0  0  0  0  0  0  0  0  0  0
    6.3256   -4.5631   25.2085 H   0  0  0  0  0  0  0  0  0  0  0  0
    7.2703   -3.2305   29.5684 H   0  0  0  0  0  0  0  0  0  0  0  0
   10.2079   -6.9477   24.7342 H   0  0  0  0  0  0  0  0  0  0  0  0
  1  2  2  0  0  0  0
  1  5  1  0  0  0  0
  1 19  1  0  0  0  0
  2  6  1  0  0  0  0
  2 20  1  0  0  0  0
  3  4  1  0  0  0  0
  3  6  2  0  0  0  0
  3 21  1  0  0  0  0
  4  5  2  0  0  0  0
  4  9  1  0  0  0  0
  5 15  1  0  0  0  0
  6 18  1  0  0  0  0
  7 10  1  0  0  0  0
  7 14  2  0  0  0  0
  7 16  1  0  0  0  0
  8  9  1  0  0  0  0
  8 15  1  0  0  0  0
  8 22  1  0  0  0  0
  8 23  1  0  0  0  0
  9 12  1  0  0  0  0
  9 17  1  6  0  0  0
 10 24  1  0  0  0  0
 10 25  1  0  0  0  0
 10 26  1  0  0  0  0
 11 18  1  0  0  0  0
 11 27  1  0  0  0  0
 11 28  1  0  0  0  0
 11 29  1  0  0  0  0
 12 13  1  0  0  0  0
 12 30  1  0  0  0  0
 12 31  1  0  0  0  0
 13 14  1  0  0  0  0
 13 32  1  0  0  0  0
 13 33  1  0  0  0  0
 15 34  1  0  0  0  0
 16 35  1  0  0  0  0
 17 36  1  0  0  0  0
M  END
>  <Chemgauss4 Score>
-5.71340084075928

>  <Number of Confs>
48

$$$$
