CHEMBL2104122
  -OEChem-04122014263D

 31 33  0     1  0  0  0  0  0999 V2000
   13.4806   -0.5831   24.6987 C   0  0  0  0  0  0  0  0  0  0  0  0
   13.9986   -1.4797   25.6490 C   0  0  0  0  0  0  0  0  0  0  0  0
   12.3167   -0.8847   23.9849 C   0  0  0  0  0  0  0  0  0  0  0  0
    9.6209   -2.1913   22.7031 C   0  0  0  0  0  0  0  0  0  0  0  0
   13.3632   -2.6962   25.9050 C   0  0  0  0  0  0  0  0  0  0  0  0
    8.5266   -2.9839   22.3434 C   0  0  0  0  0  0  0  0  0  0  0  0
    9.1867   -4.7201   23.9195 C   0  0  0  0  0  0  0  0  0  0  0  0
   11.6863   -2.0915   24.2385 C   0  0  0  0  0  0  0  0  0  0  0  0
   10.4890   -2.6717   23.6692 C   0  0  0  0  0  0  0  0  0  0  0  0
   12.2118   -2.9887   25.1952 C   0  0  0  0  0  0  0  0  0  0  0  0
   10.2677   -3.9309   24.2709 C   0  0  0  0  0  0  0  0  0  0  0  0
    8.3117   -4.2356   22.9456 C   0  0  0  0  0  0  0  0  0  0  0  0
    5.9446   -4.1169   22.2173 C   0  0  0  0  0  0  0  0  0  0  0  0
   11.3483   -4.2293   25.2891 C   0  0  0  0  0  0  0  0  0  0  0  0
    7.4632   -6.0358   21.4031 C   0  0  0  0  0  0  0  0  0  0  0  0
    7.1327   -5.0556   22.5378 C   0  0  1  0  0  0  0  0  0  0  0  0
    5.1275   -4.5790   21.3681 O   0  5  0  0  0  0  0  0  0  0  0  0
    5.9164   -3.0121   22.8282 O   0  0  0  0  0  0  0  0  0  0  0  0
   13.9938    0.3577   24.5168 H   0  0  0  0  0  0  0  0  0  0  0  0
   14.9051   -1.2213   26.1901 H   0  0  0  0  0  0  0  0  0  0  0  0
   11.9285   -0.1820   23.2551 H   0  0  0  0  0  0  0  0  0  0  0  0
    9.7738   -1.2276   22.2290 H   0  0  0  0  0  0  0  0  0  0  0  0
   13.7642   -3.3870   26.6382 H   0  0  0  0  0  0  0  0  0  0  0  0
    7.8361   -2.6198   21.5861 H   0  0  0  0  0  0  0  0  0  0  0  0
    9.0277   -5.6857   24.3883 H   0  0  0  0  0  0  0  0  0  0  0  0
   11.9158   -5.1195   25.0028 H   0  0  0  0  0  0  0  0  0  0  0  0
   10.9197   -4.3276   26.2907 H   0  0  0  0  0  0  0  0  0  0  0  0
    7.8156   -5.4935   20.5186 H   0  0  0  0  0  0  0  0  0  0  0  0
    8.2477   -6.7402   21.7007 H   0  0  0  0  0  0  0  0  0  0  0  0
    6.5903   -6.6261   21.1034 H   0  0  0  0  0  0  0  0  0  0  0  0
    6.7879   -5.6804   23.3838 H   0  0  0  0  0  0  0  0  0  0  0  0
  1  2  2  0  0  0  0
  1  3  1  0  0  0  0
  2  5  1  0  0  0  0
  3  8  2  0  0  0  0
  4  6  2  0  0  0  0
  4  9  1  0  0  0  0
  5 10  2  0  0  0  0
  6 12  1  0  0  0  0
  7 11  1  0  0  0  0
  7 12  2  0  0  0  0
  8  9  1  0  0  0  0
  8 10  1  0  0  0  0
  9 11  2  0  0  0  0
 10 14  1  0  0  0  0
 11 14  1  0  0  0  0
 12 16  1  0  0  0  0
 13 16  1  0  0  0  0
 13 17  1  0  0  0  0
 13 18  2  0  0  0  0
 15 16  1  0  0  0  0
  1 19  1  0  0  0  0
  2 20  1  0  0  0  0
  3 21  1  0  0  0  0
  4 22  1  0  0  0  0
  5 23  1  0  0  0  0
  6 24  1  0  0  0  0
  7 25  1  0  0  0  0
 14 26  1  0  0  0  0
 14 27  1  0  0  0  0
 15 28  1  0  0  0  0
 15 29  1  0  0  0  0
 15 30  1  0  0  0  0
 16 31  1  0  0  0  0
M  CHG  1  17  -1
M  END
> <Hybrid2>
-11.519580

> <docked_fragment>
x0749

> <Mpro-_dock>
0.509349

> <site>
active-covalent

$$$$
CHEMBL1387
  -OEChem-04122014263D

 48 51  0     1  0  0  0  0  0999 V2000
    4.7848   -3.1464   23.4247 C   0  0  0  0  0  0  0  0  0  0  0  0
    5.5398   -3.6141   22.6171 C   0  0  0  0  0  0  0  0  0  0  0  0
   12.9383   -2.7383   25.9825 C   0  0  0  0  0  0  0  0  0  0  0  0
   11.9230   -3.1166   25.1901 C   0  0  0  0  0  0  0  0  0  0  0  0
   13.7586   -1.5496   25.6476 C   0  0  0  0  0  0  0  0  0  0  0  0
   11.0441   -4.2792   25.5817 C   0  0  0  0  0  0  0  0  0  0  0  0
   13.3863   -0.7230   24.4386 C   0  0  0  0  0  0  0  0  0  0  0  0
   10.4882   -5.0495   24.3853 C   0  0  0  0  0  0  0  0  0  0  0  0
   11.9181   -0.8864   24.0617 C   0  0  0  0  0  0  0  0  0  0  0  0
    7.9907   -5.8633   22.6527 C   0  0  0  0  0  0  0  0  0  0  0  0
    9.5234   -1.7627   22.4170 C   0  0  0  0  0  0  0  0  0  0  0  0
    6.6595   -5.7066   21.8873 C   0  0  0  0  0  0  0  0  0  0  0  0
    8.0757   -2.1285   22.0347 C   0  0  0  0  0  0  0  0  0  0  0  0
   11.5577   -2.3697   23.9173 C   0  0  2  0  0  0  0  0  0  0  0  0
    9.9073   -4.1570   23.2677 C   0  0  2  0  0  0  0  0  0  0  0  0
   10.0731   -2.6340   23.5679 C   0  0  2  0  0  0  0  0  0  0  0  0
    8.4319   -4.4338   22.9601 C   0  0  1  0  0  0  0  0  0  0  0  0
    6.4686   -4.1894   21.6243 C   0  0  2  0  0  0  0  0  0  0  0  0
    7.9198   -3.6325   21.7367 C   0  0  1  0  0  0  0  0  0  0  0  0
    8.6900   -3.9433   20.4171 C   0  0  0  0  0  0  0  0  0  0  0  0
   14.7434   -1.2778   26.3327 O   0  0  0  0  0  0  0  0  0  0  0  0
    5.9251   -3.9747   20.3287 O   0  0  0  0  0  0  0  0  0  0  0  0
    4.1148   -2.7314   24.1410 H   0  0  0  0  0  0  0  0  0  0  0  0
   13.2432   -3.3177   26.8476 H   0  0  0  0  0  0  0  0  0  0  0  0
   11.6377   -4.9650   26.2072 H   0  0  0  0  0  0  0  0  0  0  0  0
   10.2015   -3.9496   26.2095 H   0  0  0  0  0  0  0  0  0  0  0  0
   13.5871    0.3375   24.6631 H   0  0  0  0  0  0  0  0  0  0  0  0
   14.0448   -1.0127   23.6028 H   0  0  0  0  0  0  0  0  0  0  0  0
   11.2992   -5.6868   23.9731 H   0  0  0  0  0  0  0  0  0  0  0  0
    9.7110   -5.7654   24.7337 H   0  0  0  0  0  0  0  0  0  0  0  0
   11.3049   -0.4233   24.8354 H   0  0  0  0  0  0  0  0  0  0  0  0
   11.7421   -0.3561   23.1282 H   0  0  0  0  0  0  0  0  0  0  0  0
    7.8538   -6.4507   23.5663 H   0  0  0  0  0  0  0  0  0  0  0  0
    8.7260   -6.3859   22.0311 H   0  0  0  0  0  0  0  0  0  0  0  0
   10.1735   -1.8437   21.5433 H   0  0  0  0  0  0  0  0  0  0  0  0
    9.5249   -0.7101   22.7099 H   0  0  0  0  0  0  0  0  0  0  0  0
    6.7039   -6.2808   20.9541 H   0  0  0  0  0  0  0  0  0  0  0  0
    5.8332   -6.1313   22.4704 H   0  0  0  0  0  0  0  0  0  0  0  0
    7.4311   -1.8300   22.8699 H   0  0  0  0  0  0  0  0  0  0  0  0
    7.7607   -1.5305   21.1716 H   0  0  0  0  0  0  0  0  0  0  0  0
   12.1931   -2.8058   23.1255 H   0  0  0  0  0  0  0  0  0  0  0  0
   10.5017   -4.3872   22.3418 H   0  0  0  0  0  0  0  0  0  0  0  0
    9.4725   -2.4227   24.4574 H   0  0  0  0  0  0  0  0  0  0  0  0
    7.8642   -4.1179   23.8497 H   0  0  0  0  0  0  0  0  0  0  0  0
    8.5845   -4.9954   20.2031 H   0  0  0  0  0  0  0  0  0  0  0  0
    9.7280   -3.6875   20.5626 H   0  0  0  0  0  0  0  0  0  0  0  0
    8.2595   -3.3495   19.6259 H   0  0  0  0  0  0  0  0  0  0  0  0
    5.0636   -4.4225   20.3073 H   0  0  0  0  0  0  0  0  0  0  0  0
  1  2  3  0  0  0  0
  2 18  1  0  0  0  0
  3  4  2  0  0  0  0
  3  5  1  0  0  0  0
  4  6  1  0  0  0  0
  4 14  1  0  0  0  0
  5  7  1  0  0  0  0
  5 21  2  0  0  0  0
  6  8  1  0  0  0  0
  7  9  1  0  0  0  0
  8 15  1  0  0  0  0
  9 14  1  0  0  0  0
 10 12  1  0  0  0  0
 10 17  1  0  0  0  0
 11 13  1  0  0  0  0
 11 16  1  0  0  0  0
 12 18  1  0  0  0  0
 13 19  1  0  0  0  0
 14 16  1  0  0  0  0
 15 16  1  0  0  0  0
 15 17  1  0  0  0  0
 17 19  1  0  0  0  0
 18 19  1  0  0  0  0
 18 22  1  0  0  0  0
 19 20  1  0  0  0  0
  1 23  1  0  0  0  0
  3 24  1  0  0  0  0
  6 25  1  0  0  0  0
  6 26  1  0  0  0  0
  7 27  1  0  0  0  0
  7 28  1  0  0  0  0
  8 29  1  0  0  0  0
  8 30  1  0  0  0  0
  9 31  1  0  0  0  0
  9 32  1  0  0  0  0
 10 33  1  0  0  0  0
 10 34  1  0  0  0  0
 11 35  1  0  0  0  0
 11 36  1  0  0  0  0
 12 37  1  0  0  0  0
 12 38  1  0  0  0  0
 13 39  1  0  0  0  0
 13 40  1  0  0  0  0
 14 41  1  0  0  0  0
 15 42  1  0  0  0  0
 16 43  1  0  0  0  0
 17 44  1  0  0  0  0
 20 45  1  0  0  0  0
 20 46  1  0  0  0  0
 20 47  1  0  0  0  0
 22 48  1  0  0  0  0
M  END
> <Hybrid2>
-10.580162

> <docked_fragment>
x0749

> <Mpro-_dock>
2.706928

> <site>
active-covalent

$$$$
CHEMBL275835
  -OEChem-04122014263D

 48 49  0     0  0  0  0  0  0999 V2000
    7.9074   -1.4813   21.8577 C   0  0  0  0  0  0  0  0  0  0  0  0
    8.8038    0.7592   21.9737 C   0  0  0  0  0  0  0  0  0  0  0  0
    8.1265   -0.2359   21.2690 C   0  0  0  0  0  0  0  0  0  0  0  0
    8.3656   -1.7315   23.1512 C   0  0  0  0  0  0  0  0  0  0  0  0
    9.2620    0.5090   23.2672 C   0  0  0  0  0  0  0  0  0  0  0  0
    9.0428   -0.7364   23.8560 C   0  0  0  0  0  0  0  0  0  0  0  0
    6.4598    0.5500   19.6504 C   0  0  0  0  0  0  0  0  0  0  0  0
    6.0091    0.7999   18.2654 C   0  0  0  0  0  0  0  0  0  0  0  0
    4.2013    1.5316   19.5675 C   0  0  0  0  0  0  0  0  0  0  0  0
    7.6470    0.0249   19.9209 C   0  0  0  0  0  0  0  0  0  0  0  0
    7.3520   -4.0084   22.7847 C   0  0  0  0  0  0  0  0  0  0  0  0
    7.2746   -2.9502   25.0673 C   0  0  0  0  0  0  0  0  0  0  0  0
    9.4083   -3.8624   24.1748 C   0  0  0  0  0  0  0  0  0  0  0  0
   10.1029    2.8803   23.1425 C   0  0  0  0  0  0  0  0  0  0  0  0
   11.4289    1.1397   24.3869 C   0  0  0  0  0  0  0  0  0  0  0  0
    9.3199    2.0401   25.3476 C   0  0  0  0  0  0  0  0  0  0  0  0
    8.1158   -3.1112   23.7825 C   0  0  0  0  0  0  0  0  0  0  0  0
    9.9842    1.5872   24.0061 C   0  0  0  0  0  0  0  0  0  0  0  0
    4.6996    1.3642   18.3463 N   0  0  0  0  0  0  0  0  0  0  0  0
    3.0114    2.0362   19.8468 N   0  3  0  0  0  0  0  0  0  0  0  0
    6.5828    0.5920   17.2150 O   0  0  0  0  0  0  0  0  0  0  0  0
    9.4908   -0.9810   25.1207 O   0  0  0  0  0  0  0  0  0  0  0  0
    5.2813    1.0141   20.8325 S   0  0  0  0  0  0  0  0  0  0  0  0
    7.3793   -2.2612   21.3127 H   0  0  0  0  0  0  0  0  0  0  0  0
    8.9766    1.7328   21.5191 H   0  0  0  0  0  0  0  0  0  0  0  0
    8.3192   -0.2029   19.1099 H   0  0  0  0  0  0  0  0  0  0  0  0
    7.1608   -5.0001   23.2111 H   0  0  0  0  0  0  0  0  0  0  0  0
    6.3797   -3.5864   22.5078 H   0  0  0  0  0  0  0  0  0  0  0  0
    7.9255   -4.1475   21.8605 H   0  0  0  0  0  0  0  0  0  0  0  0
    7.0713   -3.9109   25.5529 H   0  0  0  0  0  0  0  0  0  0  0  0
    7.7922   -2.3230   25.8027 H   0  0  0  0  0  0  0  0  0  0  0  0
    6.3081   -2.4805   24.8497 H   0  0  0  0  0  0  0  0  0  0  0  0
    9.1786   -4.8383   24.6195 H   0  0  0  0  0  0  0  0  0  0  0  0
   10.0473   -4.0485   23.3036 H   0  0  0  0  0  0  0  0  0  0  0  0
    9.9926   -3.3017   24.9136 H   0  0  0  0  0  0  0  0  0  0  0  0
   10.6300    3.6887   23.6625 H   0  0  0  0  0  0  0  0  0  0  0  0
   10.6463    2.6922   22.2099 H   0  0  0  0  0  0  0  0  0  0  0  0
    9.1064    3.2503   22.8737 H   0  0  0  0  0  0  0  0  0  0  0  0
   11.9636    1.9270   24.9293 H   0  0  0  0  0  0  0  0  0  0  0  0
   11.4407    0.2474   25.0238 H   0  0  0  0  0  0  0  0  0  0  0  0
   12.0066    0.9121   23.4832 H   0  0  0  0  0  0  0  0  0  0  0  0
    9.8864    2.8321   25.8521 H   0  0  0  0  0  0  0  0  0  0  0  0
    8.3102    2.4291   25.1717 H   0  0  0  0  0  0  0  0  0  0  0  0
    9.2454    1.2010   26.0492 H   0  0  0  0  0  0  0  0  0  0  0  0
    4.1775    1.6235   17.5162 H   0  0  0  0  0  0  0  0  0  0  0  0
    2.7112    2.1281   20.8075 H   0  0  0  0  0  0  0  0  0  0  0  0
    2.3970    2.3320   19.1009 H   0  0  0  0  0  0  0  0  0  0  0  0
    9.9381   -0.1966   25.4737 H   0  0  0  0  0  0  0  0  0  0  0  0
  1  3  2  0  0  0  0
  1  4  1  0  0  0  0
  2  3  1  0  0  0  0
  2  5  2  0  0  0  0
  3 10  1  0  0  0  0
  4  6  2  0  0  0  0
  4 17  1  0  0  0  0
  5  6  1  0  0  0  0
  5 18  1  0  0  0  0
  6 22  1  0  0  0  0
  7  8  1  0  0  0  0
  7 10  2  0  0  0  0
  7 23  1  0  0  0  0
  8 19  1  0  0  0  0
  8 21  2  0  0  0  0
  9 19  1  0  0  0  0
  9 20  2  0  0  0  0
  9 23  1  0  0  0  0
 11 17  1  0  0  0  0
 12 17  1  0  0  0  0
 13 17  1  0  0  0  0
 14 18  1  0  0  0  0
 15 18  1  0  0  0  0
 16 18  1  0  0  0  0
  1 24  1  0  0  0  0
  2 25  1  0  0  0  0
 10 26  1  0  0  0  0
 11 27  1  0  0  0  0
 11 28  1  0  0  0  0
 11 29  1  0  0  0  0
 12 30  1  0  0  0  0
 12 31  1  0  0  0  0
 12 32  1  0  0  0  0
 13 33  1  0  0  0  0
 13 34  1  0  0  0  0
 13 35  1  0  0  0  0
 14 36  1  0  0  0  0
 14 37  1  0  0  0  0
 14 38  1  0  0  0  0
 15 39  1  0  0  0  0
 15 40  1  0  0  0  0
 15 41  1  0  0  0  0
 16 42  1  0  0  0  0
 16 43  1  0  0  0  0
 16 44  1  0  0  0  0
 19 45  1  0  0  0  0
 20 46  1  0  0  0  0
 20 47  1  0  0  0  0
 22 48  1  0  0  0  0
M  CHG  1  20   1
M  END
> <Hybrid2>
-10.557229

> <docked_fragment>
x0107

> <Mpro-_dock>
1.80183

> <site>
active-noncovalent

$$$$
CHEMBL2104104
  -OEChem-04122014263D

 49 52  0     1  0  0  0  0  0999 V2000
    4.5896   -3.7924   23.4738 C   0  0  0  0  0  0  0  0  0  0  0  0
    5.4430   -4.1779   22.7228 C   0  0  0  0  0  0  0  0  0  0  0  0
   11.6124   -4.2620   25.3578 C   0  0  0  0  0  0  0  0  0  0  0  0
   12.0579   -3.0428   25.0098 C   0  0  0  0  0  0  0  0  0  0  0  0
   10.3375   -4.8588   24.8474 C   0  0  0  0  0  0  0  0  0  0  0  0
   13.4018   -2.5417   25.4756 C   0  0  0  0  0  0  0  0  0  0  0  0
   13.2998   -1.1473   26.0839 C   0  0  0  0  0  0  0  0  0  0  0  0
   12.6191   -0.1783   25.1236 C   0  0  0  0  0  0  0  0  0  0  0  0
   11.2355   -0.6827   24.7156 C   0  0  0  0  0  0  0  0  0  0  0  0
    8.1650   -6.0813   22.9546 C   0  0  0  0  0  0  0  0  0  0  0  0
    9.1567   -1.8258   22.6635 C   0  0  0  0  0  0  0  0  0  0  0  0
    6.8651   -6.1228   22.1249 C   0  0  0  0  0  0  0  0  0  0  0  0
    7.7870   -2.3898   22.2446 C   0  0  0  0  0  0  0  0  0  0  0  0
   11.2678   -2.1035   24.1102 C   0  0  2  0  0  0  0  0  0  0  0  0
    9.8173   -4.1414   23.5918 C   0  0  2  0  0  0  0  0  0  0  0  0
    9.8206   -2.6067   23.8249 C   0  0  2  0  0  0  0  0  0  0  0  0
    8.4025   -4.5986   23.2272 C   0  0  1  0  0  0  0  0  0  0  0  0
    6.4929   -4.6519   21.7995 C   0  0  2  0  0  0  0  0  0  0  0  0
    7.8500   -3.9029   21.9641 C   0  0  1  0  0  0  0  0  0  0  0  0
    8.7234   -4.1312   20.6953 C   0  0  0  0  0  0  0  0  0  0  0  0
    5.9981   -4.5478   20.4710 O   0  0  0  0  0  0  0  0  0  0  0  0
    3.8324   -3.4505   24.1400 H   0  0  0  0  0  0  0  0  0  0  0  0
   12.2065   -4.8864   26.0199 H   0  0  0  0  0  0  0  0  0  0  0  0
   10.5163   -5.9142   24.6098 H   0  0  0  0  0  0  0  0  0  0  0  0
    9.5928   -4.8322   25.6521 H   0  0  0  0  0  0  0  0  0  0  0  0
   13.8506   -3.2205   26.2104 H   0  0  0  0  0  0  0  0  0  0  0  0
   14.0817   -2.5156   24.6146 H   0  0  0  0  0  0  0  0  0  0  0  0
   12.7352   -1.1917   27.0238 H   0  0  0  0  0  0  0  0  0  0  0  0
   14.3022   -0.7786   26.3296 H   0  0  0  0  0  0  0  0  0  0  0  0
   12.5264    0.8054   25.5975 H   0  0  0  0  0  0  0  0  0  0  0  0
   13.2402   -0.0464   24.2292 H   0  0  0  0  0  0  0  0  0  0  0  0
   10.5802   -0.6685   25.5964 H   0  0  0  0  0  0  0  0  0  0  0  0
   10.8130    0.0269   23.9958 H   0  0  0  0  0  0  0  0  0  0  0  0
    8.0615   -6.6530   23.8828 H   0  0  0  0  0  0  0  0  0  0  0  0
    8.9916   -6.5226   22.3866 H   0  0  0  0  0  0  0  0  0  0  0  0
    9.8291   -1.8026   21.7984 H   0  0  0  0  0  0  0  0  0  0  0  0
    9.0095   -0.7801   22.9575 H   0  0  0  0  0  0  0  0  0  0  0  0
    7.0301   -6.7129   21.2154 H   0  0  0  0  0  0  0  0  0  0  0  0
    6.0726   -6.6353   22.6839 H   0  0  0  0  0  0  0  0  0  0  0  0
    7.0805   -2.1737   23.0552 H   0  0  0  0  0  0  0  0  0  0  0  0
    7.4206   -1.8502   21.3631 H   0  0  0  0  0  0  0  0  0  0  0  0
   11.8110   -2.0548   23.1557 H   0  0  0  0  0  0  0  0  0  0  0  0
   10.5052   -4.3785   22.7698 H   0  0  0  0  0  0  0  0  0  0  0  0
    9.2101   -2.4141   24.7209 H   0  0  0  0  0  0  0  0  0  0  0  0
    7.7617   -4.3350   24.0843 H   0  0  0  0  0  0  0  0  0  0  0  0
    8.7667   -5.1914   20.4999 H   0  0  0  0  0  0  0  0  0  0  0  0
    9.7102   -3.7401   20.8882 H   0  0  0  0  0  0  0  0  0  0  0  0
    8.2635   -3.6113   19.8692 H   0  0  0  0  0  0  0  0  0  0  0  0
    5.7919   -3.6108   20.3202 H   0  0  0  0  0  0  0  0  0  0  0  0
  1  2  3  0  0  0  0
  2 18  1  0  0  0  0
  3  4  2  0  0  0  0
  3  5  1  0  0  0  0
  4  6  1  0  0  0  0
  4 14  1  0  0  0  0
  5 15  1  0  0  0  0
  6  7  1  0  0  0  0
  7  8  1  0  0  0  0
  8  9  1  0  0  0  0
  9 14  1  0  0  0  0
 10 12  1  0  0  0  0
 10 17  1  0  0  0  0
 11 13  1  0  0  0  0
 11 16  1  0  0  0  0
 12 18  1  0  0  0  0
 13 19  1  0  0  0  0
 14 16  1  0  0  0  0
 15 16  1  0  0  0  0
 15 17  1  0  0  0  0
 17 19  1  0  0  0  0
 18 19  1  0  0  0  0
 18 21  1  0  0  0  0
 19 20  1  0  0  0  0
  1 22  1  0  0  0  0
  3 23  1  0  0  0  0
  5 24  1  0  0  0  0
  5 25  1  0  0  0  0
  6 26  1  0  0  0  0
  6 27  1  0  0  0  0
  7 28  1  0  0  0  0
  7 29  1  0  0  0  0
  8 30  1  0  0  0  0
  8 31  1  0  0  0  0
  9 32  1  0  0  0  0
  9 33  1  0  0  0  0
 10 34  1  0  0  0  0
 10 35  1  0  0  0  0
 11 36  1  0  0  0  0
 11 37  1  0  0  0  0
 12 38  1  0  0  0  0
 12 39  1  0  0  0  0
 13 40  1  0  0  0  0
 13 41  1  0  0  0  0
 14 42  1  0  0  0  0
 15 43  1  0  0  0  0
 16 44  1  0  0  0  0
 17 45  1  0  0  0  0
 20 46  1  0  0  0  0
 20 47  1  0  0  0  0
 20 48  1  0  0  0  0
 21 49  1  0  0  0  0
M  END
> <Hybrid2>
-10.480992

> <docked_fragment>
x0749

> <Mpro-_dock>
3.7917

> <site>
active-covalent

$$$$
CHEMBL2104231
  -OEChem-04122014263D

 51 54  0     1  0  0  0  0  0999 V2000
   12.6751   -0.6795   24.9565 C   0  0  0  0  0  0  0  0  0  0  0  0
   11.7104   -1.3799   24.3347 C   0  0  0  0  0  0  0  0  0  0  0  0
   11.3162   -2.7348   24.7536 C   0  0  0  0  0  0  0  0  0  0  0  0
   10.1892   -3.3209   24.2776 C   0  0  0  0  0  0  0  0  0  0  0  0
   13.3393   -1.2002   26.1757 C   0  0  0  0  0  0  0  0  0  0  0  0
    5.3320   -5.6505   23.0127 C   0  0  0  0  0  0  0  0  0  0  0  0
   11.0148   -0.7548   23.1463 C   0  0  0  0  0  0  0  0  0  0  0  0
   12.3251   -3.4157   25.6556 C   0  0  0  0  0  0  0  0  0  0  0  0
    9.8000   -4.7681   24.5585 C   0  0  0  0  0  0  0  0  0  0  0  0
   12.8224   -2.4910   26.7587 C   0  0  0  0  0  0  0  0  0  0  0  0
   10.1861   -1.7463   22.3320 C   0  0  0  0  0  0  0  0  0  0  0  0
    8.2924   -5.0833   24.5702 C   0  0  0  0  0  0  0  0  0  0  0  0
    7.4881   -3.0600   21.4421 C   0  0  0  0  0  0  0  0  0  0  0  0
    6.4275   -4.1678   21.2981 C   0  0  0  0  0  0  0  0  0  0  0  0
    9.3071   -2.5706   23.2759 C   0  0  1  0  0  0  0  0  0  0  0  0
    8.4181   -3.5697   22.5363 C   0  0  1  0  0  0  0  0  0  0  0  0
    6.6524   -5.1725   22.4670 C   0  0  1  0  0  0  0  0  0  0  0  0
    7.4689   -4.3280   23.5026 C   0  0  1  0  0  0  0  0  0  0  0  0
    5.3860   -6.6294   24.1542 C   0  0  0  0  0  0  0  0  0  0  0  0
    7.3618   -6.4338   21.9407 C   0  0  0  0  0  0  0  0  0  0  0  0
    6.5180   -3.3570   24.2744 C   0  0  0  0  0  0  0  0  0  0  0  0
   14.2328   -0.5521   26.7154 O   0  0  0  0  0  0  0  0  0  0  0  0
    4.2623   -5.2583   22.5491 O   0  0  0  0  0  0  0  0  0  0  0  0
   13.0273    0.2747   24.5736 H   0  0  0  0  0  0  0  0  0  0  0  0
   10.3634    0.0772   23.5014 H   0  0  0  0  0  0  0  0  0  0  0  0
   11.7502   -0.2648   22.4676 H   0  0  0  0  0  0  0  0  0  0  0  0
   11.8429   -4.2959   26.1063 H   0  0  0  0  0  0  0  0  0  0  0  0
   13.2016   -3.7893   25.1205 H   0  0  0  0  0  0  0  0  0  0  0  0
   10.2606   -5.4732   23.8438 H   0  0  0  0  0  0  0  0  0  0  0  0
   10.2466   -5.0557   25.5320 H   0  0  0  0  0  0  0  0  0  0  0  0
   13.6291   -2.9575   27.3329 H   0  0  0  0  0  0  0  0  0  0  0  0
   11.9960   -2.2608   27.4383 H   0  0  0  0  0  0  0  0  0  0  0  0
    9.5664   -1.2006   21.6195 H   0  0  0  0  0  0  0  0  0  0  0  0
   10.8571   -2.3903   21.7587 H   0  0  0  0  0  0  0  0  0  0  0  0
    8.1837   -6.1776   24.4365 H   0  0  0  0  0  0  0  0  0  0  0  0
    7.8817   -4.8755   25.5783 H   0  0  0  0  0  0  0  0  0  0  0  0
    8.0159   -2.8945   20.4977 H   0  0  0  0  0  0  0  0  0  0  0  0
    7.0159   -2.1131   21.7257 H   0  0  0  0  0  0  0  0  0  0  0  0
    5.4282   -3.7182   21.3129 H   0  0  0  0  0  0  0  0  0  0  0  0
    6.5337   -4.6590   20.3238 H   0  0  0  0  0  0  0  0  0  0  0  0
    8.7121   -1.8587   23.8546 H   0  0  0  0  0  0  0  0  0  0  0  0
    9.0913   -4.2984   22.0715 H   0  0  0  0  0  0  0  0  0  0  0  0
    5.3934   -6.0879   25.1043 H   0  0  0  0  0  0  0  0  0  0  0  0
    6.2978   -7.2273   24.0812 H   0  0  0  0  0  0  0  0  0  0  0  0
    4.5066   -7.2771   24.1234 H   0  0  0  0  0  0  0  0  0  0  0  0
    8.3271   -6.1564   21.5307 H   0  0  0  0  0  0  0  0  0  0  0  0
    6.7532   -6.8896   21.1668 H   0  0  0  0  0  0  0  0  0  0  0  0
    7.4991   -7.1340   22.7580 H   0  0  0  0  0  0  0  0  0  0  0  0
    5.9292   -2.8149   23.5513 H   0  0  0  0  0  0  0  0  0  0  0  0
    7.1249   -2.6803   24.8549 H   0  0  0  0  0  0  0  0  0  0  0  0
    5.8832   -3.9460   24.9174 H   0  0  0  0  0  0  0  0  0  0  0  0
  1  2  2  0  0  0  0
  1  5  1  0  0  0  0
  2  3  1  0  0  0  0
  2  7  1  0  0  0  0
  3  4  2  0  0  0  0
  3  8  1  0  0  0  0
  4  9  1  0  0  0  0
  4 15  1  0  0  0  0
  5 10  1  0  0  0  0
  5 22  2  0  0  0  0
  6 17  1  0  0  0  0
  6 19  1  0  0  0  0
  6 23  2  0  0  0  0
  7 11  1  0  0  0  0
  8 10  1  0  0  0  0
  9 12  1  0  0  0  0
 11 15  1  0  0  0  0
 12 18  1  0  0  0  0
 13 14  1  0  0  0  0
 13 16  1  0  0  0  0
 14 17  1  0  0  0  0
 15 16  1  0  0  0  0
 16 18  1  0  0  0  0
 17 18  1  0  0  0  0
 17 20  1  0  0  0  0
 18 21  1  0  0  0  0
  1 24  1  0  0  0  0
  7 25  1  0  0  0  0
  7 26  1  0  0  0  0
  8 27  1  0  0  0  0
  8 28  1  0  0  0  0
  9 29  1  0  0  0  0
  9 30  1  0  0  0  0
 10 31  1  0  0  0  0
 10 32  1  0  0  0  0
 11 33  1  0  0  0  0
 11 34  1  0  0  0  0
 12 35  1  0  0  0  0
 12 36  1  0  0  0  0
 13 37  1  0  0  0  0
 13 38  1  0  0  0  0
 14 39  1  0  0  0  0
 14 40  1  0  0  0  0
 15 41  1  0  0  0  0
 16 42  1  0  0  0  0
 19 43  1  0  0  0  0
 19 44  1  0  0  0  0
 19 45  1  0  0  0  0
 20 46  1  0  0  0  0
 20 47  1  0  0  0  0
 20 48  1  0  0  0  0
 21 49  1  0  0  0  0
 21 50  1  0  0  0  0
 21 51  1  0  0  0  0
M  END
> <Hybrid2>
-10.430775

> <docked_fragment>
x0749

> <Mpro-_dock>
4.230903

> <site>
active-covalent

$$$$
DB00890
  -OEChem-04122014263D

 38 39  0     0  0  0  0  0  0999 V2000
   11.1320   -1.3416   25.6106 C   0  0  0  0  0  0  0  0  0  0  0  0
   12.5301   -2.3396   23.9116 C   0  0  0  0  0  0  0  0  0  0  0  0
    7.1390   -4.4105   23.9014 C   0  0  0  0  0  0  0  0  0  0  0  0
    8.6367   -5.3026   22.2287 C   0  0  0  0  0  0  0  0  0  0  0  0
   12.2646   -0.8220   26.2374 C   0  0  0  0  0  0  0  0  0  0  0  0
   13.6627   -1.8199   24.5384 C   0  0  0  0  0  0  0  0  0  0  0  0
    6.0522   -4.9600   23.2213 C   0  0  0  0  0  0  0  0  0  0  0  0
    7.5499   -5.8521   21.5486 C   0  0  0  0  0  0  0  0  0  0  0  0
   11.2648   -2.1005   24.4477 C   0  0  0  0  0  0  0  0  0  0  0  0
    8.4313   -4.5818   23.4051 C   0  0  0  0  0  0  0  0  0  0  0  0
   13.5299   -1.0611   25.7013 C   0  0  0  0  0  0  0  0  0  0  0  0
    6.2576   -5.6808   22.0449 C   0  0  0  0  0  0  0  0  0  0  0  0
    9.4793   -1.8731   22.8449 C   0  0  0  0  0  0  0  0  0  0  0  0
   10.1684   -4.7771   25.0646 C   0  0  0  0  0  0  0  0  0  0  0  0
   10.0612   -2.6526   23.7817 C   0  0  0  0  0  0  0  0  0  0  0  0
    9.5862   -3.9978   24.1278 C   0  0  0  0  0  0  0  0  0  0  0  0
    8.2642   -2.1822   22.0266 C   0  0  0  0  0  0  0  0  0  0  0  0
   11.3400   -4.4390   25.9334 C   0  0  0  0  0  0  0  0  0  0  0  0
   14.6351   -0.5541   26.3129 O   0  0  0  0  0  0  0  0  0  0  0  0
    5.1971   -6.2169   21.3813 O   0  0  0  0  0  0  0  0  0  0  0  0
   10.1525   -1.1466   26.0405 H   0  0  0  0  0  0  0  0  0  0  0  0
   12.6497   -2.9291   23.0058 H   0  0  0  0  0  0  0  0  0  0  0  0
    6.9628   -3.8513   24.8172 H   0  0  0  0  0  0  0  0  0  0  0  0
    9.6381   -5.4446   21.8293 H   0  0  0  0  0  0  0  0  0  0  0  0
   12.1549   -0.2317   27.1431 H   0  0  0  0  0  0  0  0  0  0  0  0
   14.6457   -2.0096   24.1160 H   0  0  0  0  0  0  0  0  0  0  0  0
    5.0478   -4.8232   23.6128 H   0  0  0  0  0  0  0  0  0  0  0  0
    7.7162   -6.4126   20.6326 H   0  0  0  0  0  0  0  0  0  0  0  0
    9.9216   -0.9029   22.6180 H   0  0  0  0  0  0  0  0  0  0  0  0
    9.7787   -5.7815   25.2309 H   0  0  0  0  0  0  0  0  0  0  0  0
    8.5643   -2.6974   21.1085 H   0  0  0  0  0  0  0  0  0  0  0  0
    7.5420   -2.8213   22.5401 H   0  0  0  0  0  0  0  0  0  0  0  0
    7.7607   -1.2520   21.7464 H   0  0  0  0  0  0  0  0  0  0  0  0
   12.2687   -4.7227   25.4288 H   0  0  0  0  0  0  0  0  0  0  0  0
   11.3639   -3.3588   26.1096 H   0  0  0  0  0  0  0  0  0  0  0  0
   11.3168   -4.9299   26.9093 H   0  0  0  0  0  0  0  0  0  0  0  0
   15.4350   -0.8048   25.8238 H   0  0  0  0  0  0  0  0  0  0  0  0
    4.3707   -6.0133   21.8476 H   0  0  0  0  0  0  0  0  0  0  0  0
  1  5  2  0  0  0  0
  1  9  1  0  0  0  0
  2  6  1  0  0  0  0
  2  9  2  0  0  0  0
  3  7  2  0  0  0  0
  3 10  1  0  0  0  0
  4  8  1  0  0  0  0
  4 10  2  0  0  0  0
  5 11  1  0  0  0  0
  6 11  2  0  0  0  0
  7 12  1  0  0  0  0
  8 12  2  0  0  0  0
  9 15  1  0  0  0  0
 10 16  1  0  0  0  0
 11 19  1  0  0  0  0
 12 20  1  0  0  0  0
 13 15  2  0  0  0  0
 13 17  1  0  0  0  0
 14 16  2  0  0  0  0
 14 18  1  0  0  0  0
 15 16  1  0  0  0  0
  1 21  1  0  0  0  0
  2 22  1  0  0  0  0
  3 23  1  0  0  0  0
  4 24  1  0  0  0  0
  5 25  1  0  0  0  0
  6 26  1  0  0  0  0
  7 27  1  0  0  0  0
  8 28  1  0  0  0  0
 13 29  1  0  0  0  0
 14 30  1  0  0  0  0
 17 31  1  0  0  0  0
 17 32  1  0  0  0  0
 17 33  1  0  0  0  0
 18 34  1  0  0  0  0
 18 35  1  0  0  0  0
 18 36  1  0  0  0  0
 19 37  1  0  0  0  0
 20 38  1  0  0  0  0
M  END
> <Hybrid2>
-10.425714

> <docked_fragment>
x0749

> <Mpro-_dock>
1.563855

> <site>
active-covalent

$$$$
CHEMBL2105261
  -OEChem-04122014263D

 49 52  0     1  0  0  0  0  0999 V2000
    5.2236   -4.3112   24.7305 C   0  0  0  0  0  0  0  0  0  0  0  0
    6.2054   -3.6540   24.5172 C   0  0  0  0  0  0  0  0  0  0  0  0
    7.7131   -5.9803   22.9201 C   0  0  0  0  0  0  0  0  0  0  0  0
    8.3596   -5.0393   23.6285 C   0  0  0  0  0  0  0  0  0  0  0  0
    6.8364   -5.6228   21.7814 C   0  0  0  0  0  0  0  0  0  0  0  0
   13.4405   -1.0016   24.6770 C   0  0  0  0  0  0  0  0  0  0  0  0
    9.1396   -5.4441   24.8573 C   0  0  0  0  0  0  0  0  0  0  0  0
    6.5726   -4.1640   21.5186 C   0  0  0  0  0  0  0  0  0  0  0  0
   14.1072   -2.1225   25.4565 C   0  0  0  0  0  0  0  0  0  0  0  0
   10.5546   -4.8798   24.8519 C   0  0  0  0  0  0  0  0  0  0  0  0
    7.8079   -3.3368   21.8380 C   0  0  0  0  0  0  0  0  0  0  0  0
   12.9391   -3.0701   25.7676 C   0  0  0  0  0  0  0  0  0  0  0  0
    9.9025   -1.4438   23.0646 C   0  0  0  0  0  0  0  0  0  0  0  0
   11.3273   -0.8728   23.1874 C   0  0  0  0  0  0  0  0  0  0  0  0
   10.5421   -3.3558   24.6851 C   0  0  1  0  0  0  0  0  0  0  0  0
   11.9601   -2.7806   24.6350 C   0  0  1  0  0  0  0  0  0  0  0  0
    9.8065   -2.9676   23.3618 C   0  0  1  0  0  0  0  0  0  0  0  0
    8.3402   -3.5438   23.2859 C   0  0  2  0  0  0  0  0  0  0  0  0
   11.9490   -1.2422   24.5298 C   0  0  1  0  0  0  0  0  0  0  0  0
   11.2668   -0.4926   25.6891 C   0  0  0  0  0  0  0  0  0  0  0  0
    7.3883   -2.8348   24.2757 C   0  0  0  0  0  0  0  0  0  0  0  0
    6.2915   -6.5088   21.1261 O   0  0  0  0  0  0  0  0  0  0  0  0
   14.0340   -0.0200   24.2504 O   0  0  0  0  0  0  0  0  0  0  0  0
    4.3525   -4.8939   24.9194 H   0  0  0  0  0  0  0  0  0  0  0  0
    7.7605   -7.0311   23.1860 H   0  0  0  0  0  0  0  0  0  0  0  0
    8.6069   -5.0895   25.7484 H   0  0  0  0  0  0  0  0  0  0  0  0
    9.1985   -6.5356   24.9502 H   0  0  0  0  0  0  0  0  0  0  0  0
    6.3230   -4.0417   20.4589 H   0  0  0  0  0  0  0  0  0  0  0  0
    5.7075   -3.8502   22.1109 H   0  0  0  0  0  0  0  0  0  0  0  0
   14.8472   -2.6079   24.8137 H   0  0  0  0  0  0  0  0  0  0  0  0
   14.5721   -1.7439   26.3692 H   0  0  0  0  0  0  0  0  0  0  0  0
   11.0445   -5.1524   25.7938 H   0  0  0  0  0  0  0  0  0  0  0  0
   11.1355   -5.3443   24.0447 H   0  0  0  0  0  0  0  0  0  0  0  0
    8.5925   -3.6082   21.1176 H   0  0  0  0  0  0  0  0  0  0  0  0
    7.5743   -2.2806   21.6580 H   0  0  0  0  0  0  0  0  0  0  0  0
   13.2731   -4.1123   25.7798 H   0  0  0  0  0  0  0  0  0  0  0  0
   12.5018   -2.8483   26.7471 H   0  0  0  0  0  0  0  0  0  0  0  0
    9.2435   -0.8872   23.7386 H   0  0  0  0  0  0  0  0  0  0  0  0
    9.5489   -1.2380   22.0483 H   0  0  0  0  0  0  0  0  0  0  0  0
   11.9437   -1.2576   22.3643 H   0  0  0  0  0  0  0  0  0  0  0  0
   11.3004    0.2162   23.0586 H   0  0  0  0  0  0  0  0  0  0  0  0
   10.0108   -2.9310   25.5440 H   0  0  0  0  0  0  0  0  0  0  0  0
   12.4345   -3.1907   23.7263 H   0  0  0  0  0  0  0  0  0  0  0  0
   10.3725   -3.4569   22.5519 H   0  0  0  0  0  0  0  0  0  0  0  0
   10.1938   -0.6368   25.6245 H   0  0  0  0  0  0  0  0  0  0  0  0
   11.4996    0.5641   25.6163 H   0  0  0  0  0  0  0  0  0  0  0  0
   11.6332   -0.8847   26.6316 H   0  0  0  0  0  0  0  0  0  0  0  0
    7.1146   -1.8726   23.8500 H   0  0  0  0  0  0  0  0  0  0  0  0
    7.9335   -2.6574   25.1996 H   0  0  0  0  0  0  0  0  0  0  0  0
  1  2  3  0  0  0  0
  2 21  1  0  0  0  0
  3  4  2  0  0  0  0
  3  5  1  0  0  0  0
  4  7  1  0  0  0  0
  4 18  1  0  0  0  0
  5  8  1  0  0  0  0
  5 22  2  0  0  0  0
  6  9  1  0  0  0  0
  6 19  1  0  0  0  0
  6 23  2  0  0  0  0
  7 10  1  0  0  0  0
  8 11  1  0  0  0  0
  9 12  1  0  0  0  0
 10 15  1  0  0  0  0
 11 18  1  0  0  0  0
 12 16  1  0  0  0  0
 13 14  1  0  0  0  0
 13 17  1  0  0  0  0
 14 19  1  0  0  0  0
 15 16  1  0  0  0  0
 15 17  1  0  0  0  0
 16 19  1  0  0  0  0
 17 18  1  0  0  0  0
 18 21  1  0  0  0  0
 19 20  1  0  0  0  0
  1 24  1  0  0  0  0
  3 25  1  0  0  0  0
  7 26  1  0  0  0  0
  7 27  1  0  0  0  0
  8 28  1  0  0  0  0
  8 29  1  0  0  0  0
  9 30  1  0  0  0  0
  9 31  1  0  0  0  0
 10 32  1  0  0  0  0
 10 33  1  0  0  0  0
 11 34  1  0  0  0  0
 11 35  1  0  0  0  0
 12 36  1  0  0  0  0
 12 37  1  0  0  0  0
 13 38  1  0  0  0  0
 13 39  1  0  0  0  0
 14 40  1  0  0  0  0
 14 41  1  0  0  0  0
 15 42  1  0  0  0  0
 16 43  1  0  0  0  0
 17 44  1  0  0  0  0
 20 45  1  0  0  0  0
 20 46  1  0  0  0  0
 20 47  1  0  0  0  0
 21 48  1  0  0  0  0
 21 49  1  0  0  0  0
M  END
> <Hybrid2>
-10.381376

> <docked_fragment>
x0749

> <Mpro-_dock>
1.010473

> <site>
active-covalent

$$$$
CHEMBL1162
  -OEChem-04122014263D

 48 51  0     1  0  0  0  0  0999 V2000
    4.7989   -2.5678   23.5382 C   0  0  0  0  0  0  0  0  0  0  0  0
    5.5080   -3.2813   22.8831 C   0  0  0  0  0  0  0  0  0  0  0  0
   12.9767   -2.4075   26.0299 C   0  0  0  0  0  0  0  0  0  0  0  0
   12.1712   -2.9795   25.1207 C   0  0  0  0  0  0  0  0  0  0  0  0
   13.5443   -1.0601   25.7943 C   0  0  0  0  0  0  0  0  0  0  0  0
   11.7429   -4.4152   25.2962 C   0  0  0  0  0  0  0  0  0  0  0  0
   13.3644   -0.4535   24.4272 C   0  0  0  0  0  0  0  0  0  0  0  0
   10.2459   -4.6045   25.0790 C   0  0  0  0  0  0  0  0  0  0  0  0
   11.9762   -0.7646   23.8960 C   0  0  0  0  0  0  0  0  0  0  0  0
    7.7494   -5.6562   23.5108 C   0  0  0  0  0  0  0  0  0  0  0  0
    9.6384   -1.8894   22.3225 C   0  0  0  0  0  0  0  0  0  0  0  0
    6.4356   -5.5764   22.7061 C   0  0  0  0  0  0  0  0  0  0  0  0
    8.1617   -2.2074   22.0234 C   0  0  0  0  0  0  0  0  0  0  0  0
   11.6788   -2.2781   23.8613 C   0  0  2  0  0  0  0  0  0  0  0  0
    9.8204   -4.0476   23.7143 C   0  0  2  0  0  0  0  0  0  0  0  0
   10.1559   -2.5293   23.6358 C   0  0  2  0  0  0  0  0  0  0  0  0
    8.3225   -4.2419   23.4609 C   0  0  1  0  0  0  0  0  0  0  0  0
    6.3801   -4.1591   22.0779 C   0  0  2  0  0  0  0  0  0  0  0  0
    7.8754   -3.7190   22.0774 C   0  0  1  0  0  0  0  0  0  0  0  0
    8.6130   -4.3987   20.8857 C   0  0  0  0  0  0  0  0  0  0  0  0
   14.2064   -0.5092   26.6708 O   0  0  0  0  0  0  0  0  0  0  0  0
    5.8541   -4.2210   20.7589 O   0  0  0  0  0  0  0  0  0  0  0  0
    4.1698   -1.9347   24.1192 H   0  0  0  0  0  0  0  0  0  0  0  0
   13.2991   -2.9282   26.9249 H   0  0  0  0  0  0  0  0  0  0  0  0
   12.2939   -5.0303   24.5732 H   0  0  0  0  0  0  0  0  0  0  0  0
   12.0065   -4.7926   26.2917 H   0  0  0  0  0  0  0  0  0  0  0  0
   13.4907    0.6318   24.5040 H   0  0  0  0  0  0  0  0  0  0  0  0
   14.1428   -0.8461   23.7643 H   0  0  0  0  0  0  0  0  0  0  0  0
   10.0148   -5.6741   25.1422 H   0  0  0  0  0  0  0  0  0  0  0  0
    9.6870   -4.1084   25.8830 H   0  0  0  0  0  0  0  0  0  0  0  0
   11.2343   -0.2566   24.5272 H   0  0  0  0  0  0  0  0  0  0  0  0
   11.8851   -0.3391   22.8901 H   0  0  0  0  0  0  0  0  0  0  0  0
    7.5628   -5.9825   24.5392 H   0  0  0  0  0  0  0  0  0  0  0  0
    8.4306   -6.3825   23.0532 H   0  0  0  0  0  0  0  0  0  0  0  0
   10.2684   -2.2049   21.4832 H   0  0  0  0  0  0  0  0  0  0  0  0
    9.7314   -0.7986   22.3781 H   0  0  0  0  0  0  0  0  0  0  0  0
    6.4251   -6.3628   21.9419 H   0  0  0  0  0  0  0  0  0  0  0  0
    5.5765   -5.7718   23.3595 H   0  0  0  0  0  0  0  0  0  0  0  0
    7.5544   -1.6706   22.7622 H   0  0  0  0  0  0  0  0  0  0  0  0
    7.8879   -1.7986   21.0433 H   0  0  0  0  0  0  0  0  0  0  0  0
   12.2307   -2.7145   23.0166 H   0  0  0  0  0  0  0  0  0  0  0  0
   10.3960   -4.5833   22.9496 H   0  0  0  0  0  0  0  0  0  0  0  0
    9.6142   -2.0345   24.4573 H   0  0  0  0  0  0  0  0  0  0  0  0
    7.7995   -3.6694   24.2437 H   0  0  0  0  0  0  0  0  0  0  0  0
    8.4126   -5.4581   20.9233 H   0  0  0  0  0  0  0  0  0  0  0  0
    9.6699   -4.2082   20.9886 H   0  0  0  0  0  0  0  0  0  0  0  0
    8.2376   -3.9733   19.9681 H   0  0  0  0  0  0  0  0  0  0  0  0
    6.4418   -4.8019   20.2487 H   0  0  0  0  0  0  0  0  0  0  0  0
  1  2  3  0  0  0  0
  2 18  1  0  0  0  0
  3  4  2  0  0  0  0
  3  5  1  0  0  0  0
  4  6  1  0  0  0  0
  4 14  1  0  0  0  0
  5  7  1  0  0  0  0
  5 21  2  0  0  0  0
  6  8  1  0  0  0  0
  7  9  1  0  0  0  0
  8 15  1  0  0  0  0
  9 14  1  0  0  0  0
 10 12  1  0  0  0  0
 10 17  1  0  0  0  0
 11 13  1  0  0  0  0
 11 16  1  0  0  0  0
 12 18  1  0  0  0  0
 13 19  1  0  0  0  0
 14 16  1  0  0  0  0
 15 16  1  0  0  0  0
 15 17  1  0  0  0  0
 17 19  1  0  0  0  0
 18 19  1  0  0  0  0
 18 22  1  0  0  0  0
 19 20  1  0  0  0  0
  1 23  1  0  0  0  0
  3 24  1  0  0  0  0
  6 25  1  0  0  0  0
  6 26  1  0  0  0  0
  7 27  1  0  0  0  0
  7 28  1  0  0  0  0
  8 29  1  0  0  0  0
  8 30  1  0  0  0  0
  9 31  1  0  0  0  0
  9 32  1  0  0  0  0
 10 33  1  0  0  0  0
 10 34  1  0  0  0  0
 11 35  1  0  0  0  0
 11 36  1  0  0  0  0
 12 37  1  0  0  0  0
 12 38  1  0  0  0  0
 13 39  1  0  0  0  0
 13 40  1  0  0  0  0
 14 41  1  0  0  0  0
 15 42  1  0  0  0  0
 16 43  1  0  0  0  0
 17 44  1  0  0  0  0
 20 45  1  0  0  0  0
 20 46  1  0  0  0  0
 20 47  1  0  0  0  0
 22 48  1  0  0  0  0
M  END
> <Hybrid2>
-10.277848

> <docked_fragment>
x0749

> <Mpro-_dock>
4.152064

> <site>
active-covalent

$$$$
CHEMBL2105009
  -OEChem-04122014263D

 32 33  0     1  0  0  0  0  0999 V2000
   13.5629   -1.4929   22.4284 C   0  0  0  0  0  0  0  0  0  0  0  0
   12.4529   -1.5206   23.2866 C   0  0  0  0  0  0  0  0  0  0  0  0
   14.1705   -0.2819   22.0903 C   0  0  0  0  0  0  0  0  0  0  0  0
   11.9351   -0.3377   23.8178 C   0  0  0  0  0  0  0  0  0  0  0  0
   13.6431    0.8874   22.6131 C   0  0  0  0  0  0  0  0  0  0  0  0
   12.5372    0.8599   23.4676 C   0  0  0  0  0  0  0  0  0  0  0  0
   14.1442    2.2861   22.4186 C   0  0  0  0  0  0  0  0  0  0  0  0
   12.1790    2.2372   23.9368 C   0  0  0  0  0  0  0  0  0  0  0  0
   12.9470    3.1208   22.9269 C   0  0  0  0  0  0  0  0  0  0  0  0
   10.9869    5.2546   23.8729 C   0  0  0  0  0  0  0  0  0  0  0  0
   12.3558    5.5526   23.2761 C   0  0  0  0  0  0  0  0  0  0  0  0
   13.3866    4.4495   23.5299 C   0  0  2  0  0  0  0  0  0  0  0  0
   14.6903    4.8230   22.9140 N   0  3  0  0  0  0  0  0  0  0  0  0
   12.0951    3.3990   21.8097 O   0  0  0  0  0  0  0  0  0  0  0  0
   13.9562   -2.4237   22.0287 H   0  0  0  0  0  0  0  0  0  0  0  0
   11.9959   -2.4726   23.5427 H   0  0  0  0  0  0  0  0  0  0  0  0
   15.0348   -0.2634   21.4349 H   0  0  0  0  0  0  0  0  0  0  0  0
   11.0832   -0.3625   24.4888 H   0  0  0  0  0  0  0  0  0  0  0  0
   15.0388    2.4329   23.0333 H   0  0  0  0  0  0  0  0  0  0  0  0
   14.3677    2.4828   21.3653 H   0  0  0  0  0  0  0  0  0  0  0  0
   11.0976    2.3991   23.8938 H   0  0  0  0  0  0  0  0  0  0  0  0
   12.5448    2.3709   24.9606 H   0  0  0  0  0  0  0  0  0  0  0  0
   11.0531    5.1149   24.9565 H   0  0  0  0  0  0  0  0  0  0  0  0
   10.5806    4.3359   23.4377 H   0  0  0  0  0  0  0  0  0  0  0  0
   10.2743    6.0593   23.6697 H   0  0  0  0  0  0  0  0  0  0  0  0
   12.2347    5.6836   22.1935 H   0  0  0  0  0  0  0  0  0  0  0  0
   12.7169    6.5109   23.6699 H   0  0  0  0  0  0  0  0  0  0  0  0
   13.5756    4.3293   24.6017 H   0  0  0  0  0  0  0  0  0  0  0  0
   15.0249    5.7143   23.2896 H   0  0  0  0  0  0  0  0  0  0  0  0
   14.5955    4.9177   21.8991 H   0  0  0  0  0  0  0  0  0  0  0  0
   15.3977    4.1083   23.1051 H   0  0  0  0  0  0  0  0  0  0  0  0
   11.8130    2.5396   21.4656 H   0  0  0  0  0  0  0  0  0  0  0  0
  1  2  1  0  0  0  0
  1  3  2  0  0  0  0
  2  4  2  0  0  0  0
  3  5  1  0  0  0  0
  4  6  1  0  0  0  0
  5  6  2  0  0  0  0
  5  7  1  0  0  0  0
  6  8  1  0  0  0  0
  7  9  1  0  0  0  0
  8  9  1  0  0  0  0
  9 12  1  0  0  0  0
  9 14  1  0  0  0  0
 10 11  1  0  0  0  0
 11 12  1  0  0  0  0
 12 13  1  0  0  0  0
  1 15  1  0  0  0  0
  2 16  1  0  0  0  0
  3 17  1  0  0  0  0
  4 18  1  0  0  0  0
  7 19  1  0  0  0  0
  7 20  1  0  0  0  0
  8 21  1  0  0  0  0
  8 22  1  0  0  0  0
 10 23  1  0  0  0  0
 10 24  1  0  0  0  0
 10 25  1  0  0  0  0
 11 26  1  0  0  0  0
 11 27  1  0  0  0  0
 12 28  1  0  0  0  0
 13 29  1  0  0  0  0
 13 30  1  0  0  0  0
 13 31  1  0  0  0  0
 14 32  1  0  0  0  0
M  CHG  1  13   1
M  END
> <Hybrid2>
-10.159410

> <docked_fragment>
x0195

> <Mpro-_dock>
-0.287531

> <site>
active-noncovalent

$$$$
CHEMBL2107431
  -OEChem-04122014263D

 49 52  0     1  0  0  0  0  0999 V2000
    8.3410   -6.7938   20.4404 C   0  0  0  0  0  0  0  0  0  0  0  0
    7.7243   -6.2053   21.2856 C   0  0  0  0  0  0  0  0  0  0  0  0
   13.1861   -0.9839   24.1578 C   0  0  0  0  0  0  0  0  0  0  0  0
   11.9800   -1.5371   23.9390 C   0  0  0  0  0  0  0  0  0  0  0  0
   14.0912   -1.3678   25.2898 C   0  0  0  0  0  0  0  0  0  0  0  0
   11.1791   -1.1855   22.7095 C   0  0  0  0  0  0  0  0  0  0  0  0
   13.4541   -2.3229   26.2981 C   0  0  0  0  0  0  0  0  0  0  0  0
    9.6725   -1.3652   22.8914 C   0  0  0  0  0  0  0  0  0  0  0  0
   12.5332   -3.3354   25.6180 C   0  0  0  0  0  0  0  0  0  0  0  0
    7.1296   -3.0190   22.0292 C   0  0  0  0  0  0  0  0  0  0  0  0
   10.0445   -4.8222   24.7637 C   0  0  0  0  0  0  0  0  0  0  0  0
    6.2590   -4.2507   21.6996 C   0  0  0  0  0  0  0  0  0  0  0  0
    9.0710   -5.6679   23.9181 C   0  0  0  0  0  0  0  0  0  0  0  0
   11.4124   -2.6083   24.8574 C   0  0  2  0  0  0  0  0  0  0  0  0
    9.2626   -2.6990   23.5527 C   0  0  2  0  0  0  0  0  0  0  0  0
   10.4893   -3.5362   24.0351 C   0  0  2  0  0  0  0  0  0  0  0  0
    8.3902   -3.5965   22.6686 C   0  0  1  0  0  0  0  0  0  0  0  0
    6.9664   -5.4814   22.3252 C   0  0  2  0  0  0  0  0  0  0  0  0
    7.8646   -4.8428   23.4273 C   0  0  1  0  0  0  0  0  0  0  0  0
    6.9843   -4.4971   24.6670 C   0  0  0  0  0  0  0  0  0  0  0  0
    5.9924   -6.3656   22.8630 O   0  0  0  0  0  0  0  0  0  0  0  0
    8.8880   -7.3160   19.6905 H   0  0  0  0  0  0  0  0  0  0  0  0
   13.5396   -0.1840   23.5101 H   0  0  0  0  0  0  0  0  0  0  0  0
   15.0061   -1.8181   24.8693 H   0  0  0  0  0  0  0  0  0  0  0  0
   14.4130   -0.4568   25.8207 H   0  0  0  0  0  0  0  0  0  0  0  0
   11.3900   -0.1339   22.4479 H   0  0  0  0  0  0  0  0  0  0  0  0
   11.5037   -1.7802   21.8385 H   0  0  0  0  0  0  0  0  0  0  0  0
   14.2425   -2.8493   26.8558 H   0  0  0  0  0  0  0  0  0  0  0  0
   12.8784   -1.7494   27.0416 H   0  0  0  0  0  0  0  0  0  0  0  0
    9.2899   -0.5149   23.4946 H   0  0  0  0  0  0  0  0  0  0  0  0
    9.1665   -1.2675   21.9055 H   0  0  0  0  0  0  0  0  0  0  0  0
   13.1253   -3.9477   24.9380 H   0  0  0  0  0  0  0  0  0  0  0  0
   12.1103   -3.9887   26.3786 H   0  0  0  0  0  0  0  0  0  0  0  0
    7.3598   -2.4452   21.1259 H   0  0  0  0  0  0  0  0  0  0  0  0
    6.5988   -2.3532   22.7185 H   0  0  0  0  0  0  0  0  0  0  0  0
    9.5867   -4.5707   25.7216 H   0  0  0  0  0  0  0  0  0  0  0  0
   10.9115   -5.4477   24.9853 H   0  0  0  0  0  0  0  0  0  0  0  0
    5.2517   -4.1069   22.1084 H   0  0  0  0  0  0  0  0  0  0  0  0
    6.1383   -4.3515   20.6140 H   0  0  0  0  0  0  0  0  0  0  0  0
    9.6379   -6.0688   23.0695 H   0  0  0  0  0  0  0  0  0  0  0  0
    8.7336   -6.5330   24.5011 H   0  0  0  0  0  0  0  0  0  0  0  0
   10.7974   -2.0647   25.5965 H   0  0  0  0  0  0  0  0  0  0  0  0
    8.6630   -2.4244   24.4636 H   0  0  0  0  0  0  0  0  0  0  0  0
   11.0330   -3.8411   23.1323 H   0  0  0  0  0  0  0  0  0  0  0  0
    9.0321   -3.9355   21.8405 H   0  0  0  0  0  0  0  0  0  0  0  0
    6.1376   -3.9193   24.3308 H   0  0  0  0  0  0  0  0  0  0  0  0
    7.5833   -3.9258   25.3591 H   0  0  0  0  0  0  0  0  0  0  0  0
    6.6584   -5.4209   25.1193 H   0  0  0  0  0  0  0  0  0  0  0  0
    5.5072   -5.8699   23.5427 H   0  0  0  0  0  0  0  0  0  0  0  0
  1  2  3  0  0  0  0
  2 18  1  0  0  0  0
  3  4  2  0  0  0  0
  3  5  1  0  0  0  0
  4  6  1  0  0  0  0
  4 14  1  0  0  0  0
  5  7  1  0  0  0  0
  6  8  1  0  0  0  0
  7  9  1  0  0  0  0
  8 15  1  0  0  0  0
  9 14  1  0  0  0  0
 10 12  1  0  0  0  0
 10 17  1  0  0  0  0
 11 13  1  0  0  0  0
 11 16  1  0  0  0  0
 12 18  1  0  0  0  0
 13 19  1  0  0  0  0
 14 16  1  0  0  0  0
 15 16  1  0  0  0  0
 15 17  1  0  0  0  0
 17 19  1  0  0  0  0
 18 19  1  0  0  0  0
 18 21  1  0  0  0  0
 19 20  1  0  0  0  0
  1 22  1  0  0  0  0
  3 23  1  0  0  0  0
  5 24  1  0  0  0  0
  5 25  1  0  0  0  0
  6 26  1  0  0  0  0
  6 27  1  0  0  0  0
  7 28  1  0  0  0  0
  7 29  1  0  0  0  0
  8 30  1  0  0  0  0
  8 31  1  0  0  0  0
  9 32  1  0  0  0  0
  9 33  1  0  0  0  0
 10 34  1  0  0  0  0
 10 35  1  0  0  0  0
 11 36  1  0  0  0  0
 11 37  1  0  0  0  0
 12 38  1  0  0  0  0
 12 39  1  0  0  0  0
 13 40  1  0  0  0  0
 13 41  1  0  0  0  0
 14 42  1  0  0  0  0
 15 43  1  0  0  0  0
 16 44  1  0  0  0  0
 17 45  1  0  0  0  0
 20 46  1  0  0  0  0
 20 47  1  0  0  0  0
 20 48  1  0  0  0  0
 21 49  1  0  0  0  0
M  END
> <Hybrid2>
-10.147342

> <docked_fragment>
x0749

> <Mpro-_dock>
2.565622

> <site>
active-covalent

$$$$
CHEMBL1908319
  -OEChem-04122014263D

 44 47  0     1  0  0  0  0  0999 V2000
    4.6022   -2.9178   23.8459 C   0  0  0  0  0  0  0  0  0  0  0  0
    5.3068   -3.4279   23.0187 C   0  0  0  0  0  0  0  0  0  0  0  0
    8.8886   -1.6326   23.0885 C   0  0  0  0  0  0  0  0  0  0  0  0
   12.9131   -2.5778   25.8586 C   0  0  0  0  0  0  0  0  0  0  0  0
    7.8680   -2.0597   22.3223 C   0  0  0  0  0  0  0  0  0  0  0  0
    9.8785   -2.5155   23.7286 C   0  0  0  0  0  0  0  0  0  0  0  0
   11.8400   -2.9866   25.1592 C   0  0  0  0  0  0  0  0  0  0  0  0
   10.8974   -2.0598   24.5048 C   0  0  0  0  0  0  0  0  0  0  0  0
   13.2962   -1.1494   25.9105 C   0  0  0  0  0  0  0  0  0  0  0  0
   11.5996   -4.4724   25.0358 C   0  0  0  0  0  0  0  0  0  0  0  0
   11.1256   -0.5926   24.8328 C   0  0  0  0  0  0  0  0  0  0  0  0
   12.5950   -0.2162   24.9624 C   0  0  0  0  0  0  0  0  0  0  0  0
   10.1456   -4.8141   24.7493 C   0  0  0  0  0  0  0  0  0  0  0  0
    7.7129   -5.7370   22.9988 C   0  0  0  0  0  0  0  0  0  0  0  0
    6.3441   -5.5713   22.3046 C   0  0  0  0  0  0  0  0  0  0  0  0
    9.6573   -4.0281   23.5277 C   0  0  1  0  0  0  0  0  0  0  0  0
    8.1737   -4.3083   23.2629 C   0  0  1  0  0  0  0  0  0  0  0  0
    6.1744   -4.0557   22.0011 C   0  0  2  0  0  0  0  0  0  0  0  0
    7.6380   -3.5225   22.0412 C   0  0  1  0  0  0  0  0  0  0  0  0
    8.3766   -3.8311   20.7125 C   0  0  0  0  0  0  0  0  0  0  0  0
   14.2095   -0.7782   26.6430 O   0  0  0  0  0  0  0  0  0  0  0  0
    5.5535   -3.8637   20.7377 O   0  0  0  0  0  0  0  0  0  0  0  0
    3.9769   -2.4652   24.5796 H   0  0  0  0  0  0  0  0  0  0  0  0
    8.9689   -0.5609   23.2358 H   0  0  0  0  0  0  0  0  0  0  0  0
   13.5091   -3.2669   26.4487 H   0  0  0  0  0  0  0  0  0  0  0  0
    7.2170   -1.3337   21.8480 H   0  0  0  0  0  0  0  0  0  0  0  0
   12.2486   -4.8769   24.2314 H   0  0  0  0  0  0  0  0  0  0  0  0
   11.9140   -5.0032   25.9578 H   0  0  0  0  0  0  0  0  0  0  0  0
   10.6673    0.0072   24.0288 H   0  0  0  0  0  0  0  0  0  0  0  0
   10.6311   -0.2808   25.7607 H   0  0  0  0  0  0  0  0  0  0  0  0
   12.7109    0.8076   25.3343 H   0  0  0  0  0  0  0  0  0  0  0  0
   13.0750   -0.2861   23.9808 H   0  0  0  0  0  0  0  0  0  0  0  0
   10.0524   -5.8927   24.5645 H   0  0  0  0  0  0  0  0  0  0  0  0
    9.5243   -4.5887   25.6289 H   0  0  0  0  0  0  0  0  0  0  0  0
    7.6209   -6.3149   23.9257 H   0  0  0  0  0  0  0  0  0  0  0  0
    8.4129   -6.2728   22.3464 H   0  0  0  0  0  0  0  0  0  0  0  0
    6.3213   -6.1774   21.3917 H   0  0  0  0  0  0  0  0  0  0  0  0
    5.5432   -5.9502   22.9504 H   0  0  0  0  0  0  0  0  0  0  0  0
   10.2633   -4.3501   22.6870 H   0  0  0  0  0  0  0  0  0  0  0  0
    7.6389   -3.9909   24.1731 H   0  0  0  0  0  0  0  0  0  0  0  0
    8.2345   -4.8753   20.4760 H   0  0  0  0  0  0  0  0  0  0  0  0
    9.4262   -3.6142   20.8456 H   0  0  0  0  0  0  0  0  0  0  0  0
    7.9583   -3.2083   19.9354 H   0  0  0  0  0  0  0  0  0  0  0  0
    4.6840   -4.2935   20.7840 H   0  0  0  0  0  0  0  0  0  0  0  0
  1  2  3  0  0  0  0
  2 18  1  0  0  0  0
  3  5  2  0  0  0  0
  3  6  1  0  0  0  0
  4  7  2  0  0  0  0
  4  9  1  0  0  0  0
  5 19  1  0  0  0  0
  6  8  2  0  0  0  0
  6 16  1  0  0  0  0
  7  8  1  0  0  0  0
  7 10  1  0  0  0  0
  8 11  1  0  0  0  0
  9 12  1  0  0  0  0
  9 21  2  0  0  0  0
 10 13  1  0  0  0  0
 11 12  1  0  0  0  0
 13 16  1  0  0  0  0
 14 15  1  0  0  0  0
 14 17  1  0  0  0  0
 15 18  1  0  0  0  0
 16 17  1  0  0  0  0
 17 19  1  0  0  0  0
 18 19  1  0  0  0  0
 18 22  1  0  0  0  0
 19 20  1  0  0  0  0
  1 23  1  0  0  0  0
  3 24  1  0  0  0  0
  4 25  1  0  0  0  0
  5 26  1  0  0  0  0
 10 27  1  0  0  0  0
 10 28  1  0  0  0  0
 11 29  1  0  0  0  0
 11 30  1  0  0  0  0
 12 31  1  0  0  0  0
 12 32  1  0  0  0  0
 13 33  1  0  0  0  0
 13 34  1  0  0  0  0
 14 35  1  0  0  0  0
 14 36  1  0  0  0  0
 15 37  1  0  0  0  0
 15 38  1  0  0  0  0
 16 39  1  0  0  0  0
 17 40  1  0  0  0  0
 20 41  1  0  0  0  0
 20 42  1  0  0  0  0
 20 43  1  0  0  0  0
 22 44  1  0  0  0  0
M  END
> <Hybrid2>
-10.117355

> <docked_fragment>
x0749

> <Mpro-_dock>
4.953166

> <site>
active-covalent

$$$$
CHEMBL2106828
  -OEChem-04122014263D

 50 53  0     1  0  0  0  0  0999 V2000
   12.7574   -2.4116   26.2210 C   0  0  0  0  0  0  0  0  0  0  0  0
   11.7617   -2.7985   25.4081 C   0  0  0  0  0  0  0  0  0  0  0  0
   13.4443   -1.1142   26.0132 C   0  0  0  0  0  0  0  0  0  0  0  0
    5.2065   -4.2712   24.0576 C   0  0  0  0  0  0  0  0  0  0  0  0
    5.3158   -3.6516   22.8776 C   0  0  0  0  0  0  0  0  0  0  0  0
   11.0149   -4.0821   25.6769 C   0  0  0  0  0  0  0  0  0  0  0  0
   12.9543   -0.1959   24.9177 C   0  0  0  0  0  0  0  0  0  0  0  0
   10.5029   -4.7637   24.4092 C   0  0  0  0  0  0  0  0  0  0  0  0
   11.4995   -0.4660   24.5503 C   0  0  0  0  0  0  0  0  0  0  0  0
    8.0497   -5.6240   22.6343 C   0  0  0  0  0  0  0  0  0  0  0  0
    9.1583   -1.3891   22.8549 C   0  0  0  0  0  0  0  0  0  0  0  0
    6.6874   -5.5181   21.9167 C   0  0  0  0  0  0  0  0  0  0  0  0
    7.7444   -1.8558   22.4556 C   0  0  0  0  0  0  0  0  0  0  0  0
   11.2860   -1.9518   24.2386 C   0  0  2  0  0  0  0  0  0  0  0  0
    9.8050   -3.8134   23.4127 C   0  0  2  0  0  0  0  0  0  0  0  0
    9.8258   -2.3257   23.8861 C   0  0  2  0  0  0  0  0  0  0  0  0
    8.3561   -4.2023   23.0997 C   0  0  1  0  0  0  0  0  0  0  0  0
    6.3369   -4.0073   21.8311 C   0  0  2  0  0  0  0  0  0  0  0  0
    7.7321   -3.3230   21.9874 C   0  0  1  0  0  0  0  0  0  0  0  0
    8.4965   -3.4022   20.6301 C   0  0  0  0  0  0  0  0  0  0  0  0
   14.4175   -0.8237   26.7071 O   0  0  0  0  0  0  0  0  0  0  0  0
    5.7619   -3.7073   20.5624 O   0  0  0  0  0  0  0  0  0  0  0  0
   13.1448   -3.0525   27.0060 H   0  0  0  0  0  0  0  0  0  0  0  0
    4.4475   -3.9665   24.7698 H   0  0  0  0  0  0  0  0  0  0  0  0
    5.8658   -5.0870   24.3337 H   0  0  0  0  0  0  0  0  0  0  0  0
    4.6318   -2.8395   22.6471 H   0  0  0  0  0  0  0  0  0  0  0  0
   11.6923   -4.7705   26.2071 H   0  0  0  0  0  0  0  0  0  0  0  0
   10.1631   -3.9148   26.3545 H   0  0  0  0  0  0  0  0  0  0  0  0
   13.0533    0.8463   25.2634 H   0  0  0  0  0  0  0  0  0  0  0  0
   13.6136   -0.3159   24.0419 H   0  0  0  0  0  0  0  0  0  0  0  0
   11.3603   -5.2646   23.9117 H   0  0  0  0  0  0  0  0  0  0  0  0
    9.8100   -5.5892   24.6859 H   0  0  0  0  0  0  0  0  0  0  0  0
   10.8663   -0.1616   25.3844 H   0  0  0  0  0  0  0  0  0  0  0  0
   11.2426    0.1478   23.6895 H   0  0  0  0  0  0  0  0  0  0  0  0
    7.9989   -6.3232   23.4751 H   0  0  0  0  0  0  0  0  0  0  0  0
    8.8148   -5.9932   21.9426 H   0  0  0  0  0  0  0  0  0  0  0  0
    9.7881   -1.3015   21.9669 H   0  0  0  0  0  0  0  0  0  0  0  0
    9.0623   -0.3826   23.2692 H   0  0  0  0  0  0  0  0  0  0  0  0
    6.7565   -5.9784   20.9236 H   0  0  0  0  0  0  0  0  0  0  0  0
    5.9260   -6.0894   22.4617 H   0  0  0  0  0  0  0  0  0  0  0  0
    7.0969   -1.7240   23.3305 H   0  0  0  0  0  0  0  0  0  0  0  0
    7.3466   -1.1981   21.6738 H   0  0  0  0  0  0  0  0  0  0  0  0
   11.9386   -2.2256   23.3901 H   0  0  0  0  0  0  0  0  0  0  0  0
   10.3932   -3.8743   22.4570 H   0  0  0  0  0  0  0  0  0  0  0  0
    9.2331   -2.2807   24.8043 H   0  0  0  0  0  0  0  0  0  0  0  0
    7.7863   -4.0495   24.0294 H   0  0  0  0  0  0  0  0  0  0  0  0
    8.4907   -4.4285   20.2978 H   0  0  0  0  0  0  0  0  0  0  0  0
    9.5071   -3.0605   20.7905 H   0  0  0  0  0  0  0  0  0  0  0  0
    7.9895   -2.7693   19.9187 H   0  0  0  0  0  0  0  0  0  0  0  0
    4.9605   -4.2491   20.4847 H   0  0  0  0  0  0  0  0  0  0  0  0
  1  2  2  0  0  0  0
  1  3  1  0  0  0  0
  2  6  1  0  0  0  0
  2 14  1  0  0  0  0
  3  7  1  0  0  0  0
  3 21  2  0  0  0  0
  4  5  2  0  0  0  0
  5 18  1  0  0  0  0
  6  8  1  0  0  0  0
  7  9  1  0  0  0  0
  8 15  1  0  0  0  0
  9 14  1  0  0  0  0
 10 12  1  0  0  0  0
 10 17  1  0  0  0  0
 11 13  1  0  0  0  0
 11 16  1  0  0  0  0
 12 18  1  0  0  0  0
 13 19  1  0  0  0  0
 14 16  1  0  0  0  0
 15 16  1  0  0  0  0
 15 17  1  0  0  0  0
 17 19  1  0  0  0  0
 18 19  1  0  0  0  0
 18 22  1  0  0  0  0
 19 20  1  0  0  0  0
  1 23  1  0  0  0  0
  4 24  1  0  0  0  0
  4 25  1  0  0  0  0
  5 26  1  0  0  0  0
  6 27  1  0  0  0  0
  6 28  1  0  0  0  0
  7 29  1  0  0  0  0
  7 30  1  0  0  0  0
  8 31  1  0  0  0  0
  8 32  1  0  0  0  0
  9 33  1  0  0  0  0
  9 34  1  0  0  0  0
 10 35  1  0  0  0  0
 10 36  1  0  0  0  0
 11 37  1  0  0  0  0
 11 38  1  0  0  0  0
 12 39  1  0  0  0  0
 12 40  1  0  0  0  0
 13 41  1  0  0  0  0
 13 42  1  0  0  0  0
 14 43  1  0  0  0  0
 15 44  1  0  0  0  0
 16 45  1  0  0  0  0
 17 46  1  0  0  0  0
 20 47  1  0  0  0  0
 20 48  1  0  0  0  0
 20 49  1  0  0  0  0
 22 50  1  0  0  0  0
M  END
> <Hybrid2>
-10.102465

> <docked_fragment>
x0749

> <Mpro-_dock>
4.808456

> <site>
active-covalent

$$$$
CHEMBL1201151
  -OEChem-04122014263D

 49 52  0     1  0  0  0  0  0999 V2000
    4.4153   -3.7055   22.9037 C   0  0  0  0  0  0  0  0  0  0  0  0
    5.3425   -4.1509   22.2847 C   0  0  0  0  0  0  0  0  0  0  0  0
   11.2621   -0.7956   24.3873 C   0  0  0  0  0  0  0  0  0  0  0  0
   12.4470   -0.3351   24.9656 C   0  0  0  0  0  0  0  0  0  0  0  0
   12.8930   -2.5447   25.7999 C   0  0  0  0  0  0  0  0  0  0  0  0
   10.8762   -2.1442   24.4872 C   0  0  0  0  0  0  0  0  0  0  0  0
   11.6986   -3.0198   25.2297 C   0  0  0  0  0  0  0  0  0  0  0  0
   13.2650   -1.2101   25.6683 C   0  0  0  0  0  0  0  0  0  0  0  0
   11.3745   -4.4841   25.3973 C   0  0  0  0  0  0  0  0  0  0  0  0
    9.9430   -4.8504   25.0180 C   0  0  0  0  0  0  0  0  0  0  0  0
    9.1060   -1.9046   22.6024 C   0  0  0  0  0  0  0  0  0  0  0  0
    7.9462   -6.1120   22.9482 C   0  0  0  0  0  0  0  0  0  0  0  0
    6.7627   -6.1604   21.9596 C   0  0  0  0  0  0  0  0  0  0  0  0
    7.7903   -2.4533   22.0159 C   0  0  0  0  0  0  0  0  0  0  0  0
    9.5576   -2.6350   23.8946 C   0  0  1  0  0  0  0  0  0  0  0  0
    9.5685   -4.1804   23.6938 C   0  0  2  0  0  0  0  0  0  0  0  0
    8.1962   -4.6242   23.1817 C   0  0  1  0  0  0  0  0  0  0  0  0
    6.4828   -4.6980   21.5233 C   0  0  2  0  0  0  0  0  0  0  0  0
    7.8330   -3.9801   21.8245 C   0  0  1  0  0  0  0  0  0  0  0  0
    8.8507   -4.2983   20.6889 C   0  0  0  0  0  0  0  0  0  0  0  0
   15.2115   -1.7192   26.9363 C   0  0  0  0  0  0  0  0  0  0  0  0
    6.1610   -4.6461   20.1399 O   0  0  0  0  0  0  0  0  0  0  0  0
   14.4212   -0.7641   26.2292 O   0  0  0  0  0  0  0  0  0  0  0  0
    3.5927   -3.3106   23.4528 H   0  0  0  0  0  0  0  0  0  0  0  0
   10.6456   -0.0715   23.8633 H   0  0  0  0  0  0  0  0  0  0  0  0
   12.7206    0.7118   24.8648 H   0  0  0  0  0  0  0  0  0  0  0  0
   13.5366   -3.2259   26.3531 H   0  0  0  0  0  0  0  0  0  0  0  0
   12.0682   -5.0559   24.7676 H   0  0  0  0  0  0  0  0  0  0  0  0
   11.5493   -4.7868   26.4369 H   0  0  0  0  0  0  0  0  0  0  0  0
    9.8646   -5.9411   24.9484 H   0  0  0  0  0  0  0  0  0  0  0  0
    9.2531   -4.5308   25.8097 H   0  0  0  0  0  0  0  0  0  0  0  0
    9.9030   -1.9477   21.8507 H   0  0  0  0  0  0  0  0  0  0  0  0
    8.9423   -0.8402   22.8076 H   0  0  0  0  0  0  0  0  0  0  0  0
    7.7035   -6.6338   23.8798 H   0  0  0  0  0  0  0  0  0  0  0  0
    8.8238   -6.6039   22.5140 H   0  0  0  0  0  0  0  0  0  0  0  0
    7.0235   -6.7984   21.1066 H   0  0  0  0  0  0  0  0  0  0  0  0
    5.8890   -6.6237   22.4341 H   0  0  0  0  0  0  0  0  0  0  0  0
    6.9833   -2.1716   22.7031 H   0  0  0  0  0  0  0  0  0  0  0  0
    7.5740   -1.9520   21.0648 H   0  0  0  0  0  0  0  0  0  0  0  0
    8.7998   -2.4051   24.6597 H   0  0  0  0  0  0  0  0  0  0  0  0
   10.3395   -4.4516   22.9615 H   0  0  0  0  0  0  0  0  0  0  0  0
    7.4629   -4.3028   23.9387 H   0  0  0  0  0  0  0  0  0  0  0  0
    8.8825   -5.3679   20.5527 H   0  0  0  0  0  0  0  0  0  0  0  0
    9.8177   -3.9242   20.9865 H   0  0  0  0  0  0  0  0  0  0  0  0
    8.5152   -3.8101   19.7872 H   0  0  0  0  0  0  0  0  0  0  0  0
   16.1052   -1.2315   27.3331 H   0  0  0  0  0  0  0  0  0  0  0  0
   15.4955   -2.5301   26.2608 H   0  0  0  0  0  0  0  0  0  0  0  0
   14.6234   -2.1252   27.7627 H   0  0  0  0  0  0  0  0  0  0  0  0
    6.9230   -5.0098   19.6600 H   0  0  0  0  0  0  0  0  0  0  0  0
  1  2  3  0  0  0  0
  2 18  1  0  0  0  0
  3  4  2  0  0  0  0
  3  6  1  0  0  0  0
  4  8  1  0  0  0  0
  5  7  1  0  0  0  0
  5  8  2  0  0  0  0
  6  7  2  0  0  0  0
  6 15  1  0  0  0  0
  7  9  1  0  0  0  0
  8 23  1  0  0  0  0
  9 10  1  0  0  0  0
 10 16  1  0  0  0  0
 11 14  1  0  0  0  0
 11 15  1  0  0  0  0
 12 13  1  0  0  0  0
 12 17  1  0  0  0  0
 13 18  1  0  0  0  0
 14 19  1  0  0  0  0
 15 16  1  0  0  0  0
 16 17  1  0  0  0  0
 17 19  1  0  0  0  0
 18 19  1  0  0  0  0
 18 22  1  0  0  0  0
 19 20  1  0  0  0  0
 21 23  1  0  0  0  0
  1 24  1  0  0  0  0
  3 25  1  0  0  0  0
  4 26  1  0  0  0  0
  5 27  1  0  0  0  0
  9 28  1  0  0  0  0
  9 29  1  0  0  0  0
 10 30  1  0  0  0  0
 10 31  1  0  0  0  0
 11 32  1  0  0  0  0
 11 33  1  0  0  0  0
 12 34  1  0  0  0  0
 12 35  1  0  0  0  0
 13 36  1  0  0  0  0
 13 37  1  0  0  0  0
 14 38  1  0  0  0  0
 14 39  1  0  0  0  0
 15 40  1  0  0  0  0
 16 41  1  0  0  0  0
 17 42  1  0  0  0  0
 20 43  1  0  0  0  0
 20 44  1  0  0  0  0
 20 45  1  0  0  0  0
 21 46  1  0  0  0  0
 21 47  1  0  0  0  0
 21 48  1  0  0  0  0
 22 49  1  0  0  0  0
M  END
> <Hybrid2>
-10.084953

> <docked_fragment>
x0749

> <Mpro-_dock>
6.932013

> <site>
active-covalent

$$$$
CHEMBL2105440
  -OEChem-04122014263D

 49 52  0     1  0  0  0  0  0999 V2000
    4.4776   -3.4573   23.1269 C   0  0  0  0  0  0  0  0  0  0  0  0
    5.3445   -3.9661   22.4707 C   0  0  0  0  0  0  0  0  0  0  0  0
   11.8973   -2.7898   24.8310 C   0  0  0  0  0  0  0  0  0  0  0  0
   11.0231   -1.9746   24.1987 C   0  0  0  0  0  0  0  0  0  0  0  0
   13.2513   -2.3197   25.3110 C   0  0  0  0  0  0  0  0  0  0  0  0
   11.5979   -4.2401   25.1344 C   0  0  0  0  0  0  0  0  0  0  0  0
   11.3107   -0.4989   24.0198 C   0  0  0  0  0  0  0  0  0  0  0  0
   13.6582   -0.9490   24.7757 C   0  0  0  0  0  0  0  0  0  0  0  0
   10.1480   -4.6529   24.8773 C   0  0  0  0  0  0  0  0  0  0  0  0
   12.4883    0.0184   24.8457 C   0  0  0  0  0  0  0  0  0  0  0  0
    9.1913   -1.8292   22.3716 C   0  0  0  0  0  0  0  0  0  0  0  0
    7.9382   -5.9654   23.0637 C   0  0  0  0  0  0  0  0  0  0  0  0
    6.6785   -6.0330   22.1743 C   0  0  0  0  0  0  0  0  0  0  0  0
    7.8218   -2.3654   21.9048 C   0  0  0  0  0  0  0  0  0  0  0  0
    9.6764   -2.4840   23.6906 C   0  0  1  0  0  0  0  0  0  0  0  0
    9.6576   -4.0368   23.5679 C   0  0  2  0  0  0  0  0  0  0  0  0
    8.2436   -4.4756   23.1843 C   0  0  1  0  0  0  0  0  0  0  0  0
    6.4105   -4.5922   21.6639 C   0  0  2  0  0  0  0  0  0  0  0  0
    7.8006   -3.9039   21.8163 C   0  0  1  0  0  0  0  0  0  0  0  0
    8.7184   -4.3315   20.6317 C   0  0  0  0  0  0  0  0  0  0  0  0
    5.9744   -4.6416   20.3122 O   0  0  0  0  0  0  0  0  0  0  0  0
    3.7085   -3.0058   23.7090 H   0  0  0  0  0  0  0  0  0  0  0  0
   13.2364   -2.2887   26.4078 H   0  0  0  0  0  0  0  0  0  0  0  0
   14.0202   -3.0460   25.0209 H   0  0  0  0  0  0  0  0  0  0  0  0
   12.2606   -4.8619   24.5191 H   0  0  0  0  0  0  0  0  0  0  0  0
   11.8381   -4.4568   26.1823 H   0  0  0  0  0  0  0  0  0  0  0  0
   11.5139   -0.3093   22.9587 H   0  0  0  0  0  0  0  0  0  0  0  0
   10.4250    0.0868   24.2936 H   0  0  0  0  0  0  0  0  0  0  0  0
   14.5053   -0.5625   25.3536 H   0  0  0  0  0  0  0  0  0  0  0  0
   13.9968   -1.0425   23.7360 H   0  0  0  0  0  0  0  0  0  0  0  0
   10.0902   -5.7467   24.8458 H   0  0  0  0  0  0  0  0  0  0  0  0
    9.5139   -4.3240   25.7106 H   0  0  0  0  0  0  0  0  0  0  0  0
   12.7909    1.0059   24.4792 H   0  0  0  0  0  0  0  0  0  0  0  0
   12.1791    0.1470   25.8909 H   0  0  0  0  0  0  0  0  0  0  0  0
    9.9423   -1.9685   21.5855 H   0  0  0  0  0  0  0  0  0  0  0  0
    9.0885   -0.7455   22.5045 H   0  0  0  0  0  0  0  0  0  0  0  0
    7.7568   -6.4228   24.0418 H   0  0  0  0  0  0  0  0  0  0  0  0
    8.7653   -6.5091   22.5935 H   0  0  0  0  0  0  0  0  0  0  0  0
    6.8500   -6.7342   21.3488 H   0  0  0  0  0  0  0  0  0  0  0  0
    5.8312   -6.4320   22.7456 H   0  0  0  0  0  0  0  0  0  0  0  0
    7.0699   -2.0084   22.6188 H   0  0  0  0  0  0  0  0  0  0  0  0
    7.5630   -1.9203   20.9365 H   0  0  0  0  0  0  0  0  0  0  0  0
    8.9464   -2.1954   24.4628 H   0  0  0  0  0  0  0  0  0  0  0  0
   10.3604   -4.3492   22.7851 H   0  0  0  0  0  0  0  0  0  0  0  0
    7.5744   -4.0875   23.9689 H   0  0  0  0  0  0  0  0  0  0  0  0
    8.7063   -5.4081   20.5663 H   0  0  0  0  0  0  0  0  0  0  0  0
    9.7162   -3.9738   20.8310 H   0  0  0  0  0  0  0  0  0  0  0  0
    8.3298   -3.8911   19.7270 H   0  0  0  0  0  0  0  0  0  0  0  0
    5.8136   -3.7249   20.0348 H   0  0  0  0  0  0  0  0  0  0  0  0
  1  2  3  0  0  0  0
  2 18  1  0  0  0  0
  3  4  2  0  0  0  0
  3  5  1  0  0  0  0
  3  6  1  0  0  0  0
  4  7  1  0  0  0  0
  4 15  1  0  0  0  0
  5  8  1  0  0  0  0
  6  9  1  0  0  0  0
  7 10  1  0  0  0  0
  8 10  1  0  0  0  0
  9 16  1  0  0  0  0
 11 14  1  0  0  0  0
 11 15  1  0  0  0  0
 12 13  1  0  0  0  0
 12 17  1  0  0  0  0
 13 18  1  0  0  0  0
 14 19  1  0  0  0  0
 15 16  1  0  0  0  0
 16 17  1  0  0  0  0
 17 19  1  0  0  0  0
 18 19  1  0  0  0  0
 18 21  1  0  0  0  0
 19 20  1  0  0  0  0
  1 22  1  0  0  0  0
  5 23  1  0  0  0  0
  5 24  1  0  0  0  0
  6 25  1  0  0  0  0
  6 26  1  0  0  0  0
  7 27  1  0  0  0  0
  7 28  1  0  0  0  0
  8 29  1  0  0  0  0
  8 30  1  0  0  0  0
  9 31  1  0  0  0  0
  9 32  1  0  0  0  0
 10 33  1  0  0  0  0
 10 34  1  0  0  0  0
 11 35  1  0  0  0  0
 11 36  1  0  0  0  0
 12 37  1  0  0  0  0
 12 38  1  0  0  0  0
 13 39  1  0  0  0  0
 13 40  1  0  0  0  0
 14 41  1  0  0  0  0
 14 42  1  0  0  0  0
 15 43  1  0  0  0  0
 16 44  1  0  0  0  0
 17 45  1  0  0  0  0
 20 46  1  0  0  0  0
 20 47  1  0  0  0  0
 20 48  1  0  0  0  0
 21 49  1  0  0  0  0
M  END
> <Hybrid2>
-10.049597

> <docked_fragment>
x0749

> <Mpro-_dock>
2.677762

> <site>
active-covalent

$$$$
DB04716
  -OEChem-04122014263D

 39 42  0     0  0  0  0  0  0999 V2000
    8.6322   -0.2397   21.1063 C   0  0  0  0  0  0  0  0  0  0  0  0
    7.7240    0.2224   20.1626 C   0  0  0  0  0  0  0  0  0  0  0  0
    6.6111   -1.9252   20.2124 C   0  0  0  0  0  0  0  0  0  0  0  0
    8.5310   -1.5540   21.6083 C   0  0  0  0  0  0  0  0  0  0  0  0
    7.5110   -2.4505   21.1777 C   0  0  0  0  0  0  0  0  0  0  0  0
    7.4866   -3.7672   21.7434 C   0  0  0  0  0  0  0  0  0  0  0  0
    8.4473   -4.1701   22.7033 C   0  0  0  0  0  0  0  0  0  0  0  0
    9.4897   -1.9603   22.5683 C   0  0  0  0  0  0  0  0  0  0  0  0
    9.4246   -3.2479   23.0876 C   0  0  0  0  0  0  0  0  0  0  0  0
    6.7157   -0.6188   19.7167 C   0  0  0  0  0  0  0  0  0  0  0  0
   11.1156   -2.1037   23.9541 C   0  0  0  0  0  0  0  0  0  0  0  0
    8.4525   -5.5003   23.2989 C   0  0  0  0  0  0  0  0  0  0  0  0
    7.5127   -6.3674   22.9206 C   0  0  0  0  0  0  0  0  0  0  0  0
    6.4563   -4.8065   21.3682 C   0  0  0  0  0  0  0  0  0  0  0  0
   12.0517   -0.6604   25.7943 C   0  0  0  0  0  0  0  0  0  0  0  0
   13.5556   -1.4766   23.9481 C   0  0  0  0  0  0  0  0  0  0  0  0
   12.7629   -3.0413   25.7101 C   0  0  0  0  0  0  0  0  0  0  0  0
   12.2948   -1.8470   24.8010 C   0  0  0  0  0  0  0  0  0  0  0  0
   10.5479   -1.2655   23.1199 N   0  0  0  0  0  0  0  0  0  0  0  0
   10.4771   -3.3095   23.9702 N   0  0  0  0  0  0  0  0  0  0  0  0
    6.5583   -6.0405   21.9996 N   0  0  0  0  0  0  0  0  0  0  0  0
    5.5667   -4.5939   20.5518 O   0  0  0  0  0  0  0  0  0  0  0  0
    5.8351   -0.1811   18.8067 F   0  0  0  0  0  0  0  0  0  0  0  0
    9.4159    0.4342   21.4448 H   0  0  0  0  0  0  0  0  0  0  0  0
    7.8020    1.2341   19.7771 H   0  0  0  0  0  0  0  0  0  0  0  0
    5.7947   -2.5141   19.8103 H   0  0  0  0  0  0  0  0  0  0  0  0
    9.2010   -5.7785   24.0306 H   0  0  0  0  0  0  0  0  0  0  0  0
    7.4575   -7.3718   23.3216 H   0  0  0  0  0  0  0  0  0  0  0  0
   12.9145   -0.4484   26.4366 H   0  0  0  0  0  0  0  0  0  0  0  0
   11.8182    0.2651   25.2566 H   0  0  0  0  0  0  0  0  0  0  0  0
   11.1988   -0.8868   26.4451 H   0  0  0  0  0  0  0  0  0  0  0  0
   14.4250   -1.2881   24.5873 H   0  0  0  0  0  0  0  0  0  0  0  0
   13.8444   -2.2600   23.2377 H   0  0  0  0  0  0  0  0  0  0  0  0
   13.3636   -0.5614   23.3756 H   0  0  0  0  0  0  0  0  0  0  0  0
   13.6421   -2.8017   26.3202 H   0  0  0  0  0  0  0  0  0  0  0  0
   11.9635   -3.3363   26.3999 H   0  0  0  0  0  0  0  0  0  0  0  0
   13.0240   -3.9120   25.0973 H   0  0  0  0  0  0  0  0  0  0  0  0
   10.7338   -4.1089   24.5338 H   0  0  0  0  0  0  0  0  0  0  0  0
    5.8732   -6.7510   21.7587 H   0  0  0  0  0  0  0  0  0  0  0  0
  1  2  2  0  0  0  0
  1  4  1  0  0  0  0
  2 10  1  0  0  0  0
  3  5  1  0  0  0  0
  3 10  2  0  0  0  0
  4  5  2  0  0  0  0
  4  8  1  0  0  0  0
  5  6  1  0  0  0  0
  6  7  2  0  0  0  0
  6 14  1  0  0  0  0
  7  9  1  0  0  0  0
  7 12  1  0  0  0  0
  8  9  2  0  0  0  0
  8 19  1  0  0  0  0
  9 20  1  0  0  0  0
 10 23  1  0  0  0  0
 11 18  1  0  0  0  0
 11 19  2  0  0  0  0
 11 20  1  0  0  0  0
 12 13  2  0  0  0  0
 13 21  1  0  0  0  0
 14 21  1  0  0  0  0
 14 22  2  0  0  0  0
 15 18  1  0  0  0  0
 16 18  1  0  0  0  0
 17 18  1  0  0  0  0
  1 24  1  0  0  0  0
  2 25  1  0  0  0  0
  3 26  1  0  0  0  0
 12 27  1  0  0  0  0
 13 28  1  0  0  0  0
 15 29  1  0  0  0  0
 15 30  1  0  0  0  0
 15 31  1  0  0  0  0
 16 32  1  0  0  0  0
 16 33  1  0  0  0  0
 16 34  1  0  0  0  0
 17 35  1  0  0  0  0
 17 36  1  0  0  0  0
 17 37  1  0  0  0  0
 20 38  1  0  0  0  0
 21 39  1  0  0  0  0
M  END
> <Hybrid2>
-9.996657

> <docked_fragment>
x0749

> <Mpro-_dock>
0.727377

> <site>
active-covalent

$$$$
CHEMBL2105171
  -OEChem-04122014263D

 47 48  0     1  0  0  0  0  0999 V2000
   13.1353   -0.2596   24.0878 C   0  0  0  0  0  0  0  0  0  0  0  0
   13.1704   -1.5061   23.4627 C   0  0  0  0  0  0  0  0  0  0  0  0
   11.9102    0.3407   24.3783 C   0  0  0  0  0  0  0  0  0  0  0  0
   11.9804   -2.1522   23.1281 C   0  0  0  0  0  0  0  0  0  0  0  0
   10.7202   -0.3055   24.0437 C   0  0  0  0  0  0  0  0  0  0  0  0
    8.6732   -2.6064   25.4414 C   0  0  0  0  0  0  0  0  0  0  0  0
    8.8082   -4.5304   23.9865 C   0  0  0  0  0  0  0  0  0  0  0  0
    8.2328   -3.4241   26.4820 C   0  0  0  0  0  0  0  0  0  0  0  0
    8.3678   -5.3482   25.0271 C   0  0  0  0  0  0  0  0  0  0  0  0
   10.7552   -1.5519   23.4186 C   0  0  0  0  0  0  0  0  0  0  0  0
    8.9608   -3.1595   24.1936 C   0  0  0  0  0  0  0  0  0  0  0  0
    8.0802   -4.7951   26.2749 C   0  0  0  0  0  0  0  0  0  0  0  0
    6.1367   -1.5939   23.5001 C   0  0  0  0  0  0  0  0  0  0  0  0
    9.6264   -2.9751   21.6958 C   0  0  0  0  0  0  0  0  0  0  0  0
    7.7357    0.7360   21.4391 C   0  0  0  0  0  0  0  0  0  0  0  0
    6.1743    0.3401   19.5401 C   0  0  0  0  0  0  0  0  0  0  0  0
    6.8190   -1.5440   21.0351 C   0  0  0  0  0  0  0  0  0  0  0  0
    7.1948   -1.9377   22.4599 C   0  0  1  0  0  0  0  0  0  0  0  0
    9.4461   -2.2619   23.0507 C   0  0  2  0  0  0  0  0  0  0  0  0
    6.5749   -0.0837   20.9318 N   0  3  0  0  0  0  0  0  0  0  0  0
    8.4255   -1.3063   22.8048 O   0  0  0  0  0  0  0  0  0  0  0  0
    7.5371   -5.8037   27.5588 Cl  0  0  0  0  0  0  0  0  0  0  0  0
   14.0620    0.2428   24.3494 H   0  0  0  0  0  0  0  0  0  0  0  0
   14.1242   -1.9741   23.2374 H   0  0  0  0  0  0  0  0  0  0  0  0
   11.8825    1.3106   24.8660 H   0  0  0  0  0  0  0  0  0  0  0  0
   12.0174   -3.1232   22.6411 H   0  0  0  0  0  0  0  0  0  0  0  0
    9.7703    0.1699   24.2738 H   0  0  0  0  0  0  0  0  0  0  0  0
    8.7894   -1.5391   25.6106 H   0  0  0  0  0  0  0  0  0  0  0  0
    9.0304   -4.9692   23.0173 H   0  0  0  0  0  0  0  0  0  0  0  0
    8.0128   -2.9791   27.4490 H   0  0  0  0  0  0  0  0  0  0  0  0
    8.2535   -6.4147   24.8511 H   0  0  0  0  0  0  0  0  0  0  0  0
    5.9240   -0.5200   23.5206 H   0  0  0  0  0  0  0  0  0  0  0  0
    6.4969   -1.8520   24.5022 H   0  0  0  0  0  0  0  0  0  0  0  0
    5.2065   -2.1403   23.3176 H   0  0  0  0  0  0  0  0  0  0  0  0
    8.7073   -3.4955   21.3995 H   0  0  0  0  0  0  0  0  0  0  0  0
   10.4443   -3.7034   21.6984 H   0  0  0  0  0  0  0  0  0  0  0  0
    9.8350   -2.2481   20.9005 H   0  0  0  0  0  0  0  0  0  0  0  0
    8.6007    0.5140   20.8115 H   0  0  0  0  0  0  0  0  0  0  0  0
    7.4579    1.7893   21.3665 H   0  0  0  0  0  0  0  0  0  0  0  0
    7.9193    0.4491   22.4762 H   0  0  0  0  0  0  0  0  0  0  0  0
    7.0036    0.1090   18.8690 H   0  0  0  0  0  0  0  0  0  0  0  0
    5.2787   -0.2201   19.2649 H   0  0  0  0  0  0  0  0  0  0  0  0
    5.9748    1.4132   19.5621 H   0  0  0  0  0  0  0  0  0  0  0  0
    5.9034   -2.0414   20.7021 H   0  0  0  0  0  0  0  0  0  0  0  0
    7.6333   -1.7619   20.3375 H   0  0  0  0  0  0  0  0  0  0  0  0
    7.3720   -3.0193   22.4778 H   0  0  0  0  0  0  0  0  0  0  0  0
    5.7730    0.1466   21.5431 H   0  0  0  0  0  0  0  0  0  0  0  0
  1  2  1  0  0  0  0
  1  3  2  0  0  0  0
  2  4  2  0  0  0  0
  3  5  1  0  0  0  0
  4 10  1  0  0  0  0
  5 10  2  0  0  0  0
  6  8  2  0  0  0  0
  6 11  1  0  0  0  0
  7  9  1  0  0  0  0
  7 11  2  0  0  0  0
  8 12  1  0  0  0  0
  9 12  2  0  0  0  0
 10 19  1  0  0  0  0
 11 19  1  0  0  0  0
 12 22  1  0  0  0  0
 13 18  1  0  0  0  0
 14 19  1  0  0  0  0
 15 20  1  0  0  0  0
 16 20  1  0  0  0  0
 17 18  1  0  0  0  0
 17 20  1  0  0  0  0
 18 21  1  0  0  0  0
 19 21  1  0  0  0  0
  1 23  1  0  0  0  0
  2 24  1  0  0  0  0
  3 25  1  0  0  0  0
  4 26  1  0  0  0  0
  5 27  1  0  0  0  0
  6 28  1  0  0  0  0
  7 29  1  0  0  0  0
  8 30  1  0  0  0  0
  9 31  1  0  0  0  0
 13 32  1  0  0  0  0
 13 33  1  0  0  0  0
 13 34  1  0  0  0  0
 14 35  1  0  0  0  0
 14 36  1  0  0  0  0
 14 37  1  0  0  0  0
 15 38  1  0  0  0  0
 15 39  1  0  0  0  0
 15 40  1  0  0  0  0
 16 41  1  0  0  0  0
 16 42  1  0  0  0  0
 16 43  1  0  0  0  0
 17 44  1  0  0  0  0
 17 45  1  0  0  0  0
 18 46  1  0  0  0  0
 20 47  1  0  0  0  0
M  CHG  1  20   1
M  END
> <Hybrid2>
-9.937554

> <docked_fragment>
x0072

> <Mpro-_dock>
0.722721

> <site>
active-noncovalent

$$$$
CHEMBL2103999
  -OEChem-04122014263D

 46 49  0     1  0  0  0  0  0999 V2000
   13.6962   -2.3113   22.5560 C   0  0  0  0  0  0  0  0  0  0  0  0
   12.6261   -1.6766   21.9041 C   0  0  0  0  0  0  0  0  0  0  0  0
   14.3180   -1.7527   23.6844 C   0  0  0  0  0  0  0  0  0  0  0  0
   13.3666    1.4248   25.1788 C   0  0  0  0  0  0  0  0  0  0  0  0
   12.7659    0.0934   23.4852 C   0  0  0  0  0  0  0  0  0  0  0  0
   12.1207   -0.4556   22.3679 C   0  0  0  0  0  0  0  0  0  0  0  0
   12.4746    1.3092   24.1388 C   0  0  0  0  0  0  0  0  0  0  0  0
   13.8216   -0.5269   24.1256 C   0  0  0  0  0  0  0  0  0  0  0  0
    6.0327    0.6708   18.3166 C   0  0  0  0  0  0  0  0  0  0  0  0
   11.3587    2.1643   23.6407 C   0  0  0  0  0  0  0  0  0  0  0  0
    9.9509   -0.4520   21.0104 C   0  0  0  0  0  0  0  0  0  0  0  0
    8.2351    1.3456   21.4514 C   0  0  0  0  0  0  0  0  0  0  0  0
   11.0123    0.3763   21.7449 C   0  0  1  0  0  0  0  0  0  0  0  0
    8.8763    0.4501   20.3954 C   0  0  2  0  0  0  0  0  0  0  0  0
   10.3346    1.2917   22.8389 C   0  0  2  0  0  0  0  0  0  0  0  0
    4.7839    1.4845   18.3974 C   0  0  0  0  0  0  0  0  0  0  0  0
    8.6357    3.1769   23.0653 C   0  0  0  0  0  0  0  0  0  0  0  0
    7.8084   -0.3908   19.6959 C   0  0  0  0  0  0  0  0  0  0  0  0
   14.1764    0.3070   25.1639 N   0  0  0  0  0  0  0  0  0  0  0  0
    6.6164    0.3732   19.5468 N   0  0  0  0  0  0  0  0  0  0  0  0
    9.2958    2.1743   22.1497 N   0  3  2  0  0  0  0  0  0  0  0  0
    6.4573    0.3228   17.2210 O   0  0  0  0  0  0  0  0  0  0  0  0
   14.0592   -3.2622   22.1716 H   0  0  0  0  0  0  0  0  0  0  0  0
   12.2011   -2.1547   21.0262 H   0  0  0  0  0  0  0  0  0  0  0  0
   15.1460   -2.2488   24.1775 H   0  0  0  0  0  0  0  0  0  0  0  0
   13.5041    2.1882   25.9315 H   0  0  0  0  0  0  0  0  0  0  0  0
   10.8694    2.6398   24.4977 H   0  0  0  0  0  0  0  0  0  0  0  0
   11.7723    2.9490   22.9962 H   0  0  0  0  0  0  0  0  0  0  0  0
   10.4144   -1.0390   20.2083 H   0  0  0  0  0  0  0  0  0  0  0  0
    9.4919   -1.1708   21.7023 H   0  0  0  0  0  0  0  0  0  0  0  0
    7.5340    2.0448   20.9820 H   0  0  0  0  0  0  0  0  0  0  0  0
    7.7090    0.7689   22.2214 H   0  0  0  0  0  0  0  0  0  0  0  0
   11.5043    1.0314   21.0106 H   0  0  0  0  0  0  0  0  0  0  0  0
    9.3478    1.0874   19.6352 H   0  0  0  0  0  0  0  0  0  0  0  0
    9.7802    0.6613   23.5500 H   0  0  0  0  0  0  0  0  0  0  0  0
    4.9847    2.5674   18.3645 H   0  0  0  0  0  0  0  0  0  0  0  0
    4.0999    1.2896   17.5558 H   0  0  0  0  0  0  0  0  0  0  0  0
    4.1782    1.3296   19.3046 H   0  0  0  0  0  0  0  0  0  0  0  0
    8.1089    2.6220   23.8438 H   0  0  0  0  0  0  0  0  0  0  0  0
    9.4191    3.8055   23.4929 H   0  0  0  0  0  0  0  0  0  0  0  0
    7.9405    3.7689   22.4668 H   0  0  0  0  0  0  0  0  0  0  0  0
    8.2080   -0.6738   18.7240 H   0  0  0  0  0  0  0  0  0  0  0  0
    7.6295   -1.2653   20.3184 H   0  0  0  0  0  0  0  0  0  0  0  0
   14.9228    0.1282   25.8213 H   0  0  0  0  0  0  0  0  0  0  0  0
    6.1600    0.7255   20.3952 H   0  0  0  0  0  0  0  0  0  0  0  0
    9.7851    2.7181   21.4255 H   0  0  0  0  0  0  0  0  0  0  0  0
  1  2  2  0  0  0  0
  1  3  1  0  0  0  0
  2  6  1  0  0  0  0
  3  8  2  0  0  0  0
  4  7  2  0  0  0  0
  4 19  1  0  0  0  0
  5  6  2  0  0  0  0
  5  7  1  0  0  0  0
  5  8  1  0  0  0  0
  6 13  1  0  0  0  0
  7 10  1  0  0  0  0
  8 19  1  0  0  0  0
  9 16  1  0  0  0  0
  9 20  1  0  0  0  0
  9 22  2  0  0  0  0
 10 15  1  0  0  0  0
 11 13  1  0  0  0  0
 11 14  1  0  0  0  0
 12 14  1  0  0  0  0
 12 21  1  0  0  0  0
 13 15  1  0  0  0  0
 14 18  1  0  0  0  0
 15 21  1  0  0  0  0
 17 21  1  0  0  0  0
 18 20  1  0  0  0  0
  1 23  1  0  0  0  0
  2 24  1  0  0  0  0
  3 25  1  0  0  0  0
  4 26  1  0  0  0  0
 10 27  1  0  0  0  0
 10 28  1  0  0  0  0
 11 29  1  0  0  0  0
 11 30  1  0  0  0  0
 12 31  1  0  0  0  0
 12 32  1  0  0  0  0
 13 33  1  0  0  0  0
 14 34  1  0  0  0  0
 15 35  1  0  0  0  0
 16 36  1  0  0  0  0
 16 37  1  0  0  0  0
 16 38  1  0  0  0  0
 17 39  1  0  0  0  0
 17 40  1  0  0  0  0
 17 41  1  0  0  0  0
 18 42  1  0  0  0  0
 18 43  1  0  0  0  0
 19 44  1  0  0  0  0
 20 45  1  0  0  0  0
 21 46  1  0  0  0  0
M  CHG  1  21   1
M  END
> <Hybrid2>
-9.883969

> <docked_fragment>
x0678

> <Mpro-_dock>
-0.523678

> <site>
active-noncovalent

$$$$
CHEMBL1213583
  -OEChem-04122014263D

 49 52  0     1  0  0  0  0  0999 V2000
    7.8246   -6.7324   20.3957 C   0  0  0  0  0  0  0  0  0  0  0  0
    7.3287   -5.9899   21.1981 C   0  0  0  0  0  0  0  0  0  0  0  0
   13.1450   -0.8403   24.2720 C   0  0  0  0  0  0  0  0  0  0  0  0
    7.2005   -2.8124   21.6885 C   0  0  0  0  0  0  0  0  0  0  0  0
    6.3021   -3.7937   21.4974 C   0  0  0  0  0  0  0  0  0  0  0  0
   11.9961   -1.4378   23.9182 C   0  0  0  0  0  0  0  0  0  0  0  0
   13.8367   -1.2126   25.5296 C   0  0  0  0  0  0  0  0  0  0  0  0
   11.3489   -1.1178   22.5931 C   0  0  0  0  0  0  0  0  0  0  0  0
   13.2740   -2.3376   26.3673 C   0  0  0  0  0  0  0  0  0  0  0  0
    9.8245   -1.2222   22.6129 C   0  0  0  0  0  0  0  0  0  0  0  0
   12.4061   -3.2864   25.5477 C   0  0  0  0  0  0  0  0  0  0  0  0
    9.8692   -4.6480   24.6021 C   0  0  0  0  0  0  0  0  0  0  0  0
    8.8362   -5.4249   23.7576 C   0  0  0  0  0  0  0  0  0  0  0  0
    8.3846   -3.3495   22.4351 C   0  0  1  0  0  0  0  0  0  0  0  0
   11.3365   -2.5073   24.7735 C   0  0  2  0  0  0  0  0  0  0  0  0
    9.2772   -2.4786   23.3249 C   0  0  1  0  0  0  0  0  0  0  0  0
   10.4175   -3.3873   23.8921 C   0  0  2  0  0  0  0  0  0  0  0  0
    6.7212   -5.0802   22.1803 C   0  0  2  0  0  0  0  0  0  0  0  0
    7.7168   -4.5044   23.2397 C   0  0  1  0  0  0  0  0  0  0  0  0
    6.3063   -5.1617   25.1979 C   0  0  0  0  0  0  0  0  0  0  0  0
    6.8930   -4.0095   24.4788 C   0  0  0  0  0  0  0  0  0  0  0  0
   14.8312   -0.5824   25.8858 O   0  0  0  0  0  0  0  0  0  0  0  0
    5.6095   -5.7186   22.7901 O   0  0  0  0  0  0  0  0  0  0  0  0
    8.2647   -7.3912   19.6840 H   0  0  0  0  0  0  0  0  0  0  0  0
   13.5714   -0.0229   23.7002 H   0  0  0  0  0  0  0  0  0  0  0  0
    7.1198   -1.8206   21.2709 H   0  0  0  0  0  0  0  0  0  0  0  0
    5.3915   -3.6798   20.9262 H   0  0  0  0  0  0  0  0  0  0  0  0
   11.6353   -0.0914   22.3089 H   0  0  0  0  0  0  0  0  0  0  0  0
   11.7348   -1.7695   21.7923 H   0  0  0  0  0  0  0  0  0  0  0  0
   14.1137   -2.9022   26.8057 H   0  0  0  0  0  0  0  0  0  0  0  0
   12.7023   -1.8981   27.2019 H   0  0  0  0  0  0  0  0  0  0  0  0
    9.4195   -0.3086   23.0996 H   0  0  0  0  0  0  0  0  0  0  0  0
    9.4372   -1.1841   21.5694 H   0  0  0  0  0  0  0  0  0  0  0  0
   13.0460   -3.8353   24.8564 H   0  0  0  0  0  0  0  0  0  0  0  0
   11.9452   -4.0029   26.2239 H   0  0  0  0  0  0  0  0  0  0  0  0
    9.4311   -4.3723   25.5639 H   0  0  0  0  0  0  0  0  0  0  0  0
   10.6892   -5.3360   24.8237 H   0  0  0  0  0  0  0  0  0  0  0  0
    9.3715   -5.8881   22.9201 H   0  0  0  0  0  0  0  0  0  0  0  0
    8.4175   -6.2451   24.3522 H   0  0  0  0  0  0  0  0  0  0  0  0
    9.0459   -3.7728   21.6600 H   0  0  0  0  0  0  0  0  0  0  0  0
   10.7116   -1.9595   25.5030 H   0  0  0  0  0  0  0  0  0  0  0  0
    8.6641   -2.1044   24.1868 H   0  0  0  0  0  0  0  0  0  0  0  0
   11.0008   -3.7280   23.0331 H   0  0  0  0  0  0  0  0  0  0  0  0
    5.6296   -5.6848   24.5121 H   0  0  0  0  0  0  0  0  0  0  0  0
    5.7251   -4.8399   26.0685 H   0  0  0  0  0  0  0  0  0  0  0  0
    7.0769   -5.8698   25.5206 H   0  0  0  0  0  0  0  0  0  0  0  0
    7.5720   -3.4553   25.1115 H   0  0  0  0  0  0  0  0  0  0  0  0
    6.1251   -3.3463   24.1060 H   0  0  0  0  0  0  0  0  0  0  0  0
    4.9808   -5.9289   22.0801 H   0  0  0  0  0  0  0  0  0  0  0  0
  1  2  3  0  0  0  0
  2 18  1  0  0  0  0
  3  6  2  0  0  0  0
  3  7  1  0  0  0  0
  4  5  2  0  0  0  0
  4 14  1  0  0  0  0
  5 18  1  0  0  0  0
  6  8  1  0  0  0  0
  6 15  1  0  0  0  0
  7  9  1  0  0  0  0
  7 22  2  0  0  0  0
  8 10  1  0  0  0  0
  9 11  1  0  0  0  0
 10 16  1  0  0  0  0
 11 15  1  0  0  0  0
 12 13  1  0  0  0  0
 12 17  1  0  0  0  0
 13 19  1  0  0  0  0
 14 16  1  0  0  0  0
 14 19  1  0  0  0  0
 15 17  1  0  0  0  0
 16 17  1  0  0  0  0
 18 19  1  0  0  0  0
 18 23  1  0  0  0  0
 19 21  1  0  0  0  0
 20 21  1  0  0  0  0
  1 24  1  0  0  0  0
  3 25  1  0  0  0  0
  4 26  1  0  0  0  0
  5 27  1  0  0  0  0
  8 28  1  0  0  0  0
  8 29  1  0  0  0  0
  9 30  1  0  0  0  0
  9 31  1  0  0  0  0
 10 32  1  0  0  0  0
 10 33  1  0  0  0  0
 11 34  1  0  0  0  0
 11 35  1  0  0  0  0
 12 36  1  0  0  0  0
 12 37  1  0  0  0  0
 13 38  1  0  0  0  0
 13 39  1  0  0  0  0
 14 40  1  0  0  0  0
 15 41  1  0  0  0  0
 16 42  1  0  0  0  0
 17 43  1  0  0  0  0
 20 44  1  0  0  0  0
 20 45  1  0  0  0  0
 20 46  1  0  0  0  0
 21 47  1  0  0  0  0
 21 48  1  0  0  0  0
 23 49  1  0  0  0  0
M  END
> <Hybrid2>
-9.883617

> <docked_fragment>
x0749

> <Mpro-_dock>
5.434977

> <site>
active-covalent

$$$$
CHEMBL2105618
  -OEChem-04122014263D

 54 57  0     1  0  0  0  0  0999 V2000
   12.7729   -1.9777   25.9062 C   0  0  0  0  0  0  0  0  0  0  0  0
   12.1007   -2.6801   24.9772 C   0  0  0  0  0  0  0  0  0  0  0  0
    5.8857   -3.4037   25.2313 C   0  0  0  0  0  0  0  0  0  0  0  0
    5.6670   -4.3735   24.3362 C   0  0  0  0  0  0  0  0  0  0  0  0
   13.0115   -0.5020   25.8220 C   0  0  0  0  0  0  0  0  0  0  0  0
   11.9862   -4.1791   25.0721 C   0  0  0  0  0  0  0  0  0  0  0  0
   12.7773    0.0442   24.4173 C   0  0  0  0  0  0  0  0  0  0  0  0
   10.5483   -4.6533   24.8834 C   0  0  0  0  0  0  0  0  0  0  0  0
   11.4683   -0.4850   23.8439 C   0  0  0  0  0  0  0  0  0  0  0  0
    9.3053   -1.9604   22.3208 C   0  0  0  0  0  0  0  0  0  0  0  0
    8.2331   -6.0787   23.3344 C   0  0  0  0  0  0  0  0  0  0  0  0
    7.9053   -2.5444   22.0575 C   0  0  0  0  0  0  0  0  0  0  0  0
    6.8791   -6.2068   22.6118 C   0  0  0  0  0  0  0  0  0  0  0  0
   11.4452   -2.0286   23.7669 C   0  0  2  0  0  0  0  0  0  0  0  0
    9.9609   -4.1128   23.5718 C   0  0  2  0  0  0  0  0  0  0  0  0
    9.9921   -2.5553   23.5755 C   0  0  2  0  0  0  0  0  0  0  0  0
    8.5183   -4.5808   23.3541 C   0  0  1  0  0  0  0  0  0  0  0  0
    7.9199   -4.0819   22.0202 C   0  0  1  0  0  0  0  0  0  0  0  0
    6.5375   -4.8051   22.0376 C   0  0  2  0  0  0  0  0  0  0  0  0
    8.7258   -4.5393   20.7687 C   0  0  0  0  0  0  0  0  0  0  0  0
    5.4496   -4.1252   22.8786 C   0  0  0  0  0  0  0  0  0  0  0  0
    6.0116   -4.9363   20.7186 O   0  0  0  0  0  0  0  0  0  0  0  0
   13.2074   -2.4885   26.7616 H   0  0  0  0  0  0  0  0  0  0  0  0
    6.0392   -3.6247   26.2817 H   0  0  0  0  0  0  0  0  0  0  0  0
    5.9147   -2.3653   24.9197 H   0  0  0  0  0  0  0  0  0  0  0  0
    5.6632   -5.4058   24.6771 H   0  0  0  0  0  0  0  0  0  0  0  0
   12.3537    0.0023   26.5394 H   0  0  0  0  0  0  0  0  0  0  0  0
   14.0429   -0.2829   26.1207 H   0  0  0  0  0  0  0  0  0  0  0  0
   12.6212   -4.6261   24.2966 H   0  0  0  0  0  0  0  0  0  0  0  0
   12.3593   -4.5493   26.0345 H   0  0  0  0  0  0  0  0  0  0  0  0
   12.7603    1.1396   24.4453 H   0  0  0  0  0  0  0  0  0  0  0  0
   13.6079   -0.2453   23.7609 H   0  0  0  0  0  0  0  0  0  0  0  0
   10.5380   -5.7494   24.8813 H   0  0  0  0  0  0  0  0  0  0  0  0
    9.9352   -4.3295   25.7343 H   0  0  0  0  0  0  0  0  0  0  0  0
   10.6379   -0.1241   24.4650 H   0  0  0  0  0  0  0  0  0  0  0  0
   11.3249   -0.0610   22.8431 H   0  0  0  0  0  0  0  0  0  0  0  0
    9.9450   -2.1066   21.4431 H   0  0  0  0  0  0  0  0  0  0  0  0
    9.1924   -0.8763   22.4373 H   0  0  0  0  0  0  0  0  0  0  0  0
    8.1829   -6.4978   24.3447 H   0  0  0  0  0  0  0  0  0  0  0  0
    9.0087   -6.6276   22.7885 H   0  0  0  0  0  0  0  0  0  0  0  0
    7.2459   -2.1849   22.8564 H   0  0  0  0  0  0  0  0  0  0  0  0
    7.5068   -2.1400   21.1195 H   0  0  0  0  0  0  0  0  0  0  0  0
    6.9468   -6.9634   21.8212 H   0  0  0  0  0  0  0  0  0  0  0  0
    6.1093   -6.5545   23.3106 H   0  0  0  0  0  0  0  0  0  0  0  0
   12.0381   -2.3258   22.8898 H   0  0  0  0  0  0  0  0  0  0  0  0
   10.5948   -4.4824   22.7564 H   0  0  0  0  0  0  0  0  0  0  0  0
    9.4019   -2.2194   24.4426 H   0  0  0  0  0  0  0  0  0  0  0  0
    7.9310   -4.1647   24.1868 H   0  0  0  0  0  0  0  0  0  0  0  0
    8.7338   -5.6180   20.7460 H   0  0  0  0  0  0  0  0  0  0  0  0
    9.7301   -4.1541   20.8526 H   0  0  0  0  0  0  0  0  0  0  0  0
    8.2400   -4.1447   19.8897 H   0  0  0  0  0  0  0  0  0  0  0  0
    4.4750   -4.4918   22.5489 H   0  0  0  0  0  0  0  0  0  0  0  0
    5.4785   -3.0507   22.6875 H   0  0  0  0  0  0  0  0  0  0  0  0
    5.8164   -4.0384   20.4089 H   0  0  0  0  0  0  0  0  0  0  0  0
  1  2  2  0  0  0  0
  1  5  1  0  0  0  0
  2  6  1  0  0  0  0
  2 14  1  0  0  0  0
  3  4  2  0  0  0  0
  4 21  1  0  0  0  0
  5  7  1  0  0  0  0
  6  8  1  0  0  0  0
  7  9  1  0  0  0  0
  8 15  1  0  0  0  0
  9 14  1  0  0  0  0
 10 12  1  0  0  0  0
 10 16  1  0  0  0  0
 11 13  1  0  0  0  0
 11 17  1  0  0  0  0
 12 18  1  0  0  0  0
 13 19  1  0  0  0  0
 14 16  1  0  0  0  0
 15 16  1  0  0  0  0
 15 17  1  0  0  0  0
 17 18  1  0  0  0  0
 18 19  1  0  0  0  0
 18 20  1  0  0  0  0
 19 21  1  0  0  0  0
 19 22  1  0  0  0  0
  1 23  1  0  0  0  0
  3 24  1  0  0  0  0
  3 25  1  0  0  0  0
  4 26  1  0  0  0  0
  5 27  1  0  0  0  0
  5 28  1  0  0  0  0
  6 29  1  0  0  0  0
  6 30  1  0  0  0  0
  7 31  1  0  0  0  0
  7 32  1  0  0  0  0
  8 33  1  0  0  0  0
  8 34  1  0  0  0  0
  9 35  1  0  0  0  0
  9 36  1  0  0  0  0
 10 37  1  0  0  0  0
 10 38  1  0  0  0  0
 11 39  1  0  0  0  0
 11 40  1  0  0  0  0
 12 41  1  0  0  0  0
 12 42  1  0  0  0  0
 13 43  1  0  0  0  0
 13 44  1  0  0  0  0
 14 45  1  0  0  0  0
 15 46  1  0  0  0  0
 16 47  1  0  0  0  0
 17 48  1  0  0  0  0
 20 49  1  0  0  0  0
 20 50  1  0  0  0  0
 20 51  1  0  0  0  0
 21 52  1  0  0  0  0
 21 53  1  0  0  0  0
 22 54  1  0  0  0  0
M  END
> <Hybrid2>
-9.836720

> <docked_fragment>
x0749

> <Mpro-_dock>
4.29518

> <site>
active-covalent

$$$$
CHEMBL1868702
  -OEChem-04122014263D

 47 50  0     1  0  0  0  0  0999 V2000
    4.8406   -2.8761   23.2971 C   0  0  0  0  0  0  0  0  0  0  0  0
    5.5716   -3.5805   22.6564 C   0  0  0  0  0  0  0  0  0  0  0  0
    9.2568   -2.0080   22.7121 C   0  0  0  0  0  0  0  0  0  0  0  0
   12.9615   -2.5952   25.9823 C   0  0  0  0  0  0  0  0  0  0  0  0
    8.2741   -2.5240   21.9512 C   0  0  0  0  0  0  0  0  0  0  0  0
   10.1241   -2.7968   23.6037 C   0  0  0  0  0  0  0  0  0  0  0  0
   11.9224   -3.0771   25.2782 C   0  0  0  0  0  0  0  0  0  0  0  0
   11.1065   -2.2508   24.3685 C   0  0  0  0  0  0  0  0  0  0  0  0
   13.4421   -1.2091   25.7894 C   0  0  0  0  0  0  0  0  0  0  0  0
   11.5852   -4.5417   25.4261 C   0  0  0  0  0  0  0  0  0  0  0  0
   11.4134   -0.7624   24.4227 C   0  0  0  0  0  0  0  0  0  0  0  0
   12.8908   -0.4491   24.6147 C   0  0  0  0  0  0  0  0  0  0  0  0
   10.1386   -4.8535   25.0756 C   0  0  0  0  0  0  0  0  0  0  0  0
    7.7966   -5.9751   23.3174 C   0  0  0  0  0  0  0  0  0  0  0  0
    6.5049   -5.8777   22.4777 C   0  0  0  0  0  0  0  0  0  0  0  0
    9.8105   -4.3043   23.6830 C   0  0  1  0  0  0  0  0  0  0  0  0
    8.3371   -4.5501   23.3389 C   0  0  1  0  0  0  0  0  0  0  0  0
    6.4715   -4.4475   21.8684 C   0  0  2  0  0  0  0  0  0  0  0  0
    7.9618   -3.9985   21.9418 C   0  0  1  0  0  0  0  0  0  0  0  0
    8.3990   -3.9890   19.4828 C   0  0  0  0  0  0  0  0  0  0  0  0
    8.7823   -4.6089   20.7753 C   0  0  0  0  0  0  0  0  0  0  0  0
   14.3170   -0.7486   26.5181 O   0  0  0  0  0  0  0  0  0  0  0  0
    5.9717   -4.4803   20.5389 O   0  0  0  0  0  0  0  0  0  0  0  0
    4.1921   -2.2511   23.8653 H   0  0  0  0  0  0  0  0  0  0  0  0
    9.4027   -0.9347   22.6535 H   0  0  0  0  0  0  0  0  0  0  0  0
   13.4554   -3.1830   26.7498 H   0  0  0  0  0  0  0  0  0  0  0  0
    7.7186   -1.8739   21.2844 H   0  0  0  0  0  0  0  0  0  0  0  0
   12.2667   -5.1352   24.7817 H   0  0  0  0  0  0  0  0  0  0  0  0
   11.7837   -4.8921   26.4597 H   0  0  0  0  0  0  0  0  0  0  0  0
   11.0674   -0.3128   23.4771 H   0  0  0  0  0  0  0  0  0  0  0  0
   10.8686   -0.2431   25.2205 H   0  0  0  0  0  0  0  0  0  0  0  0
   13.0501    0.6207   24.7880 H   0  0  0  0  0  0  0  0  0  0  0  0
   13.4431   -0.7419   23.7158 H   0  0  0  0  0  0  0  0  0  0  0  0
    9.9825   -5.9404   25.0977 H   0  0  0  0  0  0  0  0  0  0  0  0
    9.4654   -4.4215   25.8311 H   0  0  0  0  0  0  0  0  0  0  0  0
    7.5871   -6.3483   24.3266 H   0  0  0  0  0  0  0  0  0  0  0  0
    8.5067   -6.6692   22.8520 H   0  0  0  0  0  0  0  0  0  0  0  0
    6.5128   -6.6532   21.7034 H   0  0  0  0  0  0  0  0  0  0  0  0
    5.6284   -6.0738   23.1065 H   0  0  0  0  0  0  0  0  0  0  0  0
   10.4582   -4.8221   22.9829 H   0  0  0  0  0  0  0  0  0  0  0  0
    7.7541   -4.0267   24.1145 H   0  0  0  0  0  0  0  0  0  0  0  0
    7.3341   -4.1796   19.3047 H   0  0  0  0  0  0  0  0  0  0  0  0
    8.9649   -4.4200   18.6500 H   0  0  0  0  0  0  0  0  0  0  0  0
    8.5519   -2.9047   19.4996 H   0  0  0  0  0  0  0  0  0  0  0  0
    9.8329   -4.4408   20.9865 H   0  0  0  0  0  0  0  0  0  0  0  0
    8.5928   -5.6769   20.7612 H   0  0  0  0  0  0  0  0  0  0  0  0
    5.0724   -4.8434   20.5859 H   0  0  0  0  0  0  0  0  0  0  0  0
  1  2  3  0  0  0  0
  2 18  1  0  0  0  0
  3  5  2  0  0  0  0
  3  6  1  0  0  0  0
  4  7  2  0  0  0  0
  4  9  1  0  0  0  0
  5 19  1  0  0  0  0
  6  8  2  0  0  0  0
  6 16  1  0  0  0  0
  7  8  1  0  0  0  0
  7 10  1  0  0  0  0
  8 11  1  0  0  0  0
  9 12  1  0  0  0  0
  9 22  2  0  0  0  0
 10 13  1  0  0  0  0
 11 12  1  0  0  0  0
 13 16  1  0  0  0  0
 14 15  1  0  0  0  0
 14 17  1  0  0  0  0
 15 18  1  0  0  0  0
 16 17  1  0  0  0  0
 17 19  1  0  0  0  0
 18 19  1  0  0  0  0
 18 23  1  0  0  0  0
 19 21  1  0  0  0  0
 20 21  1  0  0  0  0
  1 24  1  0  0  0  0
  3 25  1  0  0  0  0
  4 26  1  0  0  0  0
  5 27  1  0  0  0  0
 10 28  1  0  0  0  0
 10 29  1  0  0  0  0
 11 30  1  0  0  0  0
 11 31  1  0  0  0  0
 12 32  1  0  0  0  0
 12 33  1  0  0  0  0
 13 34  1  0  0  0  0
 13 35  1  0  0  0  0
 14 36  1  0  0  0  0
 14 37  1  0  0  0  0
 15 38  1  0  0  0  0
 15 39  1  0  0  0  0
 16 40  1  0  0  0  0
 17 41  1  0  0  0  0
 20 42  1  0  0  0  0
 20 43  1  0  0  0  0
 20 44  1  0  0  0  0
 21 45  1  0  0  0  0
 21 46  1  0  0  0  0
 23 47  1  0  0  0  0
M  END
> <Hybrid2>
-9.808918

> <docked_fragment>
x0749

> <Mpro-_dock>
4.773502

> <site>
active-covalent

$$$$
CHEMBL2104270
  -OEChem-04122014263D

 61 64  0     1  0  0  0  0  0999 V2000
    6.3990   -5.6368   24.8398 C   0  0  0  0  0  0  0  0  0  0  0  0
    7.4971   -5.0949   24.2743 C   0  0  0  0  0  0  0  0  0  0  0  0
   10.5920    1.6668   22.5727 C   0  0  0  0  0  0  0  0  0  0  0  0
    7.0982   -4.8803   27.1366 C   0  0  0  0  0  0  0  0  0  0  0  0
    9.6353   -1.8257   24.9102 C   0  0  0  0  0  0  0  0  0  0  0  0
    7.7893   -3.7276   26.4235 C   0  0  0  0  0  0  0  0  0  0  0  0
   10.8121   -1.3640   24.0522 C   0  0  0  0  0  0  0  0  0  0  0  0
    8.1014   -4.0482   22.0709 C   0  0  0  0  0  0  0  0  0  0  0  0
    8.1647   -1.0136   21.6250 C   0  0  0  0  0  0  0  0  0  0  0  0
    5.9848   -5.4498   26.2675 C   0  0  2  0  0  0  0  0  0  0  0  0
    7.9070   -5.3708   22.8265 C   0  0  2  0  0  0  0  0  0  0  0  0
    9.6828    0.4782   22.6702 C   0  0  1  0  0  0  0  0  0  0  0  0
    8.6989   -2.8473   24.2216 C   0  0  1  0  0  0  0  0  0  0  0  0
    9.1313   -3.1453   22.7661 C   0  0  2  0  0  0  0  0  0  0  0  0
    9.4052   -1.8629   21.9508 C   0  0  2  0  0  0  0  0  0  0  0  0
    8.7005    0.4089   21.4992 C   0  0  2  0  0  0  0  0  0  0  0  0
    8.4347   -4.1535   25.0652 C   0  0  2  0  0  0  0  0  0  0  0  0
   10.4197   -0.8938   22.6372 C   0  0  2  0  0  0  0  0  0  0  0  0
   11.6268    1.8178   23.6548 C   0  0  0  0  0  0  0  0  0  0  0  0
    6.9706   -6.2757   22.0129 C   0  0  0  0  0  0  0  0  0  0  0  0
    7.5927    1.4511   21.5705 C   0  0  0  0  0  0  0  0  0  0  0  0
    9.7447   -4.9237   25.3650 C   0  0  0  0  0  0  0  0  0  0  0  0
   11.7092   -0.8443   21.7848 C   0  0  0  0  0  0  0  0  0  0  0  0
   10.4980    2.4773   21.6523 O   0  0  0  0  0  0  0  0  0  0  0  0
    5.5864   -6.7119   26.7962 O   0  0  0  0  0  0  0  0  0  0  0  0
    5.7386   -6.2718   24.2546 H   0  0  0  0  0  0  0  0  0  0  0  0
    7.8197   -5.6628   27.4040 H   0  0  0  0  0  0  0  0  0  0  0  0
    6.6771   -4.5358   28.0896 H   0  0  0  0  0  0  0  0  0  0  0  0
   10.0198   -2.2400   25.8594 H   0  0  0  0  0  0  0  0  0  0  0  0
    9.0632   -0.9263   25.2002 H   0  0  0  0  0  0  0  0  0  0  0  0
    7.0480   -2.9351   26.2557 H   0  0  0  0  0  0  0  0  0  0  0  0
    8.5454   -3.3058   27.0958 H   0  0  0  0  0  0  0  0  0  0  0  0
   11.3308   -0.5599   24.5971 H   0  0  0  0  0  0  0  0  0  0  0  0
   11.5451   -2.1832   23.9842 H   0  0  0  0  0  0  0  0  0  0  0  0
    8.4402   -4.2568   21.0489 H   0  0  0  0  0  0  0  0  0  0  0  0
    7.1364   -3.5334   21.9882 H   0  0  0  0  0  0  0  0  0  0  0  0
    7.6900   -1.3369   20.6907 H   0  0  0  0  0  0  0  0  0  0  0  0
    7.4057   -1.0837   22.4126 H   0  0  0  0  0  0  0  0  0  0  0  0
    5.1097   -4.7907   26.2886 H   0  0  0  0  0  0  0  0  0  0  0  0
    8.8732   -5.8943   22.8548 H   0  0  0  0  0  0  0  0  0  0  0  0
    9.1511    0.5844   23.6393 H   0  0  0  0  0  0  0  0  0  0  0  0
    7.7007   -2.3442   24.1483 H   0  0  0  0  0  0  0  0  0  0  0  0
   10.0789   -3.6949   22.8014 H   0  0  0  0  0  0  0  0  0  0  0  0
    9.8393   -2.1886   20.9813 H   0  0  0  0  0  0  0  0  0  0  0  0
    9.2112    0.5009   20.5518 H   0  0  0  0  0  0  0  0  0  0  0  0
   12.5448    1.3007   23.3619 H   0  0  0  0  0  0  0  0  0  0  0  0
   11.2536    1.3771   24.5825 H   0  0  0  0  0  0  0  0  0  0  0  0
   11.8498    2.8771   23.8032 H   0  0  0  0  0  0  0  0  0  0  0  0
    5.9900   -5.8135   21.9457 H   0  0  0  0  0  0  0  0  0  0  0  0
    6.8840   -7.2405   22.5041 H   0  0  0  0  0  0  0  0  0  0  0  0
    7.3769   -6.4116   21.0148 H   0  0  0  0  0  0  0  0  0  0  0  0
    7.0671    1.3712   22.5219 H   0  0  0  0  0  0  0  0  0  0  0  0
    6.8821    1.2949   20.7592 H   0  0  0  0  0  0  0  0  0  0  0  0
    8.0165    2.4513   21.4828 H   0  0  0  0  0  0  0  0  0  0  0  0
   10.4106   -4.2755   25.9189 H   0  0  0  0  0  0  0  0  0  0  0  0
   10.2004   -5.2132   24.4276 H   0  0  0  0  0  0  0  0  0  0  0  0
    9.5060   -5.8015   25.9506 H   0  0  0  0  0  0  0  0  0  0  0  0
   11.4605   -0.5155   20.7818 H   0  0  0  0  0  0  0  0  0  0  0  0
   12.1495   -1.8345   21.7476 H   0  0  0  0  0  0  0  0  0  0  0  0
   12.4079   -0.1486   22.2363 H   0  0  0  0  0  0  0  0  0  0  0  0
    6.3573   -7.2960   26.7271 H   0  0  0  0  0  0  0  0  0  0  0  0
  1  2  2  0  0  0  0
  1 10  1  0  0  0  0
  2 11  1  0  0  0  0
  2 17  1  0  0  0  0
  3 12  1  0  0  0  0
  3 19  1  0  0  0  0
  3 24  2  0  0  0  0
  4  6  1  0  0  0  0
  4 10  1  0  0  0  0
  5  7  1  0  0  0  0
  5 13  1  0  0  0  0
  6 17  1  0  0  0  0
  7 18  1  0  0  0  0
  8 11  1  0  0  0  0
  8 14  1  0  0  0  0
  9 15  1  0  0  0  0
  9 16  1  0  0  0  0
 10 25  1  0  0  0  0
 11 20  1  0  0  0  0
 12 16  1  0  0  0  0
 12 18  1  0  0  0  0
 13 14  1  0  0  0  0
 13 17  1  0  0  0  0
 14 15  1  0  0  0  0
 15 18  1  0  0  0  0
 16 21  1  0  0  0  0
 17 22  1  0  0  0  0
 18 23  1  0  0  0  0
  1 26  1  0  0  0  0
  4 27  1  0  0  0  0
  4 28  1  0  0  0  0
  5 29  1  0  0  0  0
  5 30  1  0  0  0  0
  6 31  1  0  0  0  0
  6 32  1  0  0  0  0
  7 33  1  0  0  0  0
  7 34  1  0  0  0  0
  8 35  1  0  0  0  0
  8 36  1  0  0  0  0
  9 37  1  0  0  0  0
  9 38  1  0  0  0  0
 10 39  1  0  0  0  0
 11 40  1  0  0  0  0
 12 41  1  0  0  0  0
 13 42  1  0  0  0  0
 14 43  1  0  0  0  0
 15 44  1  0  0  0  0
 16 45  1  0  0  0  0
 19 46  1  0  0  0  0
 19 47  1  0  0  0  0
 19 48  1  0  0  0  0
 20 49  1  0  0  0  0
 20 50  1  0  0  0  0
 20 51  1  0  0  0  0
 21 52  1  0  0  0  0
 21 53  1  0  0  0  0
 21 54  1  0  0  0  0
 22 55  1  0  0  0  0
 22 56  1  0  0  0  0
 22 57  1  0  0  0  0
 23 58  1  0  0  0  0
 23 59  1  0  0  0  0
 23 60  1  0  0  0  0
 25 61  1  0  0  0  0
M  END
> <Hybrid2>
-9.804159

> <docked_fragment>
x1077

> <Mpro-_dock>
4.427132

> <site>
active-noncovalent

$$$$
DB04638
  -OEChem-04122014263D

 38 38  0     0  0  0  0  0  0999 V2000
    9.6605   -4.9996   24.2389 C   0  0  0  0  0  0  0  0  0  0  0  0
   10.3436   -2.4116   23.4526 C   0  0  0  0  0  0  0  0  0  0  0  0
    8.9063   -4.3446   23.2654 C   0  0  0  0  0  0  0  0  0  0  0  0
   11.0977   -3.0667   24.4261 C   0  0  0  0  0  0  0  0  0  0  0  0
   10.7562   -4.3606   24.8193 C   0  0  0  0  0  0  0  0  0  0  0  0
    9.2478   -3.0506   22.8722 C   0  0  0  0  0  0  0  0  0  0  0  0
    6.6767   -5.4177   23.7379 C   0  0  0  0  0  0  0  0  0  0  0  0
    8.1722   -6.3617   21.9466 C   0  0  0  0  0  0  0  0  0  0  0  0
    6.9565   -4.2251   21.5742 C   0  0  0  0  0  0  0  0  0  0  0  0
   11.8279   -1.0512   25.7492 C   0  0  0  0  0  0  0  0  0  0  0  0
   13.3255   -1.9883   23.9560 C   0  0  0  0  0  0  0  0  0  0  0  0
   13.0478   -3.1862   26.1169 C   0  0  0  0  0  0  0  0  0  0  0  0
    7.7009   -5.0639   22.6378 C   0  0  0  0  0  0  0  0  0  0  0  0
   12.2668   -2.3674   25.0369 C   0  0  0  0  0  0  0  0  0  0  0  0
   11.4817   -5.0144   25.7695 O   0  0  0  0  0  0  0  0  0  0  0  0
    8.5214   -2.3964   21.9231 O   0  0  0  0  0  0  0  0  0  0  0  0
    9.3951   -6.0072   24.5497 H   0  0  0  0  0  0  0  0  0  0  0  0
   10.6070   -1.4027   23.1441 H   0  0  0  0  0  0  0  0  0  0  0  0
    5.8056   -5.9325   23.3161 H   0  0  0  0  0  0  0  0  0  0  0  0
    7.1004   -6.0791   24.5016 H   0  0  0  0  0  0  0  0  0  0  0  0
    6.3171   -4.5155   24.2468 H   0  0  0  0  0  0  0  0  0  0  0  0
    7.3440   -6.9093   21.4838 H   0  0  0  0  0  0  0  0  0  0  0  0
    8.8967   -6.1460   21.1526 H   0  0  0  0  0  0  0  0  0  0  0  0
    8.6539   -7.0376   22.6631 H   0  0  0  0  0  0  0  0  0  0  0  0
    6.1072   -4.7796   21.1572 H   0  0  0  0  0  0  0  0  0  0  0  0
    6.5570   -3.2969   21.9992 H   0  0  0  0  0  0  0  0  0  0  0  0
    7.6123   -3.9627   20.7359 H   0  0  0  0  0  0  0  0  0  0  0  0
   12.6690   -0.5174   26.2069 H   0  0  0  0  0  0  0  0  0  0  0  0
   11.3504   -0.3560   25.0499 H   0  0  0  0  0  0  0  0  0  0  0  0
   11.1021   -1.2718   26.5409 H   0  0  0  0  0  0  0  0  0  0  0  0
   14.1857   -1.4748   24.3991 H   0  0  0  0  0  0  0  0  0  0  0  0
   13.7151   -2.8623   23.4210 H   0  0  0  0  0  0  0  0  0  0  0  0
   12.8850   -1.3119   23.2140 H   0  0  0  0  0  0  0  0  0  0  0  0
   13.8961   -2.6311   26.5351 H   0  0  0  0  0  0  0  0  0  0  0  0
   12.3927   -3.4517   26.9549 H   0  0  0  0  0  0  0  0  0  0  0  0
   13.4488   -4.1128   25.6897 H   0  0  0  0  0  0  0  0  0  0  0  0
   11.1119   -5.8976   25.9244 H   0  0  0  0  0  0  0  0  0  0  0  0
    8.8907   -1.5128   21.7687 H   0  0  0  0  0  0  0  0  0  0  0  0
  1  3  1  0  0  0  0
  1  5  2  0  0  0  0
  2  4  2  0  0  0  0
  2  6  1  0  0  0  0
  3  6  2  0  0  0  0
  3 13  1  0  0  0  0
  4  5  1  0  0  0  0
  4 14  1  0  0  0  0
  5 15  1  0  0  0  0
  6 16  1  0  0  0  0
  7 13  1  0  0  0  0
  8 13  1  0  0  0  0
  9 13  1  0  0  0  0
 10 14  1  0  0  0  0
 11 14  1  0  0  0  0
 12 14  1  0  0  0  0
  1 17  1  0  0  0  0
  2 18  1  0  0  0  0
  7 19  1  0  0  0  0
  7 20  1  0  0  0  0
  7 21  1  0  0  0  0
  8 22  1  0  0  0  0
  8 23  1  0  0  0  0
  8 24  1  0  0  0  0
  9 25  1  0  0  0  0
  9 26  1  0  0  0  0
  9 27  1  0  0  0  0
 10 28  1  0  0  0  0
 10 29  1  0  0  0  0
 10 30  1  0  0  0  0
 11 31  1  0  0  0  0
 11 32  1  0  0  0  0
 11 33  1  0  0  0  0
 12 34  1  0  0  0  0
 12 35  1  0  0  0  0
 12 36  1  0  0  0  0
 15 37  1  0  0  0  0
 16 38  1  0  0  0  0
M  END
> <Hybrid2>
-9.760643

> <docked_fragment>
x0749

> <Mpro-_dock>
-0.399283

> <site>
active-covalent

$$$$
CHEMBL2104107
  -OEChem-04122014263D

 55 59  0     1  0  0  0  0  0999 V2000
   13.1485   -0.5421   25.1196 C   0  0  0  0  0  0  0  0  0  0  0  0
   12.9824   -2.9878   25.7282 C   0  0  0  0  0  0  0  0  0  0  0  0
   11.8015   -3.9750   25.6842 C   0  0  0  0  0  0  0  0  0  0  0  0
    6.1762   -4.7915   20.8208 C   0  0  0  0  0  0  0  0  0  0  0  0
    9.2134   -1.9178   22.8146 C   0  0  0  0  0  0  0  0  0  0  0  0
    7.1397   -3.6649   21.2046 C   0  0  0  0  0  0  0  0  0  0  0  0
   10.6624   -1.4812   23.0956 C   0  0  0  0  0  0  0  0  0  0  0  0
    9.4433   -5.5640   24.3305 C   0  0  0  0  0  0  0  0  0  0  0  0
    6.1673   -6.2239   22.9937 C   0  0  0  0  0  0  0  0  0  0  0  0
   12.6765   -1.8946   24.6822 C   0  0  1  0  0  0  0  0  0  0  0  0
    6.6630   -5.9724   21.6038 C   0  0  2  0  0  0  0  0  0  0  0  0
   11.0195   -3.5510   24.4443 C   0  0  1  0  0  0  0  0  0  0  0  0
    9.0157   -3.4489   22.9363 C   0  0  1  0  0  0  0  0  0  0  0  0
    9.5710   -4.0264   24.2730 C   0  0  1  0  0  0  0  0  0  0  0  0
    8.7961   -6.1812   23.0885 C   0  0  2  0  0  0  0  0  0  0  0  0
    7.4849   -5.4900   22.7742 C   0  0  2  0  0  0  0  0  0  0  0  0
   11.1538   -2.0097   24.4517 C   0  0  2  0  0  0  0  0  0  0  0  0
    7.5515   -3.9408   22.6801 C   0  0  2  0  0  0  0  0  0  0  0  0
   12.9237    0.5959   24.1610 C   0  0  0  0  0  0  0  0  0  0  0  0
   10.3706   -1.3174   25.5996 C   0  0  0  0  0  0  0  0  0  0  0  0
    6.5453   -3.2832   23.6456 C   0  0  0  0  0  0  0  0  0  0  0  0
   13.6912   -0.3697   26.2099 O   0  0  0  0  0  0  0  0  0  0  0  0
    8.6133   -7.5786   23.3146 O   0  0  0  0  0  0  0  0  0  0  0  0
   13.1019   -2.5839   26.7400 H   0  0  0  0  0  0  0  0  0  0  0  0
   13.9188   -3.4974   25.4729 H   0  0  0  0  0  0  0  0  0  0  0  0
   12.1533   -5.0093   25.6158 H   0  0  0  0  0  0  0  0  0  0  0  0
   11.1940   -3.8902   26.5919 H   0  0  0  0  0  0  0  0  0  0  0  0
    5.1422   -4.5384   21.0662 H   0  0  0  0  0  0  0  0  0  0  0  0
    6.2386   -5.0050   19.7497 H   0  0  0  0  0  0  0  0  0  0  0  0
    8.5500   -1.3898   23.5023 H   0  0  0  0  0  0  0  0  0  0  0  0
    8.9512   -1.5799   21.8095 H   0  0  0  0  0  0  0  0  0  0  0  0
    7.9816   -3.6007   20.5036 H   0  0  0  0  0  0  0  0  0  0  0  0
    6.6082   -2.7026   21.1286 H   0  0  0  0  0  0  0  0  0  0  0  0
   11.3035   -1.8572   22.2887 H   0  0  0  0  0  0  0  0  0  0  0  0
   10.7293   -0.3878   23.0608 H   0  0  0  0  0  0  0  0  0  0  0  0
   10.4442   -6.0096   24.4778 H   0  0  0  0  0  0  0  0  0  0  0  0
    8.8448   -5.8436   25.2156 H   0  0  0  0  0  0  0  0  0  0  0  0
    5.3083   -5.6730   23.3589 H   0  0  0  0  0  0  0  0  0  0  0  0
    6.1986   -7.2464   23.3581 H   0  0  0  0  0  0  0  0  0  0  0  0
   13.2191   -2.1299   23.7578 H   0  0  0  0  0  0  0  0  0  0  0  0
    7.0048   -6.8025   21.0045 H   0  0  0  0  0  0  0  0  0  0  0  0
   11.5838   -3.9413   23.5816 H   0  0  0  0  0  0  0  0  0  0  0  0
    9.6424   -3.8979   22.1425 H   0  0  0  0  0  0  0  0  0  0  0  0
    8.9702   -3.6149   25.1186 H   0  0  0  0  0  0  0  0  0  0  0  0
    9.5017   -6.0748   22.2572 H   0  0  0  0  0  0  0  0  0  0  0  0
   11.9510    1.0559   24.3562 H   0  0  0  0  0  0  0  0  0  0  0  0
   12.9370    0.2188   23.1354 H   0  0  0  0  0  0  0  0  0  0  0  0
   13.7042    1.3485   24.2964 H   0  0  0  0  0  0  0  0  0  0  0  0
   10.7302   -1.7019   26.5437 H   0  0  0  0  0  0  0  0  0  0  0  0
    9.3189   -1.5371   25.4814 H   0  0  0  0  0  0  0  0  0  0  0  0
   10.5404   -0.2516   25.5395 H   0  0  0  0  0  0  0  0  0  0  0  0
    6.8449   -3.4838   24.6698 H   0  0  0  0  0  0  0  0  0  0  0  0
    5.5557   -3.6939   23.4693 H   0  0  0  0  0  0  0  0  0  0  0  0
    6.5299   -2.2110   23.4746 H   0  0  0  0  0  0  0  0  0  0  0  0
    8.0360   -7.6576   24.0890 H   0  0  0  0  0  0  0  0  0  0  0  0
  1 10  1  0  0  0  0
  1 19  1  0  0  0  0
  1 22  2  0  0  0  0
  2  3  1  0  0  0  0
  2 10  1  0  0  0  0
  3 12  1  0  0  0  0
  4  6  1  0  0  0  0
  4 11  1  0  0  0  0
  5  7  1  0  0  0  0
  5 13  1  0  0  0  0
  6 18  1  0  0  0  0
  7 17  1  0  0  0  0
  8 14  1  0  0  0  0
  8 15  1  0  0  0  0
  9 11  1  0  0  0  0
  9 16  1  0  0  0  0
 10 17  1  0  0  0  0
 11 16  1  0  0  0  0
 12 14  1  0  0  0  0
 12 17  1  0  0  0  0
 13 14  1  0  0  0  0
 13 18  1  0  0  0  0
 15 16  1  0  0  0  0
 15 23  1  0  0  0  0
 16 18  1  0  0  0  0
 17 20  1  0  0  0  0
 18 21  1  0  0  0  0
  2 24  1  0  0  0  0
  2 25  1  0  0  0  0
  3 26  1  0  0  0  0
  3 27  1  0  0  0  0
  4 28  1  0  0  0  0
  4 29  1  0  0  0  0
  5 30  1  0  0  0  0
  5 31  1  0  0  0  0
  6 32  1  0  0  0  0
  6 33  1  0  0  0  0
  7 34  1  0  0  0  0
  7 35  1  0  0  0  0
  8 36  1  0  0  0  0
  8 37  1  0  0  0  0
  9 38  1  0  0  0  0
  9 39  1  0  0  0  0
 10 40  1  0  0  0  0
 11 41  1  0  0  0  0
 12 42  1  0  0  0  0
 13 43  1  0  0  0  0
 14 44  1  0  0  0  0
 15 45  1  0  0  0  0
 19 46  1  0  0  0  0
 19 47  1  0  0  0  0
 19 48  1  0  0  0  0
 20 49  1  0  0  0  0
 20 50  1  0  0  0  0
 20 51  1  0  0  0  0
 21 52  1  0  0  0  0
 21 53  1  0  0  0  0
 21 54  1  0  0  0  0
 23 55  1  0  0  0  0
M  END
> <Hybrid2>
-9.707248

> <docked_fragment>
x0749

> <Mpro-_dock>
0.78759

> <site>
active-covalent

$$$$
DB01037
  -OEChem-04122014263D

 32 32  0     1  0  0  0  0  0999 V2000
    9.8009    6.6993   23.5777 C   0  0  0  0  0  0  0  0  0  0  0  0
   10.4045    5.6655   23.6687 C   0  0  0  0  0  0  0  0  0  0  0  0
   13.9995   -2.0587   23.3335 C   0  0  0  0  0  0  0  0  0  0  0  0
   13.4139   -1.6710   24.5386 C   0  0  0  0  0  0  0  0  0  0  0  0
   14.0258   -1.1748   22.2547 C   0  0  0  0  0  0  0  0  0  0  0  0
   12.8545   -0.3995   24.6650 C   0  0  0  0  0  0  0  0  0  0  0  0
   13.4664    0.0968   22.3811 C   0  0  0  0  0  0  0  0  0  0  0  0
   12.8808    0.4844   23.5863 C   0  0  0  0  0  0  0  0  0  0  0  0
   12.8113    3.0666   21.5667 C   0  0  0  0  0  0  0  0  0  0  0  0
    9.3476    2.8608   23.0205 C   0  0  0  0  0  0  0  0  0  0  0  0
   11.1415    4.4097   23.7841 C   0  0  0  0  0  0  0  0  0  0  0  0
   12.2781    1.8542   23.7217 C   0  0  0  0  0  0  0  0  0  0  0  0
   11.7202    2.4169   22.4077 C   0  0  1  0  0  0  0  0  0  0  0  0
   10.6941    3.4576   22.7064 N   0  3  1  0  0  0  0  0  0  0  0  0
    9.2652    7.6160   23.4965 H   0  0  0  0  0  0  0  0  0  0  0  0
   14.4362   -3.0483   23.2356 H   0  0  0  0  0  0  0  0  0  0  0  0
   13.3943   -2.3587   25.3790 H   0  0  0  0  0  0  0  0  0  0  0  0
   14.4826   -1.4758   21.3166 H   0  0  0  0  0  0  0  0  0  0  0  0
   12.4003   -0.1062   25.6078 H   0  0  0  0  0  0  0  0  0  0  0  0
   13.4913    0.7787   21.5352 H   0  0  0  0  0  0  0  0  0  0  0  0
   13.3350    3.8431   22.1349 H   0  0  0  0  0  0  0  0  0  0  0  0
   13.5538    2.3325   21.2349 H   0  0  0  0  0  0  0  0  0  0  0  0
   12.3819    3.5384   20.6766 H   0  0  0  0  0  0  0  0  0  0  0  0
    9.4526    2.2566   23.9235 H   0  0  0  0  0  0  0  0  0  0  0  0
    8.6462    3.6825   23.1773 H   0  0  0  0  0  0  0  0  0  0  0  0
    9.0480    2.2459   22.1696 H   0  0  0  0  0  0  0  0  0  0  0  0
   10.9560    3.9129   24.7401 H   0  0  0  0  0  0  0  0  0  0  0  0
   12.2172    4.5528   23.6512 H   0  0  0  0  0  0  0  0  0  0  0  0
   13.0545    2.5334   24.1006 H   0  0  0  0  0  0  0  0  0  0  0  0
   11.4942    1.8478   24.4911 H   0  0  0  0  0  0  0  0  0  0  0  0
   11.2085    1.6443   21.8235 H   0  0  0  0  0  0  0  0  0  0  0  0
   10.5700    4.0226   21.8517 H   0  0  0  0  0  0  0  0  0  0  0  0
  1  2  3  0  0  0  0
  2 11  1  0  0  0  0
  3  4  1  0  0  0  0
  3  5  2  0  0  0  0
  4  6  2  0  0  0  0
  5  7  1  0  0  0  0
  6  8  1  0  0  0  0
  7  8  2  0  0  0  0
  8 12  1  0  0  0  0
  9 13  1  0  0  0  0
 10 14  1  0  0  0  0
 11 14  1  0  0  0  0
 12 13  1  0  0  0  0
 13 14  1  0  0  0  0
  1 15  1  0  0  0  0
  3 16  1  0  0  0  0
  4 17  1  0  0  0  0
  5 18  1  0  0  0  0
  6 19  1  0  0  0  0
  7 20  1  0  0  0  0
  9 21  1  0  0  0  0
  9 22  1  0  0  0  0
  9 23  1  0  0  0  0
 10 24  1  0  0  0  0
 10 25  1  0  0  0  0
 10 26  1  0  0  0  0
 11 27  1  0  0  0  0
 11 28  1  0  0  0  0
 12 29  1  0  0  0  0
 12 30  1  0  0  0  0
 13 31  1  0  0  0  0
 14 32  1  0  0  0  0
M  CHG  1  14   1
M  END
> <Hybrid2>
-9.698182

> <docked_fragment>
x0161

> <Mpro-_dock>
-1.042359

> <site>
active-noncovalent

$$$$
CHEMBL1479
  -OEChem-04122014263D

 52 56  0     1  0  0  0  0  0999 V2000
    8.4188   -7.5802   20.8316 C   0  0  0  0  0  0  0  0  0  0  0  0
    7.7039   -6.8367   21.4457 C   0  0  0  0  0  0  0  0  0  0  0  0
   14.2864   -2.5415   26.8869 C   0  0  0  0  0  0  0  0  0  0  0  0
   13.3277   -2.5798   25.8671 C   0  0  0  0  0  0  0  0  0  0  0  0
   13.6789   -1.5599   25.0049 C   0  0  0  0  0  0  0  0  0  0  0  0
   12.9774   -1.2486   23.8165 C   0  0  0  0  0  0  0  0  0  0  0  0
   11.7670   -1.8232   23.6367 C   0  0  0  0  0  0  0  0  0  0  0  0
   12.1535   -3.4532   25.6012 C   0  0  0  0  0  0  0  0  0  0  0  0
   11.0735   -1.7035   22.2995 C   0  0  0  0  0  0  0  0  0  0  0  0
    9.5519   -1.7857   22.3718 C   0  0  0  0  0  0  0  0  0  0  0  0
    7.1124   -3.5638   21.4702 C   0  0  0  0  0  0  0  0  0  0  0  0
    9.5446   -4.8250   24.8954 C   0  0  0  0  0  0  0  0  0  0  0  0
    6.2545   -4.8294   21.2580 C   0  0  0  0  0  0  0  0  0  0  0  0
    8.6717   -5.8117   24.0921 C   0  0  0  0  0  0  0  0  0  0  0  0
    9.0153   -2.9669   23.2058 C   0  0  2  0  0  0  0  0  0  0  0  0
   10.1385   -3.7082   24.0021 C   0  0  1  0  0  0  0  0  0  0  0  0
    8.2489   -4.0140   22.3860 C   0  0  1  0  0  0  0  0  0  0  0  0
    6.8249   -5.9219   22.2006 C   0  0  2  0  0  0  0  0  0  0  0  0
   11.0825   -2.6969   24.7302 C   0  0  2  0  0  0  0  0  0  0  0  0
    7.5782   -5.0888   23.2809 C   0  0  1  0  0  0  0  0  0  0  0  0
   10.2878   -1.7605   25.6792 C   0  0  0  0  0  0  0  0  0  0  0  0
    6.5414   -4.5068   24.2903 C   0  0  0  0  0  0  0  0  0  0  0  0
   15.1842   -1.5733   26.6837 N   0  0  0  0  0  0  0  0  0  0  0  0
   14.8067   -0.9626   25.4930 O   0  0  0  0  0  0  0  0  0  0  0  0
    5.7705   -6.6862   22.7700 O   0  0  0  0  0  0  0  0  0  0  0  0
    9.0529   -8.2400   20.2870 H   0  0  0  0  0  0  0  0  0  0  0  0
   14.3815   -3.1712   27.7591 H   0  0  0  0  0  0  0  0  0  0  0  0
   13.3930   -0.5354   23.1212 H   0  0  0  0  0  0  0  0  0  0  0  0
   12.5312   -4.3239   25.0633 H   0  0  0  0  0  0  0  0  0  0  0  0
   11.7274   -3.8033   26.5394 H   0  0  0  0  0  0  0  0  0  0  0  0
   11.3648   -0.7439   21.8326 H   0  0  0  0  0  0  0  0  0  0  0  0
   11.4300   -2.4823   21.5992 H   0  0  0  0  0  0  0  0  0  0  0  0
    9.1717   -0.8309   22.7885 H   0  0  0  0  0  0  0  0  0  0  0  0
    9.1366   -1.8363   21.3425 H   0  0  0  0  0  0  0  0  0  0  0  0
    7.4874   -3.1775   20.5171 H   0  0  0  0  0  0  0  0  0  0  0  0
    6.5122   -2.7734   21.9341 H   0  0  0  0  0  0  0  0  0  0  0  0
    8.9496   -4.3995   25.7019 H   0  0  0  0  0  0  0  0  0  0  0  0
   10.3442   -5.3991   25.3657 H   0  0  0  0  0  0  0  0  0  0  0  0
    5.2054   -4.6028   21.4827 H   0  0  0  0  0  0  0  0  0  0  0  0
    6.2835   -5.1369   20.2054 H   0  0  0  0  0  0  0  0  0  0  0  0
    9.3395   -6.3774   23.4300 H   0  0  0  0  0  0  0  0  0  0  0  0
    8.2223   -6.5441   24.7749 H   0  0  0  0  0  0  0  0  0  0  0  0
    8.2959   -2.5296   23.9522 H   0  0  0  0  0  0  0  0  0  0  0  0
   10.7454   -4.2142   23.2393 H   0  0  0  0  0  0  0  0  0  0  0  0
    8.9903   -4.5098   21.7430 H   0  0  0  0  0  0  0  0  0  0  0  0
    9.8100   -2.3617   26.4410 H   0  0  0  0  0  0  0  0  0  0  0  0
    9.5433   -1.2301   25.1010 H   0  0  0  0  0  0  0  0  0  0  0  0
   10.9762   -1.0605   26.1334 H   0  0  0  0  0  0  0  0  0  0  0  0
    5.7719   -3.9987   23.7303 H   0  0  0  0  0  0  0  0  0  0  0  0
    7.0542   -3.8175   24.9428 H   0  0  0  0  0  0  0  0  0  0  0  0
    6.1227   -5.3249   24.8553 H   0  0  0  0  0  0  0  0  0  0  0  0
    6.1830   -7.3425   23.3550 H   0  0  0  0  0  0  0  0  0  0  0  0
  1  2  3  0  0  0  0
  2 18  1  0  0  0  0
  3  4  1  0  0  0  0
  3 23  2  0  0  0  0
  4  5  2  0  0  0  0
  4  8  1  0  0  0  0
  5  6  1  0  0  0  0
  5 24  1  0  0  0  0
  6  7  2  0  0  0  0
  7  9  1  0  0  0  0
  7 19  1  0  0  0  0
  8 19  1  0  0  0  0
  9 10  1  0  0  0  0
 10 15  1  0  0  0  0
 11 13  1  0  0  0  0
 11 17  1  0  0  0  0
 12 14  1  0  0  0  0
 12 16  1  0  0  0  0
 13 18  1  0  0  0  0
 14 20  1  0  0  0  0
 15 16  1  0  0  0  0
 15 17  1  0  0  0  0
 16 19  1  0  0  0  0
 17 20  1  0  0  0  0
 18 20  1  0  0  0  0
 18 25  1  0  0  0  0
 19 21  1  0  0  0  0
 20 22  1  0  0  0  0
 23 24  1  0  0  0  0
  1 26  1  0  0  0  0
  3 27  1  0  0  0  0
  6 28  1  0  0  0  0
  8 29  1  0  0  0  0
  8 30  1  0  0  0  0
  9 31  1  0  0  0  0
  9 32  1  0  0  0  0
 10 33  1  0  0  0  0
 10 34  1  0  0  0  0
 11 35  1  0  0  0  0
 11 36  1  0  0  0  0
 12 37  1  0  0  0  0
 12 38  1  0  0  0  0
 13 39  1  0  0  0  0
 13 40  1  0  0  0  0
 14 41  1  0  0  0  0
 14 42  1  0  0  0  0
 15 43  1  0  0  0  0
 16 44  1  0  0  0  0
 17 45  1  0  0  0  0
 21 46  1  0  0  0  0
 21 47  1  0  0  0  0
 21 48  1  0  0  0  0
 22 49  1  0  0  0  0
 22 50  1  0  0  0  0
 22 51  1  0  0  0  0
 25 52  1  0  0  0  0
M  END
> <Hybrid2>
-9.696914

> <docked_fragment>
x0749

> <Mpro-_dock>
3.200312

> <site>
active-covalent

$$$$
CHEMBL1200624
  -OEChem-04122014263D

 60 63  0     1  0  0  0  0  0999 V2000
    8.5549    6.1175   22.1883 C   0  0  0  0  0  0  0  0  0  0  0  0
    9.5250    6.0425   22.8914 C   0  0  0  0  0  0  0  0  0  0  0  0
   10.7034   -1.6723   23.1915 C   0  0  0  0  0  0  0  0  0  0  0  0
   11.3126   -0.5993   23.7246 C   0  0  0  0  0  0  0  0  0  0  0  0
    8.5753   -4.3376   24.2416 C   0  0  0  0  0  0  0  0  0  0  0  0
    9.4688    7.3617   25.1825 C   0  0  0  0  0  0  0  0  0  0  0  0
   12.5707   -0.0205   23.1390 C   0  0  0  0  0  0  0  0  0  0  0  0
   12.3123    1.4198   22.6920 C   0  0  0  0  0  0  0  0  0  0  0  0
    8.6357   -1.2079   24.5690 C   0  0  0  0  0  0  0  0  0  0  0  0
    9.5914   -0.5844   25.5832 C   0  0  0  0  0  0  0  0  0  0  0  0
   12.4869    4.5354   22.7356 C   0  0  0  0  0  0  0  0  0  0  0  0
    9.7457    2.4975   25.4802 C   0  0  0  0  0  0  0  0  0  0  0  0
   12.0066    5.9930   22.8923 C   0  0  0  0  0  0  0  0  0  0  0  0
    9.5417    3.9569   25.0320 C   0  0  0  0  0  0  0  0  0  0  0  0
    9.3751   -2.1910   23.6575 C   0  0  2  0  0  0  0  0  0  0  0  0
   10.7485    0.1755   24.9047 C   0  0  2  0  0  0  0  0  0  0  0  0
   11.7109    2.2716   23.8265 C   0  0  2  0  0  0  0  0  0  0  0  0
   10.4129    1.6093   24.4034 C   0  0  2  0  0  0  0  0  0  0  0  0
   11.3787    3.6919   23.3610 C   0  0  1  0  0  0  0  0  0  0  0  0
   10.7183    5.9502   23.7558 C   0  0  2  0  0  0  0  0  0  0  0  0
   10.8423    4.5865   24.5009 C   0  0  1  0  0  0  0  0  0  0  0  0
    8.9223   -5.5662   25.0265 C   0  0  0  0  0  0  0  0  0  0  0  0
    9.4087    8.8282   25.4855 C   0  0  0  0  0  0  0  0  0  0  0  0
   11.8325    4.7389   25.6935 C   0  0  0  0  0  0  0  0  0  0  0  0
    7.5428   -4.2041   23.5987 O   0  0  0  0  0  0  0  0  0  0  0  0
    8.5450    6.5834   25.3771 O   0  0  0  0  0  0  0  0  0  0  0  0
    9.5766   -3.4156   24.3595 O   0  0  0  0  0  0  0  0  0  0  0  0
   10.6947    7.0417   24.6660 O   0  0  0  0  0  0  0  0  0  0  0  0
    7.6942    6.1841   21.5646 H   0  0  0  0  0  0  0  0  0  0  0  0
   11.1908   -2.2250   22.3913 H   0  0  0  0  0  0  0  0  0  0  0  0
   13.3484   -0.0292   23.8992 H   0  0  0  0  0  0  0  0  0  0  0  0
   12.9243   -0.5972   22.2891 H   0  0  0  0  0  0  0  0  0  0  0  0
   13.2622    1.8567   22.3540 H   0  0  0  0  0  0  0  0  0  0  0  0
   11.6391    1.4225   21.8216 H   0  0  0  0  0  0  0  0  0  0  0  0
    7.8133   -1.7147   25.0898 H   0  0  0  0  0  0  0  0  0  0  0  0
    8.1667   -0.4258   23.9610 H   0  0  0  0  0  0  0  0  0  0  0  0
    9.0208    0.0907   26.2358 H   0  0  0  0  0  0  0  0  0  0  0  0
    9.9907   -1.3809   26.2233 H   0  0  0  0  0  0  0  0  0  0  0  0
   12.6440    4.2822   21.6818 H   0  0  0  0  0  0  0  0  0  0  0  0
   13.4415    4.3929   23.2545 H   0  0  0  0  0  0  0  0  0  0  0  0
   10.3353    2.4675   26.4039 H   0  0  0  0  0  0  0  0  0  0  0  0
    8.7594    2.0936   25.7382 H   0  0  0  0  0  0  0  0  0  0  0  0
   12.7954    6.5904   23.3649 H   0  0  0  0  0  0  0  0  0  0  0  0
   11.8289    6.4431   21.9081 H   0  0  0  0  0  0  0  0  0  0  0  0
    8.7656    3.9560   24.2565 H   0  0  0  0  0  0  0  0  0  0  0  0
    9.1417    4.5458   25.8668 H   0  0  0  0  0  0  0  0  0  0  0  0
    8.7617   -2.4217   22.7689 H   0  0  0  0  0  0  0  0  0  0  0  0
   11.5834    0.2494   25.6263 H   0  0  0  0  0  0  0  0  0  0  0  0
   12.4683    2.3206   24.6269 H   0  0  0  0  0  0  0  0  0  0  0  0
    9.7049    1.5177   23.5734 H   0  0  0  0  0  0  0  0  0  0  0  0
   10.5971    3.5897   22.5909 H   0  0  0  0  0  0  0  0  0  0  0  0
    9.4718   -6.2676   24.3938 H   0  0  0  0  0  0  0  0  0  0  0  0
    8.0109   -6.0289   25.4135 H   0  0  0  0  0  0  0  0  0  0  0  0
    9.5575   -5.2886   25.8726 H   0  0  0  0  0  0  0  0  0  0  0  0
    9.7464    9.0097   26.5088 H   0  0  0  0  0  0  0  0  0  0  0  0
    8.3884    9.1943   25.3456 H   0  0  0  0  0  0  0  0  0  0  0  0
   10.0686    9.3675   24.7998 H   0  0  0  0  0  0  0  0  0  0  0  0
   12.7445    5.1801   25.3225 H   0  0  0  0  0  0  0  0  0  0  0  0
   12.0237    3.7590   26.1025 H   0  0  0  0  0  0  0  0  0  0  0  0
   11.3756    5.3771   26.4339 H   0  0  0  0  0  0  0  0  0  0  0  0
  1  2  3  0  0  0  0
  2 20  1  0  0  0  0
  3  4  2  0  0  0  0
  3 15  1  0  0  0  0
  4  7  1  0  0  0  0
  4 16  1  0  0  0  0
  5 22  1  0  0  0  0
  5 25  2  0  0  0  0
  5 27  1  0  0  0  0
  6 23  1  0  0  0  0
  6 26  2  0  0  0  0
  6 28  1  0  0  0  0
  7  8  1  0  0  0  0
  8 17  1  0  0  0  0
  9 10  1  0  0  0  0
  9 15  1  0  0  0  0
 10 16  1  0  0  0  0
 11 13  1  0  0  0  0
 11 19  1  0  0  0  0
 12 14  1  0  0  0  0
 12 18  1  0  0  0  0
 13 20  1  0  0  0  0
 14 21  1  0  0  0  0
 15 27  1  0  0  0  0
 16 18  1  0  0  0  0
 17 18  1  0  0  0  0
 17 19  1  0  0  0  0
 19 21  1  0  0  0  0
 20 21  1  0  0  0  0
 20 28  1  0  0  0  0
 21 24  1  0  0  0  0
  1 29  1  0  0  0  0
  3 30  1  0  0  0  0
  7 31  1  0  0  0  0
  7 32  1  0  0  0  0
  8 33  1  0  0  0  0
  8 34  1  0  0  0  0
  9 35  1  0  0  0  0
  9 36  1  0  0  0  0
 10 37  1  0  0  0  0
 10 38  1  0  0  0  0
 11 39  1  0  0  0  0
 11 40  1  0  0  0  0
 12 41  1  0  0  0  0
 12 42  1  0  0  0  0
 13 43  1  0  0  0  0
 13 44  1  0  0  0  0
 14 45  1  0  0  0  0
 14 46  1  0  0  0  0
 15 47  1  0  0  0  0
 16 48  1  0  0  0  0
 17 49  1  0  0  0  0
 18 50  1  0  0  0  0
 19 51  1  0  0  0  0
 22 52  1  0  0  0  0
 22 53  1  0  0  0  0
 22 54  1  0  0  0  0
 23 55  1  0  0  0  0
 23 56  1  0  0  0  0
 23 57  1  0  0  0  0
 24 58  1  0  0  0  0
 24 59  1  0  0  0  0
 24 60  1  0  0  0  0
M  END
> <Hybrid2>
-9.683345

> <docked_fragment>
x0104

> <Mpro-_dock>
4.714324

> <site>
active-noncovalent

$$$$
CHEMBL1213352
  -OEChem-04122014263D

 35 37  0     1  0  0  0  0  0999 V2000
    4.9535   -2.3548   25.5165 C   0  0  0  0  0  0  0  0  0  0  0  0
    5.8013   -2.8872   26.1792 C   0  0  0  0  0  0  0  0  0  0  0  0
    6.2923   -5.6285   21.6660 C   0  0  0  0  0  0  0  0  0  0  0  0
    6.2823   -4.2824   22.0315 C   0  0  0  0  0  0  0  0  0  0  0  0
    7.4003   -6.4230   21.9606 C   0  0  0  0  0  0  0  0  0  0  0  0
    7.3805   -3.7308   22.6914 C   0  0  0  0  0  0  0  0  0  0  0  0
    8.4984   -5.8714   22.6205 C   0  0  0  0  0  0  0  0  0  0  0  0
    8.4734   -1.3066   26.2456 C   0  0  0  0  0  0  0  0  0  0  0  0
    9.0394   -0.1450   25.7163 C   0  0  0  0  0  0  0  0  0  0  0  0
   10.0238   -1.4429   23.9536 C   0  0  0  0  0  0  0  0  0  0  0  0
    8.4885   -4.5253   22.9860 C   0  0  0  0  0  0  0  0  0  0  0  0
    9.4579   -2.6261   24.4732 C   0  0  0  0  0  0  0  0  0  0  0  0
    8.6826   -2.5682   25.6517 C   0  0  0  0  0  0  0  0  0  0  0  0
    9.8184   -0.2132   24.5715 C   0  0  0  0  0  0  0  0  0  0  0  0
    9.9109   -5.2888   25.6298 C   0  0  0  0  0  0  0  0  0  0  0  0
    8.5076   -5.0453   26.0596 C   0  0  0  0  0  0  0  0  0  0  0  0
    9.6932   -3.9209   23.7095 C   0  0  1  0  0  0  0  0  0  0  0  0
    6.8321   -3.5374   26.9920 C   0  0  0  0  0  0  0  0  0  0  0  0
   10.4558   -4.8434   24.5593 N   0  0  0  0  0  0  0  0  0  0  0  0
    8.0565   -3.7334   26.2138 N   0  0  0  0  0  0  0  0  0  0  0  0
    7.8936   -6.0711   26.3434 O   0  0  0  0  0  0  0  0  0  0  0  0
   10.5303    1.2124   23.9255 Cl  0  0  0  0  0  0  0  0  0  0  0  0
    4.2016   -1.8830   24.9281 H   0  0  0  0  0  0  0  0  0  0  0  0
    5.4366   -6.0581   21.1534 H   0  0  0  0  0  0  0  0  0  0  0  0
    5.4193   -3.6638   21.8032 H   0  0  0  0  0  0  0  0  0  0  0  0
    7.4079   -7.4713   21.6772 H   0  0  0  0  0  0  0  0  0  0  0  0
    7.3640   -2.6809   22.9722 H   0  0  0  0  0  0  0  0  0  0  0  0
    9.3573   -6.4980   22.8458 H   0  0  0  0  0  0  0  0  0  0  0  0
    7.8378   -1.1902   27.1203 H   0  0  0  0  0  0  0  0  0  0  0  0
    8.8518    0.8063   26.2089 H   0  0  0  0  0  0  0  0  0  0  0  0
   10.6396   -1.4767   23.0588 H   0  0  0  0  0  0  0  0  0  0  0  0
   10.5096   -5.8801   26.3459 H   0  0  0  0  0  0  0  0  0  0  0  0
   10.3572   -3.6213   22.8112 H   0  0  0  0  0  0  0  0  0  0  0  0
    6.4771   -4.5084   27.3510 H   0  0  0  0  0  0  0  0  0  0  0  0
    7.0588   -2.9255   27.8710 H   0  0  0  0  0  0  0  0  0  0  0  0
  1  2  3  0  0  0  0
  2 18  1  0  0  0  0
  3  4  1  0  0  0  0
  3  5  2  0  0  0  0
  4  6  2  0  0  0  0
  5  7  1  0  0  0  0
  6 11  1  0  0  0  0
  7 11  2  0  0  0  0
  8  9  2  0  0  0  0
  8 13  1  0  0  0  0
  9 14  1  0  0  0  0
 10 12  1  0  0  0  0
 10 14  2  0  0  0  0
 11 17  1  0  0  0  0
 12 13  2  0  0  0  0
 12 17  1  0  0  0  0
 13 20  1  0  0  0  0
 14 22  1  0  0  0  0
 15 16  1  0  0  0  0
 15 19  2  0  0  0  0
 16 20  1  0  0  0  0
 16 21  2  0  0  0  0
 17 19  1  0  0  0  0
 18 20  1  0  0  0  0
  1 23  1  0  0  0  0
  3 24  1  0  0  0  0
  4 25  1  0  0  0  0
  5 26  1  0  0  0  0
  6 27  1  0  0  0  0
  7 28  1  0  0  0  0
  8 29  1  0  0  0  0
  9 30  1  0  0  0  0
 10 31  1  0  0  0  0
 15 32  1  0  0  0  0
 17 33  1  0  0  0  0
 18 34  1  0  0  0  0
 18 35  1  0  0  0  0
M  END
> <Hybrid2>
-9.674342

> <docked_fragment>
x1077

> <Mpro-_dock>
0.329009

> <site>
active-noncovalent

$$$$
CHEMBL139835
  -OEChem-04122014263D

 58 62  0     1  0  0  0  0  0999 V2000
   12.2064    1.6242   22.9210 C   0  0  0  0  0  0  0  0  0  0  0  0
   10.9135   -1.7723   22.3054 C   0  0  0  0  0  0  0  0  0  0  0  0
   11.3186    0.6422   22.6683 C   0  0  0  0  0  0  0  0  0  0  0  0
   11.7508   -0.7207   22.3199 C   0  0  0  0  0  0  0  0  0  0  0  0
   11.8149    2.9861   23.3516 C   0  0  0  0  0  0  0  0  0  0  0  0
    5.7850   -4.6210   24.5484 C   0  0  0  0  0  0  0  0  0  0  0  0
    7.9766   -5.1721   26.4466 C   0  0  0  0  0  0  0  0  0  0  0  0
    9.1635   -4.2929   22.9664 C   0  0  0  0  0  0  0  0  0  0  0  0
    7.6195   -0.2699   23.7354 C   0  0  0  0  0  0  0  0  0  0  0  0
    8.1346   -5.1436   23.7405 C   0  0  0  0  0  0  0  0  0  0  0  0
    7.0746   -1.5198   24.4561 C   0  0  0  0  0  0  0  0  0  0  0  0
    9.8695    2.4104   24.9242 C   0  0  0  0  0  0  0  0  0  0  0  0
    9.4501   -1.6855   22.6436 C   0  0  2  0  0  0  0  0  0  0  0  0
   10.4141    3.1985   23.7580 C   0  0  2  0  0  0  0  0  0  0  0  0
    9.1358   -0.3796   23.4333 C   0  0  1  0  0  0  0  0  0  0  0  0
    8.9353   -2.8704   23.4724 C   0  0  1  0  0  0  0  0  0  0  0  0
    9.3891    2.1292   23.5232 C   0  0  1  0  0  0  0  0  0  0  0  0
    9.7855    0.8747   22.7487 C   0  0  1  0  0  0  0  0  0  0  0  0
    7.2036   -4.1446   24.4641 C   0  0  1  0  0  0  0  0  0  0  0  0
    7.3998   -2.8150   23.6911 C   0  0  1  0  0  0  0  0  0  0  0  0
    5.3031   -5.5120   23.4356 C   0  0  0  0  0  0  0  0  0  0  0  0
    9.4006   -5.0772   26.9043 C   0  0  0  0  0  0  0  0  0  0  0  0
    9.2725    1.0758   21.2965 C   0  0  0  0  0  0  0  0  0  0  0  0
    6.5846   -2.8437   22.3667 C   0  0  0  0  0  0  0  0  0  0  0  0
   12.6309    3.8975   23.4104 O   0  0  0  0  0  0  0  0  0  0  0  0
    5.0514   -4.3010   25.4824 O   0  0  0  0  0  0  0  0  0  0  0  0
    7.2657   -6.1531   26.6182 O   0  0  0  0  0  0  0  0  0  0  0  0
    7.6136   -4.0125   25.8221 O   0  0  0  0  0  0  0  0  0  0  0  0
   13.3994   -1.0193   21.8395 Cl  0  0  0  0  0  0  0  0  0  0  0  0
   13.2790    1.4771   22.8513 H   0  0  0  0  0  0  0  0  0  0  0  0
   11.2836   -2.7441   21.9867 H   0  0  0  0  0  0  0  0  0  0  0  0
   10.1838   -4.6386   23.1617 H   0  0  0  0  0  0  0  0  0  0  0  0
    8.9903   -4.3700   21.8872 H   0  0  0  0  0  0  0  0  0  0  0  0
    7.0568   -0.0965   22.8127 H   0  0  0  0  0  0  0  0  0  0  0  0
    7.4232    0.5915   24.3833 H   0  0  0  0  0  0  0  0  0  0  0  0
    7.5892   -5.7820   23.0358 H   0  0  0  0  0  0  0  0  0  0  0  0
    8.6523   -5.8002   24.4491 H   0  0  0  0  0  0  0  0  0  0  0  0
    7.5138   -1.5466   25.4610 H   0  0  0  0  0  0  0  0  0  0  0  0
    5.9918   -1.4179   24.5959 H   0  0  0  0  0  0  0  0  0  0  0  0
   10.5094    1.6868   25.4139 H   0  0  0  0  0  0  0  0  0  0  0  0
    9.1862    2.9164   25.5962 H   0  0  0  0  0  0  0  0  0  0  0  0
    8.9256   -1.6767   21.6819 H   0  0  0  0  0  0  0  0  0  0  0  0
   10.0620    4.2211   23.6561 H   0  0  0  0  0  0  0  0  0  0  0  0
    9.6169   -0.4726   24.4217 H   0  0  0  0  0  0  0  0  0  0  0  0
    9.4366   -2.8128   24.4530 H   0  0  0  0  0  0  0  0  0  0  0  0
    8.3805    2.4604   23.2931 H   0  0  0  0  0  0  0  0  0  0  0  0
    5.4943   -6.5578   23.6916 H   0  0  0  0  0  0  0  0  0  0  0  0
    5.8389   -5.2699   22.5145 H   0  0  0  0  0  0  0  0  0  0  0  0
    4.2284   -5.3734   23.2947 H   0  0  0  0  0  0  0  0  0  0  0  0
   10.0677   -5.4391   26.1181 H   0  0  0  0  0  0  0  0  0  0  0  0
    9.5350   -5.6568   27.8210 H   0  0  0  0  0  0  0  0  0  0  0  0
    9.6448   -4.0319   27.1150 H   0  0  0  0  0  0  0  0  0  0  0  0
    8.2053    1.2396   21.3291 H   0  0  0  0  0  0  0  0  0  0  0  0
    9.4998    0.1869   20.7262 H   0  0  0  0  0  0  0  0  0  0  0  0
    9.7725    1.9340   20.8717 H   0  0  0  0  0  0  0  0  0  0  0  0
    6.8214   -3.7560   21.8403 H   0  0  0  0  0  0  0  0  0  0  0  0
    6.8625   -1.9835   21.7766 H   0  0  0  0  0  0  0  0  0  0  0  0
    5.5338   -2.8105   22.6124 H   0  0  0  0  0  0  0  0  0  0  0  0
  1  3  2  0  0  0  0
  1  5  1  0  0  0  0
  2  4  2  0  0  0  0
  2 13  1  0  0  0  0
  3  4  1  0  0  0  0
  3 18  1  0  0  0  0
  4 29  1  0  0  0  0
  5 14  1  0  0  0  0
  5 25  2  0  0  0  0
  6 19  1  0  0  0  0
  6 21  1  0  0  0  0
  6 26  2  0  0  0  0
  7 22  1  0  0  0  0
  7 27  2  0  0  0  0
  7 28  1  0  0  0  0
  8 10  1  0  0  0  0
  8 16  1  0  0  0  0
  9 11  1  0  0  0  0
  9 15  1  0  0  0  0
 10 19  1  0  0  0  0
 11 20  1  0  0  0  0
 12 14  1  0  0  0  0
 12 17  1  0  0  0  0
 13 15  1  0  0  0  0
 13 16  1  0  0  0  0
 14 17  1  0  0  0  0
 15 18  1  0  0  0  0
 16 20  1  0  0  0  0
 17 18  1  0  0  0  0
 18 23  1  0  0  0  0
 19 20  1  0  0  0  0
 19 28  1  0  0  0  0
 20 24  1  0  0  0  0
  1 30  1  0  0  0  0
  2 31  1  0  0  0  0
  8 32  1  0  0  0  0
  8 33  1  0  0  0  0
  9 34  1  0  0  0  0
  9 35  1  0  0  0  0
 10 36  1  0  0  0  0
 10 37  1  0  0  0  0
 11 38  1  0  0  0  0
 11 39  1  0  0  0  0
 12 40  1  0  0  0  0
 12 41  1  0  0  0  0
 13 42  1  0  0  0  0
 14 43  1  0  0  0  0
 15 44  1  0  0  0  0
 16 45  1  0  0  0  0
 17 46  1  0  0  0  0
 21 47  1  0  0  0  0
 21 48  1  0  0  0  0
 21 49  1  0  0  0  0
 22 50  1  0  0  0  0
 22 51  1  0  0  0  0
 22 52  1  0  0  0  0
 23 53  1  0  0  0  0
 23 54  1  0  0  0  0
 23 55  1  0  0  0  0
 24 56  1  0  0  0  0
 24 57  1  0  0  0  0
 24 58  1  0  0  0  0
M  END
> <Hybrid2>
-9.666415

> <docked_fragment>
x0874

> <Mpro-_dock>
2.909173

> <site>
active-noncovalent

$$$$
CHEMBL370252
  -OEChem-04122014263D

 30 32  0     1  0  0  0  0  0999 V2000
   14.2996   -0.1799   22.2896 C   0  0  0  0  0  0  0  0  0  0  0  0
   12.6550   -1.6813   23.2011 C   0  0  0  0  0  0  0  0  0  0  0  0
   13.4912    0.9080   22.6424 C   0  0  0  0  0  0  0  0  0  0  0  0
   11.8303   -0.5963   23.5416 C   0  0  0  0  0  0  0  0  0  0  0  0
   12.2401    0.7260   23.2769 C   0  0  0  0  0  0  0  0  0  0  0  0
   13.8789   -1.4736   22.5732 C   0  0  0  0  0  0  0  0  0  0  0  0
   11.9850    3.1162   23.4242 C   0  0  0  0  0  0  0  0  0  0  0  0
   13.9825    2.2784   22.3519 C   0  0  0  0  0  0  0  0  0  0  0  0
   13.1499    3.4007   22.8354 C   0  0  0  0  0  0  0  0  0  0  0  0
   13.5664    4.8473   22.6967 C   0  0  0  0  0  0  0  0  0  0  0  0
   10.5267   -0.8713   24.2323 C   0  0  0  0  0  0  0  0  0  0  0  0
    9.5529    0.2596   23.9635 C   0  0  0  0  0  0  0  0  0  0  0  0
   10.1700    1.6120   24.3456 C   0  0  2  0  0  0  0  0  0  0  0  0
    9.1164    2.6950   24.0755 C   0  0  0  0  0  0  0  0  0  0  0  0
   11.4455    1.8531   23.6215 N   0  0  0  0  0  0  0  0  0  0  0  0
   12.7462    5.6907   23.1597 O   0  5  0  0  0  0  0  0  0  0  0  0
   15.0323    2.4732   21.7531 O   0  0  0  0  0  0  0  0  0  0  0  0
   14.6835    5.0346   22.1351 O   0  0  0  0  0  0  0  0  0  0  0  0
   14.6515   -2.5177   22.2477 F   0  0  0  0  0  0  0  0  0  0  0  0
   15.2556   -0.0357   21.7932 H   0  0  0  0  0  0  0  0  0  0  0  0
   12.3442   -2.6975   23.4329 H   0  0  0  0  0  0  0  0  0  0  0  0
   11.3426    3.9092   23.8048 H   0  0  0  0  0  0  0  0  0  0  0  0
   10.1256   -1.8224   23.8727 H   0  0  0  0  0  0  0  0  0  0  0  0
   10.6804   -0.9569   25.3117 H   0  0  0  0  0  0  0  0  0  0  0  0
    9.2613    0.2582   22.9117 H   0  0  0  0  0  0  0  0  0  0  0  0
    8.6415    0.1104   24.5498 H   0  0  0  0  0  0  0  0  0  0  0  0
   10.3411    1.5785   25.4181 H   0  0  0  0  0  0  0  0  0  0  0  0
    8.9209    2.7551   23.0077 H   0  0  0  0  0  0  0  0  0  0  0  0
    9.4823    3.6557   24.4294 H   0  0  0  0  0  0  0  0  0  0  0  0
    8.1955    2.4457   24.5970 H   0  0  0  0  0  0  0  0  0  0  0  0
  1  3  2  0  0  0  0
  1  6  1  0  0  0  0
  2  4  1  0  0  0  0
  2  6  2  0  0  0  0
  3  5  1  0  0  0  0
  3  8  1  0  0  0  0
  4  5  2  0  0  0  0
  4 11  1  0  0  0  0
  5 15  1  0  0  0  0
  6 19  1  0  0  0  0
  7  9  2  0  0  0  0
  7 15  1  0  0  0  0
  8  9  1  0  0  0  0
  8 17  2  0  0  0  0
  9 10  1  0  0  0  0
 10 16  1  0  0  0  0
 10 18  2  0  0  0  0
 11 12  1  0  0  0  0
 12 13  1  0  0  0  0
 13 14  1  0  0  0  0
 13 15  1  0  0  0  0
  1 20  1  0  0  0  0
  2 21  1  0  0  0  0
  7 22  1  0  0  0  0
 11 23  1  0  0  0  0
 11 24  1  0  0  0  0
 12 25  1  0  0  0  0
 12 26  1  0  0  0  0
 13 27  1  0  0  0  0
 14 28  1  0  0  0  0
 14 29  1  0  0  0  0
 14 30  1  0  0  0  0
M  CHG  1  16  -1
M  END
> <Hybrid2>
-9.666282

> <docked_fragment>
x0195

> <Mpro-_dock>
0.536042

> <site>
active-noncovalent

$$$$
CHEMBL2107612
  -OEChem-04122014263D

 41 44  0     1  0  0  0  0  0999 V2000
   13.8935   -1.4671   23.3071 C   0  0  0  0  0  0  0  0  0  0  0  0
   13.3029   -0.6460   24.2996 C   0  0  0  0  0  0  0  0  0  0  0  0
   13.1693   -1.9238   22.1776 C   0  0  0  0  0  0  0  0  0  0  0  0
   11.9897   -0.2724   24.1328 C   0  0  0  0  0  0  0  0  0  0  0  0
   11.8584   -1.5278   22.0438 C   0  0  0  0  0  0  0  0  0  0  0  0
   11.3505   -0.6813   22.9917 C   0  0  0  0  0  0  0  0  0  0  0  0
    8.5863   -0.5466   20.9541 C   0  0  0  0  0  0  0  0  0  0  0  0
   10.9834    0.4838   24.9329 C   0  0  0  0  0  0  0  0  0  0  0  0
   10.7440   -1.8359   21.0992 C   0  0  0  0  0  0  0  0  0  0  0  0
    9.6394    0.0630   24.2160 C   0  0  0  0  0  0  0  0  0  0  0  0
    7.7986    0.3415   19.0212 C   0  0  0  0  0  0  0  0  0  0  0  0
    6.8272    0.6512   20.1693 C   0  0  0  0  0  0  0  0  0  0  0  0
    9.4733   -1.2709   21.8888 C   0  0  2  0  0  0  0  0  0  0  0  0
    8.8648   -4.3007   24.2279 C   0  0  0  0  0  0  0  0  0  0  0  0
    8.7136   -2.4072   22.5810 C   0  0  0  0  0  0  0  0  0  0  0  0
    9.6247   -3.1897   23.5210 C   0  0  0  0  0  0  0  0  0  0  0  0
    8.8669   -0.4250   19.6702 N   0  0  0  0  0  0  0  0  0  0  0  0
   10.0071   -0.3011   22.8524 N   0  0  2  0  0  0  0  0  0  0  0  0
    7.4603    0.0267   21.3353 N   0  3  0  0  0  0  0  0  0  0  0  0
   14.9444   -1.7328   23.4009 H   0  0  0  0  0  0  0  0  0  0  0  0
   13.8849   -0.3073   25.1494 H   0  0  0  0  0  0  0  0  0  0  0  0
   13.6513   -2.5471   21.4325 H   0  0  0  0  0  0  0  0  0  0  0  0
   10.9902    0.1493   25.9750 H   0  0  0  0  0  0  0  0  0  0  0  0
   11.1323    1.5653   24.8732 H   0  0  0  0  0  0  0  0  0  0  0  0
   10.8819   -1.3298   20.1378 H   0  0  0  0  0  0  0  0  0  0  0  0
   10.6791   -2.9202   20.9517 H   0  0  0  0  0  0  0  0  0  0  0  0
    9.1575   -0.7682   24.7402 H   0  0  0  0  0  0  0  0  0  0  0  0
    8.9492    0.9163   24.2212 H   0  0  0  0  0  0  0  0  0  0  0  0
    7.3313   -0.2681   18.2430 H   0  0  0  0  0  0  0  0  0  0  0  0
    8.2165    1.2514   18.5821 H   0  0  0  0  0  0  0  0  0  0  0  0
    6.7249    1.7263   20.3399 H   0  0  0  0  0  0  0  0  0  0  0  0
    5.8433    0.2040   20.0043 H   0  0  0  0  0  0  0  0  0  0  0  0
    8.0237   -3.8976   24.8009 H   0  0  0  0  0  0  0  0  0  0  0  0
    9.5258   -4.8305   24.9211 H   0  0  0  0  0  0  0  0  0  0  0  0
    8.4739   -5.0278   23.5088 H   0  0  0  0  0  0  0  0  0  0  0  0
    7.8728   -1.9826   23.1380 H   0  0  0  0  0  0  0  0  0  0  0  0
    8.2995   -3.0725   21.8172 H   0  0  0  0  0  0  0  0  0  0  0  0
   10.4581   -3.6260   22.9578 H   0  0  0  0  0  0  0  0  0  0  0  0
   10.0570   -2.5164   24.2703 H   0  0  0  0  0  0  0  0  0  0  0  0
    9.7069   -0.8259   19.2688 H   0  0  0  0  0  0  0  0  0  0  0  0
    7.1454   -0.0020   22.2984 H   0  0  0  0  0  0  0  0  0  0  0  0
  1  2  1  0  0  0  0
  1  3  2  0  0  0  0
  2  4  2  0  0  0  0
  3  5  1  0  0  0  0
  4  6  1  0  0  0  0
  4  8  1  0  0  0  0
  5  6  2  0  0  0  0
  5  9  1  0  0  0  0
  6 18  1  0  0  0  0
  7 13  1  0  0  0  0
  7 17  1  0  0  0  0
  7 19  2  0  0  0  0
  8 10  1  0  0  0  0
  9 13  1  0  0  0  0
 10 18  1  0  0  0  0
 11 12  1  0  0  0  0
 11 17  1  0  0  0  0
 12 19  1  0  0  0  0
 13 15  1  0  0  0  0
 13 18  1  0  0  0  0
 14 16  1  0  0  0  0
 15 16  1  0  0  0  0
  1 20  1  0  0  0  0
  2 21  1  0  0  0  0
  3 22  1  0  0  0  0
  8 23  1  0  0  0  0
  8 24  1  0  0  0  0
  9 25  1  0  0  0  0
  9 26  1  0  0  0  0
 10 27  1  0  0  0  0
 10 28  1  0  0  0  0
 11 29  1  0  0  0  0
 11 30  1  0  0  0  0
 12 31  1  0  0  0  0
 12 32  1  0  0  0  0
 14 33  1  0  0  0  0
 14 34  1  0  0  0  0
 14 35  1  0  0  0  0
 15 36  1  0  0  0  0
 15 37  1  0  0  0  0
 16 38  1  0  0  0  0
 16 39  1  0  0  0  0
 17 40  1  0  0  0  0
 19 41  1  0  0  0  0
M  CHG  1  19   1
M  END
> <Hybrid2>
-9.652866

> <docked_fragment>
x0678

> <Mpro-_dock>
0.060149

> <site>
active-noncovalent

$$$$
CHEMBL2105202
  -OEChem-04122014263D

 38 40  0     1  0  0  0  0  0999 V2000
   13.9051   -0.4127   23.0302 C   0  0  0  0  0  0  0  0  0  0  0  0
   13.1849    0.6724   23.5297 C   0  0  0  0  0  0  0  0  0  0  0  0
   13.2313   -1.5048   22.4833 C   0  0  0  0  0  0  0  0  0  0  0  0
   11.7909    0.6654   23.4824 C   0  0  0  0  0  0  0  0  0  0  0  0
   11.8373   -1.5117   22.4360 C   0  0  0  0  0  0  0  0  0  0  0  0
    7.7503   -0.1351   19.5772 C   0  0  0  0  0  0  0  0  0  0  0  0
    6.8587    0.1661   21.8024 C   0  0  0  0  0  0  0  0  0  0  0  0
    6.6352    0.5104   19.0430 C   0  0  0  0  0  0  0  0  0  0  0  0
    5.7436    0.8117   21.2682 C   0  0  0  0  0  0  0  0  0  0  0  0
   11.1170   -0.4267   22.9355 C   0  0  0  0  0  0  0  0  0  0  0  0
    7.8620   -0.3073   20.9569 C   0  0  0  0  0  0  0  0  0  0  0  0
    5.6319    0.9839   19.8885 C   0  0  0  0  0  0  0  0  0  0  0  0
    9.0181   -1.0561   24.1501 C   0  0  0  0  0  0  0  0  0  0  0  0
    8.8499   -2.5200   21.6541 C   0  0  0  0  0  0  0  0  0  0  0  0
    9.5906   -0.4351   22.8836 C   0  0  2  0  0  0  0  0  0  0  0  0
    9.0845   -1.0132   21.5429 C   0  0  2  0  0  0  0  0  0  0  0  0
    7.9398   -2.8370   22.8284 C   0  0  1  0  0  0  0  0  0  0  0  0
    7.8331   -4.3420   23.0458 C   0  0  0  0  0  0  0  0  0  0  0  0
    9.1707   -0.5117   25.2437 O   0  0  0  0  0  0  0  0  0  0  0  0
    8.4136   -2.2610   24.0626 O   0  0  0  0  0  0  0  0  0  0  0  0
    4.2565    1.7804   19.2292 Cl  0  0  0  0  0  0  0  0  0  0  0  0
   14.9906   -0.4065   23.0659 H   0  0  0  0  0  0  0  0  0  0  0  0
   13.7094    1.5232   23.9546 H   0  0  0  0  0  0  0  0  0  0  0  0
   13.7917   -2.3492   22.0933 H   0  0  0  0  0  0  0  0  0  0  0  0
   11.2380    1.5151   23.8741 H   0  0  0  0  0  0  0  0  0  0  0  0
   11.3208   -2.3669   22.0082 H   0  0  0  0  0  0  0  0  0  0  0  0
    8.5277   -0.5013   18.9119 H   0  0  0  0  0  0  0  0  0  0  0  0
    6.9383    0.0361   22.8785 H   0  0  0  0  0  0  0  0  0  0  0  0
    6.5620    0.6377   17.9660 H   0  0  0  0  0  0  0  0  0  0  0  0
    4.9696    1.1753   21.9392 H   0  0  0  0  0  0  0  0  0  0  0  0
    8.4574   -2.9563   20.7294 H   0  0  0  0  0  0  0  0  0  0  0  0
    9.8241   -2.9912   21.8379 H   0  0  0  0  0  0  0  0  0  0  0  0
    9.3285    0.6725   22.9527 H   0  0  0  0  0  0  0  0  0  0  0  0
    9.8961   -0.8813   20.7573 H   0  0  0  0  0  0  0  0  0  0  0  0
    6.9097   -2.4596   22.6458 H   0  0  0  0  0  0  0  0  0  0  0  0
    8.8214   -4.7642   23.2303 H   0  0  0  0  0  0  0  0  0  0  0  0
    7.4054   -4.8179   22.1629 H   0  0  0  0  0  0  0  0  0  0  0  0
    7.1941   -4.5515   23.9042 H   0  0  0  0  0  0  0  0  0  0  0  0
  1  2  1  0  0  0  0
  1  3  2  0  0  0  0
  2  4  2  0  0  0  0
  3  5  1  0  0  0  0
  4 10  1  0  0  0  0
  5 10  2  0  0  0  0
  6  8  2  0  0  0  0
  6 11  1  0  0  0  0
  7  9  1  0  0  0  0
  7 11  2  0  0  0  0
  8 12  1  0  0  0  0
  9 12  2  0  0  0  0
 10 15  1  0  0  0  0
 11 16  1  0  0  0  0
 12 21  1  0  0  0  0
 13 15  1  0  0  0  0
 13 19  2  0  0  0  0
 13 20  1  0  0  0  0
 14 16  1  0  0  0  0
 14 17  1  0  0  0  0
 15 16  1  0  0  0  0
 17 18  1  0  0  0  0
 17 20  1  0  0  0  0
  1 22  1  0  0  0  0
  2 23  1  0  0  0  0
  3 24  1  0  0  0  0
  4 25  1  0  0  0  0
  5 26  1  0  0  0  0
  6 27  1  0  0  0  0
  7 28  1  0  0  0  0
  8 29  1  0  0  0  0
  9 30  1  0  0  0  0
 14 31  1  0  0  0  0
 14 32  1  0  0  0  0
 15 33  1  0  0  0  0
 16 34  1  0  0  0  0
 17 35  1  0  0  0  0
 18 36  1  0  0  0  0
 18 37  1  0  0  0  0
 18 38  1  0  0  0  0
M  END
> <Hybrid2>
-9.637808

> <docked_fragment>
x1093

> <Mpro-_dock>
0.224

> <site>
active-noncovalent

$$$$
CHEMBL2106321
  -OEChem-04122014263D

 24 25  0     0  0  0  0  0  0999 V2000
    6.4141   -6.3642   21.8903 C   0  0  0  0  0  0  0  0  0  0  0  0
    7.2700   -5.7204   22.4333 C   0  0  0  0  0  0  0  0  0  0  0  0
   13.5636   -2.5068   25.8466 C   0  0  0  0  0  0  0  0  0  0  0  0
   13.3058   -1.1985   26.2556 C   0  0  0  0  0  0  0  0  0  0  0  0
    8.7293   -3.7593   22.5107 C   0  0  0  0  0  0  0  0  0  0  0  0
    8.8429   -5.4023   24.2783 C   0  0  0  0  0  0  0  0  0  0  0  0
   12.5657   -3.2500   25.2162 C   0  0  0  0  0  0  0  0  0  0  0  0
    9.7239   -3.0119   23.1415 C   0  0  0  0  0  0  0  0  0  0  0  0
    9.8375   -4.6550   24.9091 C   0  0  0  0  0  0  0  0  0  0  0  0
   12.0499   -0.6333   26.0342 C   0  0  0  0  0  0  0  0  0  0  0  0
    8.2887   -4.9545   23.0792 C   0  0  0  0  0  0  0  0  0  0  0  0
   10.2780   -3.4598   24.3406 C   0  0  0  0  0  0  0  0  0  0  0  0
   11.3098   -2.6848   24.9948 C   0  0  0  0  0  0  0  0  0  0  0  0
   11.0519   -1.3764   25.4038 C   0  0  0  0  0  0  0  0  0  0  0  0
    9.8494   -0.8189   25.2000 F   0  0  0  0  0  0  0  0  0  0  0  0
    5.6551   -6.9349   21.4083 H   0  0  0  0  0  0  0  0  0  0  0  0
   14.5416   -2.9466   26.0190 H   0  0  0  0  0  0  0  0  0  0  0  0
   14.0827   -0.6199   26.7465 H   0  0  0  0  0  0  0  0  0  0  0  0
    8.3068   -3.3974   21.5763 H   0  0  0  0  0  0  0  0  0  0  0  0
    8.5100   -6.3320   24.7338 H   0  0  0  0  0  0  0  0  0  0  0  0
   12.7822   -4.2687   24.9035 H   0  0  0  0  0  0  0  0  0  0  0  0
   10.0569   -2.0824   22.6859 H   0  0  0  0  0  0  0  0  0  0  0  0
   10.2597   -5.0173   25.8434 H   0  0  0  0  0  0  0  0  0  0  0  0
   11.8490    0.3854   26.3527 H   0  0  0  0  0  0  0  0  0  0  0  0
  1  2  3  0  0  0  0
  2 11  1  0  0  0  0
  3  4  1  0  0  0  0
  3  7  2  0  0  0  0
  4 10  2  0  0  0  0
  5  8  2  0  0  0  0
  5 11  1  0  0  0  0
  6  9  1  0  0  0  0
  6 11  2  0  0  0  0
  7 13  1  0  0  0  0
  8 12  1  0  0  0  0
  9 12  2  0  0  0  0
 10 14  1  0  0  0  0
 12 13  1  0  0  0  0
 13 14  2  0  0  0  0
 14 15  1  0  0  0  0
  1 16  1  0  0  0  0
  3 17  1  0  0  0  0
  4 18  1  0  0  0  0
  5 19  1  0  0  0  0
  6 20  1  0  0  0  0
  7 21  1  0  0  0  0
  8 22  1  0  0  0  0
  9 23  1  0  0  0  0
 10 24  1  0  0  0  0
M  END
> <Hybrid2>
-9.614632

> <docked_fragment>
x0749

> <Mpro-_dock>
-0.376312

> <site>
active-covalent

$$$$
CHEMBL2105974
  -OEChem-04122014263D

 56 59  0     1  0  0  0  0  0999 V2000
    5.4675   -3.9809   22.0672 C   0  0  0  0  0  0  0  0  0  0  0  0
    6.8014   -3.7960   22.0325 C   0  0  0  0  0  0  0  0  0  0  0  0
    4.8383   -5.0999   22.8089 C   0  0  0  0  0  0  0  0  0  0  0  0
   13.7514   -1.9645   25.2862 C   0  0  0  0  0  0  0  0  0  0  0  0
    5.7336   -6.1419   23.4149 C   0  0  0  0  0  0  0  0  0  0  0  0
    7.0033   -5.4911   23.9313 C   0  0  0  0  0  0  0  0  0  0  0  0
    9.8733   -4.5665   24.4274 C   0  0  0  0  0  0  0  0  0  0  0  0
   10.9104   -3.6743   25.1325 C   0  0  0  0  0  0  0  0  0  0  0  0
    8.4547   -1.8782   21.9538 C   0  0  0  0  0  0  0  0  0  0  0  0
   11.2577   -0.7636   22.7667 C   0  0  0  0  0  0  0  0  0  0  0  0
    7.4741   -2.7403   21.1594 C   0  0  2  0  0  0  0  0  0  0  0  0
   12.3860   -1.5656   24.8154 C   0  0  1  0  0  0  0  0  0  0  0  0
    8.8309   -3.7707   23.5925 C   0  0  1  0  0  0  0  0  0  0  0  0
    9.5161   -2.7405   22.6460 C   0  0  2  0  0  0  0  0  0  0  0  0
   10.4872   -1.8821   23.4649 C   0  0  1  0  0  0  0  0  0  0  0  0
   12.4350   -0.4619   23.7261 C   0  0  2  0  0  0  0  0  0  0  0  0
    7.7753   -4.6792   22.8489 C   0  0  2  0  0  0  0  0  0  0  0  0
   11.5921   -2.7126   24.1504 C   0  0  2  0  0  0  0  0  0  0  0  0
   14.3078   -1.2114   26.4642 C   0  0  0  0  0  0  0  0  0  0  0  0
   12.3375    0.9340   24.3335 C   0  0  0  0  0  0  0  0  0  0  0  0
    8.4537   -5.6741   21.8780 C   0  0  0  0  0  0  0  0  0  0  0  0
   12.4812   -3.5137   23.1639 C   0  0  0  0  0  0  0  0  0  0  0  0
    3.6132   -5.1938   22.8524 O   0  0  0  0  0  0  0  0  0  0  0  0
   14.3854   -2.8648   24.7381 O   0  0  0  0  0  0  0  0  0  0  0  0
    6.3559   -1.6393   20.2936 Cl  0  0  0  0  0  0  0  0  0  0  0  0
    4.7704   -3.3674   21.5093 H   0  0  0  0  0  0  0  0  0  0  0  0
    5.2048   -6.6135   24.2507 H   0  0  0  0  0  0  0  0  0  0  0  0
    5.9410   -6.9115   22.6652 H   0  0  0  0  0  0  0  0  0  0  0  0
    6.7309   -4.8255   24.7624 H   0  0  0  0  0  0  0  0  0  0  0  0
    7.6408   -6.2749   24.3573 H   0  0  0  0  0  0  0  0  0  0  0  0
   10.3970   -5.2875   23.7921 H   0  0  0  0  0  0  0  0  0  0  0  0
    9.3656   -5.1510   25.2023 H   0  0  0  0  0  0  0  0  0  0  0  0
   10.4013   -3.1078   25.9231 H   0  0  0  0  0  0  0  0  0  0  0  0
   11.6537   -4.3045   25.6352 H   0  0  0  0  0  0  0  0  0  0  0  0
    8.9486   -1.1710   21.2755 H   0  0  0  0  0  0  0  0  0  0  0  0
    7.9159   -1.2786   22.7002 H   0  0  0  0  0  0  0  0  0  0  0  0
   11.6394   -1.0973   21.7948 H   0  0  0  0  0  0  0  0  0  0  0  0
   10.6262    0.1127   22.5867 H   0  0  0  0  0  0  0  0  0  0  0  0
    8.0208   -3.2584   20.3635 H   0  0  0  0  0  0  0  0  0  0  0  0
   11.8478   -1.2021   25.6996 H   0  0  0  0  0  0  0  0  0  0  0  0
    8.2629   -3.1742   24.3253 H   0  0  0  0  0  0  0  0  0  0  0  0
   10.0747   -3.2670   21.8648 H   0  0  0  0  0  0  0  0  0  0  0  0
    9.8870   -1.3902   24.2489 H   0  0  0  0  0  0  0  0  0  0  0  0
   13.3740   -0.5143   23.1599 H   0  0  0  0  0  0  0  0  0  0  0  0
   14.0227   -1.7151   27.3920 H   0  0  0  0  0  0  0  0  0  0  0  0
   13.9031   -0.1964   26.4743 H   0  0  0  0  0  0  0  0  0  0  0  0
   15.3982   -1.1823   26.3985 H   0  0  0  0  0  0  0  0  0  0  0  0
   11.4151    1.0258   24.9057 H   0  0  0  0  0  0  0  0  0  0  0  0
   12.3413    1.6834   23.5430 H   0  0  0  0  0  0  0  0  0  0  0  0
   13.1850    1.1105   24.9949 H   0  0  0  0  0  0  0  0  0  0  0  0
    9.1380   -6.2978   22.4385 H   0  0  0  0  0  0  0  0  0  0  0  0
    8.9929   -5.1146   21.1246 H   0  0  0  0  0  0  0  0  0  0  0  0
    7.6903   -6.2842   21.4129 H   0  0  0  0  0  0  0  0  0  0  0  0
   12.9518   -2.8199   22.4816 H   0  0  0  0  0  0  0  0  0  0  0  0
   11.8554   -4.2076   22.6205 H   0  0  0  0  0  0  0  0  0  0  0  0
   13.2303   -4.0487   23.7307 H   0  0  0  0  0  0  0  0  0  0  0  0
  1  2  2  0  0  0  0
  1  3  1  0  0  0  0
  2 11  1  0  0  0  0
  2 17  1  0  0  0  0
  3  5  1  0  0  0  0
  3 23  2  0  0  0  0
  4 12  1  0  0  0  0
  4 19  1  0  0  0  0
  4 24  2  0  0  0  0
  5  6  1  0  0  0  0
  6 17  1  0  0  0  0
  7  8  1  0  0  0  0
  7 13  1  0  0  0  0
  8 18  1  0  0  0  0
  9 11  1  0  0  0  0
  9 14  1  0  0  0  0
 10 15  1  0  0  0  0
 10 16  1  0  0  0  0
 11 25  1  0  0  0  0
 12 16  1  0  0  0  0
 12 18  1  0  0  0  0
 13 14  1  0  0  0  0
 13 17  1  0  0  0  0
 14 15  1  0  0  0  0
 15 18  1  0  0  0  0
 16 20  1  0  0  0  0
 17 21  1  0  0  0  0
 18 22  1  0  0  0  0
  1 26  1  0  0  0  0
  5 27  1  0  0  0  0
  5 28  1  0  0  0  0
  6 29  1  0  0  0  0
  6 30  1  0  0  0  0
  7 31  1  0  0  0  0
  7 32  1  0  0  0  0
  8 33  1  0  0  0  0
  8 34  1  0  0  0  0
  9 35  1  0  0  0  0
  9 36  1  0  0  0  0
 10 37  1  0  0  0  0
 10 38  1  0  0  0  0
 11 39  1  0  0  0  0
 12 40  1  0  0  0  0
 13 41  1  0  0  0  0
 14 42  1  0  0  0  0
 15 43  1  0  0  0  0
 16 44  1  0  0  0  0
 19 45  1  0  0  0  0
 19 46  1  0  0  0  0
 19 47  1  0  0  0  0
 20 48  1  0  0  0  0
 20 49  1  0  0  0  0
 20 50  1  0  0  0  0
 21 51  1  0  0  0  0
 21 52  1  0  0  0  0
 21 53  1  0  0  0  0
 22 54  1  0  0  0  0
 22 55  1  0  0  0  0
 22 56  1  0  0  0  0
M  END
> <Hybrid2>
-9.590186

> <docked_fragment>
x0749

> <Mpro-_dock>
1.538315

> <site>
active-covalent

$$$$
CHEMBL2107518
  -OEChem-04122014263D

 49 52  0     1  0  0  0  0  0999 V2000
   12.7878   -1.4782   23.0936 C   0  0  0  0  0  0  0  0  0  0  0  0
   11.6896    0.3523   24.4517 C   0  0  0  0  0  0  0  0  0  0  0  0
   11.5917   -2.0492   22.9219 C   0  0  0  0  0  0  0  0  0  0  0  0
    8.3606   -0.5516   25.3883 C   0  0  0  0  0  0  0  0  0  0  0  0
   10.4920   -0.2310   24.2821 C   0  0  0  0  0  0  0  0  0  0  0  0
    9.2831    0.2884   24.8993 C   0  0  0  0  0  0  0  0  0  0  0  0
   12.9144   -0.2210   23.8535 C   0  0  0  0  0  0  0  0  0  0  0  0
    5.8889   -6.2587   26.1089 C   0  0  0  0  0  0  0  0  0  0  0  0
    5.3585   -3.8303   26.5385 C   0  0  0  0  0  0  0  0  0  0  0  0
    6.2389   -2.5710   26.5169 C   0  0  0  0  0  0  0  0  0  0  0  0
    8.9405   -3.7408   23.4815 C   0  0  0  0  0  0  0  0  0  0  0  0
    8.2658   -4.8678   24.2764 C   0  0  0  0  0  0  0  0  0  0  0  0
    8.5720   -2.0443   25.4236 C   0  0  2  0  0  0  0  0  0  0  0  0
    6.0452   -4.8536   25.6161 C   0  0  1  0  0  0  0  0  0  0  0  0
    9.5742   -2.6071   24.3420 C   0  0  2  0  0  0  0  0  0  0  0  0
    7.2616   -2.8428   25.4118 C   0  0  1  0  0  0  0  0  0  0  0  0
   10.2756   -1.5000   23.4557 C   0  0  2  0  0  0  0  0  0  0  0  0
    7.5095   -4.3678   25.5194 C   0  0  2  0  0  0  0  0  0  0  0  0
    4.4817   -6.7684   26.2655 C   0  0  0  0  0  0  0  0  0  0  0  0
    9.4397   -1.1163   22.2063 C   0  0  0  0  0  0  0  0  0  0  0  0
    8.3206   -4.7720   26.7796 C   0  0  0  0  0  0  0  0  0  0  0  0
   14.0030    0.3262   23.9939 O   0  0  0  0  0  0  0  0  0  0  0  0
    6.8629   -6.9627   26.3708 O   0  0  0  0  0  0  0  0  0  0  0  0
    9.0053    1.9951   24.9437 Cl  0  0  0  0  0  0  0  0  0  0  0  0
   13.6856   -1.9076   22.6638 H   0  0  0  0  0  0  0  0  0  0  0  0
   11.8409    1.2316   25.0601 H   0  0  0  0  0  0  0  0  0  0  0  0
   11.5665   -2.9371   22.3024 H   0  0  0  0  0  0  0  0  0  0  0  0
    7.4406   -0.1776   25.7872 H   0  0  0  0  0  0  0  0  0  0  0  0
    5.2416   -4.1952   27.5659 H   0  0  0  0  0  0  0  0  0  0  0  0
    4.3533   -3.6034   26.1630 H   0  0  0  0  0  0  0  0  0  0  0  0
    5.6394   -1.6757   26.3140 H   0  0  0  0  0  0  0  0  0  0  0  0
    6.7266   -2.4260   27.4891 H   0  0  0  0  0  0  0  0  0  0  0  0
    9.7416   -4.1849   22.8881 H   0  0  0  0  0  0  0  0  0  0  0  0
    8.2305   -3.3619   22.7559 H   0  0  0  0  0  0  0  0  0  0  0  0
    7.5776   -5.4171   23.6137 H   0  0  0  0  0  0  0  0  0  0  0  0
    9.0287   -5.6078   24.5727 H   0  0  0  0  0  0  0  0  0  0  0  0
    9.0623   -2.2437   26.4114 H   0  0  0  0  0  0  0  0  0  0  0  0
    5.5678   -4.8173   24.6281 H   0  0  0  0  0  0  0  0  0  0  0  0
   10.3754   -3.0860   24.8776 H   0  0  0  0  0  0  0  0  0  0  0  0
    6.7541   -2.6431   24.4716 H   0  0  0  0  0  0  0  0  0  0  0  0
    4.1527   -7.2355   25.3331 H   0  0  0  0  0  0  0  0  0  0  0  0
    3.8141   -5.9350   26.4980 H   0  0  0  0  0  0  0  0  0  0  0  0
    4.4485   -7.5128   27.0647 H   0  0  0  0  0  0  0  0  0  0  0  0
    8.4859   -0.7169   22.5293 H   0  0  0  0  0  0  0  0  0  0  0  0
    9.2838   -2.0011   21.6011 H   0  0  0  0  0  0  0  0  0  0  0  0
    9.9794   -0.3693   21.6369 H   0  0  0  0  0  0  0  0  0  0  0  0
    7.7935   -4.4230   27.6565 H   0  0  0  0  0  0  0  0  0  0  0  0
    9.2981   -4.3139   26.7228 H   0  0  0  0  0  0  0  0  0  0  0  0
    8.4119   -5.8490   26.8009 H   0  0  0  0  0  0  0  0  0  0  0  0
  1  3  2  0  0  0  0
  1  7  1  0  0  0  0
  2  5  2  0  0  0  0
  2  7  1  0  0  0  0
  3 17  1  0  0  0  0
  4  6  2  0  0  0  0
  4 13  1  0  0  0  0
  5  6  1  0  0  0  0
  5 17  1  0  0  0  0
  6 24  1  0  0  0  0
  7 22  2  0  0  0  0
  8 14  1  0  0  0  0
  8 19  1  0  0  0  0
  8 23  2  0  0  0  0
  9 10  1  0  0  0  0
  9 14  1  0  0  0  0
 10 16  1  0  0  0  0
 11 12  1  0  0  0  0
 11 15  1  0  0  0  0
 12 18  1  0  0  0  0
 13 15  1  0  0  0  0
 13 16  1  0  0  0  0
 14 18  1  0  0  0  0
 15 17  1  0  0  0  0
 16 18  1  0  0  0  0
 17 20  1  0  0  0  0
 18 21  1  0  0  0  0
  1 25  1  0  0  0  0
  2 26  1  0  0  0  0
  3 27  1  0  0  0  0
  4 28  1  0  0  0  0
  9 29  1  0  0  0  0
  9 30  1  0  0  0  0
 10 31  1  0  0  0  0
 10 32  1  0  0  0  0
 11 33  1  0  0  0  0
 11 34  1  0  0  0  0
 12 35  1  0  0  0  0
 12 36  1  0  0  0  0
 13 37  1  0  0  0  0
 14 38  1  0  0  0  0
 15 39  1  0  0  0  0
 16 40  1  0  0  0  0
 19 41  1  0  0  0  0
 19 42  1  0  0  0  0
 19 43  1  0  0  0  0
 20 44  1  0  0  0  0
 20 45  1  0  0  0  0
 20 46  1  0  0  0  0
 21 47  1  0  0  0  0
 21 48  1  0  0  0  0
 21 49  1  0  0  0  0
M  END
> <Hybrid2>
-9.561892

> <docked_fragment>
x0072

> <Mpro-_dock>
2.552691

> <site>
active-noncovalent

$$$$
CHEMBL1389
  -OEChem-04122014263D

 51 54  0     1  0  0  0  0  0999 V2000
    8.3826   -7.4585   20.8168 C   0  0  0  0  0  0  0  0  0  0  0  0
    7.7347   -6.6765   21.4568 C   0  0  0  0  0  0  0  0  0  0  0  0
   13.0091   -0.9564   23.8874 C   0  0  0  0  0  0  0  0  0  0  0  0
   11.7526   -1.4294   23.8691 C   0  0  0  0  0  0  0  0  0  0  0  0
   13.9926   -1.4640   24.8713 C   0  0  0  0  0  0  0  0  0  0  0  0
   10.7208   -0.7817   22.9795 C   0  0  0  0  0  0  0  0  0  0  0  0
   13.4845   -2.3577   25.9725 C   0  0  0  0  0  0  0  0  0  0  0  0
    9.9142   -1.8044   22.1873 C   0  0  0  0  0  0  0  0  0  0  0  0
   12.4356   -3.3118   25.4290 C   0  0  0  0  0  0  0  0  0  0  0  0
    7.3032   -3.3793   21.4798 C   0  0  0  0  0  0  0  0  0  0  0  0
    9.8282   -4.7273   24.7929 C   0  0  0  0  0  0  0  0  0  0  0  0
    6.3780   -4.6030   21.3173 C   0  0  0  0  0  0  0  0  0  0  0  0
    8.8888   -5.6766   24.0264 C   0  0  0  0  0  0  0  0  0  0  0  0
   11.2649   -2.5789   24.7415 C   0  0  2  0  0  0  0  0  0  0  0  0
    9.2849   -2.8435   23.1242 C   0  0  2  0  0  0  0  0  0  0  0  0
   10.4012   -3.5835   23.9180 C   0  0  2  0  0  0  0  0  0  0  0  0
    8.4517   -3.8737   22.3560 C   0  0  1  0  0  0  0  0  0  0  0  0
    6.9379   -5.7144   22.2435 C   0  0  2  0  0  0  0  0  0  0  0  0
    7.7793   -4.9121   23.2817 C   0  0  1  0  0  0  0  0  0  0  0  0
    6.2193   -5.3323   25.1891 C   0  0  0  0  0  0  0  0  0  0  0  0
    6.8270   -4.2799   24.3398 C   0  0  0  0  0  0  0  0  0  0  0  0
   15.1623   -1.0905   24.8214 O   0  0  0  0  0  0  0  0  0  0  0  0
    5.8752   -6.4219   22.8684 O   0  0  0  0  0  0  0  0  0  0  0  0
    8.9575   -8.1524   20.2491 H   0  0  0  0  0  0  0  0  0  0  0  0
   13.3305   -0.1452   23.2433 H   0  0  0  0  0  0  0  0  0  0  0  0
   10.0407   -0.1952   23.6105 H   0  0  0  0  0  0  0  0  0  0  0  0
   11.1828   -0.0759   22.2787 H   0  0  0  0  0  0  0  0  0  0  0  0
   14.3253   -2.9317   26.3765 H   0  0  0  0  0  0  0  0  0  0  0  0
   13.0774   -1.7307   26.7730 H   0  0  0  0  0  0  0  0  0  0  0  0
    9.1345   -1.2772   21.6255 H   0  0  0  0  0  0  0  0  0  0  0  0
   10.5605   -2.2990   21.4506 H   0  0  0  0  0  0  0  0  0  0  0  0
   12.9153   -3.9942   24.7140 H   0  0  0  0  0  0  0  0  0  0  0  0
   12.0623   -3.9264   26.2561 H   0  0  0  0  0  0  0  0  0  0  0  0
    7.6589   -3.0221   20.5078 H   0  0  0  0  0  0  0  0  0  0  0  0
    6.7607   -2.5546   21.9555 H   0  0  0  0  0  0  0  0  0  0  0  0
    9.3097   -4.3054   25.6613 H   0  0  0  0  0  0  0  0  0  0  0  0
   10.6474   -5.3347   25.1946 H   0  0  0  0  0  0  0  0  0  0  0  0
    5.3518   -4.3254   21.5864 H   0  0  0  0  0  0  0  0  0  0  0  0
    6.3452   -4.9189   20.2674 H   0  0  0  0  0  0  0  0  0  0  0  0
    9.5045   -6.2500   23.3229 H   0  0  0  0  0  0  0  0  0  0  0  0
    8.4543   -6.4054   24.7211 H   0  0  0  0  0  0  0  0  0  0  0  0
   10.6316   -2.1385   25.5247 H   0  0  0  0  0  0  0  0  0  0  0  0
    8.6420   -2.3009   23.8282 H   0  0  0  0  0  0  0  0  0  0  0  0
   11.0638   -4.0599   23.1783 H   0  0  0  0  0  0  0  0  0  0  0  0
    9.1501   -4.3966   21.6829 H   0  0  0  0  0  0  0  0  0  0  0  0
    5.6380   -6.0047   24.5474 H   0  0  0  0  0  0  0  0  0  0  0  0
    5.5408   -4.9032   25.9341 H   0  0  0  0  0  0  0  0  0  0  0  0
    6.9850   -5.9267   25.6988 H   0  0  0  0  0  0  0  0  0  0  0  0
    7.4128   -3.5907   24.9363 H   0  0  0  0  0  0  0  0  0  0  0  0
    6.0651   -3.7262   23.8043 H   0  0  0  0  0  0  0  0  0  0  0  0
    6.2822   -7.0939   23.4395 H   0  0  0  0  0  0  0  0  0  0  0  0
  1  2  3  0  0  0  0
  2 18  1  0  0  0  0
  3  4  2  0  0  0  0
  3  5  1  0  0  0  0
  4  6  1  0  0  0  0
  4 14  1  0  0  0  0
  5  7  1  0  0  0  0
  5 22  2  0  0  0  0
  6  8  1  0  0  0  0
  7  9  1  0  0  0  0
  8 15  1  0  0  0  0
  9 14  1  0  0  0  0
 10 12  1  0  0  0  0
 10 17  1  0  0  0  0
 11 13  1  0  0  0  0
 11 16  1  0  0  0  0
 12 18  1  0  0  0  0
 13 19  1  0  0  0  0
 14 16  1  0  0  0  0
 15 16  1  0  0  0  0
 15 17  1  0  0  0  0
 17 19  1  0  0  0  0
 18 19  1  0  0  0  0
 18 23  1  0  0  0  0
 19 21  1  0  0  0  0
 20 21  1  0  0  0  0
  1 24  1  0  0  0  0
  3 25  1  0  0  0  0
  6 26  1  0  0  0  0
  6 27  1  0  0  0  0
  7 28  1  0  0  0  0
  7 29  1  0  0  0  0
  8 30  1  0  0  0  0
  8 31  1  0  0  0  0
  9 32  1  0  0  0  0
  9 33  1  0  0  0  0
 10 34  1  0  0  0  0
 10 35  1  0  0  0  0
 11 36  1  0  0  0  0
 11 37  1  0  0  0  0
 12 38  1  0  0  0  0
 12 39  1  0  0  0  0
 13 40  1  0  0  0  0
 13 41  1  0  0  0  0
 14 42  1  0  0  0  0
 15 43  1  0  0  0  0
 16 44  1  0  0  0  0
 17 45  1  0  0  0  0
 20 46  1  0  0  0  0
 20 47  1  0  0  0  0
 20 48  1  0  0  0  0
 21 49  1  0  0  0  0
 21 50  1  0  0  0  0
 23 51  1  0  0  0  0
M  END
> <Hybrid2>
-9.541877

> <docked_fragment>
x0749

> <Mpro-_dock>
4.406745

> <site>
active-covalent

$$$$
CHEMBL2104027
  -OEChem-04122014263D

 46 47  0     1  0  0  0  0  0999 V2000
   14.6260   -1.6877   23.8488 C   0  0  0  0  0  0  0  0  0  0  0  0
   14.2625   -2.0311   22.5466 C   0  0  0  0  0  0  0  0  0  0  0  0
   13.7373   -0.9784   24.6569 C   0  0  0  0  0  0  0  0  0  0  0  0
   13.0105   -1.6651   22.0525 C   0  0  0  0  0  0  0  0  0  0  0  0
   12.4853   -0.6125   24.1628 C   0  0  0  0  0  0  0  0  0  0  0  0
   12.1218   -0.9558   22.8606 C   0  0  0  0  0  0  0  0  0  0  0  0
   10.6094    1.3701   23.7098 C   0  0  0  0  0  0  0  0  0  0  0  0
   10.9092    0.3540   21.0747 C   0  0  0  0  0  0  0  0  0  0  0  0
    9.5728    0.7402   20.4519 C   0  0  0  0  0  0  0  0  0  0  0  0
    8.5423   -1.3742   21.3096 C   0  0  0  0  0  0  0  0  0  0  0  0
    9.8719   -1.7926   21.9574 C   0  0  1  0  0  0  0  0  0  0  0  0
   10.7457   -0.5531   22.3181 C   0  0  1  0  0  0  0  0  0  0  0  0
    8.2530    1.7480   24.4976 C   0  0  0  0  0  0  0  0  0  0  0  0
    8.7299   -3.8537   22.7939 C   0  0  0  0  0  0  0  0  0  0  0  0
    7.5445   -0.1971   19.3522 C   0  0  0  0  0  0  0  0  0  0  0  0
    9.7244    2.0408   24.7340 C   0  0  0  0  0  0  0  0  0  0  0  0
    9.5610   -2.6762   23.1746 C   0  0  0  0  0  0  0  0  0  0  0  0
    8.8107   -0.5116   20.1013 N   0  3  1  0  0  0  0  0  0  0  0  0
   11.6820    1.8037   23.3122 O   0  0  0  0  0  0  0  0  0  0  0  0
   10.0192    0.2041   23.2998 O   0  0  0  0  0  0  0  0  0  0  0  0
   15.6004   -1.9739   24.2338 H   0  0  0  0  0  0  0  0  0  0  0  0
   14.9539   -2.5843   21.9176 H   0  0  0  0  0  0  0  0  0  0  0  0
   14.0195   -0.7119   25.6711 H   0  0  0  0  0  0  0  0  0  0  0  0
   12.7359   -1.9368   21.0366 H   0  0  0  0  0  0  0  0  0  0  0  0
   11.7995   -0.0599   24.7995 H   0  0  0  0  0  0  0  0  0  0  0  0
   11.5273   -0.1462   20.3166 H   0  0  0  0  0  0  0  0  0  0  0  0
   11.4336    1.2773   21.3537 H   0  0  0  0  0  0  0  0  0  0  0  0
    8.9504    1.3372   21.1268 H   0  0  0  0  0  0  0  0  0  0  0  0
    9.7337    1.2972   19.5227 H   0  0  0  0  0  0  0  0  0  0  0  0
    7.9942   -2.2556   20.9576 H   0  0  0  0  0  0  0  0  0  0  0  0
    7.9005   -0.8042   21.9908 H   0  0  0  0  0  0  0  0  0  0  0  0
   10.4211   -2.4128   21.2320 H   0  0  0  0  0  0  0  0  0  0  0  0
    7.9363    2.0970   23.5092 H   0  0  0  0  0  0  0  0  0  0  0  0
    8.0640    0.6718   24.5574 H   0  0  0  0  0  0  0  0  0  0  0  0
    7.6277    2.2475   25.2450 H   0  0  0  0  0  0  0  0  0  0  0  0
    7.7876   -3.5057   22.3547 H   0  0  0  0  0  0  0  0  0  0  0  0
    8.4906   -4.4659   23.6698 H   0  0  0  0  0  0  0  0  0  0  0  0
    9.2429   -4.4729   22.0504 H   0  0  0  0  0  0  0  0  0  0  0  0
    6.9010    0.3853   20.0140 H   0  0  0  0  0  0  0  0  0  0  0  0
    7.8156    0.3761   18.4636 H   0  0  0  0  0  0  0  0  0  0  0  0
    7.0735   -1.1436   19.0801 H   0  0  0  0  0  0  0  0  0  0  0  0
   10.0103    1.6809   25.7281 H   0  0  0  0  0  0  0  0  0  0  0  0
    9.8913    3.1219   24.6818 H   0  0  0  0  0  0  0  0  0  0  0  0
   10.5019   -3.0107   23.6130 H   0  0  0  0  0  0  0  0  0  0  0  0
    9.0363   -2.0749   23.9178 H   0  0  0  0  0  0  0  0  0  0  0  0
    9.3990   -1.0594   19.4586 H   0  0  0  0  0  0  0  0  0  0  0  0
  1  2  1  0  0  0  0
  1  3  2  0  0  0  0
  2  4  2  0  0  0  0
  3  5  1  0  0  0  0
  4  6  1  0  0  0  0
  5  6  2  0  0  0  0
  6 12  1  0  0  0  0
  7 16  1  0  0  0  0
  7 19  2  0  0  0  0
  7 20  1  0  0  0  0
  8  9  1  0  0  0  0
  8 12  1  0  0  0  0
  9 18  1  0  0  0  0
 10 11  1  0  0  0  0
 10 18  1  0  0  0  0
 11 12  1  0  0  0  0
 11 17  1  0  0  0  0
 12 20  1  0  0  0  0
 13 16  1  0  0  0  0
 14 17  1  0  0  0  0
 15 18  1  0  0  0  0
  1 21  1  0  0  0  0
  2 22  1  0  0  0  0
  3 23  1  0  0  0  0
  4 24  1  0  0  0  0
  5 25  1  0  0  0  0
  8 26  1  0  0  0  0
  8 27  1  0  0  0  0
  9 28  1  0  0  0  0
  9 29  1  0  0  0  0
 10 30  1  0  0  0  0
 10 31  1  0  0  0  0
 11 32  1  0  0  0  0
 13 33  1  0  0  0  0
 13 34  1  0  0  0  0
 13 35  1  0  0  0  0
 14 36  1  0  0  0  0
 14 37  1  0  0  0  0
 14 38  1  0  0  0  0
 15 39  1  0  0  0  0
 15 40  1  0  0  0  0
 15 41  1  0  0  0  0
 16 42  1  0  0  0  0
 16 43  1  0  0  0  0
 17 44  1  0  0  0  0
 17 45  1  0  0  0  0
 18 46  1  0  0  0  0
M  CHG  1  18   1
M  END
> <Hybrid2>
-9.528659

> <docked_fragment>
x0678

> <Mpro-_dock>
1.762545

> <site>
active-noncovalent

$$$$
CHEMBL2104932
  -OEChem-04122014263D

 57 60  0     1  0  0  0  0  0999 V2000
   10.8235   -2.1335   23.3830 C   0  0  0  0  0  0  0  0  0  0  0  0
   11.1866   -0.9157   23.8275 C   0  0  0  0  0  0  0  0  0  0  0  0
    9.5639   -2.7876   23.8096 C   0  0  0  0  0  0  0  0  0  0  0  0
   10.5003    6.9514   24.1951 C   0  0  0  0  0  0  0  0  0  0  0  0
    8.7532   -2.1267   24.8882 C   0  0  0  0  0  0  0  0  0  0  0  0
    8.8204   -0.6185   24.7305 C   0  0  0  0  0  0  0  0  0  0  0  0
   12.7169    4.2126   22.9297 C   0  0  0  0  0  0  0  0  0  0  0  0
    9.3415    2.3837   25.0200 C   0  0  0  0  0  0  0  0  0  0  0  0
   12.2478    5.6804   22.8646 C   0  0  0  0  0  0  0  0  0  0  0  0
    9.3001    3.8206   24.4692 C   0  0  0  0  0  0  0  0  0  0  0  0
   12.3993    1.1059   22.9289 C   0  0  0  0  0  0  0  0  0  0  0  0
   12.5543   -0.3090   23.5023 C   0  0  2  0  0  0  0  0  0  0  0  0
   10.2140    1.4205   24.1688 C   0  0  1  0  0  0  0  0  0  0  0  0
   11.4627    3.4297   23.3097 C   0  0  1  0  0  0  0  0  0  0  0  0
   11.6240    2.0178   23.8878 C   0  0  2  0  0  0  0  0  0  0  0  0
   10.2727   -0.0540   24.7266 C   0  0  2  0  0  0  0  0  0  0  0  0
   10.8111    5.6996   23.4316 C   0  0  1  0  0  0  0  0  0  0  0  0
   10.7111    4.3924   24.2588 C   0  0  1  0  0  0  0  0  0  0  0  0
    9.0673    7.4106   24.1874 C   0  0  0  0  0  0  0  0  0  0  0  0
   10.8239   -0.1047   26.1706 C   0  0  0  0  0  0  0  0  0  0  0  0
   11.4121    4.5721   25.6341 C   0  0  0  0  0  0  0  0  0  0  0  0
   13.4579   -1.1262   22.5667 C   0  0  0  0  0  0  0  0  0  0  0  0
    9.2474   -3.8767   23.3353 O   0  0  0  0  0  0  0  0  0  0  0  0
   11.3734    7.5717   24.8000 O   0  0  0  0  0  0  0  0  0  0  0  0
    9.8766    5.6993   22.3562 O   0  0  0  0  0  0  0  0  0  0  0  0
   13.6823   -2.3342   23.0982 F   0  0  0  0  0  0  0  0  0  0  0  0
   12.8616   -1.2710   21.3770 F   0  0  0  0  0  0  0  0  0  0  0  0
   14.6256   -0.4929   22.4011 F   0  0  0  0  0  0  0  0  0  0  0  0
   11.4538   -2.7337   22.7375 H   0  0  0  0  0  0  0  0  0  0  0  0
    7.7118   -2.4532   24.7918 H   0  0  0  0  0  0  0  0  0  0  0  0
    9.1248   -2.4554   25.8636 H   0  0  0  0  0  0  0  0  0  0  0  0
    8.3223   -0.3534   23.7872 H   0  0  0  0  0  0  0  0  0  0  0  0
    8.2282   -0.1622   25.5327 H   0  0  0  0  0  0  0  0  0  0  0  0
   13.1261    3.8869   21.9677 H   0  0  0  0  0  0  0  0  0  0  0  0
   13.5067    4.0963   23.6804 H   0  0  0  0  0  0  0  0  0  0  0  0
    9.6968    2.4060   26.0548 H   0  0  0  0  0  0  0  0  0  0  0  0
    8.3092    2.0191   25.0582 H   0  0  0  0  0  0  0  0  0  0  0  0
   12.9321    6.3055   23.4498 H   0  0  0  0  0  0  0  0  0  0  0  0
   12.2794    6.0360   21.8285 H   0  0  0  0  0  0  0  0  0  0  0  0
    8.7444    3.8036   23.5234 H   0  0  0  0  0  0  0  0  0  0  0  0
    8.7263    4.4579   25.1525 H   0  0  0  0  0  0  0  0  0  0  0  0
   13.3944    1.5310   22.7488 H   0  0  0  0  0  0  0  0  0  0  0  0
   11.8927    1.0641   21.9553 H   0  0  0  0  0  0  0  0  0  0  0  0
   13.1024   -0.2304   24.4511 H   0  0  0  0  0  0  0  0  0  0  0  0
    9.7131    1.3603   23.1886 H   0  0  0  0  0  0  0  0  0  0  0  0
   10.8768    3.3218   22.3819 H   0  0  0  0  0  0  0  0  0  0  0  0
   12.1956    2.0756   24.8201 H   0  0  0  0  0  0  0  0  0  0  0  0
    8.5320    6.9628   25.0293 H   0  0  0  0  0  0  0  0  0  0  0  0
    8.5875    7.0978   23.2568 H   0  0  0  0  0  0  0  0  0  0  0  0
    9.0307    8.4985   24.2837 H   0  0  0  0  0  0  0  0  0  0  0  0
   10.1894    0.4968   26.8088 H   0  0  0  0  0  0  0  0  0  0  0  0
   11.8327    0.2875   26.1741 H   0  0  0  0  0  0  0  0  0  0  0  0
   10.8237   -1.1328   26.5093 H   0  0  0  0  0  0  0  0  0  0  0  0
   12.4001    4.9741   25.4648 H   0  0  0  0  0  0  0  0  0  0  0  0
   11.4749    3.6071   26.1149 H   0  0  0  0  0  0  0  0  0  0  0  0
   10.8247    5.2538   26.2313 H   0  0  0  0  0  0  0  0  0  0  0  0
   10.0506    4.8977   21.8386 H   0  0  0  0  0  0  0  0  0  0  0  0
  1  2  2  0  0  0  0
  1  3  1  0  0  0  0
  2 12  1  0  0  0  0
  2 16  1  0  0  0  0
  3  5  1  0  0  0  0
  3 23  2  0  0  0  0
  4 17  1  0  0  0  0
  4 19  1  0  0  0  0
  4 24  2  0  0  0  0
  5  6  1  0  0  0  0
  6 16  1  0  0  0  0
  7  9  1  0  0  0  0
  7 14  1  0  0  0  0
  8 10  1  0  0  0  0
  8 13  1  0  0  0  0
  9 17  1  0  0  0  0
 10 18  1  0  0  0  0
 11 12  1  0  0  0  0
 11 15  1  0  0  0  0
 12 22  1  0  0  0  0
 13 15  1  0  0  0  0
 13 16  1  0  0  0  0
 14 15  1  0  0  0  0
 14 18  1  0  0  0  0
 16 20  1  0  0  0  0
 17 18  1  0  0  0  0
 17 25  1  0  0  0  0
 18 21  1  0  0  0  0
 22 26  1  0  0  0  0
 22 27  1  0  0  0  0
 22 28  1  0  0  0  0
  1 29  1  0  0  0  0
  5 30  1  0  0  0  0
  5 31  1  0  0  0  0
  6 32  1  0  0  0  0
  6 33  1  0  0  0  0
  7 34  1  0  0  0  0
  7 35  1  0  0  0  0
  8 36  1  0  0  0  0
  8 37  1  0  0  0  0
  9 38  1  0  0  0  0
  9 39  1  0  0  0  0
 10 40  1  0  0  0  0
 10 41  1  0  0  0  0
 11 42  1  0  0  0  0
 11 43  1  0  0  0  0
 12 44  1  0  0  0  0
 13 45  1  0  0  0  0
 14 46  1  0  0  0  0
 15 47  1  0  0  0  0
 19 48  1  0  0  0  0
 19 49  1  0  0  0  0
 19 50  1  0  0  0  0
 20 51  1  0  0  0  0
 20 52  1  0  0  0  0
 20 53  1  0  0  0  0
 21 54  1  0  0  0  0
 21 55  1  0  0  0  0
 21 56  1  0  0  0  0
 25 57  1  0  0  0  0
M  END
> <Hybrid2>
-9.524969

> <docked_fragment>
x0195

> <Mpro-_dock>
2.217199

> <site>
active-noncovalent

$$$$
CHEMBL2104621
  -OEChem-04122014263D

 38 39  0     0  0  0  0  0  0999 V2000
   13.7685   -0.6114   24.0072 C   0  0  0  0  0  0  0  0  0  0  0  0
    7.8217   -4.6053   25.7726 C   0  0  0  0  0  0  0  0  0  0  0  0
   13.4380   -1.6277   23.1108 C   0  0  0  0  0  0  0  0  0  0  0  0
   12.7613    0.0754   24.6851 C   0  0  0  0  0  0  0  0  0  0  0  0
    8.3485   -3.4549   26.3596 C   0  0  0  0  0  0  0  0  0  0  0  0
    7.8987   -4.7812   24.3910 C   0  0  0  0  0  0  0  0  0  0  0  0
   12.1003   -1.9571   22.8922 C   0  0  0  0  0  0  0  0  0  0  0  0
   11.4236   -0.2540   24.4665 C   0  0  0  0  0  0  0  0  0  0  0  0
    8.9521   -2.4802   25.5650 C   0  0  0  0  0  0  0  0  0  0  0  0
    8.5023   -3.8066   23.5964 C   0  0  0  0  0  0  0  0  0  0  0  0
   11.0931   -1.2703   23.5700 C   0  0  0  0  0  0  0  0  0  0  0  0
    9.0291   -2.6561   24.1833 C   0  0  0  0  0  0  0  0  0  0  0  0
    9.6707   -1.6200   23.3379 C   0  0  0  0  0  0  0  0  0  0  0  0
    8.9611   -1.0032   22.3532 C   0  0  0  0  0  0  0  0  0  0  0  0
    6.5406   -0.4255   22.8457 C   0  0  0  0  0  0  0  0  0  0  0  0
    7.4972   -1.3068   22.0524 C   0  0  0  0  0  0  0  0  0  0  0  0
    9.5476    0.0655   21.4475 C   0  0  0  0  0  0  0  0  0  0  0  0
   10.0202    1.2669   22.1885 N   0  3  0  0  0  0  0  0  0  0  0  0
   14.8100   -0.3558   24.1783 H   0  0  0  0  0  0  0  0  0  0  0  0
    7.3529   -5.3647   26.3914 H   0  0  0  0  0  0  0  0  0  0  0  0
   14.2222   -2.1635   22.5837 H   0  0  0  0  0  0  0  0  0  0  0  0
   13.0185    0.8660   25.3839 H   0  0  0  0  0  0  0  0  0  0  0  0
    8.2897   -3.3182   27.4355 H   0  0  0  0  0  0  0  0  0  0  0  0
    7.4897   -5.6775   23.9339 H   0  0  0  0  0  0  0  0  0  0  0  0
   11.8584   -2.7517   22.1903 H   0  0  0  0  0  0  0  0  0  0  0  0
   10.6499    0.2906   25.0025 H   0  0  0  0  0  0  0  0  0  0  0  0
    9.3581   -1.5887   26.0371 H   0  0  0  0  0  0  0  0  0  0  0  0
    8.5546   -3.9582   22.5208 H   0  0  0  0  0  0  0  0  0  0  0  0
    6.7136    0.6373   22.6503 H   0  0  0  0  0  0  0  0  0  0  0  0
    5.4970   -0.6495   22.6042 H   0  0  0  0  0  0  0  0  0  0  0  0
    6.6807   -0.5926   23.9187 H   0  0  0  0  0  0  0  0  0  0  0  0
    7.2888   -2.3597   22.2781 H   0  0  0  0  0  0  0  0  0  0  0  0
    7.2703   -1.2002   20.9868 H   0  0  0  0  0  0  0  0  0  0  0  0
   10.4035   -0.2820   20.8629 H   0  0  0  0  0  0  0  0  0  0  0  0
    8.8057    0.4227   20.7263 H   0  0  0  0  0  0  0  0  0  0  0  0
    9.6523    2.1224   21.7631 H   0  0  0  0  0  0  0  0  0  0  0  0
   11.0428    1.3186   22.1785 H   0  0  0  0  0  0  0  0  0  0  0  0
    9.7105    1.2354   23.1639 H   0  0  0  0  0  0  0  0  0  0  0  0
  1  3  1  0  0  0  0
  1  4  2  0  0  0  0
  2  5  1  0  0  0  0
  2  6  2  0  0  0  0
  3  7  2  0  0  0  0
  4  8  1  0  0  0  0
  5  9  2  0  0  0  0
  6 10  1  0  0  0  0
  7 11  1  0  0  0  0
  8 11  2  0  0  0  0
  9 12  1  0  0  0  0
 10 12  2  0  0  0  0
 11 13  1  0  0  0  0
 12 13  1  0  0  0  0
 13 14  2  0  0  0  0
 14 16  1  0  0  0  0
 14 17  1  0  0  0  0
 15 16  1  0  0  0  0
 17 18  1  0  0  0  0
  1 19  1  0  0  0  0
  2 20  1  0  0  0  0
  3 21  1  0  0  0  0
  4 22  1  0  0  0  0
  5 23  1  0  0  0  0
  6 24  1  0  0  0  0
  7 25  1  0  0  0  0
  8 26  1  0  0  0  0
  9 27  1  0  0  0  0
 10 28  1  0  0  0  0
 15 29  1  0  0  0  0
 15 30  1  0  0  0  0
 15 31  1  0  0  0  0
 16 32  1  0  0  0  0
 16 33  1  0  0  0  0
 17 34  1  0  0  0  0
 17 35  1  0  0  0  0
 18 36  1  0  0  0  0
 18 37  1  0  0  0  0
 18 38  1  0  0  0  0
M  CHG  1  18   1
M  END
> <Hybrid2>
-9.524819

> <docked_fragment>
x0072

> <Mpro-_dock>
-0.923029

> <site>
active-noncovalent

$$$$
CHEMBL8514
  -OEChem-04122014263D

 59 63  0     1  0  0  0  0  0999 V2000
    8.4160   -3.7786   25.0767 C   0  0  0  0  0  0  0  0  0  0  0  0
    8.1961   -2.6696   25.8752 C   0  0  0  0  0  0  0  0  0  0  0  0
   14.2053    0.9982   22.3045 C   0  0  0  0  0  0  0  0  0  0  0  0
    9.3718   -3.7140   24.0674 C   0  0  0  0  0  0  0  0  0  0  0  0
    8.9130   -1.4971   25.6362 C   0  0  0  0  0  0  0  0  0  0  0  0
   13.9479   -0.3200   22.6401 C   0  0  0  0  0  0  0  0  0  0  0  0
   13.2523    1.9642   22.5798 C   0  0  0  0  0  0  0  0  0  0  0  0
   10.1160   -2.5375   23.8308 C   0  0  0  0  0  0  0  0  0  0  0  0
   12.7367   -0.6964   23.2565 C   0  0  0  0  0  0  0  0  0  0  0  0
    9.8657   -1.3862   24.5910 C   0  0  0  0  0  0  0  0  0  0  0  0
   12.0510    1.6371   23.2397 C   0  0  0  0  0  0  0  0  0  0  0  0
   11.7724    0.2796   23.5940 C   0  0  0  0  0  0  0  0  0  0  0  0
   11.2146   -2.6082   22.8126 C   0  0  0  0  0  0  0  0  0  0  0  0
   12.5258   -2.1722   23.4553 C   0  0  0  0  0  0  0  0  0  0  0  0
    9.2290    4.6801   24.7936 C   0  0  0  0  0  0  0  0  0  0  0  0
   11.5808    4.0500   24.0576 C   0  0  0  0  0  0  0  0  0  0  0  0
    8.7197    3.3719   24.1989 C   0  0  0  0  0  0  0  0  0  0  0  0
    9.3778    0.9598   23.9393 C   0  0  0  0  0  0  0  0  0  0  0  0
   10.4956   -0.0020   24.4017 C   0  0  1  0  0  0  0  0  0  0  0  0
   11.0269    2.7520   23.4279 C   0  0  2  0  0  0  0  0  0  0  0  0
   10.5206    5.1668   24.1215 C   0  0  2  0  0  0  0  0  0  0  0  0
   11.3880    6.0329   26.3088 C   0  0  0  0  0  0  0  0  0  0  0  0
   10.0449    7.5298   24.8116 C   0  0  0  0  0  0  0  0  0  0  0  0
   12.3699    6.8595   24.1549 C   0  0  0  0  0  0  0  0  0  0  0  0
   11.0789    6.3929   24.8467 C   0  0  0  0  0  0  0  0  0  0  0  0
    9.8299    2.3543   24.2679 N   0  3  1  0  0  0  0  0  0  0  0  0
   10.2192    5.5572   22.7770 O   0  0  0  0  0  0  0  0  0  0  0  0
    7.8406   -4.6863   25.2253 H   0  0  0  0  0  0  0  0  0  0  0  0
    7.4744   -2.7108   26.6817 H   0  0  0  0  0  0  0  0  0  0  0  0
   15.1564    1.2763   21.8609 H   0  0  0  0  0  0  0  0  0  0  0  0
    9.5295   -4.5926   23.4381 H   0  0  0  0  0  0  0  0  0  0  0  0
    8.7117   -0.6570   26.3021 H   0  0  0  0  0  0  0  0  0  0  0  0
   14.7046   -1.0684   22.4201 H   0  0  0  0  0  0  0  0  0  0  0  0
   13.4614    2.9873   22.2790 H   0  0  0  0  0  0  0  0  0  0  0  0
   11.2866   -3.6082   22.3702 H   0  0  0  0  0  0  0  0  0  0  0  0
   10.9912   -1.9349   21.9745 H   0  0  0  0  0  0  0  0  0  0  0  0
   13.3362   -2.7006   23.0218 H   0  0  0  0  0  0  0  0  0  0  0  0
   12.4352   -2.3588   24.4988 H   0  0  0  0  0  0  0  0  0  0  0  0
    8.4397    5.4356   24.6806 H   0  0  0  0  0  0  0  0  0  0  0  0
    9.3929    4.5461   25.8718 H   0  0  0  0  0  0  0  0  0  0  0  0
   11.9619    3.8378   25.0622 H   0  0  0  0  0  0  0  0  0  0  0  0
   12.4226    4.4207   23.4672 H   0  0  0  0  0  0  0  0  0  0  0  0
    7.8823    2.9905   24.7879 H   0  0  0  0  0  0  0  0  0  0  0  0
    8.4200    3.4759   23.1532 H   0  0  0  0  0  0  0  0  0  0  0  0
    9.1977    0.9385   22.8671 H   0  0  0  0  0  0  0  0  0  0  0  0
    8.4561    0.7703   24.4859 H   0  0  0  0  0  0  0  0  0  0  0  0
   10.7026    0.4008   25.4361 H   0  0  0  0  0  0  0  0  0  0  0  0
   10.6134    2.9842   22.4170 H   0  0  0  0  0  0  0  0  0  0  0  0
   11.7904    6.8932   26.8554 H   0  0  0  0  0  0  0  0  0  0  0  0
   12.1261    5.2252   26.3685 H   0  0  0  0  0  0  0  0  0  0  0  0
   10.4850    5.6985   26.8317 H   0  0  0  0  0  0  0  0  0  0  0  0
   10.4215    8.4214   25.3255 H   0  0  0  0  0  0  0  0  0  0  0  0
    9.8073    7.8149   23.7806 H   0  0  0  0  0  0  0  0  0  0  0  0
    9.1095    7.2340   25.2996 H   0  0  0  0  0  0  0  0  0  0  0  0
   12.7905    7.7384   24.6565 H   0  0  0  0  0  0  0  0  0  0  0  0
   12.1875    7.1284   23.1085 H   0  0  0  0  0  0  0  0  0  0  0  0
   13.1316    6.0717   24.1689 H   0  0  0  0  0  0  0  0  0  0  0  0
   10.1410    2.3421   25.2666 H   0  0  0  0  0  0  0  0  0  0  0  0
   11.0542    5.8562   22.3889 H   0  0  0  0  0  0  0  0  0  0  0  0
  1  2  1  0  0  0  0
  1  4  2  0  0  0  0
  2  5  2  0  0  0  0
  3  6  1  0  0  0  0
  3  7  2  0  0  0  0
  4  8  1  0  0  0  0
  5 10  1  0  0  0  0
  6  9  2  0  0  0  0
  7 11  1  0  0  0  0
  8 10  2  0  0  0  0
  8 13  1  0  0  0  0
  9 12  1  0  0  0  0
  9 14  1  0  0  0  0
 10 19  1  0  0  0  0
 11 12  2  0  0  0  0
 11 20  1  0  0  0  0
 12 19  1  0  0  0  0
 13 14  1  0  0  0  0
 15 17  1  0  0  0  0
 15 21  1  0  0  0  0
 16 20  1  0  0  0  0
 16 21  1  0  0  0  0
 17 26  1  0  0  0  0
 18 19  1  0  0  0  0
 18 26  1  0  0  0  0
 20 26  1  0  0  0  0
 21 25  1  0  0  0  0
 21 27  1  0  0  0  0
 22 25  1  0  0  0  0
 23 25  1  0  0  0  0
 24 25  1  0  0  0  0
  1 28  1  0  0  0  0
  2 29  1  0  0  0  0
  3 30  1  0  0  0  0
  4 31  1  0  0  0  0
  5 32  1  0  0  0  0
  6 33  1  0  0  0  0
  7 34  1  0  0  0  0
 13 35  1  0  0  0  0
 13 36  1  0  0  0  0
 14 37  1  0  0  0  0
 14 38  1  0  0  0  0
 15 39  1  0  0  0  0
 15 40  1  0  0  0  0
 16 41  1  0  0  0  0
 16 42  1  0  0  0  0
 17 43  1  0  0  0  0
 17 44  1  0  0  0  0
 18 45  1  0  0  0  0
 18 46  1  0  0  0  0
 19 47  1  0  0  0  0
 20 48  1  0  0  0  0
 22 49  1  0  0  0  0
 22 50  1  0  0  0  0
 22 51  1  0  0  0  0
 23 52  1  0  0  0  0
 23 53  1  0  0  0  0
 23 54  1  0  0  0  0
 24 55  1  0  0  0  0
 24 56  1  0  0  0  0
 24 57  1  0  0  0  0
 26 58  1  0  0  0  0
 27 59  1  0  0  0  0
M  CHG  1  26   1
M  END
> <Hybrid2>
-9.512857

> <docked_fragment>
x0195

> <Mpro-_dock>
3.369846

> <site>
active-noncovalent

$$$$
CHEMBL2104473
  -OEChem-04122014263D

 34 35  0     0  0  0  0  0  0999 V2000
   14.4371   -1.0792   26.2850 C   0  0  0  0  0  0  0  0  0  0  0  0
   14.4159   -2.4632   26.1134 C   0  0  0  0  0  0  0  0  0  0  0  0
   13.3162   -0.3180   25.9535 C   0  0  0  0  0  0  0  0  0  0  0  0
   13.2738   -3.0862   25.6101 C   0  0  0  0  0  0  0  0  0  0  0  0
   12.1741   -0.9409   25.4502 C   0  0  0  0  0  0  0  0  0  0  0  0
   10.1319   -2.2884   23.8739 C   0  0  0  0  0  0  0  0  0  0  0  0
   10.6635   -4.2788   25.1360 C   0  0  0  0  0  0  0  0  0  0  0  0
    8.9906   -2.9125   23.3703 C   0  0  0  0  0  0  0  0  0  0  0  0
    9.5222   -4.9029   24.6325 C   0  0  0  0  0  0  0  0  0  0  0  0
   12.1529   -2.3250   25.2785 C   0  0  0  0  0  0  0  0  0  0  0  0
   10.9684   -2.9716   24.7567 C   0  0  0  0  0  0  0  0  0  0  0  0
    8.6857   -4.2197   23.7497 C   0  0  0  0  0  0  0  0  0  0  0  0
    6.2667   -4.3334   23.4596 C   0  0  0  0  0  0  0  0  0  0  0  0
    7.4704   -4.8841   23.2133 C   0  0  0  0  0  0  0  0  0  0  0  0
    4.9651   -4.8883   22.9859 C   0  0  0  0  0  0  0  0  0  0  0  0
    7.7064   -6.1467   22.4290 C   0  0  0  0  0  0  0  0  0  0  0  0
    4.2810   -5.8649   23.9059 C   0  0  0  0  0  0  0  0  0  0  0  0
    4.4890   -4.6091   21.8890 O   0  0  0  0  0  0  0  0  0  0  0  0
   15.3258   -0.5946   26.6785 H   0  0  0  0  0  0  0  0  0  0  0  0
   15.2879   -3.0562   26.3731 H   0  0  0  0  0  0  0  0  0  0  0  0
   13.3315    0.7596   26.0881 H   0  0  0  0  0  0  0  0  0  0  0  0
   13.2728   -4.1662   25.4823 H   0  0  0  0  0  0  0  0  0  0  0  0
   11.3077   -0.3346   25.1967 H   0  0  0  0  0  0  0  0  0  0  0  0
   10.3567   -1.2693   23.5688 H   0  0  0  0  0  0  0  0  0  0  0  0
   11.3063   -4.8244   25.8229 H   0  0  0  0  0  0  0  0  0  0  0  0
    8.3493   -2.3677   22.6813 H   0  0  0  0  0  0  0  0  0  0  0  0
    9.2979   -5.9226   24.9361 H   0  0  0  0  0  0  0  0  0  0  0  0
    6.1786   -3.4227   24.0472 H   0  0  0  0  0  0  0  0  0  0  0  0
    7.6893   -7.0277   23.0813 H   0  0  0  0  0  0  0  0  0  0  0  0
    8.6890   -6.1549   21.9476 H   0  0  0  0  0  0  0  0  0  0  0  0
    6.9371   -6.2732   21.6605 H   0  0  0  0  0  0  0  0  0  0  0  0
    3.6187   -5.3175   24.5826 H   0  0  0  0  0  0  0  0  0  0  0  0
    5.0102   -6.4056   24.5156 H   0  0  0  0  0  0  0  0  0  0  0  0
    3.7020   -6.5771   23.3132 H   0  0  0  0  0  0  0  0  0  0  0  0
  1  2  1  0  0  0  0
  1  3  2  0  0  0  0
  2  4  2  0  0  0  0
  3  5  1  0  0  0  0
  4 10  1  0  0  0  0
  5 10  2  0  0  0  0
  6  8  2  0  0  0  0
  6 11  1  0  0  0  0
  7  9  1  0  0  0  0
  7 11  2  0  0  0  0
  8 12  1  0  0  0  0
  9 12  2  0  0  0  0
 10 11  1  0  0  0  0
 12 14  1  0  0  0  0
 13 14  2  0  0  0  0
 13 15  1  0  0  0  0
 14 16  1  0  0  0  0
 15 17  1  0  0  0  0
 15 18  2  0  0  0  0
  1 19  1  0  0  0  0
  2 20  1  0  0  0  0
  3 21  1  0  0  0  0
  4 22  1  0  0  0  0
  5 23  1  0  0  0  0
  6 24  1  0  0  0  0
  7 25  1  0  0  0  0
  8 26  1  0  0  0  0
  9 27  1  0  0  0  0
 13 28  1  0  0  0  0
 16 29  1  0  0  0  0
 16 30  1  0  0  0  0
 16 31  1  0  0  0  0
 17 32  1  0  0  0  0
 17 33  1  0  0  0  0
 17 34  1  0  0  0  0
M  END
> <Hybrid2>
-9.504568

> <docked_fragment>
x0749

> <Mpro-_dock>
3.644207

> <site>
active-covalent

$$$$
CHEMBL111659
  -OEChem-04122014263D

 29 30  0     1  0  0  0  0  0999 V2000
    3.7693    1.9510   20.4047 C   0  0  0  0  0  0  0  0  0  0  0  0
    4.8505    1.5231   20.1050 C   0  0  0  0  0  0  0  0  0  0  0  0
    7.1326    0.8541   20.7047 C   0  0  0  0  0  0  0  0  0  0  0  0
    6.4277    0.6652   18.4411 C   0  0  0  0  0  0  0  0  0  0  0  0
    8.5671    0.0356   18.9934 C   0  0  0  0  0  0  0  0  0  0  0  0
    6.1351    1.0147   19.7495 C   0  0  0  0  0  0  0  0  0  0  0  0
    8.3748    0.3559   20.3276 C   0  0  0  0  0  0  0  0  0  0  0  0
   11.6180    0.7588   22.1874 C   0  0  0  0  0  0  0  0  0  0  0  0
   10.4239    1.3611   21.4735 C   0  0  0  0  0  0  0  0  0  0  0  0
   11.8177   -0.5759   21.4950 C   0  0  0  0  0  0  0  0  0  0  0  0
    9.4771    0.1688   21.3395 C   0  0  2  0  0  0  0  0  0  0  0  0
    9.9762   -2.3038   21.6157 C   0  0  0  0  0  0  0  0  0  0  0  0
    7.6223    0.1780   18.0369 N   0  0  0  0  0  0  0  0  0  0  0  0
   10.4293   -0.9956   21.0429 N   0  3  2  0  0  0  0  0  0  0  0  0
    2.8103    2.3300   20.6707 H   0  0  0  0  0  0  0  0  0  0  0  0
    6.9477    1.1145   21.7447 H   0  0  0  0  0  0  0  0  0  0  0  0
    5.6922    0.7673   17.6482 H   0  0  0  0  0  0  0  0  0  0  0  0
    9.5162   -0.3554   18.6395 H   0  0  0  0  0  0  0  0  0  0  0  0
   12.5051    1.3951   22.1195 H   0  0  0  0  0  0  0  0  0  0  0  0
   11.3877    0.6038   23.2482 H   0  0  0  0  0  0  0  0  0  0  0  0
    9.9773    2.1816   22.0444 H   0  0  0  0  0  0  0  0  0  0  0  0
   10.7212    1.7521   20.4922 H   0  0  0  0  0  0  0  0  0  0  0  0
   12.4236   -0.4794   20.5884 H   0  0  0  0  0  0  0  0  0  0  0  0
   12.2440   -1.3396   22.1519 H   0  0  0  0  0  0  0  0  0  0  0  0
    9.0164   -0.0529   22.3306 H   0  0  0  0  0  0  0  0  0  0  0  0
    9.9251   -2.1936   22.7005 H   0  0  0  0  0  0  0  0  0  0  0  0
    8.9935   -2.5294   21.1972 H   0  0  0  0  0  0  0  0  0  0  0  0
   10.7072   -3.0636   21.3325 H   0  0  0  0  0  0  0  0  0  0  0  0
   10.4733   -1.1126   20.0208 H   0  0  0  0  0  0  0  0  0  0  0  0
  1  2  3  0  0  0  0
  2  6  1  0  0  0  0
  3  6  2  0  0  0  0
  3  7  1  0  0  0  0
  4  6  1  0  0  0  0
  4 13  2  0  0  0  0
  5  7  2  0  0  0  0
  5 13  1  0  0  0  0
  7 11  1  0  0  0  0
  8  9  1  0  0  0  0
  8 10  1  0  0  0  0
  9 11  1  0  0  0  0
 10 14  1  0  0  0  0
 11 14  1  0  0  0  0
 12 14  1  0  0  0  0
  1 15  1  0  0  0  0
  3 16  1  0  0  0  0
  4 17  1  0  0  0  0
  5 18  1  0  0  0  0
  8 19  1  0  0  0  0
  8 20  1  0  0  0  0
  9 21  1  0  0  0  0
  9 22  1  0  0  0  0
 10 23  1  0  0  0  0
 10 24  1  0  0  0  0
 11 25  1  0  0  0  0
 12 26  1  0  0  0  0
 12 27  1  0  0  0  0
 12 28  1  0  0  0  0
 14 29  1  0  0  0  0
M  CHG  1  14   1
M  END
> <Hybrid2>
-9.500140

> <docked_fragment>
x0678

> <Mpro-_dock>
-1.475226

> <site>
active-noncovalent

$$$$
CHEMBL829
  -OEChem-04122014263D

 44 46  0     1  0  0  0  0  0999 V2000
   14.5680   -0.6386   23.3618 C   0  0  0  0  0  0  0  0  0  0  0  0
    7.4040    0.2754   24.6589 C   0  0  0  0  0  0  0  0  0  0  0  0
   14.4047   -1.8772   22.7604 C   0  0  0  0  0  0  0  0  0  0  0  0
    7.0430   -0.9379   24.0929 C   0  0  0  0  0  0  0  0  0  0  0  0
   13.4519    0.1547   23.6414 C   0  0  0  0  0  0  0  0  0  0  0  0
    8.7052    0.7601   24.5013 C   0  0  0  0  0  0  0  0  0  0  0  0
   13.1252   -2.3226   22.4458 C   0  0  0  0  0  0  0  0  0  0  0  0
    7.9860   -1.6670   23.3761 C   0  0  0  0  0  0  0  0  0  0  0  0
   12.1403   -0.2613   23.3243 C   0  0  0  0  0  0  0  0  0  0  0  0
    9.6836    0.0519   23.7696 C   0  0  0  0  0  0  0  0  0  0  0  0
   11.9984   -1.5306   22.7295 C   0  0  0  0  0  0  0  0  0  0  0  0
    9.2982   -1.1863   23.2187 C   0  0  0  0  0  0  0  0  0  0  0  0
   10.7447    2.9629   21.5817 C   0  0  0  0  0  0  0  0  0  0  0  0
   10.5316    4.8939   23.9587 C   0  0  0  0  0  0  0  0  0  0  0  0
   12.3982    6.4095   23.3110 C   0  0  0  0  0  0  0  0  0  0  0  0
   11.2330    1.9694   23.8580 C   0  0  0  0  0  0  0  0  0  0  0  0
   12.6008    3.9557   22.9388 C   0  0  0  0  0  0  0  0  0  0  0  0
   11.8293    2.6678   22.6239 C   0  0  2  0  0  0  0  0  0  0  0  0
   11.0070    0.5379   23.6198 N   0  0  0  0  0  0  0  0  0  0  0  0
   11.6811    5.1166   23.0060 N   0  3  0  0  0  0  0  0  0  0  0  0
   10.4125   -2.1941   22.2611 S   0  0  0  0  0  0  0  0  0  0  0  0
   15.5620   -0.2860   23.6214 H   0  0  0  0  0  0  0  0  0  0  0  0
    6.6783    0.8474   25.2297 H   0  0  0  0  0  0  0  0  0  0  0  0
   15.2684   -2.4971   22.5405 H   0  0  0  0  0  0  0  0  0  0  0  0
    6.0333   -1.3186   24.2117 H   0  0  0  0  0  0  0  0  0  0  0  0
   13.6373    1.1041   24.1384 H   0  0  0  0  0  0  0  0  0  0  0  0
    8.9397    1.7031   24.9896 H   0  0  0  0  0  0  0  0  0  0  0  0
   13.0173   -3.2982   21.9759 H   0  0  0  0  0  0  0  0  0  0  0  0
    7.6844   -2.6177   22.9410 H   0  0  0  0  0  0  0  0  0  0  0  0
   10.0089    3.6699   21.9804 H   0  0  0  0  0  0  0  0  0  0  0  0
   11.1802    3.4097   20.6818 H   0  0  0  0  0  0  0  0  0  0  0  0
   10.2094    2.0543   21.2866 H   0  0  0  0  0  0  0  0  0  0  0  0
   10.9479    4.7599   24.9588 H   0  0  0  0  0  0  0  0  0  0  0  0
    9.8872    5.7741   23.9164 H   0  0  0  0  0  0  0  0  0  0  0  0
    9.9965    3.9997   23.6334 H   0  0  0  0  0  0  0  0  0  0  0  0
   12.8589    6.3116   24.2956 H   0  0  0  0  0  0  0  0  0  0  0  0
   13.1532    6.5633   22.5377 H   0  0  0  0  0  0  0  0  0  0  0  0
   11.6582    7.2121   23.3021 H   0  0  0  0  0  0  0  0  0  0  0  0
   11.9088    2.0834   24.7132 H   0  0  0  0  0  0  0  0  0  0  0  0
   10.2861    2.4377   24.1459 H   0  0  0  0  0  0  0  0  0  0  0  0
   13.3568    4.1917   22.1837 H   0  0  0  0  0  0  0  0  0  0  0  0
   13.0871    3.8937   23.9178 H   0  0  0  0  0  0  0  0  0  0  0  0
   12.5298    1.9576   22.1634 H   0  0  0  0  0  0  0  0  0  0  0  0
   11.2564    5.2398   22.0705 H   0  0  0  0  0  0  0  0  0  0  0  0
  1  3  1  0  0  0  0
  1  5  2  0  0  0  0
  2  4  2  0  0  0  0
  2  6  1  0  0  0  0
  3  7  2  0  0  0  0
  4  8  1  0  0  0  0
  5  9  1  0  0  0  0
  6 10  2  0  0  0  0
  7 11  1  0  0  0  0
  8 12  2  0  0  0  0
  9 11  2  0  0  0  0
  9 19  1  0  0  0  0
 10 12  1  0  0  0  0
 10 19  1  0  0  0  0
 11 21  1  0  0  0  0
 12 21  1  0  0  0  0
 13 18  1  0  0  0  0
 14 20  1  0  0  0  0
 15 20  1  0  0  0  0
 16 18  1  0  0  0  0
 16 19  1  0  0  0  0
 17 18  1  0  0  0  0
 17 20  1  0  0  0  0
  1 22  1  0  0  0  0
  2 23  1  0  0  0  0
  3 24  1  0  0  0  0
  4 25  1  0  0  0  0
  5 26  1  0  0  0  0
  6 27  1  0  0  0  0
  7 28  1  0  0  0  0
  8 29  1  0  0  0  0
 13 30  1  0  0  0  0
 13 31  1  0  0  0  0
 13 32  1  0  0  0  0
 14 33  1  0  0  0  0
 14 34  1  0  0  0  0
 14 35  1  0  0  0  0
 15 36  1  0  0  0  0
 15 37  1  0  0  0  0
 15 38  1  0  0  0  0
 16 39  1  0  0  0  0
 16 40  1  0  0  0  0
 17 41  1  0  0  0  0
 17 42  1  0  0  0  0
 18 43  1  0  0  0  0
 20 44  1  0  0  0  0
M  CHG  1  20   1
M  END
> <Hybrid2>
-9.491579

> <docked_fragment>
x0195

> <Mpro-_dock>
0.576712

> <site>
active-noncovalent

$$$$
CHEMBL57895
  -OEChem-04122014263D

 33 35  0     1  0  0  0  0  0999 V2000
   14.8114   -1.5315   22.5446 C   0  0  0  0  0  0  0  0  0  0  0  0
   14.3932   -0.4829   23.3798 C   0  0  0  0  0  0  0  0  0  0  0  0
   13.8863   -2.2349   21.7691 C   0  0  0  0  0  0  0  0  0  0  0  0
   13.0454   -0.1266   23.4500 C   0  0  0  0  0  0  0  0  0  0  0  0
   12.5530   -1.8756   21.8540 C   0  0  0  0  0  0  0  0  0  0  0  0
   12.1480   -0.8415   22.6800 C   0  0  0  0  0  0  0  0  0  0  0  0
    9.2868   -1.1150   20.8853 C   0  0  0  0  0  0  0  0  0  0  0  0
   11.3877   -2.4185   21.1210 C   0  0  0  0  0  0  0  0  0  0  0  0
    8.3435   -0.5627   18.8977 C   0  0  0  0  0  0  0  0  0  0  0  0
    7.4896   -0.0124   20.0491 C   0  0  0  0  0  0  0  0  0  0  0  0
   10.2404   -1.6916   21.8570 C   0  0  2  0  0  0  0  0  0  0  0  0
   10.4105   -3.2308   23.8193 C   0  0  0  0  0  0  0  0  0  0  0  0
    9.4904   -2.6212   22.8154 C   0  0  0  0  0  0  0  0  0  0  0  0
    9.4500   -1.2395   19.5814 N   0  0  0  0  0  0  0  0  0  0  0  0
    8.2139   -0.4389   21.2507 N   0  3  0  0  0  0  0  0  0  0  0  0
   10.7998   -0.6032   22.6450 O   0  0  0  0  0  0  0  0  0  0  0  0
   15.8646   -1.7950   22.5001 H   0  0  0  0  0  0  0  0  0  0  0  0
   15.1266    0.0553   23.9741 H   0  0  0  0  0  0  0  0  0  0  0  0
   14.2110   -3.0378   21.1162 H   0  0  0  0  0  0  0  0  0  0  0  0
   12.7191    0.6833   24.0928 H   0  0  0  0  0  0  0  0  0  0  0  0
   11.4460   -2.1345   20.0643 H   0  0  0  0  0  0  0  0  0  0  0  0
   11.3144   -3.5076   21.1983 H   0  0  0  0  0  0  0  0  0  0  0  0
    7.7928   -1.2848   18.2887 H   0  0  0  0  0  0  0  0  0  0  0  0
    8.7390    0.2355   18.2638 H   0  0  0  0  0  0  0  0  0  0  0  0
    7.4273    1.0790   20.0268 H   0  0  0  0  0  0  0  0  0  0  0  0
    6.4850   -0.4437   20.0554 H   0  0  0  0  0  0  0  0  0  0  0  0
   11.1886   -3.8033   23.3010 H   0  0  0  0  0  0  0  0  0  0  0  0
    9.8700   -3.9150   24.4819 H   0  0  0  0  0  0  0  0  0  0  0  0
   10.9010   -2.4584   24.4211 H   0  0  0  0  0  0  0  0  0  0  0  0
    8.7128   -2.0493   23.3257 H   0  0  0  0  0  0  0  0  0  0  0  0
    9.0028   -3.4073   22.2355 H   0  0  0  0  0  0  0  0  0  0  0  0
   10.2403   -1.7388   19.1894 H   0  0  0  0  0  0  0  0  0  0  0  0
    7.9889   -0.2801   22.2262 H   0  0  0  0  0  0  0  0  0  0  0  0
  1  2  1  0  0  0  0
  1  3  2  0  0  0  0
  2  4  2  0  0  0  0
  3  5  1  0  0  0  0
  4  6  1  0  0  0  0
  5  6  2  0  0  0  0
  5  8  1  0  0  0  0
  6 16  1  0  0  0  0
  7 11  1  0  0  0  0
  7 14  1  0  0  0  0
  7 15  2  0  0  0  0
  8 11  1  0  0  0  0
  9 10  1  0  0  0  0
  9 14  1  0  0  0  0
 10 15  1  0  0  0  0
 11 13  1  0  0  0  0
 11 16  1  0  0  0  0
 12 13  1  0  0  0  0
  1 17  1  0  0  0  0
  2 18  1  0  0  0  0
  3 19  1  0  0  0  0
  4 20  1  0  0  0  0
  8 21  1  0  0  0  0
  8 22  1  0  0  0  0
  9 23  1  0  0  0  0
  9 24  1  0  0  0  0
 10 25  1  0  0  0  0
 10 26  1  0  0  0  0
 12 27  1  0  0  0  0
 12 28  1  0  0  0  0
 12 29  1  0  0  0  0
 13 30  1  0  0  0  0
 13 31  1  0  0  0  0
 14 32  1  0  0  0  0
 15 33  1  0  0  0  0
M  CHG  1  15   1
M  END
> <Hybrid2>
-9.453258

> <docked_fragment>
x1382

> <Mpro-_dock>
-0.877326

> <site>
active-covalent

$$$$
CHEMBL64130
  -OEChem-04122014263D

 26 28  0     0  0  0  0  0  0999 V2000
   13.1035   -2.1452   22.7965 C   0  0  0  0  0  0  0  0  0  0  0  0
   14.2514   -1.6181   22.2048 C   0  0  0  0  0  0  0  0  0  0  0  0
   12.1276   -1.2965   23.3214 C   0  0  0  0  0  0  0  0  0  0  0  0
   14.4348   -0.2370   22.1313 C   0  0  0  0  0  0  0  0  0  0  0  0
   10.7365    3.5265   24.1254 C   0  0  0  0  0  0  0  0  0  0  0  0
   12.2987    0.0904   23.2546 C   0  0  0  0  0  0  0  0  0  0  0  0
   13.4631    0.6232   22.6534 C   0  0  0  0  0  0  0  0  0  0  0  0
   11.4760    2.3922   23.7213 C   0  0  0  0  0  0  0  0  0  0  0  0
   12.6181    2.8751   23.1307 C   0  0  0  0  0  0  0  0  0  0  0  0
   11.4872    4.6204   23.7489 C   0  0  0  0  0  0  0  0  0  0  0  0
   11.2324    0.9741   23.8273 C   0  0  0  0  0  0  0  0  0  0  0  0
   13.6781    2.1009   22.5636 C   0  0  0  0  0  0  0  0  0  0  0  0
   11.2521    6.0167   23.8930 C   0  0  0  0  0  0  0  0  0  0  0  0
   12.2465    6.8408   24.6864 C   0  0  0  0  0  0  0  0  0  0  0  0
   10.2256    0.5136   24.3482 O   0  0  0  0  0  0  0  0  0  0  0  0
   14.6819    2.5702   22.0441 O   0  0  0  0  0  0  0  0  0  0  0  0
   10.2823    6.6535   23.4253 O   0  0  0  0  0  0  0  0  0  0  0  0
   12.6416    4.2306   23.1389 O   0  0  0  0  0  0  0  0  0  0  0  0
   12.9681   -3.2219   22.8485 H   0  0  0  0  0  0  0  0  0  0  0  0
   15.0056   -2.2861   21.7986 H   0  0  0  0  0  0  0  0  0  0  0  0
   11.2440   -1.7357   23.7765 H   0  0  0  0  0  0  0  0  0  0  0  0
   15.3374    0.1470   21.6641 H   0  0  0  0  0  0  0  0  0  0  0  0
    9.7794    3.5481   24.6273 H   0  0  0  0  0  0  0  0  0  0  0  0
   13.0603    7.2536   24.0694 H   0  0  0  0  0  0  0  0  0  0  0  0
   12.7105    6.2746   25.5089 H   0  0  0  0  0  0  0  0  0  0  0  0
   11.8109    7.7303   25.1754 H   0  0  0  0  0  0  0  0  0  0  0  0
  1  2  1  0  0  0  0
  1  3  2  0  0  0  0
  2  4  2  0  0  0  0
  3  6  1  0  0  0  0
  4  7  1  0  0  0  0
  5  8  1  0  0  0  0
  5 10  2  0  0  0  0
  6  7  2  0  0  0  0
  6 11  1  0  0  0  0
  7 12  1  0  0  0  0
  8  9  2  0  0  0  0
  8 11  1  0  0  0  0
  9 12  1  0  0  0  0
  9 18  1  0  0  0  0
 10 13  1  0  0  0  0
 10 18  1  0  0  0  0
 11 15  2  0  0  0  0
 12 16  2  0  0  0  0
 13 14  1  0  0  0  0
 13 17  2  0  0  0  0
  1 19  1  0  0  0  0
  2 20  1  0  0  0  0
  3 21  1  0  0  0  0
  4 22  1  0  0  0  0
  5 23  1  0  0  0  0
 14 24  1  0  0  0  0
 14 25  1  0  0  0  0
 14 26  1  0  0  0  0
M  END
> <Hybrid2>
-9.445909

> <docked_fragment>
x0195

> <Mpro-_dock>
2.922366

> <site>
active-noncovalent

$$$$
EDRUG4
  -OEChem-04122014263D

 49 52  0     1  0  0  0  0  0999 V2000
   12.8524   -2.9611   25.5385 C   0  0  0  0  0  0  0  0  0  0  0  0
   13.8962   -2.3412   26.2289 C   0  0  0  0  0  0  0  0  0  0  0  0
   13.4191   -0.2791   25.0893 C   0  0  0  0  0  0  0  0  0  0  0  0
   12.0578   -2.2488   24.6228 C   0  0  0  0  0  0  0  0  0  0  0  0
   12.3709   -0.8930   24.3810 C   0  0  0  0  0  0  0  0  0  0  0  0
   14.1769   -0.9991   26.0082 C   0  0  0  0  0  0  0  0  0  0  0  0
    6.1127   -6.2341   22.7593 C   0  0  0  0  0  0  0  0  0  0  0  0
   11.5824   -0.0417   23.4160 C   0  0  0  0  0  0  0  0  0  0  0  0
   10.6744   -0.8380   22.4837 C   0  0  0  0  0  0  0  0  0  0  0  0
   10.2305   -4.0949   24.5855 C   0  0  0  0  0  0  0  0  0  0  0  0
    7.7975   -1.8552   21.7194 C   0  0  0  0  0  0  0  0  0  0  0  0
    6.7054   -2.9009   21.4288 C   0  0  0  0  0  0  0  0  0  0  0  0
    9.0834   -4.7346   23.7797 C   0  0  0  0  0  0  0  0  0  0  0  0
   10.9473   -2.9398   23.8359 C   0  0  1  0  0  0  0  0  0  0  0  0
    9.9218   -1.9058   23.2798 C   0  0  2  0  0  0  0  0  0  0  0  0
    8.8874   -2.6486   22.4345 C   0  0  1  0  0  0  0  0  0  0  0  0
    7.1297   -4.1842   22.1696 C   0  0  1  0  0  0  0  0  0  0  0  0
    8.0960   -3.6829   23.2597 C   0  0  1  0  0  0  0  0  0  0  0  0
    4.8501   -6.8228   23.3117 C   0  0  0  0  0  0  0  0  0  0  0  0
    7.3018   -3.0924   24.4529 C   0  0  0  0  0  0  0  0  0  0  0  0
    7.0912   -6.8931   22.4345 O   0  0  0  0  0  0  0  0  0  0  0  0
   15.1902   -0.3924   26.6828 O   0  0  0  0  0  0  0  0  0  0  0  0
    6.0018   -4.8703   22.6773 O   0  0  0  0  0  0  0  0  0  0  0  0
   12.6820   -4.0164   25.7289 H   0  0  0  0  0  0  0  0  0  0  0  0
   14.4886   -2.9171   26.9349 H   0  0  0  0  0  0  0  0  0  0  0  0
   13.6445    0.7717   24.9183 H   0  0  0  0  0  0  0  0  0  0  0  0
   10.9688    0.6524   24.0046 H   0  0  0  0  0  0  0  0  0  0  0  0
   12.2672    0.5607   22.8068 H   0  0  0  0  0  0  0  0  0  0  0  0
    9.9813   -0.1475   21.9905 H   0  0  0  0  0  0  0  0  0  0  0  0
   11.2719   -1.3099   21.6928 H   0  0  0  0  0  0  0  0  0  0  0  0
    9.8538   -3.7332   25.5499 H   0  0  0  0  0  0  0  0  0  0  0  0
   10.9428   -4.8949   24.8179 H   0  0  0  0  0  0  0  0  0  0  0  0
    8.1632   -1.3960   20.7953 H   0  0  0  0  0  0  0  0  0  0  0  0
    7.4010   -1.0546   22.3537 H   0  0  0  0  0  0  0  0  0  0  0  0
    5.7241   -2.5398   21.7570 H   0  0  0  0  0  0  0  0  0  0  0  0
    6.6287   -3.0967   20.3533 H   0  0  0  0  0  0  0  0  0  0  0  0
    9.5193   -5.2869   22.9369 H   0  0  0  0  0  0  0  0  0  0  0  0
    8.5683   -5.4777   24.4002 H   0  0  0  0  0  0  0  0  0  0  0  0
   11.4549   -3.4004   22.9741 H   0  0  0  0  0  0  0  0  0  0  0  0
    9.4186   -1.4006   24.1145 H   0  0  0  0  0  0  0  0  0  0  0  0
    9.4434   -3.1810   21.6445 H   0  0  0  0  0  0  0  0  0  0  0  0
    7.6429   -4.8516   21.4658 H   0  0  0  0  0  0  0  0  0  0  0  0
    4.9133   -6.8802   24.4012 H   0  0  0  0  0  0  0  0  0  0  0  0
    4.6841   -7.8141   22.8824 H   0  0  0  0  0  0  0  0  0  0  0  0
    4.0043   -6.1824   23.0449 H   0  0  0  0  0  0  0  0  0  0  0  0
    6.6092   -2.3528   24.0757 H   0  0  0  0  0  0  0  0  0  0  0  0
    7.9996   -2.6353   25.1408 H   0  0  0  0  0  0  0  0  0  0  0  0
    6.7646   -3.8936   24.9415 H   0  0  0  0  0  0  0  0  0  0  0  0
   15.2598    0.5396   26.4200 H   0  0  0  0  0  0  0  0  0  0  0  0
  1  2  1  0  0  0  0
  1  4  2  0  0  0  0
  2  6  2  0  0  0  0
  3  5  2  0  0  0  0
  3  6  1  0  0  0  0
  4  5  1  0  0  0  0
  4 14  1  0  0  0  0
  5  8  1  0  0  0  0
  6 22  1  0  0  0  0
  7 19  1  0  0  0  0
  7 21  2  0  0  0  0
  7 23  1  0  0  0  0
  8  9  1  0  0  0  0
  9 15  1  0  0  0  0
 10 13  1  0  0  0  0
 10 14  1  0  0  0  0
 11 12  1  0  0  0  0
 11 16  1  0  0  0  0
 12 17  1  0  0  0  0
 13 18  1  0  0  0  0
 14 15  1  0  0  0  0
 15 16  1  0  0  0  0
 16 18  1  0  0  0  0
 17 18  1  0  0  0  0
 17 23  1  0  0  0  0
 18 20  1  0  0  0  0
  1 24  1  0  0  0  0
  2 25  1  0  0  0  0
  3 26  1  0  0  0  0
  8 27  1  0  0  0  0
  8 28  1  0  0  0  0
  9 29  1  0  0  0  0
  9 30  1  0  0  0  0
 10 31  1  0  0  0  0
 10 32  1  0  0  0  0
 11 33  1  0  0  0  0
 11 34  1  0  0  0  0
 12 35  1  0  0  0  0
 12 36  1  0  0  0  0
 13 37  1  0  0  0  0
 13 38  1  0  0  0  0
 14 39  1  0  0  0  0
 15 40  1  0  0  0  0
 16 41  1  0  0  0  0
 17 42  1  0  0  0  0
 19 43  1  0  0  0  0
 19 44  1  0  0  0  0
 19 45  1  0  0  0  0
 20 46  1  0  0  0  0
 20 47  1  0  0  0  0
 20 48  1  0  0  0  0
 22 49  1  0  0  0  0
M  END
> <Hybrid2>
-9.444999

> <docked_fragment>
x0749

> <Mpro-_dock>
4.419692

> <site>
active-covalent

$$$$
DB02914
  -OEChem-04122014263D

 48 48  0     0  0  0  0  0  0999 V2000
    8.8336    4.8513   23.7498 C   0  0  0  0  0  0  0  0  0  0  0  0
    9.6005    3.7446   23.7331 C   0  0  0  0  0  0  0  0  0  0  0  0
   11.0547    3.8153   23.4812 C   0  0  0  0  0  0  0  0  0  0  0  0
    7.7323   -5.0338   23.4663 C   0  0  0  0  0  0  0  0  0  0  0  0
   11.7849    2.7038   23.2664 C   0  0  0  0  0  0  0  0  0  0  0  0
    8.0032   -4.4345   24.6329 C   0  0  0  0  0  0  0  0  0  0  0  0
   11.2148    1.3737   23.2651 C   0  0  0  0  0  0  0  0  0  0  0  0
   10.1991   -1.3851   23.9980 C   0  0  0  0  0  0  0  0  0  0  0  0
   11.1579   -1.0686   23.1113 C   0  0  0  0  0  0  0  0  0  0  0  0
    9.5192   -2.6654   23.9904 C   0  0  0  0  0  0  0  0  0  0  0  0
    8.5475   -3.0889   24.8272 C   0  0  0  0  0  0  0  0  0  0  0  0
   11.8640    0.2094   23.0606 C   0  0  0  0  0  0  0  0  0  0  0  0
    9.3293    6.2343   23.4734 C   0  0  0  0  0  0  0  0  0  0  0  0
   10.7142    6.2349   22.8355 C   0  0  0  0  0  0  0  0  0  0  0  0
   11.6897    5.2252   23.4903 C   0  0  0  0  0  0  0  0  0  0  0  0
    8.9618    2.4084   24.0174 C   0  0  0  0  0  0  0  0  0  0  0  0
    7.9747   -2.2734   25.9595 C   0  0  0  0  0  0  0  0  0  0  0  0
   13.3420    0.0548   22.8153 C   0  0  0  0  0  0  0  0  0  0  0  0
   11.9919    5.6325   24.9492 C   0  0  0  0  0  0  0  0  0  0  0  0
   13.0165    5.3196   22.6977 C   0  0  0  0  0  0  0  0  0  0  0  0
    7.7742    4.7694   23.9818 H   0  0  0  0  0  0  0  0  0  0  0  0
    7.3285   -6.0369   23.3966 H   0  0  0  0  0  0  0  0  0  0  0  0
    7.9179   -4.5103   22.5337 H   0  0  0  0  0  0  0  0  0  0  0  0
   12.8475    2.8238   23.0879 H   0  0  0  0  0  0  0  0  0  0  0  0
    7.7952   -5.0088   25.5347 H   0  0  0  0  0  0  0  0  0  0  0  0
   10.1426    1.3434   23.4606 H   0  0  0  0  0  0  0  0  0  0  0  0
    9.9134   -0.6560   24.7482 H   0  0  0  0  0  0  0  0  0  0  0  0
   11.4358   -1.7814   22.3368 H   0  0  0  0  0  0  0  0  0  0  0  0
    9.8566   -3.3434   23.2053 H   0  0  0  0  0  0  0  0  0  0  0  0
    8.6088    6.7472   22.8260 H   0  0  0  0  0  0  0  0  0  0  0  0
    9.3700    6.7995   24.4119 H   0  0  0  0  0  0  0  0  0  0  0  0
   10.6097    6.0334   21.7615 H   0  0  0  0  0  0  0  0  0  0  0  0
   11.1344    7.2481   22.9158 H   0  0  0  0  0  0  0  0  0  0  0  0
    8.6172    1.9745   23.0847 H   0  0  0  0  0  0  0  0  0  0  0  0
    8.1238    2.5516   24.6920 H   0  0  0  0  0  0  0  0  0  0  0  0
    9.6946    1.7564   24.4817 H   0  0  0  0  0  0  0  0  0  0  0  0
    8.5414   -2.4458   26.8814 H   0  0  0  0  0  0  0  0  0  0  0  0
    7.9912   -1.1966   25.7804 H   0  0  0  0  0  0  0  0  0  0  0  0
    6.9276   -2.5443   26.1353 H   0  0  0  0  0  0  0  0  0  0  0  0
   13.9268   -0.0771   23.7280 H   0  0  0  0  0  0  0  0  0  0  0  0
   13.5351   -0.8157   22.1784 H   0  0  0  0  0  0  0  0  0  0  0  0
   13.7381    0.9437   22.3109 H   0  0  0  0  0  0  0  0  0  0  0  0
   12.4358    6.6190   24.9503 H   0  0  0  0  0  0  0  0  0  0  0  0
   12.6790    4.9140   25.3759 H   0  0  0  0  0  0  0  0  0  0  0  0
   11.0653    5.6398   25.5075 H   0  0  0  0  0  0  0  0  0  0  0  0
   13.3897    6.3346   22.7561 H   0  0  0  0  0  0  0  0  0  0  0  0
   12.8290    5.0532   21.6649 H   0  0  0  0  0  0  0  0  0  0  0  0
   13.7351    4.6354   23.1320 H   0  0  0  0  0  0  0  0  0  0  0  0
  1  2  2  0  0  0  0
  1 13  1  0  0  0  0
  2  3  1  0  0  0  0
  2 16  1  0  0  0  0
  3  5  2  0  0  0  0
  3 15  1  0  0  0  0
  4  6  2  0  0  0  0
  5  7  1  0  0  0  0
  6 11  1  0  0  0  0
  7 12  2  0  0  0  0
  8  9  2  0  0  0  0
  8 10  1  0  0  0  0
  9 12  1  0  0  0  0
 10 11  2  0  0  0  0
 11 17  1  0  0  0  0
 12 18  1  0  0  0  0
 13 14  1  0  0  0  0
 14 15  1  0  0  0  0
 15 19  1  0  0  0  0
 15 20  1  0  0  0  0
  1 21  1  0  0  0  0
  4 22  1  0  0  0  0
  4 23  1  0  0  0  0
  5 24  1  0  0  0  0
  6 25  1  0  0  0  0
  7 26  1  0  0  0  0
  8 27  1  0  0  0  0
  9 28  1  0  0  0  0
 10 29  1  0  0  0  0
 13 30  1  0  0  0  0
 13 31  1  0  0  0  0
 14 32  1  0  0  0  0
 14 33  1  0  0  0  0
 16 34  1  0  0  0  0
 16 35  1  0  0  0  0
 16 36  1  0  0  0  0
 17 37  1  0  0  0  0
 17 38  1  0  0  0  0
 17 39  1  0  0  0  0
 18 40  1  0  0  0  0
 18 41  1  0  0  0  0
 18 42  1  0  0  0  0
 19 43  1  0  0  0  0
 19 44  1  0  0  0  0
 19 45  1  0  0  0  0
 20 46  1  0  0  0  0
 20 47  1  0  0  0  0
 20 48  1  0  0  0  0
M  END
> <Hybrid2>
-9.441391

> <docked_fragment>
x0104

> <Mpro-_dock>
1.112757

> <site>
active-noncovalent

$$$$
DB01446
  -OEChem-04122014263D

 28 29  0     1  0  0  0  0  0999 V2000
   14.3934   -1.4111   22.1846 C   0  0  0  0  0  0  0  0  0  0  0  0
   13.3454   -2.1138   22.7757 C   0  0  0  0  0  0  0  0  0  0  0  0
   14.3694   -0.0134   22.1150 C   0  0  0  0  0  0  0  0  0  0  0  0
   12.2428   -1.4449   23.3150 C   0  0  0  0  0  0  0  0  0  0  0  0
   11.7006    2.1352   23.3884 C   0  0  0  0  0  0  0  0  0  0  0  0
   13.2682    0.6827   22.6518 C   0  0  0  0  0  0  0  0  0  0  0  0
   12.9190    2.0584   22.7540 C   0  0  0  0  0  0  0  0  0  0  0  0
   12.2323   -0.0477   23.2382 C   0  0  0  0  0  0  0  0  0  0  0  0
   12.3243    5.3041   22.6897 C   0  0  0  0  0  0  0  0  0  0  0  0
   13.7126    3.2058   22.2688 C   0  0  0  0  0  0  0  0  0  0  0  0
   13.5501    4.4983   23.0993 C   0  0  1  0  0  0  0  0  0  0  0  0
   11.2946    0.8598   23.6767 N   0  0  0  0  0  0  0  0  0  0  0  0
   14.7503    5.3621   22.9031 N   0  3  0  0  0  0  0  0  0  0  0  0
   15.2403   -1.9533   21.7727 H   0  0  0  0  0  0  0  0  0  0  0  0
   13.3846   -3.1992   22.8189 H   0  0  0  0  0  0  0  0  0  0  0  0
   15.1947    0.5199   21.6517 H   0  0  0  0  0  0  0  0  0  0  0  0
   11.4269   -1.9928   23.7740 H   0  0  0  0  0  0  0  0  0  0  0  0
   11.0863    2.9819   23.6621 H   0  0  0  0  0  0  0  0  0  0  0  0
   12.3478    5.5383   21.6199 H   0  0  0  0  0  0  0  0  0  0  0  0
   11.3971    4.7580   22.8954 H   0  0  0  0  0  0  0  0  0  0  0  0
   12.2862    6.2521   23.2367 H   0  0  0  0  0  0  0  0  0  0  0  0
   13.4257    3.4357   21.2245 H   0  0  0  0  0  0  0  0  0  0  0  0
   14.7894    2.9544   22.2071 H   0  0  0  0  0  0  0  0  0  0  0  0
   13.5088    4.2740   24.1709 H   0  0  0  0  0  0  0  0  0  0  0  0
   10.4314    0.6186   24.1438 H   0  0  0  0  0  0  0  0  0  0  0  0
   15.0768    5.7316   23.7991 H   0  0  0  0  0  0  0  0  0  0  0  0
   14.5278    6.1506   22.2906 H   0  0  0  0  0  0  0  0  0  0  0  0
   15.5114    4.8275   22.4777 H   0  0  0  0  0  0  0  0  0  0  0  0
  1  2  2  0  0  0  0
  1  3  1  0  0  0  0
  2  4  1  0  0  0  0
  3  6  2  0  0  0  0
  4  8  2  0  0  0  0
  5  7  2  0  0  0  0
  5 12  1  0  0  0  0
  6  7  1  0  0  0  0
  6  8  1  0  0  0  0
  7 10  1  0  0  0  0
  8 12  1  0  0  0  0
  9 11  1  0  0  0  0
 10 11  1  0  0  0  0
 11 13  1  0  0  0  0
  1 14  1  0  0  0  0
  2 15  1  0  0  0  0
  3 16  1  0  0  0  0
  4 17  1  0  0  0  0
  5 18  1  0  0  0  0
  9 19  1  0  0  0  0
  9 20  1  0  0  0  0
  9 21  1  0  0  0  0
 10 22  1  0  0  0  0
 10 23  1  0  0  0  0
 11 24  1  0  0  0  0
 12 25  1  0  0  0  0
 13 26  1  0  0  0  0
 13 27  1  0  0  0  0
 13 28  1  0  0  0  0
M  CHG  1  13   1
M  END
> <Hybrid2>
-9.435568

> <docked_fragment>
x0195

> <Mpro-_dock>
-0.518664

> <site>
active-noncovalent

$$$$
DB06902
  -OEChem-04122014263D

 32 33  0     0  0  0  0  0  0999 V2000
   13.4469   -0.4429   23.8936 C   0  0  0  0  0  0  0  0  0  0  0  0
   13.1242   -1.6998   23.3821 C   0  0  0  0  0  0  0  0  0  0  0  0
   12.4336    0.4598   24.2164 C   0  0  0  0  0  0  0  0  0  0  0  0
   11.7883   -2.0540   23.1933 C   0  0  0  0  0  0  0  0  0  0  0  0
   11.0978    0.1056   24.0277 C   0  0  0  0  0  0  0  0  0  0  0  0
    9.0348   -2.7832   25.5448 C   0  0  0  0  0  0  0  0  0  0  0  0
    8.4661   -3.9443   23.5038 C   0  0  0  0  0  0  0  0  0  0  0  0
    8.6700   -3.9072   26.2859 C   0  0  0  0  0  0  0  0  0  0  0  0
    8.1013   -5.0683   24.2449 C   0  0  0  0  0  0  0  0  0  0  0  0
   10.7751   -1.1513   23.5161 C   0  0  0  0  0  0  0  0  0  0  0  0
    8.9328   -2.8018   24.1537 C   0  0  0  0  0  0  0  0  0  0  0  0
    8.2033   -5.0497   25.6359 C   0  0  0  0  0  0  0  0  0  0  0  0
    8.9408   -1.8791   21.8284 C   0  0  0  0  0  0  0  0  0  0  0  0
    8.4266   -0.3024   23.6650 C   0  0  0  0  0  0  0  0  0  0  0  0
    9.3465   -1.5293   23.3143 C   0  0  0  0  0  0  0  0  0  0  0  0
    7.8486   -6.1468   26.3592 O   0  0  0  0  0  0  0  0  0  0  0  0
   14.4870   -0.1678   24.0418 H   0  0  0  0  0  0  0  0  0  0  0  0
   13.9130   -2.4032   23.1317 H   0  0  0  0  0  0  0  0  0  0  0  0
   12.6844    1.4381   24.6157 H   0  0  0  0  0  0  0  0  0  0  0  0
   11.5463   -3.0355   22.7941 H   0  0  0  0  0  0  0  0  0  0  0  0
   10.3150    0.8154   24.2819 H   0  0  0  0  0  0  0  0  0  0  0  0
    9.3973   -1.8974   26.0594 H   0  0  0  0  0  0  0  0  0  0  0  0
    8.3832   -3.9678   22.4202 H   0  0  0  0  0  0  0  0  0  0  0  0
    8.7520   -3.8867   27.3694 H   0  0  0  0  0  0  0  0  0  0  0  0
    7.7389   -5.9552   23.7328 H   0  0  0  0  0  0  0  0  0  0  0  0
    7.8785   -2.1447   21.7692 H   0  0  0  0  0  0  0  0  0  0  0  0
    9.1073   -1.0254   21.1610 H   0  0  0  0  0  0  0  0  0  0  0  0
    9.5079   -2.7229   21.4151 H   0  0  0  0  0  0  0  0  0  0  0  0
    7.3743   -0.5762   23.5178 H   0  0  0  0  0  0  0  0  0  0  0  0
    8.5271    0.0474   24.6993 H   0  0  0  0  0  0  0  0  0  0  0  0
    8.6296    0.5493   23.0052 H   0  0  0  0  0  0  0  0  0  0  0  0
    7.5462   -6.8554   25.7690 H   0  0  0  0  0  0  0  0  0  0  0  0
  1  2  1  0  0  0  0
  1  3  2  0  0  0  0
  2  4  2  0  0  0  0
  3  5  1  0  0  0  0
  4 10  1  0  0  0  0
  5 10  2  0  0  0  0
  6  8  2  0  0  0  0
  6 11  1  0  0  0  0
  7  9  1  0  0  0  0
  7 11  2  0  0  0  0
  8 12  1  0  0  0  0
  9 12  2  0  0  0  0
 10 15  1  0  0  0  0
 11 15  1  0  0  0  0
 12 16  1  0  0  0  0
 13 15  1  0  0  0  0
 14 15  1  0  0  0  0
  1 17  1  0  0  0  0
  2 18  1  0  0  0  0
  3 19  1  0  0  0  0
  4 20  1  0  0  0  0
  5 21  1  0  0  0  0
  6 22  1  0  0  0  0
  7 23  1  0  0  0  0
  8 24  1  0  0  0  0
  9 25  1  0  0  0  0
 13 26  1  0  0  0  0
 13 27  1  0  0  0  0
 13 28  1  0  0  0  0
 14 29  1  0  0  0  0
 14 30  1  0  0  0  0
 14 31  1  0  0  0  0
 16 32  1  0  0  0  0
M  END
> <Hybrid2>
-9.430995

> <docked_fragment>
x0072

> <Mpro-_dock>
-0.138283

> <site>
active-noncovalent

$$$$
CHEMBL2107658
  -OEChem-04122014263D

 47 50  0     1  0  0  0  0  0999 V2000
    4.8503   -3.4047   23.4286 C   0  0  0  0  0  0  0  0  0  0  0  0
    5.6361   -3.9157   22.6787 C   0  0  0  0  0  0  0  0  0  0  0  0
   12.9328   -2.6094   26.0818 C   0  0  0  0  0  0  0  0  0  0  0  0
    8.0918   -5.9875   22.9042 C   0  0  0  0  0  0  0  0  0  0  0  0
    6.9267   -5.9445   22.2339 C   0  0  0  0  0  0  0  0  0  0  0  0
   11.9738   -3.0343   25.2427 C   0  0  0  0  0  0  0  0  0  0  0  0
   13.6689   -1.3523   25.8087 C   0  0  0  0  0  0  0  0  0  0  0  0
    9.6176   -2.0254   22.2135 C   0  0  0  0  0  0  0  0  0  0  0  0
   10.2898   -1.2690   21.3317 C   0  0  0  0  0  0  0  0  0  0  0  0
   11.1524   -4.2479   25.5911 C   0  0  0  0  0  0  0  0  0  0  0  0
   13.2008   -0.4667   24.6773 C   0  0  0  0  0  0  0  0  0  0  0  0
    8.1527   -2.3826   21.9578 C   0  0  0  0  0  0  0  0  0  0  0  0
   10.8106   -5.0709   24.3604 C   0  0  0  0  0  0  0  0  0  0  0  0
   11.7678   -0.7842   24.2586 C   0  0  0  0  0  0  0  0  0  0  0  0
    8.6315   -4.5979   23.0647 C   0  0  1  0  0  0  0  0  0  0  0  0
   11.6213   -2.2876   23.9586 C   0  0  2  0  0  0  0  0  0  0  0  0
   10.2092   -2.6978   23.4596 C   0  0  2  0  0  0  0  0  0  0  0  0
   10.1261   -4.2589   23.2450 C   0  0  1  0  0  0  0  0  0  0  0  0
    6.5987   -4.5414   21.7608 C   0  0  2  0  0  0  0  0  0  0  0  0
    8.0288   -3.9142   21.7933 C   0  0  1  0  0  0  0  0  0  0  0  0
    8.7742   -4.3120   20.4669 C   0  0  0  0  0  0  0  0  0  0  0  0
   14.6506   -1.0605   26.4898 O   0  0  0  0  0  0  0  0  0  0  0  0
    6.0579   -4.5587   20.4485 O   0  0  0  0  0  0  0  0  0  0  0  0
    4.1531   -2.9513   24.0937 H   0  0  0  0  0  0  0  0  0  0  0  0
   13.2488   -3.1865   26.9400 H   0  0  0  0  0  0  0  0  0  0  0  0
    8.5076   -6.8779   23.3500 H   0  0  0  0  0  0  0  0  0  0  0  0
    6.3007   -6.8067   22.0508 H   0  0  0  0  0  0  0  0  0  0  0  0
   11.3238   -1.0146   21.5084 H   0  0  0  0  0  0  0  0  0  0  0  0
    9.8018   -0.9088   20.4387 H   0  0  0  0  0  0  0  0  0  0  0  0
   11.7189   -4.8633   26.3045 H   0  0  0  0  0  0  0  0  0  0  0  0
   10.2195   -3.9669   26.0992 H   0  0  0  0  0  0  0  0  0  0  0  0
   13.2554    0.5824   25.0108 H   0  0  0  0  0  0  0  0  0  0  0  0
   13.8967   -0.5829   23.8305 H   0  0  0  0  0  0  0  0  0  0  0  0
    7.5639   -2.0230   22.8084 H   0  0  0  0  0  0  0  0  0  0  0  0
    7.7598   -1.8783   21.0683 H   0  0  0  0  0  0  0  0  0  0  0  0
   11.7459   -5.5236   23.9724 H   0  0  0  0  0  0  0  0  0  0  0  0
   10.1691   -5.9317   24.6486 H   0  0  0  0  0  0  0  0  0  0  0  0
   11.0967   -0.4984   25.0697 H   0  0  0  0  0  0  0  0  0  0  0  0
   11.5205   -0.1709   23.3987 H   0  0  0  0  0  0  0  0  0  0  0  0
    8.1264   -4.2016   23.9623 H   0  0  0  0  0  0  0  0  0  0  0  0
   12.3799   -2.5999   23.2332 H   0  0  0  0  0  0  0  0  0  0  0  0
    9.5158   -2.4786   24.2814 H   0  0  0  0  0  0  0  0  0  0  0  0
   10.6666   -4.5052   22.2948 H   0  0  0  0  0  0  0  0  0  0  0  0
    8.6887   -5.3775   20.3513 H   0  0  0  0  0  0  0  0  0  0  0  0
    9.8020   -4.0132   20.5677 H   0  0  0  0  0  0  0  0  0  0  0  0
    8.2962   -3.7933   19.6555 H   0  0  0  0  0  0  0  0  0  0  0  0
    5.2356   -5.0744   20.4892 H   0  0  0  0  0  0  0  0  0  0  0  0
  1  2  3  0  0  0  0
  2 19  1  0  0  0  0
  3  6  2  0  0  0  0
  3  7  1  0  0  0  0
  4  5  2  0  0  0  0
  4 15  1  0  0  0  0
  5 19  1  0  0  0  0
  6 10  1  0  0  0  0
  6 16  1  0  0  0  0
  7 11  1  0  0  0  0
  7 22  2  0  0  0  0
  8  9  2  0  0  0  0
  8 12  1  0  0  0  0
  8 17  1  0  0  0  0
 10 13  1  0  0  0  0
 11 14  1  0  0  0  0
 12 20  1  0  0  0  0
 13 18  1  0  0  0  0
 14 16  1  0  0  0  0
 15 18  1  0  0  0  0
 15 20  1  0  0  0  0
 16 17  1  0  0  0  0
 17 18  1  0  0  0  0
 19 20  1  0  0  0  0
 19 23  1  0  0  0  0
 20 21  1  0  0  0  0
  1 24  1  0  0  0  0
  3 25  1  0  0  0  0
  4 26  1  0  0  0  0
  5 27  1  0  0  0  0
  9 28  1  0  0  0  0
  9 29  1  0  0  0  0
 10 30  1  0  0  0  0
 10 31  1  0  0  0  0
 11 32  1  0  0  0  0
 11 33  1  0  0  0  0
 12 34  1  0  0  0  0
 12 35  1  0  0  0  0
 13 36  1  0  0  0  0
 13 37  1  0  0  0  0
 14 38  1  0  0  0  0
 14 39  1  0  0  0  0
 15 40  1  0  0  0  0
 16 41  1  0  0  0  0
 17 42  1  0  0  0  0
 18 43  1  0  0  0  0
 21 44  1  0  0  0  0
 21 45  1  0  0  0  0
 21 46  1  0  0  0  0
 23 47  1  0  0  0  0
M  END
> <Hybrid2>
-9.418487

> <docked_fragment>
x0749

> <Mpro-_dock>
6.171498

> <site>
active-covalent

$$$$
CHEMBL241694
  -OEChem-04122014263D

 51 54  0     1  0  0  0  0  0999 V2000
    4.8199   -2.9878   23.8701 C   0  0  0  0  0  0  0  0  0  0  0  0
    5.4893   -3.5412   23.0414 C   0  0  0  0  0  0  0  0  0  0  0  0
   12.7882   -2.7506   26.2405 C   0  0  0  0  0  0  0  0  0  0  0  0
   11.8772   -3.1905   25.3564 C   0  0  0  0  0  0  0  0  0  0  0  0
   13.5660   -1.5140   25.9954 C   0  0  0  0  0  0  0  0  0  0  0  0
   11.0045   -4.3702   25.7252 C   0  0  0  0  0  0  0  0  0  0  0  0
   13.2055   -0.6382   24.8191 C   0  0  0  0  0  0  0  0  0  0  0  0
   10.4856   -5.1613   24.5282 C   0  0  0  0  0  0  0  0  0  0  0  0
   11.8276   -0.9602   24.2459 C   0  0  0  0  0  0  0  0  0  0  0  0
    7.8122   -5.9219   23.0396 C   0  0  0  0  0  0  0  0  0  0  0  0
    9.5407   -1.9306   22.4688 C   0  0  0  0  0  0  0  0  0  0  0  0
    6.4403   -5.7307   22.3583 C   0  0  0  0  0  0  0  0  0  0  0  0
    8.0528   -2.2360   22.1949 C   0  0  0  0  0  0  0  0  0  0  0  0
    9.8574   -4.2915   23.4214 C   0  0  2  0  0  0  0  0  0  0  0  0
   10.1025   -2.7635   23.6467 C   0  0  1  0  0  0  0  0  0  0  0  0
    8.3495   -4.5055   23.2345 C   0  0  1  0  0  0  0  0  0  0  0  0
    6.3123   -4.2215   22.0219 C   0  0  2  0  0  0  0  0  0  0  0  0
   11.5935   -2.4773   24.0314 C   0  0  2  0  0  0  0  0  0  0  0  0
    7.7955   -3.7436   22.0024 C   0  0  1  0  0  0  0  0  0  0  0  0
   12.5693   -2.9914   22.9460 C   0  0  0  0  0  0  0  0  0  0  0  0
    8.4510   -4.1704   20.6531 C   0  0  0  0  0  0  0  0  0  0  0  0
   14.4990   -1.2264   26.7441 O   0  0  0  0  0  0  0  0  0  0  0  0
    5.6890   -4.0460   20.7567 O   0  0  0  0  0  0  0  0  0  0  0  0
    4.2261   -2.4969   24.6054 H   0  0  0  0  0  0  0  0  0  0  0  0
   13.0321   -3.3083   27.1382 H   0  0  0  0  0  0  0  0  0  0  0  0
   11.5812   -5.0436   26.3855 H   0  0  0  0  0  0  0  0  0  0  0  0
   10.1375   -4.0478   26.3312 H   0  0  0  0  0  0  0  0  0  0  0  0
   13.2147    0.4135   25.1553 H   0  0  0  0  0  0  0  0  0  0  0  0
   13.9952   -0.7372   24.0547 H   0  0  0  0  0  0  0  0  0  0  0  0
   11.3247   -5.7515   24.1093 H   0  0  0  0  0  0  0  0  0  0  0  0
    9.7473   -5.9133   24.8767 H   0  0  0  0  0  0  0  0  0  0  0  0
   11.0758   -0.5642   24.9407 H   0  0  0  0  0  0  0  0  0  0  0  0
   11.7097   -0.4080   23.3078 H   0  0  0  0  0  0  0  0  0  0  0  0
    7.7087   -6.4515   23.9921 H   0  0  0  0  0  0  0  0  0  0  0  0
    8.4727   -6.5176   22.4002 H   0  0  0  0  0  0  0  0  0  0  0  0
   10.1154   -2.1078   21.5614 H   0  0  0  0  0  0  0  0  0  0  0  0
    9.6193   -0.8655   22.6899 H   0  0  0  0  0  0  0  0  0  0  0  0
    6.3876   -6.3559   21.4588 H   0  0  0  0  0  0  0  0  0  0  0  0
    5.6361   -6.0758   23.0197 H   0  0  0  0  0  0  0  0  0  0  0  0
    7.4761   -1.8476   23.0442 H   0  0  0  0  0  0  0  0  0  0  0  0
    7.7189   -1.6738   21.3136 H   0  0  0  0  0  0  0  0  0  0  0  0
   10.3614   -4.5843   22.4609 H   0  0  0  0  0  0  0  0  0  0  0  0
    9.4908   -2.5012   24.5218 H   0  0  0  0  0  0  0  0  0  0  0  0
    7.8637   -4.1080   24.1374 H   0  0  0  0  0  0  0  0  0  0  0  0
   12.3591   -2.4803   22.0149 H   0  0  0  0  0  0  0  0  0  0  0  0
   12.4277   -4.0578   22.8238 H   0  0  0  0  0  0  0  0  0  0  0  0
   13.5845   -2.7855   23.2611 H   0  0  0  0  0  0  0  0  0  0  0  0
    8.2757   -5.2252   20.5099 H   0  0  0  0  0  0  0  0  0  0  0  0
    9.5086   -3.9655   20.7106 H   0  0  0  0  0  0  0  0  0  0  0  0
    7.9958   -3.5985   19.8595 H   0  0  0  0  0  0  0  0  0  0  0  0
    6.2460   -4.5002   20.1035 H   0  0  0  0  0  0  0  0  0  0  0  0
  1  2  3  0  0  0  0
  2 17  1  0  0  0  0
  3  4  2  0  0  0  0
  3  5  1  0  0  0  0
  4  6  1  0  0  0  0
  4 18  1  0  0  0  0
  5  7  1  0  0  0  0
  5 22  2  0  0  0  0
  6  8  1  0  0  0  0
  7  9  1  0  0  0  0
  8 14  1  0  0  0  0
  9 18  1  0  0  0  0
 10 12  1  0  0  0  0
 10 16  1  0  0  0  0
 11 13  1  0  0  0  0
 11 15  1  0  0  0  0
 12 17  1  0  0  0  0
 13 19  1  0  0  0  0
 14 15  1  0  0  0  0
 14 16  1  0  0  0  0
 15 18  1  0  0  0  0
 16 19  1  0  0  0  0
 17 19  1  0  0  0  0
 17 23  1  0  0  0  0
 18 20  1  0  0  0  0
 19 21  1  0  0  0  0
  1 24  1  0  0  0  0
  3 25  1  0  0  0  0
  6 26  1  0  0  0  0
  6 27  1  0  0  0  0
  7 28  1  0  0  0  0
  7 29  1  0  0  0  0
  8 30  1  0  0  0  0
  8 31  1  0  0  0  0
  9 32  1  0  0  0  0
  9 33  1  0  0  0  0
 10 34  1  0  0  0  0
 10 35  1  0  0  0  0
 11 36  1  0  0  0  0
 11 37  1  0  0  0  0
 12 38  1  0  0  0  0
 12 39  1  0  0  0  0
 13 40  1  0  0  0  0
 13 41  1  0  0  0  0
 14 42  1  0  0  0  0
 15 43  1  0  0  0  0
 16 44  1  0  0  0  0
 20 45  1  0  0  0  0
 20 46  1  0  0  0  0
 20 47  1  0  0  0  0
 21 48  1  0  0  0  0
 21 49  1  0  0  0  0
 21 50  1  0  0  0  0
 23 51  1  0  0  0  0
M  END
> <Hybrid2>
-9.379984

> <docked_fragment>
x0749

> <Mpro-_dock>
2.788816

> <site>
active-covalent

$$$$
CHEMBL69271
  -OEChem-04122014263D

 40 42  0     1  0  0  0  0  0999 V2000
   13.1318   -2.2882   25.5758 C   0  0  0  0  0  0  0  0  0  0  0  0
   13.5400   -0.9817   25.3127 C   0  0  0  0  0  0  0  0  0  0  0  0
   11.6165   -0.6744   23.8894 C   0  0  0  0  0  0  0  0  0  0  0  0
   11.9577   -2.8015   25.0020 C   0  0  0  0  0  0  0  0  0  0  0  0
   11.2024   -1.9954   24.1283 C   0  0  0  0  0  0  0  0  0  0  0  0
   12.7805   -0.1741   24.4729 C   0  0  0  0  0  0  0  0  0  0  0  0
   11.5716   -4.2294   25.3006 C   0  0  0  0  0  0  0  0  0  0  0  0
   10.1452   -4.5947   24.8812 C   0  0  0  0  0  0  0  0  0  0  0  0
    8.2283   -3.8166   21.6201 C   0  0  0  0  0  0  0  0  0  0  0  0
    8.4258   -2.3142   21.7133 C   0  0  0  0  0  0  0  0  0  0  0  0
    9.9100   -2.5099   23.5285 C   0  0  2  0  0  0  0  0  0  0  0  0
    9.8625   -4.0463   23.4848 C   0  0  2  0  0  0  0  0  0  0  0  0
    5.8107   -5.5165   23.4286 C   0  0  0  0  0  0  0  0  0  0  0  0
    6.8036   -6.1796   22.4877 C   0  0  0  0  0  0  0  0  0  0  0  0
    8.2355   -5.9243   22.9304 C   0  0  0  0  0  0  0  0  0  0  0  0
    8.4781   -4.4386   22.9830 N   0  3  2  0  0  0  0  0  0  0  0  0
    9.7334   -2.0089   22.1991 O   0  0  0  0  0  0  0  0  0  0  0  0
   13.1708    1.1056   24.2230 O   0  0  0  0  0  0  0  0  0  0  0  0
   13.7340   -2.9084   26.2354 H   0  0  0  0  0  0  0  0  0  0  0  0
   14.4494   -0.6002   25.7686 H   0  0  0  0  0  0  0  0  0  0  0  0
   11.0271   -0.0245   23.2463 H   0  0  0  0  0  0  0  0  0  0  0  0
   12.2758   -4.8841   24.7713 H   0  0  0  0  0  0  0  0  0  0  0  0
   11.6820   -4.4266   26.3736 H   0  0  0  0  0  0  0  0  0  0  0  0
   10.0539   -5.6845   24.9210 H   0  0  0  0  0  0  0  0  0  0  0  0
    9.4293   -4.1797   25.6024 H   0  0  0  0  0  0  0  0  0  0  0  0
    7.2043   -4.0617   21.3218 H   0  0  0  0  0  0  0  0  0  0  0  0
    8.9437   -4.2724   20.9269 H   0  0  0  0  0  0  0  0  0  0  0  0
    8.3320   -1.8686   20.7178 H   0  0  0  0  0  0  0  0  0  0  0  0
    7.6704   -1.8440   22.3543 H   0  0  0  0  0  0  0  0  0  0  0  0
    9.1040   -2.1182   24.1668 H   0  0  0  0  0  0  0  0  0  0  0  0
   10.5772   -4.4479   22.7538 H   0  0  0  0  0  0  0  0  0  0  0  0
    5.9490   -5.8876   24.4489 H   0  0  0  0  0  0  0  0  0  0  0  0
    5.9470   -4.4305   23.4406 H   0  0  0  0  0  0  0  0  0  0  0  0
    4.7806   -5.7305   23.1259 H   0  0  0  0  0  0  0  0  0  0  0  0
    6.6487   -5.7949   21.4726 H   0  0  0  0  0  0  0  0  0  0  0  0
    6.6050   -7.2576   22.4573 H   0  0  0  0  0  0  0  0  0  0  0  0
    8.4301   -6.3134   23.9341 H   0  0  0  0  0  0  0  0  0  0  0  0
    8.9627   -6.3399   22.2269 H   0  0  0  0  0  0  0  0  0  0  0  0
    7.7826   -4.0464   23.6327 H   0  0  0  0  0  0  0  0  0  0  0  0
   12.5423    1.5379   23.6230 H   0  0  0  0  0  0  0  0  0  0  0  0
  1  2  1  0  0  0  0
  1  4  2  0  0  0  0
  2  6  2  0  0  0  0
  3  5  2  0  0  0  0
  3  6  1  0  0  0  0
  4  5  1  0  0  0  0
  4  7  1  0  0  0  0
  5 11  1  0  0  0  0
  6 18  1  0  0  0  0
  7  8  1  0  0  0  0
  8 12  1  0  0  0  0
  9 10  1  0  0  0  0
  9 16  1  0  0  0  0
 10 17  1  0  0  0  0
 11 12  1  0  0  0  0
 11 17  1  0  0  0  0
 12 16  1  0  0  0  0
 13 14  1  0  0  0  0
 14 15  1  0  0  0  0
 15 16  1  0  0  0  0
  1 19  1  0  0  0  0
  2 20  1  0  0  0  0
  3 21  1  0  0  0  0
  7 22  1  0  0  0  0
  7 23  1  0  0  0  0
  8 24  1  0  0  0  0
  8 25  1  0  0  0  0
  9 26  1  0  0  0  0
  9 27  1  0  0  0  0
 10 28  1  0  0  0  0
 10 29  1  0  0  0  0
 11 30  1  0  0  0  0
 12 31  1  0  0  0  0
 13 32  1  0  0  0  0
 13 33  1  0  0  0  0
 13 34  1  0  0  0  0
 14 35  1  0  0  0  0
 14 36  1  0  0  0  0
 15 37  1  0  0  0  0
 15 38  1  0  0  0  0
 16 39  1  0  0  0  0
 18 40  1  0  0  0  0
M  CHG  1  16   1
M  END
> <Hybrid2>
-9.363866

> <docked_fragment>
x0749

> <Mpro-_dock>
-0.497391

> <site>
active-covalent

$$$$
CHEMBL717
  -OEChem-04122014263D

 62 65  0     1  0  0  0  0  0999 V2000
    6.3094   -3.9332   20.4640 C   0  0  0  0  0  0  0  0  0  0  0  0
    6.8892   -3.6840   21.6533 C   0  0  0  0  0  0  0  0  0  0  0  0
    5.8549   -2.8477   19.5632 C   0  0  0  0  0  0  0  0  0  0  0  0
   12.8554   -1.2050   26.2091 C   0  0  0  0  0  0  0  0  0  0  0  0
   13.5750   -0.8283   23.7726 C   0  0  0  0  0  0  0  0  0  0  0  0
    5.9102   -1.4354   20.0726 C   0  0  0  0  0  0  0  0  0  0  0  0
    7.1428   -1.2493   20.9387 C   0  0  0  0  0  0  0  0  0  0  0  0
   10.9851   -4.2749   25.1633 C   0  0  0  0  0  0  0  0  0  0  0  0
    9.1433   -0.8221   23.2156 C   0  0  0  0  0  0  0  0  0  0  0  0
   12.2596   -3.6271   25.7417 C   0  0  0  0  0  0  0  0  0  0  0  0
   10.5821   -0.8003   23.7624 C   0  0  0  0  0  0  0  0  0  0  0  0
    8.6835   -4.7119   23.0984 C   0  0  0  0  0  0  0  0  0  0  0  0
    7.2209   -4.8038   22.6435 C   0  0  2  0  0  0  0  0  0  0  0  0
    8.7060   -2.2143   22.6825 C   0  0  1  0  0  0  0  0  0  0  0  0
   10.4587   -3.2495   24.1625 C   0  0  1  0  0  0  0  0  0  0  0  0
    8.9940   -3.3427   23.7156 C   0  0  2  0  0  0  0  0  0  0  0  0
    7.2300   -2.2538   22.1268 C   0  0  2  0  0  0  0  0  0  0  0  0
   12.2791   -2.1731   25.2205 C   0  0  1  0  0  0  0  0  0  0  0  0
   10.8082   -1.8933   24.8190 C   0  0  1  0  0  0  0  0  0  0  0  0
   14.2762   -1.4455   26.6424 C   0  0  0  0  0  0  0  0  0  0  0  0
   14.4724   -0.8892   22.5739 C   0  0  0  0  0  0  0  0  0  0  0  0
    6.9383   -6.2378   22.1710 C   0  0  0  0  0  0  0  0  0  0  0  0
    6.1967   -1.8376   23.1994 C   0  0  0  0  0  0  0  0  0  0  0  0
    9.9565   -1.5834   26.0814 C   0  0  0  0  0  0  0  0  0  0  0  0
    5.3803   -3.1224   18.4629 O   0  0  0  0  0  0  0  0  0  0  0  0
   12.1998   -0.2592   26.6433 O   0  0  0  0  0  0  0  0  0  0  0  0
   13.2860    0.2052   24.3604 O   0  0  0  0  0  0  0  0  0  0  0  0
   13.1448   -2.0850   24.0924 O   0  0  0  0  0  0  0  0  0  0  0  0
    6.0849   -4.9360   20.1201 H   0  0  0  0  0  0  0  0  0  0  0  0
    5.9668   -0.7566   19.2144 H   0  0  0  0  0  0  0  0  0  0  0  0
    4.9870   -1.2184   20.6187 H   0  0  0  0  0  0  0  0  0  0  0  0
    8.0284   -1.3631   20.2976 H   0  0  0  0  0  0  0  0  0  0  0  0
    7.1543   -0.2150   21.3027 H   0  0  0  0  0  0  0  0  0  0  0  0
   11.2128   -5.2332   24.6850 H   0  0  0  0  0  0  0  0  0  0  0  0
   10.2589   -4.4686   25.9607 H   0  0  0  0  0  0  0  0  0  0  0  0
    8.4571   -0.4803   23.9966 H   0  0  0  0  0  0  0  0  0  0  0  0
    9.0881   -0.0791   22.4125 H   0  0  0  0  0  0  0  0  0  0  0  0
   12.2250   -3.6740   26.8363 H   0  0  0  0  0  0  0  0  0  0  0  0
   13.1434   -4.1866   25.4147 H   0  0  0  0  0  0  0  0  0  0  0  0
   11.2670   -0.9328   22.9158 H   0  0  0  0  0  0  0  0  0  0  0  0
   10.7988    0.1893   24.1823 H   0  0  0  0  0  0  0  0  0  0  0  0
    8.8786   -5.4968   23.8395 H   0  0  0  0  0  0  0  0  0  0  0  0
    9.3543   -4.9046   22.2503 H   0  0  0  0  0  0  0  0  0  0  0  0
    6.5832   -4.6499   23.5247 H   0  0  0  0  0  0  0  0  0  0  0  0
    9.3653   -2.4192   21.8230 H   0  0  0  0  0  0  0  0  0  0  0  0
   11.0704   -3.3680   23.2528 H   0  0  0  0  0  0  0  0  0  0  0  0
    8.3446   -3.2215   24.5891 H   0  0  0  0  0  0  0  0  0  0  0  0
   14.9603   -0.9143   25.9748 H   0  0  0  0  0  0  0  0  0  0  0  0
   14.4971   -2.5148   26.5966 H   0  0  0  0  0  0  0  0  0  0  0  0
   14.4166   -1.0745   27.6605 H   0  0  0  0  0  0  0  0  0  0  0  0
   15.5085   -1.0268   22.8928 H   0  0  0  0  0  0  0  0  0  0  0  0
   14.3683    0.0261   21.9857 H   0  0  0  0  0  0  0  0  0  0  0  0
   14.1844   -1.7391   21.9482 H   0  0  0  0  0  0  0  0  0  0  0  0
    7.5427   -6.4544   21.2953 H   0  0  0  0  0  0  0  0  0  0  0  0
    5.8864   -6.3336   21.9194 H   0  0  0  0  0  0  0  0  0  0  0  0
    7.1870   -6.9346   22.9658 H   0  0  0  0  0  0  0  0  0  0  0  0
    6.4276   -0.8357   23.5377 H   0  0  0  0  0  0  0  0  0  0  0  0
    6.2537   -2.5317   24.0281 H   0  0  0  0  0  0  0  0  0  0  0  0
    5.2074   -1.8630   22.7608 H   0  0  0  0  0  0  0  0  0  0  0  0
   10.1291   -2.3614   26.8103 H   0  0  0  0  0  0  0  0  0  0  0  0
    8.9156   -1.5596   25.7946 H   0  0  0  0  0  0  0  0  0  0  0  0
   10.2619   -0.6245   26.4735 H   0  0  0  0  0  0  0  0  0  0  0  0
  1  2  2  0  0  0  0
  1  3  1  0  0  0  0
  2 13  1  0  0  0  0
  2 17  1  0  0  0  0
  3  6  1  0  0  0  0
  3 25  2  0  0  0  0
  4 18  1  0  0  0  0
  4 20  1  0  0  0  0
  4 26  2  0  0  0  0
  5 21  1  0  0  0  0
  5 27  2  0  0  0  0
  5 28  1  0  0  0  0
  6  7  1  0  0  0  0
  7 17  1  0  0  0  0
  8 10  1  0  0  0  0
  8 15  1  0  0  0  0
  9 11  1  0  0  0  0
  9 14  1  0  0  0  0
 10 18  1  0  0  0  0
 11 19  1  0  0  0  0
 12 13  1  0  0  0  0
 12 16  1  0  0  0  0
 13 22  1  0  0  0  0
 14 16  1  0  0  0  0
 14 17  1  0  0  0  0
 15 16  1  0  0  0  0
 15 19  1  0  0  0  0
 17 23  1  0  0  0  0
 18 19  1  0  0  0  0
 18 28  1  0  0  0  0
 19 24  1  0  0  0  0
  1 29  1  0  0  0  0
  6 30  1  0  0  0  0
  6 31  1  0  0  0  0
  7 32  1  0  0  0  0
  7 33  1  0  0  0  0
  8 34  1  0  0  0  0
  8 35  1  0  0  0  0
  9 36  1  0  0  0  0
  9 37  1  0  0  0  0
 10 38  1  0  0  0  0
 10 39  1  0  0  0  0
 11 40  1  0  0  0  0
 11 41  1  0  0  0  0
 12 42  1  0  0  0  0
 12 43  1  0  0  0  0
 13 44  1  0  0  0  0
 14 45  1  0  0  0  0
 15 46  1  0  0  0  0
 16 47  1  0  0  0  0
 20 48  1  0  0  0  0
 20 49  1  0  0  0  0
 20 50  1  0  0  0  0
 21 51  1  0  0  0  0
 21 52  1  0  0  0  0
 21 53  1  0  0  0  0
 22 54  1  0  0  0  0
 22 55  1  0  0  0  0
 22 56  1  0  0  0  0
 23 57  1  0  0  0  0
 23 58  1  0  0  0  0
 23 59  1  0  0  0  0
 24 60  1  0  0  0  0
 24 61  1  0  0  0  0
 24 62  1  0  0  0  0
M  END
> <Hybrid2>
-9.328434

> <docked_fragment>
x0749

> <Mpro-_dock>
4.511628

> <site>
active-covalent

$$$$
CHEMBL1200374
  -OEChem-04122014263D

 46 49  0     1  0  0  0  0  0999 V2000
    6.5797   -3.7625   20.9663 C   0  0  0  0  0  0  0  0  0  0  0  0
    7.3744   -5.7868   22.2470 C   0  0  0  0  0  0  0  0  0  0  0  0
    7.3845   -2.9969   21.7105 C   0  0  0  0  0  0  0  0  0  0  0  0
    8.2231   -5.0240   22.9622 C   0  0  0  0  0  0  0  0  0  0  0  0
    6.4068   -5.1879   21.3010 C   0  0  0  0  0  0  0  0  0  0  0  0
    9.3472   -5.6167   23.7132 C   0  0  0  0  0  0  0  0  0  0  0  0
   13.3775   -1.3034   24.2883 C   0  0  0  0  0  0  0  0  0  0  0  0
    9.8991   -6.8078   23.4164 C   0  0  0  0  0  0  0  0  0  0  0  0
    9.9681   -4.7756   24.8017 C   0  0  0  0  0  0  0  0  0  0  0  0
   13.9293   -2.4525   25.1148 C   0  0  0  0  0  0  0  0  0  0  0  0
   12.6708   -3.2579   25.4750 C   0  0  0  0  0  0  0  0  0  0  0  0
    9.7760   -1.4117   22.7428 C   0  0  0  0  0  0  0  0  0  0  0  0
   11.2517   -0.9703   22.8429 C   0  0  0  0  0  0  0  0  0  0  0  0
   10.2341   -3.3089   24.4081 C   0  0  1  0  0  0  0  0  0  0  0  0
   11.7132   -2.9143   24.3383 C   0  0  1  0  0  0  0  0  0  0  0  0
    9.5826   -2.9229   23.0348 C   0  0  1  0  0  0  0  0  0  0  0  0
    8.1207   -3.4809   22.9517 C   0  0  1  0  0  0  0  0  0  0  0  0
   11.8662   -1.3814   24.1778 C   0  0  1  0  0  0  0  0  0  0  0  0
    7.2457   -3.0052   24.1388 C   0  0  0  0  0  0  0  0  0  0  0  0
   11.3062   -0.5169   25.3250 C   0  0  0  0  0  0  0  0  0  0  0  0
    5.5336   -5.8648   20.7695 O   0  0  0  0  0  0  0  0  0  0  0  0
   14.0686   -0.4177   23.8030 O   0  0  0  0  0  0  0  0  0  0  0  0
    6.0338   -3.3628   20.1261 H   0  0  0  0  0  0  0  0  0  0  0  0
    7.3805   -6.8709   22.3086 H   0  0  0  0  0  0  0  0  0  0  0  0
    7.4845   -1.9586   21.4305 H   0  0  0  0  0  0  0  0  0  0  0  0
   10.7212   -7.1904   24.0032 H   0  0  0  0  0  0  0  0  0  0  0  0
    9.5252   -7.3923   22.5887 H   0  0  0  0  0  0  0  0  0  0  0  0
    9.3286   -4.7966   25.7090 H   0  0  0  0  0  0  0  0  0  0  0  0
   10.9193   -5.2564   25.1164 H   0  0  0  0  0  0  0  0  0  0  0  0
   14.6083   -3.0421   24.4917 H   0  0  0  0  0  0  0  0  0  0  0  0
   14.4402   -2.0847   26.0073 H   0  0  0  0  0  0  0  0  0  0  0  0
   12.8931   -4.3282   25.5293 H   0  0  0  0  0  0  0  0  0  0  0  0
   12.2712   -2.9507   26.4475 H   0  0  0  0  0  0  0  0  0  0  0  0
    9.1832   -0.8125   23.4330 H   0  0  0  0  0  0  0  0  0  0  0  0
    9.4337   -1.1735   21.7353 H   0  0  0  0  0  0  0  0  0  0  0  0
   11.8178   -1.4135   22.0118 H   0  0  0  0  0  0  0  0  0  0  0  0
   11.3199    0.1164   22.7030 H   0  0  0  0  0  0  0  0  0  0  0  0
    9.7552   -2.6732   25.2028 H   0  0  0  0  0  0  0  0  0  0  0  0
   12.1292   -3.3976   23.4407 H   0  0  0  0  0  0  0  0  0  0  0  0
   10.1716   -3.4521   22.2656 H   0  0  0  0  0  0  0  0  0  0  0  0
    7.7128   -3.3174   25.0635 H   0  0  0  0  0  0  0  0  0  0  0  0
    6.2637   -3.4506   24.0488 H   0  0  0  0  0  0  0  0  0  0  0  0
    7.1698   -1.9262   24.1057 H   0  0  0  0  0  0  0  0  0  0  0  0
   10.2224   -0.5386   25.2913 H   0  0  0  0  0  0  0  0  0  0  0  0
   11.6563    0.5027   25.2065 H   0  0  0  0  0  0  0  0  0  0  0  0
   11.6516   -0.9154   26.2727 H   0  0  0  0  0  0  0  0  0  0  0  0
  1  3  2  0  0  0  0
  1  5  1  0  0  0  0
  2  4  2  0  0  0  0
  2  5  1  0  0  0  0
  3 17  1  0  0  0  0
  4  6  1  0  0  0  0
  4 17  1  0  0  0  0
  5 21  2  0  0  0  0
  6  8  2  0  0  0  0
  6  9  1  0  0  0  0
  7 10  1  0  0  0  0
  7 18  1  0  0  0  0
  7 22  2  0  0  0  0
  9 14  1  0  0  0  0
 10 11  1  0  0  0  0
 11 15  1  0  0  0  0
 12 13  1  0  0  0  0
 12 16  1  0  0  0  0
 13 18  1  0  0  0  0
 14 15  1  0  0  0  0
 14 16  1  0  0  0  0
 15 18  1  0  0  0  0
 16 17  1  0  0  0  0
 17 19  1  0  0  0  0
 18 20  1  0  0  0  0
  1 23  1  0  0  0  0
  2 24  1  0  0  0  0
  3 25  1  0  0  0  0
  8 26  1  0  0  0  0
  8 27  1  0  0  0  0
  9 28  1  0  0  0  0
  9 29  1  0  0  0  0
 10 30  1  0  0  0  0
 10 31  1  0  0  0  0
 11 32  1  0  0  0  0
 11 33  1  0  0  0  0
 12 34  1  0  0  0  0
 12 35  1  0  0  0  0
 13 36  1  0  0  0  0
 13 37  1  0  0  0  0
 14 38  1  0  0  0  0
 15 39  1  0  0  0  0
 16 40  1  0  0  0  0
 19 41  1  0  0  0  0
 19 42  1  0  0  0  0
 19 43  1  0  0  0  0
 20 44  1  0  0  0  0
 20 45  1  0  0  0  0
 20 46  1  0  0  0  0
M  END
> <Hybrid2>
-9.327736

> <docked_fragment>
x0749

> <Mpro-_dock>
0.256943

> <site>
active-covalent

$$$$
CHEMBL2106347
  -OEChem-04122014263D

 57 60  0     1  0  0  0  0  0999 V2000
    8.4531    0.4039   20.7191 C   0  0  0  0  0  0  0  0  0  0  0  0
    7.5243    0.1413   20.0046 C   0  0  0  0  0  0  0  0  0  0  0  0
    7.8645   -5.5478   25.9943 C   0  0  0  0  0  0  0  0  0  0  0  0
    8.4599   -4.4809   25.4307 C   0  0  0  0  0  0  0  0  0  0  0  0
    6.9173   -5.4110   27.1244 C   0  0  0  0  0  0  0  0  0  0  0  0
    6.5081   -4.0318   27.5757 C   0  0  0  0  0  0  0  0  0  0  0  0
    6.7930   -2.9685   26.5204 C   0  0  0  0  0  0  0  0  0  0  0  0
   11.0622   -1.2477   21.9545 C   0  0  0  0  0  0  0  0  0  0  0  0
    7.9393   -0.6099   24.9672 C   0  0  0  0  0  0  0  0  0  0  0  0
   10.8780    0.0173   21.0890 C   0  0  0  0  0  0  0  0  0  0  0  0
    8.0429    0.2500   23.6883 C   0  0  0  0  0  0  0  0  0  0  0  0
   10.3573   -3.5631   23.9706 C   0  0  0  0  0  0  0  0  0  0  0  0
    9.3523   -4.6977   24.2139 C   0  0  2  0  0  0  0  0  0  0  0  0
    8.3726   -2.0767   24.7191 C   0  0  1  0  0  0  0  0  0  0  0  0
    9.7966   -1.3229   22.8056 C   0  0  1  0  0  0  0  0  0  0  0  0
    9.8072   -2.1314   24.1097 C   0  0  2  0  0  0  0  0  0  0  0  0
    9.5950    0.7267   21.5974 C   0  0  2  0  0  0  0  0  0  0  0  0
    8.2273   -3.0501   25.9336 C   0  0  2  0  0  0  0  0  0  0  0  0
    9.4413    0.1688   23.0444 C   0  0  1  0  0  0  0  0  0  0  0  0
    6.3938   -0.1780   19.1341 C   0  0  0  0  0  0  0  0  0  0  0  0
    8.5332   -4.9825   22.9458 C   0  0  0  0  0  0  0  0  0  0  0  0
    9.2460   -2.7213   27.0508 C   0  0  0  0  0  0  0  0  0  0  0  0
   10.4404    0.9110   23.9849 C   0  0  0  0  0  0  0  0  0  0  0  0
    6.4976   -6.4199   27.6896 O   0  0  0  0  0  0  0  0  0  0  0  0
    9.7734    2.1367   21.5959 O   0  0  0  0  0  0  0  0  0  0  0  0
    8.0840   -6.5660   25.7014 H   0  0  0  0  0  0  0  0  0  0  0  0
    5.4240   -4.0435   27.7884 H   0  0  0  0  0  0  0  0  0  0  0  0
    7.0182   -3.8077   28.5291 H   0  0  0  0  0  0  0  0  0  0  0  0
    6.0559   -3.0896   25.7157 H   0  0  0  0  0  0  0  0  0  0  0  0
    6.6069   -1.9867   26.9694 H   0  0  0  0  0  0  0  0  0  0  0  0
   11.1847   -2.1380   21.3297 H   0  0  0  0  0  0  0  0  0  0  0  0
   11.9595   -1.1534   22.5761 H   0  0  0  0  0  0  0  0  0  0  0  0
    8.5396   -0.1575   25.7531 H   0  0  0  0  0  0  0  0  0  0  0  0
    6.9019   -0.5736   25.2974 H   0  0  0  0  0  0  0  0  0  0  0  0
   11.7632    0.6577   21.1830 H   0  0  0  0  0  0  0  0  0  0  0  0
   10.8066   -0.2543   20.0286 H   0  0  0  0  0  0  0  0  0  0  0  0
    7.2720   -0.1041   22.9923 H   0  0  0  0  0  0  0  0  0  0  0  0
    7.7889    1.2910   23.9249 H   0  0  0  0  0  0  0  0  0  0  0  0
   11.2132   -3.6869   24.6768 H   0  0  0  0  0  0  0  0  0  0  0  0
   10.8207   -3.6853   22.9597 H   0  0  0  0  0  0  0  0  0  0  0  0
    9.9084   -5.6332   24.4020 H   0  0  0  0  0  0  0  0  0  0  0  0
    7.7102   -2.4549   23.9244 H   0  0  0  0  0  0  0  0  0  0  0  0
    9.0177   -1.7677   22.1689 H   0  0  0  0  0  0  0  0  0  0  0  0
   10.5019   -1.5946   24.8233 H   0  0  0  0  0  0  0  0  0  0  0  0
    5.6180   -0.7174   19.6857 H   0  0  0  0  0  0  0  0  0  0  0  0
    6.7126   -0.8052   18.2963 H   0  0  0  0  0  0  0  0  0  0  0  0
    5.9477    0.7335   18.7251 H   0  0  0  0  0  0  0  0  0  0  0  0
    7.9504   -4.1033   22.6883 H   0  0  0  0  0  0  0  0  0  0  0  0
    7.8666   -5.8200   23.1282 H   0  0  0  0  0  0  0  0  0  0  0  0
    9.2064   -5.2246   22.1290 H   0  0  0  0  0  0  0  0  0  0  0  0
    9.0718   -1.7106   27.3968 H   0  0  0  0  0  0  0  0  0  0  0  0
   10.2470   -2.8088   26.6484 H   0  0  0  0  0  0  0  0  0  0  0  0
    9.1103   -3.4214   27.8652 H   0  0  0  0  0  0  0  0  0  0  0  0
   11.4233    0.8600   23.5430 H   0  0  0  0  0  0  0  0  0  0  0  0
   10.4300    0.4200   24.9454 H   0  0  0  0  0  0  0  0  0  0  0  0
   10.1189    1.9366   24.0788 H   0  0  0  0  0  0  0  0  0  0  0  0
    8.9488    2.5248   21.9316 H   0  0  0  0  0  0  0  0  0  0  0  0
  1  2  3  0  0  0  0
  1 17  1  0  0  0  0
  2 20  1  0  0  0  0
  3  4  2  0  0  0  0
  3  5  1  0  0  0  0
  4 13  1  0  0  0  0
  4 18  1  0  0  0  0
  5  6  1  0  0  0  0
  5 24  2  0  0  0  0
  6  7  1  0  0  0  0
  7 18  1  0  0  0  0
  8 10  1  0  0  0  0
  8 15  1  0  0  0  0
  9 11  1  0  0  0  0
  9 14  1  0  0  0  0
 10 17  1  0  0  0  0
 11 19  1  0  0  0  0
 12 13  1  0  0  0  0
 12 16  1  0  0  0  0
 13 21  1  0  0  0  0
 14 16  1  0  0  0  0
 14 18  1  0  0  0  0
 15 16  1  0  0  0  0
 15 19  1  0  0  0  0
 17 19  1  0  0  0  0
 17 25  1  0  0  0  0
 18 22  1  0  0  0  0
 19 23  1  0  0  0  0
  3 26  1  0  0  0  0
  6 27  1  0  0  0  0
  6 28  1  0  0  0  0
  7 29  1  0  0  0  0
  7 30  1  0  0  0  0
  8 31  1  0  0  0  0
  8 32  1  0  0  0  0
  9 33  1  0  0  0  0
  9 34  1  0  0  0  0
 10 35  1  0  0  0  0
 10 36  1  0  0  0  0
 11 37  1  0  0  0  0
 11 38  1  0  0  0  0
 12 39  1  0  0  0  0
 12 40  1  0  0  0  0
 13 41  1  0  0  0  0
 14 42  1  0  0  0  0
 15 43  1  0  0  0  0
 16 44  1  0  0  0  0
 20 45  1  0  0  0  0
 20 46  1  0  0  0  0
 20 47  1  0  0  0  0
 21 48  1  0  0  0  0
 21 49  1  0  0  0  0
 21 50  1  0  0  0  0
 22 51  1  0  0  0  0
 22 52  1  0  0  0  0
 22 53  1  0  0  0  0
 23 54  1  0  0  0  0
 23 55  1  0  0  0  0
 23 56  1  0  0  0  0
 25 57  1  0  0  0  0
M  END
> <Hybrid2>
-9.315269

> <docked_fragment>
x1077

> <Mpro-_dock>
2.198202

> <site>
active-noncovalent

$$$$
CHEMBL1476022
  -OEChem-04122014263D

 57 60  0     1  0  0  0  0  0999 V2000
   10.4244   -2.2758   23.0518 C   0  0  0  0  0  0  0  0  0  0  0  0
   12.1403    0.9876   23.0109 C   0  0  0  0  0  0  0  0  0  0  0  0
   10.7508   -1.0121   23.3826 C   0  0  0  0  0  0  0  0  0  0  0  0
   11.8695   -0.3026   22.7337 C   0  0  0  0  0  0  0  0  0  0  0  0
    9.3421   -3.0137   23.7489 C   0  0  0  0  0  0  0  0  0  0  0  0
   10.3049    6.7231   24.7991 C   0  0  0  0  0  0  0  0  0  0  0  0
    8.4462    6.0990   23.1404 C   0  0  0  0  0  0  0  0  0  0  0  0
    8.6485   -2.3453   24.9047 C   0  0  0  0  0  0  0  0  0  0  0  0
    8.5798   -0.8438   24.6903 C   0  0  0  0  0  0  0  0  0  0  0  0
   12.5085    4.1002   23.2852 C   0  0  0  0  0  0  0  0  0  0  0  0
    9.0360    2.1143   25.0591 C   0  0  0  0  0  0  0  0  0  0  0  0
   12.0672    5.5756   23.3778 C   0  0  0  0  0  0  0  0  0  0  0  0
    9.0420    3.6124   24.7004 C   0  0  0  0  0  0  0  0  0  0  0  0
   11.3340    1.8338   23.9589 C   0  0  2  0  0  0  0  0  0  0  0  0
    9.9759   -0.2399   24.4593 C   0  0  2  0  0  0  0  0  0  0  0  0
    9.8931    1.2658   24.0925 C   0  0  1  0  0  0  0  0  0  0  0  0
   11.2287    3.3042   23.5343 C   0  0  1  0  0  0  0  0  0  0  0  0
   10.6158    5.5601   23.9061 C   0  0  1  0  0  0  0  0  0  0  0  0
   10.4703    4.1695   24.5751 C   0  0  1  0  0  0  0  0  0  0  0  0
   12.7565   -1.0443   21.7654 C   0  0  0  0  0  0  0  0  0  0  0  0
   10.4482    8.0951   24.1980 C   0  0  0  0  0  0  0  0  0  0  0  0
    7.6118    6.2036   21.8999 C   0  0  0  0  0  0  0  0  0  0  0  0
   11.1416    4.1782   25.9777 C   0  0  0  0  0  0  0  0  0  0  0  0
    9.0759   -4.1670   23.4152 O   0  0  0  0  0  0  0  0  0  0  0  0
    9.9481    6.5636   25.9654 O   0  0  0  0  0  0  0  0  0  0  0  0
    8.0331    6.3406   24.2665 O   0  0  0  0  0  0  0  0  0  0  0  0
    9.7116    5.7003   22.8141 O   0  0  0  0  0  0  0  0  0  0  0  0
   10.9445   -2.8402   22.2856 H   0  0  0  0  0  0  0  0  0  0  0  0
   13.0088    1.4536   22.5525 H   0  0  0  0  0  0  0  0  0  0  0  0
    7.6326   -2.7471   24.9845 H   0  0  0  0  0  0  0  0  0  0  0  0
    9.1919   -2.5896   25.8239 H   0  0  0  0  0  0  0  0  0  0  0  0
    7.9329   -0.6261   23.8299 H   0  0  0  0  0  0  0  0  0  0  0  0
    8.1087   -0.3950   25.5718 H   0  0  0  0  0  0  0  0  0  0  0  0
   12.9421    3.8827   22.3036 H   0  0  0  0  0  0  0  0  0  0  0  0
   13.2727    3.8809   24.0392 H   0  0  0  0  0  0  0  0  0  0  0  0
    9.3802    1.9689   26.0892 H   0  0  0  0  0  0  0  0  0  0  0  0
    7.9936    1.7770   25.0303 H   0  0  0  0  0  0  0  0  0  0  0  0
   12.7460    6.1153   24.0481 H   0  0  0  0  0  0  0  0  0  0  0  0
   12.1337    6.0470   22.3906 H   0  0  0  0  0  0  0  0  0  0  0  0
    8.4983    3.7339   23.7553 H   0  0  0  0  0  0  0  0  0  0  0  0
    8.4762    4.1715   25.4551 H   0  0  0  0  0  0  0  0  0  0  0  0
   11.8489    1.7716   24.9252 H   0  0  0  0  0  0  0  0  0  0  0  0
   10.5416   -0.3341   25.3982 H   0  0  0  0  0  0  0  0  0  0  0  0
    9.4037    1.3383   23.1074 H   0  0  0  0  0  0  0  0  0  0  0  0
   10.6693    3.3199   22.5840 H   0  0  0  0  0  0  0  0  0  0  0  0
   13.5673   -1.5119   22.3139 H   0  0  0  0  0  0  0  0  0  0  0  0
   13.1554   -0.3426   21.0400 H   0  0  0  0  0  0  0  0  0  0  0  0
   12.1695   -1.8005   21.2543 H   0  0  0  0  0  0  0  0  0  0  0  0
    9.4999    8.4012   23.7475 H   0  0  0  0  0  0  0  0  0  0  0  0
   11.2181    8.0767   23.4227 H   0  0  0  0  0  0  0  0  0  0  0  0
   10.7159    8.8110   24.9788 H   0  0  0  0  0  0  0  0  0  0  0  0
    7.6877    7.2120   21.4858 H   0  0  0  0  0  0  0  0  0  0  0  0
    6.5719    5.9588   22.1307 H   0  0  0  0  0  0  0  0  0  0  0  0
    7.9792    5.4921   21.1547 H   0  0  0  0  0  0  0  0  0  0  0  0
   12.1421    4.5710   25.8749 H   0  0  0  0  0  0  0  0  0  0  0  0
   11.1700    3.1647   26.3488 H   0  0  0  0  0  0  0  0  0  0  0  0
   10.5551    4.8046   26.6330 H   0  0  0  0  0  0  0  0  0  0  0  0
  1  3  2  0  0  0  0
  1  5  1  0  0  0  0
  2  4  2  0  0  0  0
  2 14  1  0  0  0  0
  3  4  1  0  0  0  0
  3 15  1  0  0  0  0
  4 20  1  0  0  0  0
  5  8  1  0  0  0  0
  5 24  2  0  0  0  0
  6 18  1  0  0  0  0
  6 21  1  0  0  0  0
  6 25  2  0  0  0  0
  7 22  1  0  0  0  0
  7 26  2  0  0  0  0
  7 27  1  0  0  0  0
  8  9  1  0  0  0  0
  9 15  1  0  0  0  0
 10 12  1  0  0  0  0
 10 17  1  0  0  0  0
 11 13  1  0  0  0  0
 11 16  1  0  0  0  0
 12 18  1  0  0  0  0
 13 19  1  0  0  0  0
 14 16  1  0  0  0  0
 14 17  1  0  0  0  0
 15 16  1  0  0  0  0
 17 19  1  0  0  0  0
 18 19  1  0  0  0  0
 18 27  1  0  0  0  0
 19 23  1  0  0  0  0
  1 28  1  0  0  0  0
  2 29  1  0  0  0  0
  8 30  1  0  0  0  0
  8 31  1  0  0  0  0
  9 32  1  0  0  0  0
  9 33  1  0  0  0  0
 10 34  1  0  0  0  0
 10 35  1  0  0  0  0
 11 36  1  0  0  0  0
 11 37  1  0  0  0  0
 12 38  1  0  0  0  0
 12 39  1  0  0  0  0
 13 40  1  0  0  0  0
 13 41  1  0  0  0  0
 14 42  1  0  0  0  0
 15 43  1  0  0  0  0
 16 44  1  0  0  0  0
 17 45  1  0  0  0  0
 20 46  1  0  0  0  0
 20 47  1  0  0  0  0
 20 48  1  0  0  0  0
 21 49  1  0  0  0  0
 21 50  1  0  0  0  0
 21 51  1  0  0  0  0
 22 52  1  0  0  0  0
 22 53  1  0  0  0  0
 22 54  1  0  0  0  0
 23 55  1  0  0  0  0
 23 56  1  0  0  0  0
 23 57  1  0  0  0  0
M  END
> <Hybrid2>
-9.296786

> <docked_fragment>
x0104

> <Mpro-_dock>
3.272317

> <site>
active-noncovalent

$$$$
CHEMBL2105103
  -OEChem-04122014263D

 53 58  0     1  0  0  0  0  0999 V2000
   12.7481    1.8527   22.6585 C   0  0  0  0  0  0  0  0  0  0  0  0
   11.4381   -1.5909   22.4912 C   0  0  0  0  0  0  0  0  0  0  0  0
   11.8512    0.8493   22.5872 C   0  0  0  0  0  0  0  0  0  0  0  0
   12.2643   -0.5418   22.3360 C   0  0  0  0  0  0  0  0  0  0  0  0
   12.3840    3.2493   22.9910 C   0  0  0  0  0  0  0  0  0  0  0  0
    6.3968   -4.2185   25.2734 C   0  0  0  0  0  0  0  0  0  0  0  0
    8.2769    0.0480   24.0965 C   0  0  0  0  0  0  0  0  0  0  0  0
    7.7723   -1.1535   24.9285 C   0  0  0  0  0  0  0  0  0  0  0  0
   10.6097    2.8188   24.7958 C   0  0  0  0  0  0  0  0  0  0  0  0
    9.7896   -4.0483   23.6296 C   0  0  0  0  0  0  0  0  0  0  0  0
    8.7974   -4.2908   26.0511 C   0  0  0  0  0  0  0  0  0  0  0  0
   10.0073   -1.4694   22.9347 C   0  0  2  0  0  0  0  0  0  0  0  0
   11.0280    3.4965   23.5138 C   0  0  2  0  0  0  0  0  0  0  0  0
    9.7555   -0.0980   23.6393 C   0  0  1  0  0  0  0  0  0  0  0  0
    9.9966    2.4082   23.4813 C   0  0  1  0  0  0  0  0  0  0  0  0
    8.8524   -4.7252   24.6139 C   0  0  1  0  0  0  0  0  0  0  0  0
    9.5647   -2.5576   23.9136 C   0  0  1  0  0  0  0  0  0  0  0  0
   10.3295    1.0894   22.7888 C   0  0  1  0  0  0  0  0  0  0  0  0
    7.7814   -3.7516   25.0499 C   0  0  1  0  0  0  0  0  0  0  0  0
    8.0345   -2.4806   24.2131 C   0  0  1  0  0  0  0  0  0  0  0  0
    5.7545   -4.9920   24.1538 C   0  0  0  0  0  0  0  0  0  0  0  0
    9.6833    1.1596   21.3784 C   0  0  0  0  0  0  0  0  0  0  0  0
    7.1499   -2.5719   22.9365 C   0  0  0  0  0  0  0  0  0  0  0  0
   13.1903    4.1643   22.8792 O   0  0  0  0  0  0  0  0  0  0  0  0
    5.7997   -3.9879   26.3238 O   0  0  0  0  0  0  0  0  0  0  0  0
   13.8720   -0.8857   21.7568 Cl  0  0  0  0  0  0  0  0  0  0  0  0
   13.8111    1.7019   22.5022 H   0  0  0  0  0  0  0  0  0  0  0  0
   11.7875   -2.5902   22.2409 H   0  0  0  0  0  0  0  0  0  0  0  0
    7.6259    0.1923   23.2284 H   0  0  0  0  0  0  0  0  0  0  0  0
    8.1629    0.9441   24.7170 H   0  0  0  0  0  0  0  0  0  0  0  0
    8.2766   -1.1478   25.9036 H   0  0  0  0  0  0  0  0  0  0  0  0
    6.7032   -1.0311   25.1401 H   0  0  0  0  0  0  0  0  0  0  0  0
   11.3023    2.1446   25.2842 H   0  0  0  0  0  0  0  0  0  0  0  0
    9.9905    3.3839   25.4829 H   0  0  0  0  0  0  0  0  0  0  0  0
   10.8268   -4.3470   23.8090 H   0  0  0  0  0  0  0  0  0  0  0  0
    9.5202   -4.3113   22.6017 H   0  0  0  0  0  0  0  0  0  0  0  0
    8.4652   -5.0264   26.7771 H   0  0  0  0  0  0  0  0  0  0  0  0
    9.5539   -3.6284   26.4502 H   0  0  0  0  0  0  0  0  0  0  0  0
    9.4092   -1.5446   22.0212 H   0  0  0  0  0  0  0  0  0  0  0  0
   10.6565    4.5048   23.3536 H   0  0  0  0  0  0  0  0  0  0  0  0
   10.3348   -0.1048   24.5784 H   0  0  0  0  0  0  0  0  0  0  0  0
    8.9665    2.7142   23.3235 H   0  0  0  0  0  0  0  0  0  0  0  0
    8.5946   -5.7421   24.3584 H   0  0  0  0  0  0  0  0  0  0  0  0
   10.1171   -2.3553   24.8453 H   0  0  0  0  0  0  0  0  0  0  0  0
    5.9576   -6.0592   24.2789 H   0  0  0  0  0  0  0  0  0  0  0  0
    6.1681   -4.6634   23.1972 H   0  0  0  0  0  0  0  0  0  0  0  0
    4.6735   -4.8334   24.1719 H   0  0  0  0  0  0  0  0  0  0  0  0
    8.6223    1.3266   21.4946 H   0  0  0  0  0  0  0  0  0  0  0  0
    9.8635    0.2230   20.8711 H   0  0  0  0  0  0  0  0  0  0  0  0
   10.1354    1.9758   20.8337 H   0  0  0  0  0  0  0  0  0  0  0  0
    7.3512   -3.5139   22.4493 H   0  0  0  0  0  0  0  0  0  0  0  0
    7.4036   -1.7481   22.2869 H   0  0  0  0  0  0  0  0  0  0  0  0
    6.1142   -2.5138   23.2350 H   0  0  0  0  0  0  0  0  0  0  0  0
  1  3  2  0  0  0  0
  1  5  1  0  0  0  0
  2  4  2  0  0  0  0
  2 12  1  0  0  0  0
  3  4  1  0  0  0  0
  3 18  1  0  0  0  0
  4 26  1  0  0  0  0
  5 13  1  0  0  0  0
  5 24  2  0  0  0  0
  6 19  1  0  0  0  0
  6 21  1  0  0  0  0
  6 25  2  0  0  0  0
  7  8  1  0  0  0  0
  7 14  1  0  0  0  0
  8 20  1  0  0  0  0
  9 13  1  0  0  0  0
  9 15  1  0  0  0  0
 10 16  1  0  0  0  0
 10 17  1  0  0  0  0
 11 16  1  0  0  0  0
 11 19  1  0  0  0  0
 12 14  1  0  0  0  0
 12 17  1  0  0  0  0
 13 15  1  0  0  0  0
 14 18  1  0  0  0  0
 15 18  1  0  0  0  0
 16 19  1  0  0  0  0
 17 20  1  0  0  0  0
 18 22  1  0  0  0  0
 19 20  1  0  0  0  0
 20 23  1  0  0  0  0
  1 27  1  0  0  0  0
  2 28  1  0  0  0  0
  7 29  1  0  0  0  0
  7 30  1  0  0  0  0
  8 31  1  0  0  0  0
  8 32  1  0  0  0  0
  9 33  1  0  0  0  0
  9 34  1  0  0  0  0
 10 35  1  0  0  0  0
 10 36  1  0  0  0  0
 11 37  1  0  0  0  0
 11 38  1  0  0  0  0
 12 39  1  0  0  0  0
 13 40  1  0  0  0  0
 14 41  1  0  0  0  0
 15 42  1  0  0  0  0
 16 43  1  0  0  0  0
 17 44  1  0  0  0  0
 21 45  1  0  0  0  0
 21 46  1  0  0  0  0
 21 47  1  0  0  0  0
 22 48  1  0  0  0  0
 22 49  1  0  0  0  0
 22 50  1  0  0  0  0
 23 51  1  0  0  0  0
 23 52  1  0  0  0  0
 23 53  1  0  0  0  0
M  END
> <Hybrid2>
-9.291394

> <docked_fragment>
x0874

> <Mpro-_dock>
0.923369

> <site>
active-noncovalent

$$$$
CHEMBL2111035
  -OEChem-04122014263D

 43 46  0     1  0  0  0  0  0999 V2000
    6.8188   -5.8436   22.1325 C   0  0  0  0  0  0  0  0  0  0  0  0
    7.6588   -6.2427   23.1625 C   0  0  0  0  0  0  0  0  0  0  0  0
    6.9953   -4.5947   21.5423 C   0  0  0  0  0  0  0  0  0  0  0  0
    8.6779   -5.3942   23.6008 C   0  0  0  0  0  0  0  0  0  0  0  0
    8.1701   -2.4759   21.3683 C   0  0  0  0  0  0  0  0  0  0  0  0
    9.1641   -1.5998   21.7911 C   0  0  0  0  0  0  0  0  0  0  0  0
    8.0147   -3.7292   21.9733 C   0  0  0  0  0  0  0  0  0  0  0  0
    8.8880   -4.1214   23.0208 C   0  0  0  0  0  0  0  0  0  0  0  0
    9.9187   -3.2265   23.4329 C   0  0  0  0  0  0  0  0  0  0  0  0
   10.0224   -1.9622   22.8271 C   0  0  0  0  0  0  0  0  0  0  0  0
   10.8909   -3.6121   24.5255 C   0  0  0  0  0  0  0  0  0  0  0  0
   12.8681   -2.8422   25.8875 C   0  0  0  0  0  0  0  0  0  0  0  0
   13.6261   -0.4469   25.7736 C   0  0  0  0  0  0  0  0  0  0  0  0
   12.0721   -2.6411   24.6001 C   0  0  2  0  0  0  0  0  0  0  0  0
   12.8125   -0.2441   24.4891 C   0  0  1  0  0  0  0  0  0  0  0  0
   11.5842   -1.1902   24.4441 C   0  0  1  0  0  0  0  0  0  0  0  0
   12.4485    1.2386   24.3410 C   0  0  0  0  0  0  0  0  0  0  0  0
   14.9359   -2.1198   27.0794 C   0  0  0  0  0  0  0  0  0  0  0  0
   14.0446   -1.8939   25.8889 N   0  3  1  0  0  0  0  0  0  0  0  0
   10.9566   -1.0162   23.1645 O   0  0  0  0  0  0  0  0  0  0  0  0
   10.6730   -0.8976   25.5084 O   0  0  0  0  0  0  0  0  0  0  0  0
    6.0254   -6.5009   21.7895 H   0  0  0  0  0  0  0  0  0  0  0  0
    7.5242   -7.2141   23.6290 H   0  0  0  0  0  0  0  0  0  0  0  0
    6.3239   -4.3008   20.7375 H   0  0  0  0  0  0  0  0  0  0  0  0
    9.3070   -5.7483   24.4142 H   0  0  0  0  0  0  0  0  0  0  0  0
    7.5099   -2.1639   20.5613 H   0  0  0  0  0  0  0  0  0  0  0  0
    9.2584   -0.6287   21.3117 H   0  0  0  0  0  0  0  0  0  0  0  0
   10.3485   -3.6271   25.4793 H   0  0  0  0  0  0  0  0  0  0  0  0
   11.2876   -4.6179   24.3426 H   0  0  0  0  0  0  0  0  0  0  0  0
   12.2766   -2.6401   26.7876 H   0  0  0  0  0  0  0  0  0  0  0  0
   13.2730   -3.8587   25.9401 H   0  0  0  0  0  0  0  0  0  0  0  0
   14.5440    0.1510   25.7505 H   0  0  0  0  0  0  0  0  0  0  0  0
   13.0530   -0.1949   26.6732 H   0  0  0  0  0  0  0  0  0  0  0  0
   12.7260   -2.8733   23.7449 H   0  0  0  0  0  0  0  0  0  0  0  0
   13.4541   -0.4835   23.6286 H   0  0  0  0  0  0  0  0  0  0  0  0
   11.8103    1.5396   25.1673 H   0  0  0  0  0  0  0  0  0  0  0  0
   11.9216    1.3906   23.4030 H   0  0  0  0  0  0  0  0  0  0  0  0
   13.3555    1.8369   24.3477 H   0  0  0  0  0  0  0  0  0  0  0  0
   14.3573   -1.8950   27.9772 H   0  0  0  0  0  0  0  0  0  0  0  0
   15.2514   -3.1648   27.0671 H   0  0  0  0  0  0  0  0  0  0  0  0
   15.7930   -1.4500   26.9870 H   0  0  0  0  0  0  0  0  0  0  0  0
   14.6119   -2.1120   25.0581 H   0  0  0  0  0  0  0  0  0  0  0  0
   11.1701   -1.0177   26.3303 H   0  0  0  0  0  0  0  0  0  0  0  0
  1  2  1  0  0  0  0
  1  3  2  0  0  0  0
  2  4  2  0  0  0  0
  3  7  1  0  0  0  0
  4  8  1  0  0  0  0
  5  6  2  0  0  0  0
  5  7  1  0  0  0  0
  6 10  1  0  0  0  0
  7  8  2  0  0  0  0
  8  9  1  0  0  0  0
  9 10  2  0  0  0  0
  9 11  1  0  0  0  0
 10 20  1  0  0  0  0
 11 14  1  0  0  0  0
 12 14  1  0  0  0  0
 12 19  1  0  0  0  0
 13 15  1  0  0  0  0
 13 19  1  0  0  0  0
 14 16  1  0  0  0  0
 15 16  1  0  0  0  0
 15 17  1  0  0  0  0
 16 20  1  0  0  0  0
 16 21  1  0  0  0  0
 18 19  1  0  0  0  0
  1 22  1  0  0  0  0
  2 23  1  0  0  0  0
  3 24  1  0  0  0  0
  4 25  1  0  0  0  0
  5 26  1  0  0  0  0
  6 27  1  0  0  0  0
 11 28  1  0  0  0  0
 11 29  1  0  0  0  0
 12 30  1  0  0  0  0
 12 31  1  0  0  0  0
 13 32  1  0  0  0  0
 13 33  1  0  0  0  0
 14 34  1  0  0  0  0
 15 35  1  0  0  0  0
 17 36  1  0  0  0  0
 17 37  1  0  0  0  0
 17 38  1  0  0  0  0
 18 39  1  0  0  0  0
 18 40  1  0  0  0  0
 18 41  1  0  0  0  0
 19 42  1  0  0  0  0
 21 43  1  0  0  0  0
M  CHG  1  19   1
M  END
> <Hybrid2>
-9.248034

> <docked_fragment>
x0749

> <Mpro-_dock>
1.396809

> <site>
active-covalent

$$$$
CHEMBL1201139
  -OEChem-04122014263D

 60 63  0     1  0  0  0  0  0999 V2000
    6.5366   -4.1285   20.4754 C   0  0  0  0  0  0  0  0  0  0  0  0
    8.5958   -4.6751   23.4811 C   0  0  0  0  0  0  0  0  0  0  0  0
    7.2319   -3.8496   21.5952 C   0  0  0  0  0  0  0  0  0  0  0  0
    7.7516   -4.9268   22.4623 C   0  0  0  0  0  0  0  0  0  0  0  0
    5.9840   -3.0725   19.5926 C   0  0  0  0  0  0  0  0  0  0  0  0
   13.2158   -1.2664   26.0343 C   0  0  0  0  0  0  0  0  0  0  0  0
   14.0043   -1.3421   23.5862 C   0  0  0  0  0  0  0  0  0  0  0  0
    6.2128   -1.6303   19.9517 C   0  0  0  0  0  0  0  0  0  0  0  0
    7.4774   -1.4639   20.7792 C   0  0  0  0  0  0  0  0  0  0  0  0
   11.0302   -4.2335   25.4127 C   0  0  0  0  0  0  0  0  0  0  0  0
    9.5002   -0.9253   22.9908 C   0  0  0  0  0  0  0  0  0  0  0  0
   12.3701   -3.6403   25.8927 C   0  0  0  0  0  0  0  0  0  0  0  0
   10.9405   -0.9550   23.5403 C   0  0  0  0  0  0  0  0  0  0  0  0
    9.1225   -3.3123   23.8379 C   0  0  2  0  0  0  0  0  0  0  0  0
    8.9780   -2.3389   22.6326 C   0  0  1  0  0  0  0  0  0  0  0  0
   10.5967   -3.3179   24.2698 C   0  0  1  0  0  0  0  0  0  0  0  0
    7.5336   -2.3953   22.0215 C   0  0  2  0  0  0  0  0  0  0  0  0
   12.5274   -2.2824   25.1725 C   0  0  1  0  0  0  0  0  0  0  0  0
   11.0855   -1.9188   24.7309 C   0  0  1  0  0  0  0  0  0  0  0  0
    7.2970   -6.3468   22.2301 C   0  0  0  0  0  0  0  0  0  0  0  0
   14.6076   -1.6031   26.4970 C   0  0  0  0  0  0  0  0  0  0  0  0
   14.8957   -1.6923   22.4335 C   0  0  0  0  0  0  0  0  0  0  0  0
    6.4603   -1.9414   23.0396 C   0  0  0  0  0  0  0  0  0  0  0  0
   10.2891   -1.3543   25.9422 C   0  0  0  0  0  0  0  0  0  0  0  0
    5.3112   -3.3903   18.6127 O   0  0  0  0  0  0  0  0  0  0  0  0
   12.6705   -0.2089   26.3460 O   0  0  0  0  0  0  0  0  0  0  0  0
   13.8517   -0.2059   24.0138 O   0  0  0  0  0  0  0  0  0  0  0  0
   13.4065   -2.4721   24.0681 O   0  0  0  0  0  0  0  0  0  0  0  0
    6.3238   -5.1422   20.1529 H   0  0  0  0  0  0  0  0  0  0  0  0
    8.9046   -5.4977   24.1218 H   0  0  0  0  0  0  0  0  0  0  0  0
    6.3161   -1.0556   19.0245 H   0  0  0  0  0  0  0  0  0  0  0  0
    5.3307   -1.2588   20.4822 H   0  0  0  0  0  0  0  0  0  0  0  0
    8.3431   -1.6659   20.1328 H   0  0  0  0  0  0  0  0  0  0  0  0
    7.5484   -0.4117   21.0790 H   0  0  0  0  0  0  0  0  0  0  0  0
   11.1568   -5.2697   25.0821 H   0  0  0  0  0  0  0  0  0  0  0  0
   10.2981   -4.2349   26.2280 H   0  0  0  0  0  0  0  0  0  0  0  0
    8.8349   -0.4421   23.7131 H   0  0  0  0  0  0  0  0  0  0  0  0
    9.5067   -0.2871   22.1006 H   0  0  0  0  0  0  0  0  0  0  0  0
   12.3476   -3.5300   26.9830 H   0  0  0  0  0  0  0  0  0  0  0  0
   13.1898   -4.3252   25.6472 H   0  0  0  0  0  0  0  0  0  0  0  0
   11.6083   -1.2530   22.7225 H   0  0  0  0  0  0  0  0  0  0  0  0
   11.2419    0.0590   23.8293 H   0  0  0  0  0  0  0  0  0  0  0  0
    8.5145   -2.9676   24.6807 H   0  0  0  0  0  0  0  0  0  0  0  0
    9.6571   -2.7043   21.8431 H   0  0  0  0  0  0  0  0  0  0  0  0
   11.1849   -3.6279   23.3901 H   0  0  0  0  0  0  0  0  0  0  0  0
    6.3914   -6.5260   22.7996 H   0  0  0  0  0  0  0  0  0  0  0  0
    8.0791   -7.0264   22.5520 H   0  0  0  0  0  0  0  0  0  0  0  0
    7.1048   -6.4884   21.1718 H   0  0  0  0  0  0  0  0  0  0  0  0
   15.3370   -1.2357   25.7698 H   0  0  0  0  0  0  0  0  0  0  0  0
   14.7119   -2.6873   26.5853 H   0  0  0  0  0  0  0  0  0  0  0  0
   14.7986   -1.1259   27.4612 H   0  0  0  0  0  0  0  0  0  0  0  0
   15.9012   -1.9179   22.7974 H   0  0  0  0  0  0  0  0  0  0  0  0
   14.9207   -0.8654   21.7193 H   0  0  0  0  0  0  0  0  0  0  0  0
   14.5017   -2.5778   21.9264 H   0  0  0  0  0  0  0  0  0  0  0  0
    6.6712   -0.9230   23.3384 H   0  0  0  0  0  0  0  0  0  0  0  0
    6.4963   -2.5967   23.9000 H   0  0  0  0  0  0  0  0  0  0  0  0
    5.4874   -1.9975   22.5692 H   0  0  0  0  0  0  0  0  0  0  0  0
   10.3984   -2.0383   26.7700 H   0  0  0  0  0  0  0  0  0  0  0  0
    9.2517   -1.2679   25.6569 H   0  0  0  0  0  0  0  0  0  0  0  0
   10.6945   -0.3863   26.1947 H   0  0  0  0  0  0  0  0  0  0  0  0
  1  3  2  0  0  0  0
  1  5  1  0  0  0  0
  2  4  2  0  0  0  0
  2 14  1  0  0  0  0
  3  4  1  0  0  0  0
  3 17  1  0  0  0  0
  4 20  1  0  0  0  0
  5  8  1  0  0  0  0
  5 25  2  0  0  0  0
  6 18  1  0  0  0  0
  6 21  1  0  0  0  0
  6 26  2  0  0  0  0
  7 22  1  0  0  0  0
  7 27  2  0  0  0  0
  7 28  1  0  0  0  0
  8  9  1  0  0  0  0
  9 17  1  0  0  0  0
 10 12  1  0  0  0  0
 10 16  1  0  0  0  0
 11 13  1  0  0  0  0
 11 15  1  0  0  0  0
 12 18  1  0  0  0  0
 13 19  1  0  0  0  0
 14 15  1  0  0  0  0
 14 16  1  0  0  0  0
 15 17  1  0  0  0  0
 16 19  1  0  0  0  0
 17 23  1  0  0  0  0
 18 19  1  0  0  0  0
 18 28  1  0  0  0  0
 19 24  1  0  0  0  0
  1 29  1  0  0  0  0
  2 30  1  0  0  0  0
  8 31  1  0  0  0  0
  8 32  1  0  0  0  0
  9 33  1  0  0  0  0
  9 34  1  0  0  0  0
 10 35  1  0  0  0  0
 10 36  1  0  0  0  0
 11 37  1  0  0  0  0
 11 38  1  0  0  0  0
 12 39  1  0  0  0  0
 12 40  1  0  0  0  0
 13 41  1  0  0  0  0
 13 42  1  0  0  0  0
 14 43  1  0  0  0  0
 15 44  1  0  0  0  0
 16 45  1  0  0  0  0
 20 46  1  0  0  0  0
 20 47  1  0  0  0  0
 20 48  1  0  0  0  0
 21 49  1  0  0  0  0
 21 50  1  0  0  0  0
 21 51  1  0  0  0  0
 22 52  1  0  0  0  0
 22 53  1  0  0  0  0
 22 54  1  0  0  0  0
 23 55  1  0  0  0  0
 23 56  1  0  0  0  0
 23 57  1  0  0  0  0
 24 58  1  0  0  0  0
 24 59  1  0  0  0  0
 24 60  1  0  0  0  0
M  END
> <Hybrid2>
-9.230185

> <docked_fragment>
x0749

> <Mpro-_dock>
3.140572

> <site>
active-covalent

$$$$
CHEMBL2104585
  -OEChem-04122014263D

 52 54  0     1  0  0  0  0  0999 V2000
   11.5760   -3.2943   24.5057 C   0  0  0  0  0  0  0  0  0  0  0  0
    9.6666   -1.2868   24.3718 C   0  0  0  0  0  0  0  0  0  0  0  0
   10.2455   -3.6295   24.1944 C   0  0  0  0  0  0  0  0  0  0  0  0
    9.2709   -2.6145   24.1040 C   0  0  0  0  0  0  0  0  0  0  0  0
   11.9444   -1.9744   24.7525 C   0  0  0  0  0  0  0  0  0  0  0  0
   10.9880   -0.9701   24.6887 C   0  0  0  0  0  0  0  0  0  0  0  0
    6.2848   -5.6614   21.5519 C   0  0  0  0  0  0  0  0  0  0  0  0
    9.9378   -5.0764   23.9125 C   0  0  0  0  0  0  0  0  0  0  0  0
    8.4503   -5.4079   23.9172 C   0  0  0  0  0  0  0  0  0  0  0  0
    6.1261   -2.4145   21.8400 C   0  0  0  0  0  0  0  0  0  0  0  0
    7.1957   -1.8845   22.8006 C   0  0  0  0  0  0  0  0  0  0  0  0
    5.3152   -3.5668   22.4170 C   0  0  0  0  0  0  0  0  0  0  0  0
    7.6660   -4.3507   23.1257 C   0  0  2  0  0  0  0  0  0  0  0  0
    7.7938   -2.9366   23.7875 C   0  0  1  0  0  0  0  0  0  0  0  0
    6.2010   -4.7803   22.7825 C   0  0  2  0  0  0  0  0  0  0  0  0
    7.0532   -2.8384   25.1463 C   0  0  0  0  0  0  0  0  0  0  0  0
    5.4959   -5.6223   23.8594 C   0  0  0  0  0  0  0  0  0  0  0  0
   14.3289   -2.0431   23.9375 C   0  0  0  0  0  0  0  0  0  0  0  0
   13.8243   -2.3599   26.3870 C   0  0  0  0  0  0  0  0  0  0  0  0
   13.3695   -1.6761   25.0846 C   0  0  0  0  0  0  0  0  0  0  0  0
    6.9796   -6.7069   21.6837 O   0  5  0  0  0  0  0  0  0  0  0  0
   12.2169    1.0832   23.8486 O   0  5  0  0  0  0  0  0  0  0  0  0
    5.6461   -5.2337   20.5497 O   0  0  0  0  0  0  0  0  0  0  0  0
   10.1213    1.4164   25.0996 O   0  0  0  0  0  0  0  0  0  0  0  0
   12.1353    0.6376   26.2824 O   0  0  0  0  0  0  0  0  0  0  0  0
   11.4024    0.6992   25.0099 S   0  0  0  0  0  0  0  0  0  0  0  0
   12.3294   -4.0788   24.5523 H   0  0  0  0  0  0  0  0  0  0  0  0
    8.9359   -0.4827   24.3504 H   0  0  0  0  0  0  0  0  0  0  0  0
   10.3434   -5.3144   22.9241 H   0  0  0  0  0  0  0  0  0  0  0  0
   10.4436   -5.7138   24.6424 H   0  0  0  0  0  0  0  0  0  0  0  0
    8.3190   -6.4074   23.4841 H   0  0  0  0  0  0  0  0  0  0  0  0
    8.0852   -5.4789   24.9479 H   0  0  0  0  0  0  0  0  0  0  0  0
    5.4532   -1.5988   21.5321 H   0  0  0  0  0  0  0  0  0  0  0  0
    6.6184   -2.7523   20.9131 H   0  0  0  0  0  0  0  0  0  0  0  0
    8.0131   -1.4393   22.2033 H   0  0  0  0  0  0  0  0  0  0  0  0
    6.7467   -1.0409   23.3531 H   0  0  0  0  0  0  0  0  0  0  0  0
    4.7660   -3.2182   23.2936 H   0  0  0  0  0  0  0  0  0  0  0  0
    4.5652   -3.8563   21.6763 H   0  0  0  0  0  0  0  0  0  0  0  0
    8.1609   -4.2688   22.1512 H   0  0  0  0  0  0  0  0  0  0  0  0
    6.0051   -3.0556   24.9884 H   0  0  0  0  0  0  0  0  0  0  0  0
    7.1714   -1.8360   25.5358 H   0  0  0  0  0  0  0  0  0  0  0  0
    7.4839   -3.5575   25.8305 H   0  0  0  0  0  0  0  0  0  0  0  0
    5.4016   -5.0451   24.7784 H   0  0  0  0  0  0  0  0  0  0  0  0
    6.0739   -6.5228   24.0630 H   0  0  0  0  0  0  0  0  0  0  0  0
    4.5025   -5.9076   23.5152 H   0  0  0  0  0  0  0  0  0  0  0  0
   14.2785   -3.1102   23.6950 H   0  0  0  0  0  0  0  0  0  0  0  0
   15.3677   -1.8096   24.1953 H   0  0  0  0  0  0  0  0  0  0  0  0
   14.0742   -1.4825   23.0311 H   0  0  0  0  0  0  0  0  0  0  0  0
   13.7297   -3.4482   26.3015 H   0  0  0  0  0  0  0  0  0  0  0  0
   13.2182   -2.0369   27.2404 H   0  0  0  0  0  0  0  0  0  0  0  0
   14.8708   -2.1327   26.6181 H   0  0  0  0  0  0  0  0  0  0  0  0
   13.4946   -0.5898   25.2510 H   0  0  0  0  0  0  0  0  0  0  0  0
  1  3  2  0  0  0  0
  1  5  1  0  0  0  0
  2  4  2  0  0  0  0
  2  6  1  0  0  0  0
  3  4  1  0  0  0  0
  3  8  1  0  0  0  0
  4 14  1  0  0  0  0
  5  6  2  0  0  0  0
  5 20  1  0  0  0  0
  6 26  1  0  0  0  0
  7 15  1  0  0  0  0
  7 21  1  0  0  0  0
  7 23  2  0  0  0  0
  8  9  1  0  0  0  0
  9 13  1  0  0  0  0
 10 11  1  0  0  0  0
 10 12  1  0  0  0  0
 11 14  1  0  0  0  0
 12 15  1  0  0  0  0
 13 14  1  0  0  0  0
 13 15  1  0  0  0  0
 14 16  1  0  0  0  0
 15 17  1  0  0  0  0
 18 20  1  0  0  0  0
 19 20  1  0  0  0  0
 22 26  1  0  0  0  0
 24 26  2  0  0  0  0
 25 26  2  0  0  0  0
  1 27  1  0  0  0  0
  2 28  1  0  0  0  0
  8 29  1  0  0  0  0
  8 30  1  0  0  0  0
  9 31  1  0  0  0  0
  9 32  1  0  0  0  0
 10 33  1  0  0  0  0
 10 34  1  0  0  0  0
 11 35  1  0  0  0  0
 11 36  1  0  0  0  0
 12 37  1  0  0  0  0
 12 38  1  0  0  0  0
 13 39  1  0  0  0  0
 16 40  1  0  0  0  0
 16 41  1  0  0  0  0
 16 42  1  0  0  0  0
 17 43  1  0  0  0  0
 17 44  1  0  0  0  0
 17 45  1  0  0  0  0
 18 46  1  0  0  0  0
 18 47  1  0  0  0  0
 18 48  1  0  0  0  0
 19 49  1  0  0  0  0
 19 50  1  0  0  0  0
 19 51  1  0  0  0  0
 20 52  1  0  0  0  0
M  CHG  2  21  -1  22  -1
M  END
> <Hybrid2>
-9.226086

> <docked_fragment>
x0749

> <Mpro-_dock>
2.768112

> <site>
active-covalent

$$$$
EDRUG376
  -OEChem-04122014263D

 46 49  0     1  0  0  0  0  0999 V2000
    6.8227   -4.0757   21.3733 C   0  0  0  0  0  0  0  0  0  0  0  0
    7.6769   -6.0045   22.7586 C   0  0  0  0  0  0  0  0  0  0  0  0
    7.5875   -3.2448   22.0893 C   0  0  0  0  0  0  0  0  0  0  0  0
    8.4861   -5.1761   23.4460 C   0  0  0  0  0  0  0  0  0  0  0  0
    6.6991   -5.4890   21.7749 C   0  0  0  0  0  0  0  0  0  0  0  0
    9.6228   -5.6879   24.2363 C   0  0  0  0  0  0  0  0  0  0  0  0
   13.4686   -1.1921   24.6665 C   0  0  0  0  0  0  0  0  0  0  0  0
   10.2268   -6.8671   23.9997 C   0  0  0  0  0  0  0  0  0  0  0  0
   10.1938   -4.7740   25.2929 C   0  0  0  0  0  0  0  0  0  0  0  0
   14.0535   -2.2797   25.5513 C   0  0  0  0  0  0  0  0  0  0  0  0
   12.8230   -3.1185   25.9314 C   0  0  0  0  0  0  0  0  0  0  0  0
    9.8991   -1.5184   23.0775 C   0  0  0  0  0  0  0  0  0  0  0  0
   11.3543   -1.0133   23.1773 C   0  0  0  0  0  0  0  0  0  0  0  0
   10.4069   -3.3172   24.8355 C   0  0  1  0  0  0  0  0  0  0  0  0
   11.8699   -2.8664   24.7673 C   0  0  1  0  0  0  0  0  0  0  0  0
    9.7612   -3.0211   23.4373 C   0  0  1  0  0  0  0  0  0  0  0  0
    8.3237   -3.6405   23.3613 C   0  0  1  0  0  0  0  0  0  0  0  0
   11.9636   -1.3373   24.5383 C   0  0  1  0  0  0  0  0  0  0  0  0
    7.4132   -3.1451   24.5133 C   0  0  0  0  0  0  0  0  0  0  0  0
   11.3509   -0.4452   25.6363 C   0  0  0  0  0  0  0  0  0  0  0  0
    5.8584   -6.2234   21.2678 O   0  0  0  0  0  0  0  0  0  0  0  0
   14.1302   -0.3001   24.1527 O   0  0  0  0  0  0  0  0  0  0  0  0
    6.2738   -3.7383   20.5081 H   0  0  0  0  0  0  0  0  0  0  0  0
    7.7240   -7.0833   22.8717 H   0  0  0  0  0  0  0  0  0  0  0  0
    7.6521   -2.2182   21.7605 H   0  0  0  0  0  0  0  0  0  0  0  0
   11.0555   -7.1893   24.6129 H   0  0  0  0  0  0  0  0  0  0  0  0
    9.8886   -7.5025   23.1945 H   0  0  0  0  0  0  0  0  0  0  0  0
    9.5425   -4.7796   26.1919 H   0  0  0  0  0  0  0  0  0  0  0  0
   11.1586   -5.2012   25.6413 H   0  0  0  0  0  0  0  0  0  0  0  0
   14.7646   -2.8687   24.9645 H   0  0  0  0  0  0  0  0  0  0  0  0
   14.5362   -1.8518   26.4327 H   0  0  0  0  0  0  0  0  0  0  0  0
   13.0871   -4.1752   26.0382 H   0  0  0  0  0  0  0  0  0  0  0  0
   12.3965   -2.7837   26.8832 H   0  0  0  0  0  0  0  0  0  0  0  0
    9.2721   -0.9123   23.7306 H   0  0  0  0  0  0  0  0  0  0  0  0
    9.5634   -1.3411   22.0553 H   0  0  0  0  0  0  0  0  0  0  0  0
   11.9507   -1.4708   22.3757 H   0  0  0  0  0  0  0  0  0  0  0  0
   11.3813    0.0677   22.9879 H   0  0  0  0  0  0  0  0  0  0  0  0
    9.8909   -2.6659   25.5935 H   0  0  0  0  0  0  0  0  0  0  0  0
   12.3185   -3.3726   23.8986 H   0  0  0  0  0  0  0  0  0  0  0  0
   10.3817   -3.5612   22.7013 H   0  0  0  0  0  0  0  0  0  0  0  0
    7.8786   -3.3949   25.4577 H   0  0  0  0  0  0  0  0  0  0  0  0
    6.4510   -3.6332   24.4318 H   0  0  0  0  0  0  0  0  0  0  0  0
    7.2954   -2.0728   24.4283 H   0  0  0  0  0  0  0  0  0  0  0  0
   10.2695   -0.5129   25.5885 H   0  0  0  0  0  0  0  0  0  0  0  0
   11.6612    0.5815   25.4757 H   0  0  0  0  0  0  0  0  0  0  0  0
   11.6969   -0.7854   26.6063 H   0  0  0  0  0  0  0  0  0  0  0  0
  1  3  2  0  0  0  0
  1  5  1  0  0  0  0
  2  4  2  0  0  0  0
  2  5  1  0  0  0  0
  3 17  1  0  0  0  0
  4  6  1  0  0  0  0
  4 17  1  0  0  0  0
  5 21  2  0  0  0  0
  6  8  2  0  0  0  0
  6  9  1  0  0  0  0
  7 10  1  0  0  0  0
  7 18  1  0  0  0  0
  7 22  2  0  0  0  0
  9 14  1  0  0  0  0
 10 11  1  0  0  0  0
 11 15  1  0  0  0  0
 12 13  1  0  0  0  0
 12 16  1  0  0  0  0
 13 18  1  0  0  0  0
 14 15  1  0  0  0  0
 14 16  1  0  0  0  0
 15 18  1  0  0  0  0
 16 17  1  0  0  0  0
 17 19  1  0  0  0  0
 18 20  1  0  0  0  0
  1 23  1  0  0  0  0
  2 24  1  0  0  0  0
  3 25  1  0  0  0  0
  8 26  1  0  0  0  0
  8 27  1  0  0  0  0
  9 28  1  0  0  0  0
  9 29  1  0  0  0  0
 10 30  1  0  0  0  0
 10 31  1  0  0  0  0
 11 32  1  0  0  0  0
 11 33  1  0  0  0  0
 12 34  1  0  0  0  0
 12 35  1  0  0  0  0
 13 36  1  0  0  0  0
 13 37  1  0  0  0  0
 14 38  1  0  0  0  0
 15 39  1  0  0  0  0
 16 40  1  0  0  0  0
 19 41  1  0  0  0  0
 19 42  1  0  0  0  0
 19 43  1  0  0  0  0
 20 44  1  0  0  0  0
 20 45  1  0  0  0  0
 20 46  1  0  0  0  0
M  END
> <Hybrid2>
-9.209402

> <docked_fragment>
x0749

> <Mpro-_dock>
0.370902

> <site>
active-covalent

$$$$
CHEMBL2110596
  -OEChem-04122014263D

 36 38  0     0  0  0  0  0  0999 V2000
   14.2389   -2.4523   23.1407 C   0  0  0  0  0  0  0  0  0  0  0  0
    9.3628   -0.6835   25.7259 C   0  0  0  0  0  0  0  0  0  0  0  0
   14.5303   -1.8792   21.9083 C   0  0  0  0  0  0  0  0  0  0  0  0
    8.1909   -0.8173   24.9900 C   0  0  0  0  0  0  0  0  0  0  0  0
   12.9958   -2.2338   23.7371 C   0  0  0  0  0  0  0  0  0  0  0  0
   10.6006   -0.8898   25.1139 C   0  0  0  0  0  0  0  0  0  0  0  0
   13.5803   -1.0851   21.2704 C   0  0  0  0  0  0  0  0  0  0  0  0
    8.2539   -1.1591   23.6413 C   0  0  0  0  0  0  0  0  0  0  0  0
   12.0171   -1.4353   23.1151 C   0  0  0  0  0  0  0  0  0  0  0  0
   10.6936   -1.2372   23.7529 C   0  0  0  0  0  0  0  0  0  0  0  0
   12.3273   -0.8543   21.8606 C   0  0  0  0  0  0  0  0  0  0  0  0
    9.4921   -1.3728   23.0149 C   0  0  0  0  0  0  0  0  0  0  0  0
    6.8308   -0.4187   19.2532 C   0  0  0  0  0  0  0  0  0  0  0  0
    8.1531   -0.2809   19.1066 C   0  0  0  0  0  0  0  0  0  0  0  0
   11.3295    0.0250   21.1471 C   0  0  0  0  0  0  0  0  0  0  0  0
    9.5223   -1.7494   21.5545 C   0  0  0  0  0  0  0  0  0  0  0  0
    9.0530    0.2861   20.1547 C   0  0  0  0  0  0  0  0  0  0  0  0
   10.0969   -0.6943   20.6223 N   0  3  0  0  0  0  0  0  0  0  0  0
   14.9804   -3.0663   23.6435 H   0  0  0  0  0  0  0  0  0  0  0  0
    9.3163   -0.4228   26.7793 H   0  0  0  0  0  0  0  0  0  0  0  0
   15.4971   -2.0494   21.4437 H   0  0  0  0  0  0  0  0  0  0  0  0
    7.2282   -0.6561   25.4658 H   0  0  0  0  0  0  0  0  0  0  0  0
   12.8044   -2.6875   24.7078 H   0  0  0  0  0  0  0  0  0  0  0  0
   11.4975   -0.7880   25.7218 H   0  0  0  0  0  0  0  0  0  0  0  0
   13.8225   -0.6463   20.3053 H   0  0  0  0  0  0  0  0  0  0  0  0
    7.3285   -1.2559   23.0791 H   0  0  0  0  0  0  0  0  0  0  0  0
    6.2307   -0.8427   18.4555 H   0  0  0  0  0  0  0  0  0  0  0  0
    6.3261   -0.1150   20.1636 H   0  0  0  0  0  0  0  0  0  0  0  0
    8.6105   -0.6061   18.1758 H   0  0  0  0  0  0  0  0  0  0  0  0
   10.9784    0.8427   21.7856 H   0  0  0  0  0  0  0  0  0  0  0  0
   11.8043    0.5019   20.2818 H   0  0  0  0  0  0  0  0  0  0  0  0
   10.1286   -2.6505   21.3936 H   0  0  0  0  0  0  0  0  0  0  0  0
    8.5062   -1.9844   21.2084 H   0  0  0  0  0  0  0  0  0  0  0  0
    8.4731    0.5643   21.0400 H   0  0  0  0  0  0  0  0  0  0  0  0
    9.5979    1.1682   19.8036 H   0  0  0  0  0  0  0  0  0  0  0  0
   10.4133   -1.1905   19.7777 H   0  0  0  0  0  0  0  0  0  0  0  0
  1  3  1  0  0  0  0
  1  5  2  0  0  0  0
  2  4  1  0  0  0  0
  2  6  2  0  0  0  0
  3  7  2  0  0  0  0
  4  8  2  0  0  0  0
  5  9  1  0  0  0  0
  6 10  1  0  0  0  0
  7 11  1  0  0  0  0
  8 12  1  0  0  0  0
  9 10  1  0  0  0  0
  9 11  2  0  0  0  0
 10 12  2  0  0  0  0
 11 15  1  0  0  0  0
 12 16  1  0  0  0  0
 13 14  2  0  0  0  0
 14 17  1  0  0  0  0
 15 18  1  0  0  0  0
 16 18  1  0  0  0  0
 17 18  1  0  0  0  0
  1 19  1  0  0  0  0
  2 20  1  0  0  0  0
  3 21  1  0  0  0  0
  4 22  1  0  0  0  0
  5 23  1  0  0  0  0
  6 24  1  0  0  0  0
  7 25  1  0  0  0  0
  8 26  1  0  0  0  0
 13 27  1  0  0  0  0
 13 28  1  0  0  0  0
 14 29  1  0  0  0  0
 15 30  1  0  0  0  0
 15 31  1  0  0  0  0
 16 32  1  0  0  0  0
 16 33  1  0  0  0  0
 17 34  1  0  0  0  0
 17 35  1  0  0  0  0
 18 36  1  0  0  0  0
M  CHG  1  18   1
M  END
> <Hybrid2>
-9.193875

> <docked_fragment>
x0678

> <Mpro-_dock>
0.585438

> <site>
active-noncovalent

$$$$
CHEMBL2110950
  -OEChem-04122014263D

 50 52  0     1  0  0  0  0  0999 V2000
    5.2864   -4.7285   24.1608 C   0  0  0  0  0  0  0  0  0  0  0  0
    5.0500   -3.3778   23.9264 C   0  0  0  0  0  0  0  0  0  0  0  0
    6.5953   -5.2029   24.2364 C   0  0  0  0  0  0  0  0  0  0  0  0
    6.1224   -2.5012   23.7675 C   0  0  0  0  0  0  0  0  0  0  0  0
   11.3520   -4.2214   25.0939 C   0  0  0  0  0  0  0  0  0  0  0  0
   12.3211   -3.2768   25.4293 C   0  0  0  0  0  0  0  0  0  0  0  0
   10.8784   -1.5195   24.6259 C   0  0  0  0  0  0  0  0  0  0  0  0
    7.6852   -4.3304   24.0801 C   0  0  0  0  0  0  0  0  0  0  0  0
    7.4462   -2.9652   23.8432 C   0  0  0  0  0  0  0  0  0  0  0  0
   10.1316   -3.8255   24.5214 C   0  0  0  0  0  0  0  0  0  0  0  0
    9.8925   -2.4603   24.2848 C   0  0  0  0  0  0  0  0  0  0  0  0
   12.0843   -1.9261   25.1955 C   0  0  0  0  0  0  0  0  0  0  0  0
    9.0989   -4.8755   24.1573 C   0  0  2  0  0  0  0  0  0  0  0  0
    8.5939   -1.9909   23.6562 C   0  0  1  0  0  0  0  0  0  0  0  0
    9.4797   -5.5768   22.8480 C   0  0  0  0  0  0  0  0  0  0  0  0
    6.4736   -0.6674   17.8681 C   0  0  0  0  0  0  0  0  0  0  0  0
    5.4840   -2.2843   19.4826 C   0  0  0  0  0  0  0  0  0  0  0  0
    8.7972   -1.6726   22.1700 C   0  0  0  0  0  0  0  0  0  0  0  0
    7.4612   -1.5583   21.4469 C   0  0  0  0  0  0  0  0  0  0  0  0
    7.6744   -1.2100   19.9813 C   0  0  0  0  0  0  0  0  0  0  0  0
   13.1196   -0.9136   25.5522 C   0  0  0  0  0  0  0  0  0  0  0  0
    6.3555   -1.0626   19.3201 N   0  3  0  0  0  0  0  0  0  0  0  0
   14.2484   -1.4542   26.0995 F   0  0  0  0  0  0  0  0  0  0  0  0
   13.5570   -0.1799   24.4864 F   0  0  0  0  0  0  0  0  0  0  0  0
   12.6709   -0.0027   26.4643 F   0  0  0  0  0  0  0  0  0  0  0  0
    4.4526   -5.4132   24.2841 H   0  0  0  0  0  0  0  0  0  0  0  0
    4.0314   -3.0060   23.8664 H   0  0  0  0  0  0  0  0  0  0  0  0
    6.7635   -6.2618   24.4181 H   0  0  0  0  0  0  0  0  0  0  0  0
    5.9207   -1.4486   23.5830 H   0  0  0  0  0  0  0  0  0  0  0  0
   11.5529   -5.2736   25.2813 H   0  0  0  0  0  0  0  0  0  0  0  0
   13.2577   -3.6054   25.8720 H   0  0  0  0  0  0  0  0  0  0  0  0
   10.7005   -0.4614   24.4441 H   0  0  0  0  0  0  0  0  0  0  0  0
    9.1065   -5.6191   24.9671 H   0  0  0  0  0  0  0  0  0  0  0  0
    8.3089   -1.0649   24.1759 H   0  0  0  0  0  0  0  0  0  0  0  0
    9.4770   -4.8551   22.0354 H   0  0  0  0  0  0  0  0  0  0  0  0
    8.7607   -6.3633   22.6350 H   0  0  0  0  0  0  0  0  0  0  0  0
   10.4718   -6.0100   22.9434 H   0  0  0  0  0  0  0  0  0  0  0  0
    7.0031   -1.4667   17.3465 H   0  0  0  0  0  0  0  0  0  0  0  0
    5.4638   -0.5420   17.4727 H   0  0  0  0  0  0  0  0  0  0  0  0
    7.0326    0.2692   17.8212 H   0  0  0  0  0  0  0  0  0  0  0  0
    5.9900   -3.1221   18.9993 H   0  0  0  0  0  0  0  0  0  0  0  0
    5.3585   -2.4654   20.5518 H   0  0  0  0  0  0  0  0  0  0  0  0
    4.5249   -2.0765   19.0045 H   0  0  0  0  0  0  0  0  0  0  0  0
    9.3554   -0.7374   22.0891 H   0  0  0  0  0  0  0  0  0  0  0  0
    9.4048   -2.4639   21.7260 H   0  0  0  0  0  0  0  0  0  0  0  0
    6.9123   -2.5049   21.5282 H   0  0  0  0  0  0  0  0  0  0  0  0
    6.8442   -0.7880   21.9262 H   0  0  0  0  0  0  0  0  0  0  0  0
    8.1994   -0.2582   19.8582 H   0  0  0  0  0  0  0  0  0  0  0  0
    8.2112   -1.9989   19.4462 H   0  0  0  0  0  0  0  0  0  0  0  0
    5.8515   -0.2885   19.7864 H   0  0  0  0  0  0  0  0  0  0  0  0
  1  2  1  0  0  0  0
  1  3  2  0  0  0  0
  2  4  2  0  0  0  0
  3  8  1  0  0  0  0
  4  9  1  0  0  0  0
  5  6  1  0  0  0  0
  5 10  2  0  0  0  0
  6 12  2  0  0  0  0
  7 11  2  0  0  0  0
  7 12  1  0  0  0  0
  8  9  2  0  0  0  0
  8 13  1  0  0  0  0
  9 14  1  0  0  0  0
 10 11  1  0  0  0  0
 10 13  1  0  0  0  0
 11 14  1  0  0  0  0
 12 21  1  0  0  0  0
 13 15  1  0  0  0  0
 14 18  1  0  0  0  0
 16 22  1  0  0  0  0
 17 22  1  0  0  0  0
 18 19  1  0  0  0  0
 19 20  1  0  0  0  0
 20 22  1  0  0  0  0
 21 23  1  0  0  0  0
 21 24  1  0  0  0  0
 21 25  1  0  0  0  0
  1 26  1  0  0  0  0
  2 27  1  0  0  0  0
  3 28  1  0  0  0  0
  4 29  1  0  0  0  0
  5 30  1  0  0  0  0
  6 31  1  0  0  0  0
  7 32  1  0  0  0  0
 13 33  1  0  0  0  0
 14 34  1  0  0  0  0
 15 35  1  0  0  0  0
 15 36  1  0  0  0  0
 15 37  1  0  0  0  0
 16 38  1  0  0  0  0
 16 39  1  0  0  0  0
 16 40  1  0  0  0  0
 17 41  1  0  0  0  0
 17 42  1  0  0  0  0
 17 43  1  0  0  0  0
 18 44  1  0  0  0  0
 18 45  1  0  0  0  0
 19 46  1  0  0  0  0
 19 47  1  0  0  0  0
 20 48  1  0  0  0  0
 20 49  1  0  0  0  0
 22 50  1  0  0  0  0
M  CHG  1  22   1
M  END
> <Hybrid2>
-9.184581

> <docked_fragment>
x0749

> <Mpro-_dock>
0.844326

> <site>
active-covalent

$$$$
CHEMBL1908343
  -OEChem-04122014263D

 31 34  0     1  0  0  0  0  0999 V2000
   13.8708   -2.5612   26.2030 C   0  0  0  0  0  0  0  0  0  0  0  0
   12.7757   -3.4164   26.0774 C   0  0  0  0  0  0  0  0  0  0  0  0
   14.0047   -1.4691   25.3487 C   0  0  0  0  0  0  0  0  0  0  0  0
   11.8091   -3.1776   25.0925 C   0  0  0  0  0  0  0  0  0  0  0  0
   11.9424   -2.0843   24.2379 C   0  0  0  0  0  0  0  0  0  0  0  0
   13.0436   -1.2284   24.3665 C   0  0  0  0  0  0  0  0  0  0  0  0
   10.6574   -4.0886   24.9696 C   0  0  0  0  0  0  0  0  0  0  0  0
   10.9339   -1.8186   23.1959 C   0  0  0  0  0  0  0  0  0  0  0  0
    9.6513   -3.8001   23.9133 C   0  0  0  0  0  0  0  0  0  0  0  0
    9.7690   -2.7403   23.0994 C   0  0  0  0  0  0  0  0  0  0  0  0
    7.8395   -6.5160   22.6122 C   0  0  0  0  0  0  0  0  0  0  0  0
    8.4727   -4.7227   23.8172 C   0  0  1  0  0  0  0  0  0  0  0  0
    8.7488   -2.4674   22.0179 C   0  0  2  0  0  0  0  0  0  0  0  0
    7.4281   -4.3104   22.8093 C   0  0  2  0  0  0  0  0  0  0  0  0
    7.8051   -1.3190   22.3739 C   0  0  0  0  0  0  0  0  0  0  0  0
   13.2427   -0.2000   23.6231 O   0  5  0  0  0  0  0  0  0  0  0  0
   10.5394   -5.0515   25.7190 O   0  0  0  0  0  0  0  0  0  0  0  0
   11.0611   -0.8650   22.4362 O   0  0  0  0  0  0  0  0  0  0  0  0
    7.7753   -7.6667   22.2068 O   0  0  0  0  0  0  0  0  0  0  0  0
    8.8855   -5.9979   23.3241 O   0  0  0  0  0  0  0  0  0  0  0  0
    6.8757   -5.5659   22.4172 O   0  0  0  0  0  0  0  0  0  0  0  0
    8.0031   -3.6479   21.6853 O   0  0  0  0  0  0  0  0  0  0  0  0
   14.6195   -2.7480   26.9675 H   0  0  0  0  0  0  0  0  0  0  0  0
   12.6943   -4.2617   26.7556 H   0  0  0  0  0  0  0  0  0  0  0  0
   14.8720   -0.8220   25.4752 H   0  0  0  0  0  0  0  0  0  0  0  0
    8.0159   -4.8802   24.8024 H   0  0  0  0  0  0  0  0  0  0  0  0
    9.2729   -2.2025   21.0917 H   0  0  0  0  0  0  0  0  0  0  0  0
    6.6388   -3.6927   23.2492 H   0  0  0  0  0  0  0  0  0  0  0  0
    7.2697   -1.5542   23.2917 H   0  0  0  0  0  0  0  0  0  0  0  0
    7.0877   -1.1699   21.5693 H   0  0  0  0  0  0  0  0  0  0  0  0
    8.3771   -0.4043   22.5177 H   0  0  0  0  0  0  0  0  0  0  0  0
  1  2  2  0  0  0  0
  1  3  1  0  0  0  0
  2  4  1  0  0  0  0
  3  6  2  0  0  0  0
  4  5  2  0  0  0  0
  4  7  1  0  0  0  0
  5  6  1  0  0  0  0
  5  8  1  0  0  0  0
  6 16  1  0  0  0  0
  7  9  1  0  0  0  0
  7 17  2  0  0  0  0
  8 10  1  0  0  0  0
  8 18  2  0  0  0  0
  9 10  2  0  0  0  0
  9 12  1  0  0  0  0
 10 13  1  0  0  0  0
 11 19  2  0  0  0  0
 11 20  1  0  0  0  0
 11 21  1  0  0  0  0
 12 14  1  0  0  0  0
 12 20  1  0  0  0  0
 13 15  1  0  0  0  0
 13 22  1  0  0  0  0
 14 21  1  0  0  0  0
 14 22  1  0  0  0  0
  1 23  1  0  0  0  0
  2 24  1  0  0  0  0
  3 25  1  0  0  0  0
 12 26  1  0  0  0  0
 13 27  1  0  0  0  0
 14 28  1  0  0  0  0
 15 29  1  0  0  0  0
 15 30  1  0  0  0  0
 15 31  1  0  0  0  0
M  CHG  1  16  -1
M  END
> <Hybrid2>
-9.175071

> <docked_fragment>
x0749

> <Mpro-_dock>
1.170335

> <site>
active-covalent

$$$$
CHEMBL643
  -OEChem-04122014263D

 41 43  0     1  0  0  0  0  0999 V2000
   14.1981   -0.3144   22.1336 C   0  0  0  0  0  0  0  0  0  0  0  0
    8.0431   -0.0620   26.1203 C   0  0  0  0  0  0  0  0  0  0  0  0
   13.8827   -1.5257   21.5372 C   0  0  0  0  0  0  0  0  0  0  0  0
    7.5577   -1.2663   25.6335 C   0  0  0  0  0  0  0  0  0  0  0  0
   13.2342    0.3682   22.8807 C   0  0  0  0  0  0  0  0  0  0  0  0
    9.1563    0.5352   25.5227 C   0  0  0  0  0  0  0  0  0  0  0  0
   12.6061   -2.0550   21.6946 C   0  0  0  0  0  0  0  0  0  0  0  0
    8.1907   -1.8740   24.5544 C   0  0  0  0  0  0  0  0  0  0  0  0
   11.9255   -0.1343   23.0506 C   0  0  0  0  0  0  0  0  0  0  0  0
    9.8151   -0.0480   24.4181 C   0  0  0  0  0  0  0  0  0  0  0  0
   11.6340   -1.3749   22.4496 C   0  0  0  0  0  0  0  0  0  0  0  0
    9.3143   -1.2799   23.9525 C   0  0  0  0  0  0  0  0  0  0  0  0
   11.8618    4.1591   22.9251 C   0  0  0  0  0  0  0  0  0  0  0  0
    9.2686    1.7696   21.5919 C   0  0  0  0  0  0  0  0  0  0  0  0
    8.8790    3.4617   23.3768 C   0  0  0  0  0  0  0  0  0  0  0  0
   11.1751    1.9810   24.0735 C   0  0  0  0  0  0  0  0  0  0  0  0
   11.2026    2.7940   22.7802 C   0  0  1  0  0  0  0  0  0  0  0  0
   10.9517    0.5518   23.8195 N   0  0  0  0  0  0  0  0  0  0  0  0
    9.8099    2.9906   22.2895 N   0  3  0  0  0  0  0  0  0  0  0  0
   10.0276   -2.1373   22.5631 S   0  0  0  0  0  0  0  0  0  0  0  0
   15.1952    0.1025   22.0258 H   0  0  0  0  0  0  0  0  0  0  0  0
    7.5627    0.4155   26.9694 H   0  0  0  0  0  0  0  0  0  0  0  0
   14.6275   -2.0596   20.9552 H   0  0  0  0  0  0  0  0  0  0  0  0
    6.6928   -1.7340   26.0937 H   0  0  0  0  0  0  0  0  0  0  0  0
   13.5453    1.2996   23.3483 H   0  0  0  0  0  0  0  0  0  0  0  0
    9.5097    1.4647   25.9631 H   0  0  0  0  0  0  0  0  0  0  0  0
   12.3782   -3.0077   21.2205 H   0  0  0  0  0  0  0  0  0  0  0  0
    7.7964   -2.8197   24.1879 H   0  0  0  0  0  0  0  0  0  0  0  0
   11.3615    4.7476   23.7012 H   0  0  0  0  0  0  0  0  0  0  0  0
   12.9132    4.0530   23.2138 H   0  0  0  0  0  0  0  0  0  0  0  0
   11.8311    4.7319   21.9920 H   0  0  0  0  0  0  0  0  0  0  0  0
    9.2334    0.9571   22.3199 H   0  0  0  0  0  0  0  0  0  0  0  0
    8.2696    2.0105   21.2237 H   0  0  0  0  0  0  0  0  0  0  0  0
    9.9432    1.5291   20.7679 H   0  0  0  0  0  0  0  0  0  0  0  0
    8.8361    2.6827   24.1402 H   0  0  0  0  0  0  0  0  0  0  0  0
    9.2843    4.3895   23.7848 H   0  0  0  0  0  0  0  0  0  0  0  0
    7.8974    3.6259   22.9282 H   0  0  0  0  0  0  0  0  0  0  0  0
   12.1201    2.1009   24.6152 H   0  0  0  0  0  0  0  0  0  0  0  0
   10.3800    2.3531   24.7289 H   0  0  0  0  0  0  0  0  0  0  0  0
   11.7160    2.2208   22.0005 H   0  0  0  0  0  0  0  0  0  0  0  0
    9.8332    3.7423   21.5820 H   0  0  0  0  0  0  0  0  0  0  0  0
  1  3  1  0  0  0  0
  1  5  2  0  0  0  0
  2  4  2  0  0  0  0
  2  6  1  0  0  0  0
  3  7  2  0  0  0  0
  4  8  1  0  0  0  0
  5  9  1  0  0  0  0
  6 10  2  0  0  0  0
  7 11  1  0  0  0  0
  8 12  2  0  0  0  0
  9 11  2  0  0  0  0
  9 18  1  0  0  0  0
 10 12  1  0  0  0  0
 10 18  1  0  0  0  0
 11 20  1  0  0  0  0
 12 20  1  0  0  0  0
 13 17  1  0  0  0  0
 14 19  1  0  0  0  0
 15 19  1  0  0  0  0
 16 17  1  0  0  0  0
 16 18  1  0  0  0  0
 17 19  1  0  0  0  0
  1 21  1  0  0  0  0
  2 22  1  0  0  0  0
  3 23  1  0  0  0  0
  4 24  1  0  0  0  0
  5 25  1  0  0  0  0
  6 26  1  0  0  0  0
  7 27  1  0  0  0  0
  8 28  1  0  0  0  0
 13 29  1  0  0  0  0
 13 30  1  0  0  0  0
 13 31  1  0  0  0  0
 14 32  1  0  0  0  0
 14 33  1  0  0  0  0
 14 34  1  0  0  0  0
 15 35  1  0  0  0  0
 15 36  1  0  0  0  0
 15 37  1  0  0  0  0
 16 38  1  0  0  0  0
 16 39  1  0  0  0  0
 17 40  1  0  0  0  0
 19 41  1  0  0  0  0
M  CHG  1  19   1
M  END
> <Hybrid2>
-9.174159

> <docked_fragment>
x0874

> <Mpro-_dock>
-0.267103

> <site>
active-noncovalent

$$$$
CHEMBL17860
  -OEChem-04122014263D

 29 30  0     1  0  0  0  0  0999 V2000
   14.3894   -1.3519   23.7667 C   0  0  0  0  0  0  0  0  0  0  0  0
   13.4741   -0.3549   24.1039 C   0  0  0  0  0  0  0  0  0  0  0  0
   14.2635   -2.0339   22.5564 C   0  0  0  0  0  0  0  0  0  0  0  0
   12.3067   -0.7220   22.0207 C   0  0  0  0  0  0  0  0  0  0  0  0
   12.4327   -0.0400   23.2310 C   0  0  0  0  0  0  0  0  0  0  0  0
   13.2221   -1.7189   21.6835 C   0  0  0  0  0  0  0  0  0  0  0  0
    9.0293   -0.1762   20.6157 C   0  0  0  0  0  0  0  0  0  0  0  0
    7.1741    0.6740   19.6254 C   0  0  0  0  0  0  0  0  0  0  0  0
    8.1467    0.1610   18.5536 C   0  0  0  0  0  0  0  0  0  0  0  0
    9.7629   -2.0324   22.0974 C   0  0  0  0  0  0  0  0  0  0  0  0
    9.9597   -0.5788   21.6645 C   0  0  1  0  0  0  0  0  0  0  0  0
    7.8696    0.3935   20.8853 N   0  0  0  0  0  0  0  0  0  0  0  0
    9.2783   -0.3531   19.3318 N   0  3  0  0  0  0  0  0  0  0  0  0
   11.2861   -0.4127   21.1641 O   0  0  0  0  0  0  0  0  0  0  0  0
   11.3175    1.1987   23.6780 Cl  0  0  0  0  0  0  0  0  0  0  0  0
   13.0927   -2.5819   20.1946 Cl  0  0  0  0  0  0  0  0  0  0  0  0
   15.2001   -1.5980   24.4464 H   0  0  0  0  0  0  0  0  0  0  0  0
   13.5859    0.1667   25.0508 H   0  0  0  0  0  0  0  0  0  0  0  0
   14.9849   -2.8087   22.3085 H   0  0  0  0  0  0  0  0  0  0  0  0
    6.9970    1.7492   19.5363 H   0  0  0  0  0  0  0  0  0  0  0  0
    6.2225    0.1360   19.6055 H   0  0  0  0  0  0  0  0  0  0  0  0
    7.7121   -0.6482   17.9604 H   0  0  0  0  0  0  0  0  0  0  0  0
    8.4902    0.9636   17.8955 H   0  0  0  0  0  0  0  0  0  0  0  0
    9.8543   -2.7225   21.2522 H   0  0  0  0  0  0  0  0  0  0  0  0
    8.7618   -2.1775   22.5189 H   0  0  0  0  0  0  0  0  0  0  0  0
   10.4958   -2.3099   22.8615 H   0  0  0  0  0  0  0  0  0  0  0  0
    9.8597    0.0823   22.5449 H   0  0  0  0  0  0  0  0  0  0  0  0
    7.5754    0.5766   21.8379 H   0  0  0  0  0  0  0  0  0  0  0  0
   10.1377   -0.7823   19.0083 H   0  0  0  0  0  0  0  0  0  0  0  0
  1  2  1  0  0  0  0
  1  3  2  0  0  0  0
  2  5  2  0  0  0  0
  3  6  1  0  0  0  0
  4  5  1  0  0  0  0
  4  6  2  0  0  0  0
  4 14  1  0  0  0  0
  5 15  1  0  0  0  0
  6 16  1  0  0  0  0
  7 11  1  0  0  0  0
  7 12  1  0  0  0  0
  7 13  2  0  0  0  0
  8  9  1  0  0  0  0
  8 12  1  0  0  0  0
  9 13  1  0  0  0  0
 10 11  1  0  0  0  0
 11 14  1  0  0  0  0
  1 17  1  0  0  0  0
  2 18  1  0  0  0  0
  3 19  1  0  0  0  0
  8 20  1  0  0  0  0
  8 21  1  0  0  0  0
  9 22  1  0  0  0  0
  9 23  1  0  0  0  0
 10 24  1  0  0  0  0
 10 25  1  0  0  0  0
 10 26  1  0  0  0  0
 11 27  1  0  0  0  0
 12 28  1  0  0  0  0
 13 29  1  0  0  0  0
M  CHG  1  13   1
M  END
> <Hybrid2>
-9.172547

> <docked_fragment>
x0678

> <Mpro-_dock>
0.242563

> <site>
active-noncovalent

$$$$
CHEMBL644
  -OEChem-04122014263D

 49 51  0     1  0  0  0  0  0999 V2000
    7.4539   -5.3045   26.2128 C   0  0  0  0  0  0  0  0  0  0  0  0
   12.5970    0.1513   24.3596 C   0  0  0  0  0  0  0  0  0  0  0  0
    7.5720   -5.5697   24.8622 C   0  0  0  0  0  0  0  0  0  0  0  0
   12.7004   -0.7737   23.3300 C   0  0  0  0  0  0  0  0  0  0  0  0
    7.9603   -4.1118   26.7146 C   0  0  0  0  0  0  0  0  0  0  0  0
   11.4465    0.1835   25.1423 C   0  0  0  0  0  0  0  0  0  0  0  0
    8.2044   -4.6454   24.0271 C   0  0  0  0  0  0  0  0  0  0  0  0
   11.6518   -1.6623   23.0853 C   0  0  0  0  0  0  0  0  0  0  0  0
    8.5865   -3.1516   25.8812 C   0  0  0  0  0  0  0  0  0  0  0  0
   10.3871   -0.7100   24.9027 C   0  0  0  0  0  0  0  0  0  0  0  0
    8.7369   -3.4149   24.4977 C   0  0  0  0  0  0  0  0  0  0  0  0
   10.4737   -1.6513   23.8635 C   0  0  0  0  0  0  0  0  0  0  0  0
    9.0453   -1.9023   26.6033 C   0  0  0  0  0  0  0  0  0  0  0  0
    9.1572   -0.6418   25.7612 C   0  0  0  0  0  0  0  0  0  0  0  0
    6.5938   -2.8132   22.1031 C   0  0  0  0  0  0  0  0  0  0  0  0
    9.1762    0.3026   20.5668 C   0  0  0  0  0  0  0  0  0  0  0  0
    8.7790    1.6476   22.6244 C   0  0  0  0  0  0  0  0  0  0  0  0
    9.1223   -2.7110   22.1555 C   0  0  0  0  0  0  0  0  0  0  0  0
    7.6881   -0.5751   22.3604 C   0  0  0  0  0  0  0  0  0  0  0  0
    7.8308   -1.9775   21.7553 C   0  0  2  0  0  0  0  0  0  0  0  0
    9.4172   -2.5579   23.5892 N   0  0  0  0  0  0  0  0  0  0  0  0
    8.8739    0.2569   22.0450 N   0  3  0  0  0  0  0  0  0  0  0  0
    6.9733   -6.0177   26.8748 H   0  0  0  0  0  0  0  0  0  0  0  0
   13.4089    0.8450   24.5549 H   0  0  0  0  0  0  0  0  0  0  0  0
    7.1882   -6.4989   24.4516 H   0  0  0  0  0  0  0  0  0  0  0  0
   13.5960   -0.8088   22.7168 H   0  0  0  0  0  0  0  0  0  0  0  0
    7.8576   -3.9197   27.7816 H   0  0  0  0  0  0  0  0  0  0  0  0
   11.3791    0.9128   25.9460 H   0  0  0  0  0  0  0  0  0  0  0  0
    8.2986   -4.9336   22.9820 H   0  0  0  0  0  0  0  0  0  0  0  0
   11.7749   -2.3830   22.2794 H   0  0  0  0  0  0  0  0  0  0  0  0
    8.3165   -1.6808   27.3951 H   0  0  0  0  0  0  0  0  0  0  0  0
    9.9984   -2.1230   27.1021 H   0  0  0  0  0  0  0  0  0  0  0  0
    9.2200    0.2256   26.4303 H   0  0  0  0  0  0  0  0  0  0  0  0
    8.2680   -0.4831   25.1385 H   0  0  0  0  0  0  0  0  0  0  0  0
    6.5160   -2.9545   23.1867 H   0  0  0  0  0  0  0  0  0  0  0  0
    5.6790   -2.3136   21.7673 H   0  0  0  0  0  0  0  0  0  0  0  0
    6.6313   -3.8041   21.6386 H   0  0  0  0  0  0  0  0  0  0  0  0
    8.3227    0.7625   20.0655 H   0  0  0  0  0  0  0  0  0  0  0  0
   10.0805    0.8984   20.4289 H   0  0  0  0  0  0  0  0  0  0  0  0
    9.3261   -0.7232   20.2247 H   0  0  0  0  0  0  0  0  0  0  0  0
    7.9160    2.1397   22.1720 H   0  0  0  0  0  0  0  0  0  0  0  0
    8.6548    1.5518   23.7047 H   0  0  0  0  0  0  0  0  0  0  0  0
    9.7035    2.1748   22.3809 H   0  0  0  0  0  0  0  0  0  0  0  0
    9.0309   -3.7785   21.9252 H   0  0  0  0  0  0  0  0  0  0  0  0
    9.9725   -2.3396   21.5741 H   0  0  0  0  0  0  0  0  0  0  0  0
    7.5918   -0.5922   23.4503 H   0  0  0  0  0  0  0  0  0  0  0  0
    6.8251   -0.0503   21.9380 H   0  0  0  0  0  0  0  0  0  0  0  0
    7.8491   -1.8741   20.6616 H   0  0  0  0  0  0  0  0  0  0  0  0
    9.6978   -0.1823   22.4912 H   0  0  0  0  0  0  0  0  0  0  0  0
  1  3  1  0  0  0  0
  1  5  2  0  0  0  0
  2  4  2  0  0  0  0
  2  6  1  0  0  0  0
  3  7  2  0  0  0  0
  4  8  1  0  0  0  0
  5  9  1  0  0  0  0
  6 10  2  0  0  0  0
  7 11  1  0  0  0  0
  8 12  2  0  0  0  0
  9 11  2  0  0  0  0
  9 13  1  0  0  0  0
 10 12  1  0  0  0  0
 10 14  1  0  0  0  0
 11 21  1  0  0  0  0
 12 21  1  0  0  0  0
 13 14  1  0  0  0  0
 15 20  1  0  0  0  0
 16 22  1  0  0  0  0
 17 22  1  0  0  0  0
 18 20  1  0  0  0  0
 18 21  1  0  0  0  0
 19 20  1  0  0  0  0
 19 22  1  0  0  0  0
  1 23  1  0  0  0  0
  2 24  1  0  0  0  0
  3 25  1  0  0  0  0
  4 26  1  0  0  0  0
  5 27  1  0  0  0  0
  6 28  1  0  0  0  0
  7 29  1  0  0  0  0
  8 30  1  0  0  0  0
 13 31  1  0  0  0  0
 13 32  1  0  0  0  0
 14 33  1  0  0  0  0
 14 34  1  0  0  0  0
 15 35  1  0  0  0  0
 15 36  1  0  0  0  0
 15 37  1  0  0  0  0
 16 38  1  0  0  0  0
 16 39  1  0  0  0  0
 16 40  1  0  0  0  0
 17 41  1  0  0  0  0
 17 42  1  0  0  0  0
 17 43  1  0  0  0  0
 18 44  1  0  0  0  0
 18 45  1  0  0  0  0
 19 46  1  0  0  0  0
 19 47  1  0  0  0  0
 20 48  1  0  0  0  0
 22 49  1  0  0  0  0
M  CHG  1  22   1
M  END
> <Hybrid2>
-9.171801

> <docked_fragment>
x0072

> <Mpro-_dock>
0.69771

> <site>
active-noncovalent

$$$$
CHEMBL1328968
  -OEChem-04122014263D

 61 64  0     1  0  0  0  0  0999 V2000
   12.8891    2.1446   22.9357 C   0  0  0  0  0  0  0  0  0  0  0  0
   11.2740   -1.1103   22.3268 C   0  0  0  0  0  0  0  0  0  0  0  0
   11.9101    1.2304   22.7906 C   0  0  0  0  0  0  0  0  0  0  0  0
   12.2024   -0.1347   22.3076 C   0  0  0  0  0  0  0  0  0  0  0  0
   12.6289    3.5291   23.4001 C   0  0  0  0  0  0  0  0  0  0  0  0
    8.4226   -4.3373   23.8017 C   0  0  0  0  0  0  0  0  0  0  0  0
    8.3115   -5.6703   23.7332 C   0  0  0  0  0  0  0  0  0  0  0  0
    6.2004   -3.8090   24.8592 C   0  0  0  0  0  0  0  0  0  0  0  0
    8.2230   -4.7491   26.5858 C   0  0  0  0  0  0  0  0  0  0  0  0
   11.2185    3.9330   23.7296 C   0  0  0  0  0  0  0  0  0  0  0  0
    9.3932   -3.5432   22.9499 C   0  0  0  0  0  0  0  0  0  0  0  0
   10.3866    2.7314   24.1488 C   0  0  0  0  0  0  0  0  0  0  0  0
    8.3439    0.4820   24.3286 C   0  0  0  0  0  0  0  0  0  0  0  0
    7.7902   -0.7934   24.9954 C   0  0  0  0  0  0  0  0  0  0  0  0
    9.8739   -0.9476   22.8513 C   0  0  1  0  0  0  0  0  0  0  0  0
    9.3625   -2.1716   23.6271 C   0  0  1  0  0  0  0  0  0  0  0  0
    9.7840    0.2894   23.7913 C   0  0  1  0  0  0  0  0  0  0  0  0
   10.4391    1.5555   23.1346 C   0  0  2  0  0  0  0  0  0  0  0  0
    7.6464   -3.4113   24.7252 C   0  0  2  0  0  0  0  0  0  0  0  0
    7.8781   -2.0189   24.0674 C   0  0  1  0  0  0  0  0  0  0  0  0
   13.5660   -0.4413   21.7384 C   0  0  0  0  0  0  0  0  0  0  0  0
    5.3435   -2.9544   25.7534 C   0  0  0  0  0  0  0  0  0  0  0  0
    9.6273   -5.1954   26.8589 C   0  0  0  0  0  0  0  0  0  0  0  0
    9.7052    1.9760   21.8388 C   0  0  0  0  0  0  0  0  0  0  0  0
    6.9009   -1.8132   22.8715 C   0  0  0  0  0  0  0  0  0  0  0  0
   13.5575    4.3335   23.4630 O   0  0  0  0  0  0  0  0  0  0  0  0
    5.7416   -4.7835   24.2651 O   0  0  0  0  0  0  0  0  0  0  0  0
    7.2299   -5.4163   26.8423 O   0  0  0  0  0  0  0  0  0  0  0  0
    8.2316   -3.5053   26.0166 O   0  0  0  0  0  0  0  0  0  0  0  0
   13.9289    1.9329   22.7106 H   0  0  0  0  0  0  0  0  0  0  0  0
   11.5258   -2.0818   21.9083 H   0  0  0  0  0  0  0  0  0  0  0  0
    7.6045   -6.1954   24.3609 H   0  0  0  0  0  0  0  0  0  0  0  0
    8.9275   -6.2385   23.0496 H   0  0  0  0  0  0  0  0  0  0  0  0
   11.2491    4.6506   24.5572 H   0  0  0  0  0  0  0  0  0  0  0  0
   10.7883    4.4392   22.8600 H   0  0  0  0  0  0  0  0  0  0  0  0
   10.3977   -3.9775   22.9724 H   0  0  0  0  0  0  0  0  0  0  0  0
    9.0471   -3.4902   21.9124 H   0  0  0  0  0  0  0  0  0  0  0  0
   10.7475    2.3851   25.1275 H   0  0  0  0  0  0  0  0  0  0  0  0
    9.3545    3.0705   24.2970 H   0  0  0  0  0  0  0  0  0  0  0  0
    7.6743    0.8046   23.5254 H   0  0  0  0  0  0  0  0  0  0  0  0
    8.3251    1.2755   25.0835 H   0  0  0  0  0  0  0  0  0  0  0  0
    8.3682   -0.9621   25.9120 H   0  0  0  0  0  0  0  0  0  0  0  0
    6.7533   -0.6243   25.3094 H   0  0  0  0  0  0  0  0  0  0  0  0
    9.2398   -0.8038   21.9705 H   0  0  0  0  0  0  0  0  0  0  0  0
    9.9918   -2.2575   24.5297 H   0  0  0  0  0  0  0  0  0  0  0  0
   10.3937    0.0590   24.6820 H   0  0  0  0  0  0  0  0  0  0  0  0
   13.5627   -0.2242   20.6757 H   0  0  0  0  0  0  0  0  0  0  0  0
   13.7910   -1.4899   21.9029 H   0  0  0  0  0  0  0  0  0  0  0  0
   14.3057    0.1728   22.2411 H   0  0  0  0  0  0  0  0  0  0  0  0
    4.8943   -2.1455   25.1705 H   0  0  0  0  0  0  0  0  0  0  0  0
    5.9594   -2.5199   26.5447 H   0  0  0  0  0  0  0  0  0  0  0  0
    4.5460   -3.5626   26.1870 H   0  0  0  0  0  0  0  0  0  0  0  0
   10.0207   -5.7331   25.9926 H   0  0  0  0  0  0  0  0  0  0  0  0
    9.6485   -5.8298   27.7486 H   0  0  0  0  0  0  0  0  0  0  0  0
   10.2571   -4.3198   27.0412 H   0  0  0  0  0  0  0  0  0  0  0  0
    8.6751    2.2037   22.0795 H   0  0  0  0  0  0  0  0  0  0  0  0
    9.7502    1.1585   21.1314 H   0  0  0  0  0  0  0  0  0  0  0  0
   10.1939    2.8503   21.4292 H   0  0  0  0  0  0  0  0  0  0  0  0
    6.9687   -2.6755   22.2269 H   0  0  0  0  0  0  0  0  0  0  0  0
    7.1957   -0.9199   22.3435 H   0  0  0  0  0  0  0  0  0  0  0  0
    5.9017   -1.7102   23.2649 H   0  0  0  0  0  0  0  0  0  0  0  0
  1  3  2  0  0  0  0
  1  5  1  0  0  0  0
  2  4  2  0  0  0  0
  2 15  1  0  0  0  0
  3  4  1  0  0  0  0
  3 18  1  0  0  0  0
  4 21  1  0  0  0  0
  5 10  1  0  0  0  0
  5 26  2  0  0  0  0
  6  7  2  0  0  0  0
  6 11  1  0  0  0  0
  6 19  1  0  0  0  0
  8 19  1  0  0  0  0
  8 22  1  0  0  0  0
  8 27  2  0  0  0  0
  9 23  1  0  0  0  0
  9 28  2  0  0  0  0
  9 29  1  0  0  0  0
 10 12  1  0  0  0  0
 11 16  1  0  0  0  0
 12 18  1  0  0  0  0
 13 14  1  0  0  0  0
 13 17  1  0  0  0  0
 14 20  1  0  0  0  0
 15 16  1  0  0  0  0
 15 17  1  0  0  0  0
 16 20  1  0  0  0  0
 17 18  1  0  0  0  0
 18 24  1  0  0  0  0
 19 20  1  0  0  0  0
 19 29  1  0  0  0  0
 20 25  1  0  0  0  0
  1 30  1  0  0  0  0
  2 31  1  0  0  0  0
  7 32  1  0  0  0  0
  7 33  1  0  0  0  0
 10 34  1  0  0  0  0
 10 35  1  0  0  0  0
 11 36  1  0  0  0  0
 11 37  1  0  0  0  0
 12 38  1  0  0  0  0
 12 39  1  0  0  0  0
 13 40  1  0  0  0  0
 13 41  1  0  0  0  0
 14 42  1  0  0  0  0
 14 43  1  0  0  0  0
 15 44  1  0  0  0  0
 16 45  1  0  0  0  0
 17 46  1  0  0  0  0
 21 47  1  0  0  0  0
 21 48  1  0  0  0  0
 21 49  1  0  0  0  0
 22 50  1  0  0  0  0
 22 51  1  0  0  0  0
 22 52  1  0  0  0  0
 23 53  1  0  0  0  0
 23 54  1  0  0  0  0
 23 55  1  0  0  0  0
 24 56  1  0  0  0  0
 24 57  1  0  0  0  0
 24 58  1  0  0  0  0
 25 59  1  0  0  0  0
 25 60  1  0  0  0  0
 25 61  1  0  0  0  0
M  END
> <Hybrid2>
-9.169950

> <docked_fragment>
x0874

> <Mpro-_dock>
4.090681

> <site>
active-noncovalent

$$$$
CHEMBL2110830
  -OEChem-04122014263D

 49 52  0     1  0  0  0  0  0999 V2000
    7.5468   -7.6374   20.9415 C   0  0  0  0  0  0  0  0  0  0  0  0
    7.0475   -6.8149   21.6593 C   0  0  0  0  0  0  0  0  0  0  0  0
   12.2374   -3.6987   25.3958 C   0  0  0  0  0  0  0  0  0  0  0  0
   13.2130   -2.8912   25.9836 C   0  0  0  0  0  0  0  0  0  0  0  0
   12.3013   -0.9735   24.8524 C   0  0  0  0  0  0  0  0  0  0  0  0
   11.2632   -3.1548   24.5417 C   0  0  0  0  0  0  0  0  0  0  0  0
   11.3230   -1.7784   24.2456 C   0  0  0  0  0  0  0  0  0  0  0  0
   13.2411   -1.5276   25.7174 C   0  0  0  0  0  0  0  0  0  0  0  0
   10.3262   -1.1257   23.3232 C   0  0  0  0  0  0  0  0  0  0  0  0
    9.6344   -5.1391   24.7954 C   0  0  0  0  0  0  0  0  0  0  0  0
    6.9406   -3.4769   21.8245 C   0  0  0  0  0  0  0  0  0  0  0  0
    5.9039   -4.6151   21.6926 C   0  0  0  0  0  0  0  0  0  0  0  0
    8.5433   -5.9943   24.1263 C   0  0  0  0  0  0  0  0  0  0  0  0
    9.6057   -2.1074   22.4103 C   0  0  0  0  0  0  0  0  0  0  0  0
   10.2194   -4.0385   23.8751 C   0  0  1  0  0  0  0  0  0  0  0  0
    8.1158   -4.1346   22.5329 C   0  0  2  0  0  0  0  0  0  0  0  0
    6.4329   -5.8038   22.5421 C   0  0  2  0  0  0  0  0  0  0  0  0
    7.4439   -5.1173   23.5095 C   0  0  1  0  0  0  0  0  0  0  0  0
    6.6587   -4.4334   24.6704 C   0  0  0  0  0  0  0  0  0  0  0  0
   15.1240   -1.3748   27.1621 C   0  0  0  0  0  0  0  0  0  0  0  0
    9.0549   -3.2257   23.2608 N   0  3  2  0  0  0  0  0  0  0  0  0
    5.3500   -6.4132   23.2316 O   0  0  0  0  0  0  0  0  0  0  0  0
   14.1879   -0.7383   26.2932 O   0  0  0  0  0  0  0  0  0  0  0  0
    7.9900   -8.3669   20.3047 H   0  0  0  0  0  0  0  0  0  0  0  0
   12.2592   -4.7625   25.6137 H   0  0  0  0  0  0  0  0  0  0  0  0
   13.9501   -3.3371   26.6460 H   0  0  0  0  0  0  0  0  0  0  0  0
   12.3311    0.0936   24.6423 H   0  0  0  0  0  0  0  0  0  0  0  0
    9.5926   -0.5871   23.9364 H   0  0  0  0  0  0  0  0  0  0  0  0
   10.8362   -0.3845   22.6959 H   0  0  0  0  0  0  0  0  0  0  0  0
    9.2535   -4.6909   25.7209 H   0  0  0  0  0  0  0  0  0  0  0  0
   10.4290   -5.8279   25.1057 H   0  0  0  0  0  0  0  0  0  0  0  0
    7.2190   -3.0838   20.8415 H   0  0  0  0  0  0  0  0  0  0  0  0
    6.5178   -2.6516   22.4087 H   0  0  0  0  0  0  0  0  0  0  0  0
    4.9259   -4.2641   22.0429 H   0  0  0  0  0  0  0  0  0  0  0  0
    5.7753   -4.8892   20.6384 H   0  0  0  0  0  0  0  0  0  0  0  0
    9.0297   -6.6081   23.3585 H   0  0  0  0  0  0  0  0  0  0  0  0
    8.1188   -6.6925   24.8576 H   0  0  0  0  0  0  0  0  0  0  0  0
    8.7733   -1.6044   21.9102 H   0  0  0  0  0  0  0  0  0  0  0  0
   10.2695   -2.5525   21.6605 H   0  0  0  0  0  0  0  0  0  0  0  0
   10.7133   -4.5233   23.0214 H   0  0  0  0  0  0  0  0  0  0  0  0
    8.7258   -4.6618   21.7854 H   0  0  0  0  0  0  0  0  0  0  0  0
    5.8865   -3.8174   24.2378 H   0  0  0  0  0  0  0  0  0  0  0  0
    7.3517   -3.8333   25.2380 H   0  0  0  0  0  0  0  0  0  0  0  0
    6.2289   -5.2062   25.2875 H   0  0  0  0  0  0  0  0  0  0  0  0
   15.8230   -0.6315   27.5532 H   0  0  0  0  0  0  0  0  0  0  0  0
   15.6671   -2.1469   26.6112 H   0  0  0  0  0  0  0  0  0  0  0  0
   14.5827   -1.8348   27.9922 H   0  0  0  0  0  0  0  0  0  0  0  0
    8.5394   -2.7767   24.0281 H   0  0  0  0  0  0  0  0  0  0  0  0
    4.9620   -5.7317   23.8045 H   0  0  0  0  0  0  0  0  0  0  0  0
  1  2  3  0  0  0  0
  2 17  1  0  0  0  0
  3  4  2  0  0  0  0
  3  6  1  0  0  0  0
  4  8  1  0  0  0  0
  5  7  1  0  0  0  0
  5  8  2  0  0  0  0
  6  7  2  0  0  0  0
  6 15  1  0  0  0  0
  7  9  1  0  0  0  0
  8 23  1  0  0  0  0
  9 14  1  0  0  0  0
 10 13  1  0  0  0  0
 10 15  1  0  0  0  0
 11 12  1  0  0  0  0
 11 16  1  0  0  0  0
 12 17  1  0  0  0  0
 13 18  1  0  0  0  0
 14 21  1  0  0  0  0
 15 21  1  0  0  0  0
 16 18  1  0  0  0  0
 16 21  1  0  0  0  0
 17 18  1  0  0  0  0
 17 22  1  0  0  0  0
 18 19  1  0  0  0  0
 20 23  1  0  0  0  0
  1 24  1  0  0  0  0
  3 25  1  0  0  0  0
  4 26  1  0  0  0  0
  5 27  1  0  0  0  0
  9 28  1  0  0  0  0
  9 29  1  0  0  0  0
 10 30  1  0  0  0  0
 10 31  1  0  0  0  0
 11 32  1  0  0  0  0
 11 33  1  0  0  0  0
 12 34  1  0  0  0  0
 12 35  1  0  0  0  0
 13 36  1  0  0  0  0
 13 37  1  0  0  0  0
 14 38  1  0  0  0  0
 14 39  1  0  0  0  0
 15 40  1  0  0  0  0
 16 41  1  0  0  0  0
 19 42  1  0  0  0  0
 19 43  1  0  0  0  0
 19 44  1  0  0  0  0
 20 45  1  0  0  0  0
 20 46  1  0  0  0  0
 20 47  1  0  0  0  0
 21 48  1  0  0  0  0
 22 49  1  0  0  0  0
M  CHG  1  21   1
M  END
> <Hybrid2>
-9.136209

> <docked_fragment>
x0749

> <Mpro-_dock>
1.331339

> <site>
active-covalent

$$$$
CHEMBL1865134
  -OEChem-04122014263D

 45 46  0     0  0  0  0  0  0999 V2000
   10.5404   -4.6177   24.7676 C   0  0  0  0  0  0  0  0  0  0  0  0
    8.6796   -2.0104   22.8916 C   0  0  0  0  0  0  0  0  0  0  0  0
   11.6670   -3.9052   25.1793 C   0  0  0  0  0  0  0  0  0  0  0  0
    7.5530   -2.7230   22.4800 C   0  0  0  0  0  0  0  0  0  0  0  0
    8.3980   -4.6978   23.5817 C   0  0  0  0  0  0  0  0  0  0  0  0
    9.5386   -3.9960   24.0047 C   0  0  0  0  0  0  0  0  0  0  0  0
    9.6815   -2.6322   23.6545 C   0  0  0  0  0  0  0  0  0  0  0  0
    7.4125   -4.0641   22.8244 C   0  0  0  0  0  0  0  0  0  0  0  0
   11.8076   -2.5641   24.8349 C   0  0  0  0  0  0  0  0  0  0  0  0
   10.8221   -1.9304   24.0775 C   0  0  0  0  0  0  0  0  0  0  0  0
    6.0947   -4.8525   20.8275 C   0  0  0  0  0  0  0  0  0  0  0  0
    4.8986   -4.1832   22.9388 C   0  0  0  0  0  0  0  0  0  0  0  0
    6.1591   -6.3235   22.8310 C   0  0  0  0  0  0  0  0  0  0  0  0
   13.9606   -2.7837   26.1242 C   0  0  0  0  0  0  0  0  0  0  0  0
   12.6585   -0.6312   26.2084 C   0  0  0  0  0  0  0  0  0  0  0  0
   13.9309   -1.2532   24.1650 C   0  0  0  0  0  0  0  0  0  0  0  0
    6.2079   -4.8248   22.3833 C   0  0  0  0  0  0  0  0  0  0  0  0
   13.0312   -1.8420   25.2998 C   0  0  0  0  0  0  0  0  0  0  0  0
    9.9006    0.4234   24.2892 O   0  5  0  0  0  0  0  0  0  0  0  0
   12.3464    0.1309   24.2907 O   0  0  0  0  0  0  0  0  0  0  0  0
   11.0780   -0.2284   22.2114 O   0  0  0  0  0  0  0  0  0  0  0  0
   11.0627   -0.2298   23.6780 S   0  0  0  0  0  0  0  0  0  0  0  0
   10.4510   -5.6651   25.0492 H   0  0  0  0  0  0  0  0  0  0  0  0
    8.7416   -0.9665   22.5966 H   0  0  0  0  0  0  0  0  0  0  0  0
   12.4286   -4.4078   25.7699 H   0  0  0  0  0  0  0  0  0  0  0  0
    6.7901   -2.2226   21.8894 H   0  0  0  0  0  0  0  0  0  0  0  0
    8.2753   -5.7473   23.8441 H   0  0  0  0  0  0  0  0  0  0  0  0
    5.2162   -5.4065   20.4764 H   0  0  0  0  0  0  0  0  0  0  0  0
    6.0221   -3.8413   20.4123 H   0  0  0  0  0  0  0  0  0  0  0  0
    6.9830   -5.3243   20.3910 H   0  0  0  0  0  0  0  0  0  0  0  0
    4.0114   -4.7393   22.6169 H   0  0  0  0  0  0  0  0  0  0  0  0
    4.8751   -4.1492   24.0343 H   0  0  0  0  0  0  0  0  0  0  0  0
    4.7943   -3.1556   22.5709 H   0  0  0  0  0  0  0  0  0  0  0  0
    5.2560   -6.8393   22.4830 H   0  0  0  0  0  0  0  0  0  0  0  0
    7.0185   -6.8771   22.4347 H   0  0  0  0  0  0  0  0  0  0  0  0
    6.1750   -6.4046   23.9241 H   0  0  0  0  0  0  0  0  0  0  0  0
   14.8667   -2.2779   26.4777 H   0  0  0  0  0  0  0  0  0  0  0  0
   13.4496   -3.1797   27.0087 H   0  0  0  0  0  0  0  0  0  0  0  0
   14.2727   -3.6396   25.5139 H   0  0  0  0  0  0  0  0  0  0  0  0
   13.5507   -0.0971   26.5529 H   0  0  0  0  0  0  0  0  0  0  0  0
   12.0249    0.1017   25.6951 H   0  0  0  0  0  0  0  0  0  0  0  0
   12.1172   -0.9753   27.0976 H   0  0  0  0  0  0  0  0  0  0  0  0
   14.8144   -0.7339   24.5556 H   0  0  0  0  0  0  0  0  0  0  0  0
   14.2921   -2.0471   23.5007 H   0  0  0  0  0  0  0  0  0  0  0  0
   13.3732   -0.5288   23.5601 H   0  0  0  0  0  0  0  0  0  0  0  0
  1  3  1  0  0  0  0
  1  6  2  0  0  0  0
  2  4  2  0  0  0  0
  2  7  1  0  0  0  0
  3  9  2  0  0  0  0
  4  8  1  0  0  0  0
  5  6  1  0  0  0  0
  5  8  2  0  0  0  0
  6  7  1  0  0  0  0
  7 10  2  0  0  0  0
  8 17  1  0  0  0  0
  9 10  1  0  0  0  0
  9 18  1  0  0  0  0
 10 22  1  0  0  0  0
 11 17  1  0  0  0  0
 12 17  1  0  0  0  0
 13 17  1  0  0  0  0
 14 18  1  0  0  0  0
 15 18  1  0  0  0  0
 16 18  1  0  0  0  0
 19 22  1  0  0  0  0
 20 22  2  0  0  0  0
 21 22  2  0  0  0  0
  1 23  1  0  0  0  0
  2 24  1  0  0  0  0
  3 25  1  0  0  0  0
  4 26  1  0  0  0  0
  5 27  1  0  0  0  0
 11 28  1  0  0  0  0
 11 29  1  0  0  0  0
 11 30  1  0  0  0  0
 12 31  1  0  0  0  0
 12 32  1  0  0  0  0
 12 33  1  0  0  0  0
 13 34  1  0  0  0  0
 13 35  1  0  0  0  0
 13 36  1  0  0  0  0
 14 37  1  0  0  0  0
 14 38  1  0  0  0  0
 14 39  1  0  0  0  0
 15 40  1  0  0  0  0
 15 41  1  0  0  0  0
 15 42  1  0  0  0  0
 16 43  1  0  0  0  0
 16 44  1  0  0  0  0
 16 45  1  0  0  0  0
M  CHG  1  19  -1
M  END
> <Hybrid2>
-9.111071

> <docked_fragment>
x0749

> <Mpro-_dock>
0.721834

> <site>
active-covalent

$$$$
CHEMBL2104011
  -OEChem-04122014263D

 54 57  0     1  0  0  0  0  0999 V2000
   10.3809   -2.2200   23.2203 C   0  0  0  0  0  0  0  0  0  0  0  0
   12.1801    0.9881   22.8706 C   0  0  0  0  0  0  0  0  0  0  0  0
   10.7906   -0.9630   23.4752 C   0  0  0  0  0  0  0  0  0  0  0  0
   11.8355   -0.2981   22.6848 C   0  0  0  0  0  0  0  0  0  0  0  0
    9.3716   -2.9014   24.0686 C   0  0  0  0  0  0  0  0  0  0  0  0
   10.7576    6.8416   24.6676 C   0  0  0  0  0  0  0  0  0  0  0  0
    8.7014    6.2920   23.2207 C   0  0  0  0  0  0  0  0  0  0  0  0
    8.8593   -2.1844   25.2881 C   0  0  0  0  0  0  0  0  0  0  0  0
    8.8084   -0.6873   25.0427 C   0  0  0  0  0  0  0  0  0  0  0  0
   12.6556    4.0930   22.9900 C   0  0  0  0  0  0  0  0  0  0  0  0
    9.3850    2.2648   25.2502 C   0  0  0  0  0  0  0  0  0  0  0  0
   12.2725    5.5832   23.0895 C   0  0  0  0  0  0  0  0  0  0  0  0
    9.3798    3.7487   24.8360 C   0  0  0  0  0  0  0  0  0  0  0  0
   11.5170    1.8869   23.8797 C   0  0  2  0  0  0  0  0  0  0  0  0
   10.1800   -0.1355   24.6166 C   0  0  2  0  0  0  0  0  0  0  0  0
   10.0912    1.3622   24.2133 C   0  0  1  0  0  0  0  0  0  0  0  0
   11.3950    3.3458   23.4206 C   0  0  1  0  0  0  0  0  0  0  0  0
   10.8972    5.6325   23.7915 C   0  0  1  0  0  0  0  0  0  0  0  0
   10.7933    4.2651   24.5163 C   0  0  1  0  0  0  0  0  0  0  0  0
   10.8782    8.1822   23.9950 C   0  0  0  0  0  0  0  0  0  0  0  0
    7.7555    6.4117   22.0644 C   0  0  0  0  0  0  0  0  0  0  0  0
   11.6324    4.2959   25.8256 C   0  0  0  0  0  0  0  0  0  0  0  0
    9.0225   -4.0494   23.7997 O   0  0  0  0  0  0  0  0  0  0  0  0
   10.5526    6.7423   25.8764 O   0  0  0  0  0  0  0  0  0  0  0  0
    8.4195    6.5986   24.3712 O   0  0  0  0  0  0  0  0  0  0  0  0
    9.8995    5.7974   22.7887 O   0  0  0  0  0  0  0  0  0  0  0  0
   12.7335   -1.1920   21.4891 Cl  0  0  0  0  0  0  0  0  0  0  0  0
   10.7752   -2.8219   22.4092 H   0  0  0  0  0  0  0  0  0  0  0  0
   13.0024    1.4094   22.2971 H   0  0  0  0  0  0  0  0  0  0  0  0
    7.8515   -2.5498   25.5127 H   0  0  0  0  0  0  0  0  0  0  0  0
    9.5127   -2.4258   26.1332 H   0  0  0  0  0  0  0  0  0  0  0  0
    8.0619   -0.4688   24.2671 H   0  0  0  0  0  0  0  0  0  0  0  0
    8.4697   -0.2017   25.9644 H   0  0  0  0  0  0  0  0  0  0  0  0
   12.9570    3.8341   21.9697 H   0  0  0  0  0  0  0  0  0  0  0  0
   13.5016    3.8706   23.6498 H   0  0  0  0  0  0  0  0  0  0  0  0
    9.8539    2.1442   26.2331 H   0  0  0  0  0  0  0  0  0  0  0  0
    8.3399    1.9559   25.3661 H   0  0  0  0  0  0  0  0  0  0  0  0
   13.0442    6.1192   23.6541 H   0  0  0  0  0  0  0  0  0  0  0  0
   12.2309    6.0249   22.0874 H   0  0  0  0  0  0  0  0  0  0  0  0
    8.7271    3.8524   23.9602 H   0  0  0  0  0  0  0  0  0  0  0  0
    8.9234    4.3486   25.6322 H   0  0  0  0  0  0  0  0  0  0  0  0
   12.1470    1.8412   24.7763 H   0  0  0  0  0  0  0  0  0  0  0  0
   10.8582   -0.2195   25.4788 H   0  0  0  0  0  0  0  0  0  0  0  0
    9.4826    1.4196   23.2958 H   0  0  0  0  0  0  0  0  0  0  0  0
   10.7229    3.3486   22.5463 H   0  0  0  0  0  0  0  0  0  0  0  0
    9.8924    8.5168   23.6601 H   0  0  0  0  0  0  0  0  0  0  0  0
   11.5367    8.0986   23.1269 H   0  0  0  0  0  0  0  0  0  0  0  0
   11.2778    8.9126   24.7027 H   0  0  0  0  0  0  0  0  0  0  0  0
    7.8544    7.3982   21.6049 H   0  0  0  0  0  0  0  0  0  0  0  0
    6.7303    6.2461   22.4052 H   0  0  0  0  0  0  0  0  0  0  0  0
    7.9999    5.6523   21.3159 H   0  0  0  0  0  0  0  0  0  0  0  0
   12.6207    4.6595   25.5883 H   0  0  0  0  0  0  0  0  0  0  0  0
   11.6831    3.2929   26.2213 H   0  0  0  0  0  0  0  0  0  0  0  0
   11.1447    4.9555   26.5273 H   0  0  0  0  0  0  0  0  0  0  0  0
  1  3  2  0  0  0  0
  1  5  1  0  0  0  0
  2  4  2  0  0  0  0
  2 14  1  0  0  0  0
  3  4  1  0  0  0  0
  3 15  1  0  0  0  0
  4 27  1  0  0  0  0
  5  8  1  0  0  0  0
  5 23  2  0  0  0  0
  6 18  1  0  0  0  0
  6 20  1  0  0  0  0
  6 24  2  0  0  0  0
  7 21  1  0  0  0  0
  7 25  2  0  0  0  0
  7 26  1  0  0  0  0
  8  9  1  0  0  0  0
  9 15  1  0  0  0  0
 10 12  1  0  0  0  0
 10 17  1  0  0  0  0
 11 13  1  0  0  0  0
 11 16  1  0  0  0  0
 12 18  1  0  0  0  0
 13 19  1  0  0  0  0
 14 16  1  0  0  0  0
 14 17  1  0  0  0  0
 15 16  1  0  0  0  0
 17 19  1  0  0  0  0
 18 19  1  0  0  0  0
 18 26  1  0  0  0  0
 19 22  1  0  0  0  0
  1 28  1  0  0  0  0
  2 29  1  0  0  0  0
  8 30  1  0  0  0  0
  8 31  1  0  0  0  0
  9 32  1  0  0  0  0
  9 33  1  0  0  0  0
 10 34  1  0  0  0  0
 10 35  1  0  0  0  0
 11 36  1  0  0  0  0
 11 37  1  0  0  0  0
 12 38  1  0  0  0  0
 12 39  1  0  0  0  0
 13 40  1  0  0  0  0
 13 41  1  0  0  0  0
 14 42  1  0  0  0  0
 15 43  1  0  0  0  0
 16 44  1  0  0  0  0
 17 45  1  0  0  0  0
 20 46  1  0  0  0  0
 20 47  1  0  0  0  0
 20 48  1  0  0  0  0
 21 49  1  0  0  0  0
 21 50  1  0  0  0  0
 21 51  1  0  0  0  0
 22 52  1  0  0  0  0
 22 53  1  0  0  0  0
 22 54  1  0  0  0  0
M  END
> <Hybrid2>
-9.106432

> <docked_fragment>
x0104

> <Mpro-_dock>
2.14603

> <site>
active-noncovalent

$$$$
CHEMBL2105550
  -OEChem-04122014263D

 42 44  0     1  0  0  0  0  0999 V2000
   12.3444    0.6382   22.7651 C   0  0  0  0  0  0  0  0  0  0  0  0
   11.5851   -0.3683   23.3580 C   0  0  0  0  0  0  0  0  0  0  0  0
   10.1994    1.3063   24.4052 C   0  0  0  0  0  0  0  0  0  0  0  0
   12.0426    1.9898   22.9933 C   0  0  0  0  0  0  0  0  0  0  0  0
   10.9389    2.3340   23.7961 C   0  0  0  0  0  0  0  0  0  0  0  0
   10.5174   -0.0342   24.1838 C   0  0  0  0  0  0  0  0  0  0  0  0
   12.8862    3.0495   22.3352 C   0  0  0  0  0  0  0  0  0  0  0  0
    9.8623    6.4592   24.2954 C   0  0  0  0  0  0  0  0  0  0  0  0
    9.0877    4.0915   23.8258 C   0  0  0  0  0  0  0  0  0  0  0  0
   12.8232    4.3813   23.0669 C   0  0  0  0  0  0  0  0  0  0  0  0
   11.2348    6.2078   23.6829 C   0  0  0  0  0  0  0  0  0  0  0  0
   10.5874    3.7895   24.0548 C   0  0  2  0  0  0  0  0  0  0  0  0
    8.7463    5.5934   23.7028 C   0  0  2  0  0  0  0  0  0  0  0  0
    9.7148   -1.1086   24.8357 C   0  0  0  0  0  0  0  0  0  0  0  0
    7.3404    5.1395   21.6825 C   0  0  0  0  0  0  0  0  0  0  0  0
    8.4282    5.9862   22.2547 C   0  0  0  0  0  0  0  0  0  0  0  0
   11.3770    4.7790   23.2097 N   0  3  2  0  0  0  0  0  0  0  0  0
    7.5520    5.8248   24.4616 O   0  0  0  0  0  0  0  0  0  0  0  0
   13.1806    0.3636   22.1270 H   0  0  0  0  0  0  0  0  0  0  0  0
   11.8398   -1.4092   23.1761 H   0  0  0  0  0  0  0  0  0  0  0  0
    9.3715    1.5433   25.0672 H   0  0  0  0  0  0  0  0  0  0  0  0
   13.9306    2.7239   22.3025 H   0  0  0  0  0  0  0  0  0  0  0  0
   12.5431    3.1748   21.3029 H   0  0  0  0  0  0  0  0  0  0  0  0
    9.9384    6.2804   25.3829 H   0  0  0  0  0  0  0  0  0  0  0  0
    9.6098    7.5289   24.1789 H   0  0  0  0  0  0  0  0  0  0  0  0
    8.7405    3.5534   22.9238 H   0  0  0  0  0  0  0  0  0  0  0  0
    8.4983    3.6797   24.6629 H   0  0  0  0  0  0  0  0  0  0  0  0
   13.2554    4.3303   24.0741 H   0  0  0  0  0  0  0  0  0  0  0  0
   13.3350    5.1600   22.4901 H   0  0  0  0  0  0  0  0  0  0  0  0
   11.3839    6.8615   22.8042 H   0  0  0  0  0  0  0  0  0  0  0  0
   12.0565    6.4052   24.3967 H   0  0  0  0  0  0  0  0  0  0  0  0
   10.8527    4.0006   25.1023 H   0  0  0  0  0  0  0  0  0  0  0  0
   10.1421   -1.3645   25.8130 H   0  0  0  0  0  0  0  0  0  0  0  0
    8.6734   -0.7943   24.9828 H   0  0  0  0  0  0  0  0  0  0  0  0
    9.6884   -2.0163   24.2189 H   0  0  0  0  0  0  0  0  0  0  0  0
    7.6440    4.0863   21.7094 H   0  0  0  0  0  0  0  0  0  0  0  0
    7.1416    5.4089   20.6398 H   0  0  0  0  0  0  0  0  0  0  0  0
    6.4178    5.2420   22.2636 H   0  0  0  0  0  0  0  0  0  0  0  0
    8.1298    7.0365   22.2298 H   0  0  0  0  0  0  0  0  0  0  0  0
    9.3330    5.8810   21.6521 H   0  0  0  0  0  0  0  0  0  0  0  0
   10.9787    4.7583   22.2496 H   0  0  0  0  0  0  0  0  0  0  0  0
    6.8679    5.2664   24.0651 H   0  0  0  0  0  0  0  0  0  0  0  0
  1  2  2  0  0  0  0
  1  4  1  0  0  0  0
  2  6  1  0  0  0  0
  3  5  1  0  0  0  0
  3  6  2  0  0  0  0
  4  5  2  0  0  0  0
  4  7  1  0  0  0  0
  5 12  1  0  0  0  0
  6 14  1  0  0  0  0
  7 10  1  0  0  0  0
  8 11  1  0  0  0  0
  8 13  1  0  0  0  0
  9 12  1  0  0  0  0
  9 13  1  0  0  0  0
 10 17  1  0  0  0  0
 11 17  1  0  0  0  0
 12 17  1  0  0  0  0
 13 16  1  0  0  0  0
 13 18  1  0  0  0  0
 15 16  1  0  0  0  0
  1 19  1  0  0  0  0
  2 20  1  0  0  0  0
  3 21  1  0  0  0  0
  7 22  1  0  0  0  0
  7 23  1  0  0  0  0
  8 24  1  0  0  0  0
  8 25  1  0  0  0  0
  9 26  1  0  0  0  0
  9 27  1  0  0  0  0
 10 28  1  0  0  0  0
 10 29  1  0  0  0  0
 11 30  1  0  0  0  0
 11 31  1  0  0  0  0
 12 32  1  0  0  0  0
 14 33  1  0  0  0  0
 14 34  1  0  0  0  0
 14 35  1  0  0  0  0
 15 36  1  0  0  0  0
 15 37  1  0  0  0  0
 15 38  1  0  0  0  0
 16 39  1  0  0  0  0
 16 40  1  0  0  0  0
 17 41  1  0  0  0  0
 18 42  1  0  0  0  0
M  CHG  1  17   1
M  END
> <Hybrid2>
-9.097529

> <docked_fragment>
x0104

> <Mpro-_dock>
-0.74156

> <site>
active-noncovalent

$$$$
CHEMBL2104598
  -OEChem-04122014263D

 55 58  0     1  0  0  0  0  0999 V2000
    8.5230   -1.9665   24.1957 C   0  0  0  0  0  0  0  0  0  0  0  0
   10.4917   -1.9787   22.6111 C   0  0  0  0  0  0  0  0  0  0  0  0
    9.0509   -0.9071   24.8144 C   0  0  0  0  0  0  0  0  0  0  0  0
   12.4804    1.0715   22.9917 C   0  0  0  0  0  0  0  0  0  0  0  0
   11.0262   -0.9049   23.2213 C   0  0  0  0  0  0  0  0  0  0  0  0
   12.1866   -0.1985   22.6644 C   0  0  0  0  0  0  0  0  0  0  0  0
    9.2459   -2.6158   23.0902 C   0  0  0  0  0  0  0  0  0  0  0  0
   10.4603    6.7432   24.7817 C   0  0  0  0  0  0  0  0  0  0  0  0
    8.4789    5.9679   23.3452 C   0  0  0  0  0  0  0  0  0  0  0  0
   12.6471    4.1991   23.1167 C   0  0  0  0  0  0  0  0  0  0  0  0
    9.4876    2.0752   25.2820 C   0  0  0  0  0  0  0  0  0  0  0  0
   12.1293    5.6498   23.2111 C   0  0  0  0  0  0  0  0  0  0  0  0
    9.3753    3.5655   24.8975 C   0  0  0  0  0  0  0  0  0  0  0  0
   11.6704    1.8934   23.9606 C   0  0  2  0  0  0  0  0  0  0  0  0
   10.2687    1.2530   24.2259 C   0  0  1  0  0  0  0  0  0  0  0  0
   11.4464    3.3431   23.5123 C   0  0  1  0  0  0  0  0  0  0  0  0
   10.4014   -0.2868   24.4933 C   0  0  1  0  0  0  0  0  0  0  0  0
   10.7436    5.5716   23.8910 C   0  0  1  0  0  0  0  0  0  0  0  0
   10.7487    4.1956   24.6057 C   0  0  1  0  0  0  0  0  0  0  0  0
   10.4600    8.1013   24.1338 C   0  0  0  0  0  0  0  0  0  0  0  0
    7.5155    5.9884   22.1974 C   0  0  0  0  0  0  0  0  0  0  0  0
   11.3000   -0.6022   25.7129 C   0  0  0  0  0  0  0  0  0  0  0  0
   11.5578    4.2873   25.9312 C   0  0  0  0  0  0  0  0  0  0  0  0
    8.8144   -3.6369   22.5655 O   0  0  0  0  0  0  0  0  0  0  0  0
   10.2369    6.6013   25.9829 O   0  0  0  0  0  0  0  0  0  0  0  0
    8.1718    6.2214   24.5021 O   0  0  0  0  0  0  0  0  0  0  0  0
    9.7242    5.6285   22.8972 O   0  0  0  0  0  0  0  0  0  0  0  0
   13.2730   -1.0260   21.5868 Cl  0  0  0  0  0  0  0  0  0  0  0  0
    7.5708   -2.3838   24.5020 H   0  0  0  0  0  0  0  0  0  0  0  0
   10.9081   -2.4128   21.7084 H   0  0  0  0  0  0  0  0  0  0  0  0
    8.4923   -0.4986   25.6532 H   0  0  0  0  0  0  0  0  0  0  0  0
   13.3789    1.5338   22.5893 H   0  0  0  0  0  0  0  0  0  0  0  0
   12.9957    3.9722   22.1039 H   0  0  0  0  0  0  0  0  0  0  0  0
   13.4924    4.0488   23.7976 H   0  0  0  0  0  0  0  0  0  0  0  0
    9.9559    1.9755   26.2665 H   0  0  0  0  0  0  0  0  0  0  0  0
    8.4662    1.6929   25.3825 H   0  0  0  0  0  0  0  0  0  0  0  0
   12.8406    6.2510   23.7891 H   0  0  0  0  0  0  0  0  0  0  0  0
   12.0638    6.0878   22.2086 H   0  0  0  0  0  0  0  0  0  0  0  0
    8.7260    3.6364   24.0160 H   0  0  0  0  0  0  0  0  0  0  0  0
    8.8650    4.1118   25.6997 H   0  0  0  0  0  0  0  0  0  0  0  0
   12.2525    1.9014   24.8887 H   0  0  0  0  0  0  0  0  0  0  0  0
    9.6815    1.3532   23.2964 H   0  0  0  0  0  0  0  0  0  0  0  0
   10.7963    3.3025   22.6227 H   0  0  0  0  0  0  0  0  0  0  0  0
    9.4538    8.3403   23.7785 H   0  0  0  0  0  0  0  0  0  0  0  0
   11.1447    8.1010   23.2821 H   0  0  0  0  0  0  0  0  0  0  0  0
   10.7656    8.8553   24.8633 H   0  0  0  0  0  0  0  0  0  0  0  0
    7.4900    6.9861   21.7524 H   0  0  0  0  0  0  0  0  0  0  0  0
    6.5209    5.6948   22.5426 H   0  0  0  0  0  0  0  0  0  0  0  0
    7.8436    5.2752   21.4357 H   0  0  0  0  0  0  0  0  0  0  0  0
   12.2823   -0.1822   25.5406 H   0  0  0  0  0  0  0  0  0  0  0  0
   11.3693   -1.6761   25.8269 H   0  0  0  0  0  0  0  0  0  0  0  0
   10.8566   -0.1618   26.5963 H   0  0  0  0  0  0  0  0  0  0  0  0
   12.5181    4.7303   25.7143 H   0  0  0  0  0  0  0  0  0  0  0  0
   11.6816    3.2897   26.3245 H   0  0  0  0  0  0  0  0  0  0  0  0
   11.0056    4.9022   26.6257 H   0  0  0  0  0  0  0  0  0  0  0  0
  1  3  2  0  0  0  0
  1  7  1  0  0  0  0
  2  5  2  0  0  0  0
  2  7  1  0  0  0  0
  3 17  1  0  0  0  0
  4  6  2  0  0  0  0
  4 14  1  0  0  0  0
  5  6  1  0  0  0  0
  5 17  1  0  0  0  0
  6 28  1  0  0  0  0
  7 24  2  0  0  0  0
  8 18  1  0  0  0  0
  8 20  1  0  0  0  0
  8 25  2  0  0  0  0
  9 21  1  0  0  0  0
  9 26  2  0  0  0  0
  9 27  1  0  0  0  0
 10 12  1  0  0  0  0
 10 16  1  0  0  0  0
 11 13  1  0  0  0  0
 11 15  1  0  0  0  0
 12 18  1  0  0  0  0
 13 19  1  0  0  0  0
 14 15  1  0  0  0  0
 14 16  1  0  0  0  0
 15 17  1  0  0  0  0
 16 19  1  0  0  0  0
 17 22  1  0  0  0  0
 18 19  1  0  0  0  0
 18 27  1  0  0  0  0
 19 23  1  0  0  0  0
  1 29  1  0  0  0  0
  2 30  1  0  0  0  0
  3 31  1  0  0  0  0
  4 32  1  0  0  0  0
 10 33  1  0  0  0  0
 10 34  1  0  0  0  0
 11 35  1  0  0  0  0
 11 36  1  0  0  0  0
 12 37  1  0  0  0  0
 12 38  1  0  0  0  0
 13 39  1  0  0  0  0
 13 40  1  0  0  0  0
 14 41  1  0  0  0  0
 15 42  1  0  0  0  0
 16 43  1  0  0  0  0
 20 44  1  0  0  0  0
 20 45  1  0  0  0  0
 20 46  1  0  0  0  0
 21 47  1  0  0  0  0
 21 48  1  0  0  0  0
 21 49  1  0  0  0  0
 22 50  1  0  0  0  0
 22 51  1  0  0  0  0
 22 52  1  0  0  0  0
 23 53  1  0  0  0  0
 23 54  1  0  0  0  0
 23 55  1  0  0  0  0
M  END
> <Hybrid2>
-9.089441

> <docked_fragment>
x0104

> <Mpro-_dock>
2.553616

> <site>
active-noncovalent

$$$$
CHEMBL452329
  -OEChem-04122014263D

 54 57  0     1  0  0  0  0  0999 V2000
    8.7444   -3.4611   23.7384 C   0  0  0  0  0  0  0  0  0  0  0  0
    9.5335   -2.3754   23.7423 C   0  0  0  0  0  0  0  0  0  0  0  0
    7.6785   -3.6264   24.7549 C   0  0  0  0  0  0  0  0  0  0  0  0
   11.3032    5.7487   23.6462 C   0  0  0  0  0  0  0  0  0  0  0  0
   10.5972   -2.1982   22.6868 C   0  0  0  0  0  0  0  0  0  0  0  0
    7.4846   -2.5395   25.7848 C   0  0  0  0  0  0  0  0  0  0  0  0
    7.9484   -1.1838   25.2668 C   0  0  0  0  0  0  0  0  0  0  0  0
   13.3534    1.5066   22.7334 C   0  0  0  0  0  0  0  0  0  0  0  0
    9.5398    1.3294   24.9148 C   0  0  0  0  0  0  0  0  0  0  0  0
   13.4704    3.0350   22.5865 C   0  0  0  0  0  0  0  0  0  0  0  0
   10.0826    2.6052   24.2593 C   0  0  0  0  0  0  0  0  0  0  0  0
    9.3940   -1.2535   24.7556 C   0  0  2  0  0  0  0  0  0  0  0  0
    9.9099    0.0613   24.1193 C   0  0  2  0  0  0  0  0  0  0  0  0
   11.8983    1.2529   23.1423 C   0  0  1  0  0  0  0  0  0  0  0  0
   11.4632   -0.0505   23.8516 C   0  0  2  0  0  0  0  0  0  0  0  0
   11.8258   -1.4445   23.2275 C   0  0  2  0  0  0  0  0  0  0  0  0
   12.1402    3.6112   23.0856 C   0  0  1  0  0  0  0  0  0  0  0  0
   11.5909    2.5093   24.0110 C   0  0  1  0  0  0  0  0  0  0  0  0
   11.6532    7.0137   24.3695 C   0  0  0  0  0  0  0  0  0  0  0  0
   12.9279   -1.4729   22.1746 C   0  0  0  0  0  0  0  0  0  0  0  0
   12.3297    2.5483   25.3775 C   0  0  0  0  0  0  0  0  0  0  0  0
    7.0060   -4.6559   24.7706 O   0  0  0  0  0  0  0  0  0  0  0  0
   10.2399    5.5601   23.0709 O   0  0  0  0  0  0  0  0  0  0  0  0
   12.3392    4.8550   23.7290 O   0  0  0  0  0  0  0  0  0  0  0  0
    8.8968   -4.2837   23.0473 H   0  0  0  0  0  0  0  0  0  0  0  0
   10.9099   -3.1916   22.3515 H   0  0  0  0  0  0  0  0  0  0  0  0
   10.2084   -1.6802   21.8067 H   0  0  0  0  0  0  0  0  0  0  0  0
    6.4151   -2.4838   26.0399 H   0  0  0  0  0  0  0  0  0  0  0  0
    8.0301   -2.8231   26.6983 H   0  0  0  0  0  0  0  0  0  0  0  0
    7.2806   -0.8701   24.4618 H   0  0  0  0  0  0  0  0  0  0  0  0
    7.8616   -0.4586   26.0749 H   0  0  0  0  0  0  0  0  0  0  0  0
   13.6107    0.9960   21.7955 H   0  0  0  0  0  0  0  0  0  0  0  0
   14.0522    1.1420   23.5001 H   0  0  0  0  0  0  0  0  0  0  0  0
    9.9132    1.2497   25.9362 H   0  0  0  0  0  0  0  0  0  0  0  0
    8.4558    1.4297   24.9794 H   0  0  0  0  0  0  0  0  0  0  0  0
   14.3281    3.4140   23.1537 H   0  0  0  0  0  0  0  0  0  0  0  0
   13.6345    3.3125   21.5392 H   0  0  0  0  0  0  0  0  0  0  0  0
    9.5552    2.7606   23.3092 H   0  0  0  0  0  0  0  0  0  0  0  0
    9.8473    3.4727   24.8872 H   0  0  0  0  0  0  0  0  0  0  0  0
   10.0527   -1.5270   25.5906 H   0  0  0  0  0  0  0  0  0  0  0  0
    9.4335    0.1650   23.1273 H   0  0  0  0  0  0  0  0  0  0  0  0
   11.2939    1.3454   22.2257 H   0  0  0  0  0  0  0  0  0  0  0  0
   11.9336   -0.0539   24.8706 H   0  0  0  0  0  0  0  0  0  0  0  0
   12.2167   -2.0881   24.0716 H   0  0  0  0  0  0  0  0  0  0  0  0
   11.4733    3.7751   22.2306 H   0  0  0  0  0  0  0  0  0  0  0  0
   11.3398    6.9426   25.4139 H   0  0  0  0  0  0  0  0  0  0  0  0
   11.1740    7.8655   23.8803 H   0  0  0  0  0  0  0  0  0  0  0  0
   12.7368    7.1604   24.3400 H   0  0  0  0  0  0  0  0  0  0  0  0
   12.6287   -0.8719   21.3203 H   0  0  0  0  0  0  0  0  0  0  0  0
   13.0972   -2.4974   21.8547 H   0  0  0  0  0  0  0  0  0  0  0  0
   13.8439   -1.0697   22.5978 H   0  0  0  0  0  0  0  0  0  0  0  0
   13.3939    2.4804   25.1982 H   0  0  0  0  0  0  0  0  0  0  0  0
   11.9970    1.7108   25.9752 H   0  0  0  0  0  0  0  0  0  0  0  0
   12.0925    3.4795   25.8733 H   0  0  0  0  0  0  0  0  0  0  0  0
  1  2  2  0  0  0  0
  1  3  1  0  0  0  0
  2  5  1  0  0  0  0
  2 12  1  0  0  0  0
  3  6  1  0  0  0  0
  3 22  2  0  0  0  0
  4 19  1  0  0  0  0
  4 23  2  0  0  0  0
  4 24  1  0  0  0  0
  5 16  1  0  0  0  0
  6  7  1  0  0  0  0
  7 12  1  0  0  0  0
  8 10  1  0  0  0  0
  8 14  1  0  0  0  0
  9 11  1  0  0  0  0
  9 13  1  0  0  0  0
 10 17  1  0  0  0  0
 11 18  1  0  0  0  0
 12 13  1  0  0  0  0
 13 15  1  0  0  0  0
 14 15  1  0  0  0  0
 14 18  1  0  0  0  0
 15 16  1  0  0  0  0
 16 20  1  0  0  0  0
 17 18  1  0  0  0  0
 17 24  1  0  0  0  0
 18 21  1  0  0  0  0
  1 25  1  0  0  0  0
  5 26  1  0  0  0  0
  5 27  1  0  0  0  0
  6 28  1  0  0  0  0
  6 29  1  0  0  0  0
  7 30  1  0  0  0  0
  7 31  1  0  0  0  0
  8 32  1  0  0  0  0
  8 33  1  0  0  0  0
  9 34  1  0  0  0  0
  9 35  1  0  0  0  0
 10 36  1  0  0  0  0
 10 37  1  0  0  0  0
 11 38  1  0  0  0  0
 11 39  1  0  0  0  0
 12 40  1  0  0  0  0
 13 41  1  0  0  0  0
 14 42  1  0  0  0  0
 15 43  1  0  0  0  0
 16 44  1  0  0  0  0
 17 45  1  0  0  0  0
 19 46  1  0  0  0  0
 19 47  1  0  0  0  0
 19 48  1  0  0  0  0
 20 49  1  0  0  0  0
 20 50  1  0  0  0  0
 20 51  1  0  0  0  0
 21 52  1  0  0  0  0
 21 53  1  0  0  0  0
 21 54  1  0  0  0  0
M  END
> <Hybrid2>
-9.081142

> <docked_fragment>
x0195

> <Mpro-_dock>
4.441895

> <site>
active-noncovalent

$$$$
CHEMBL3707377
  -OEChem-04122014263D

 57 60  0     1  0  0  0  0  0999 V2000
   13.3653   -2.3573   26.3886 C   0  0  0  0  0  0  0  0  0  0  0  0
   12.5772   -2.9838   25.5003 C   0  0  0  0  0  0  0  0  0  0  0  0
   13.9090   -1.0109   26.0976 C   0  0  0  0  0  0  0  0  0  0  0  0
    6.9012   -5.7016   23.2366 C   0  0  0  0  0  0  0  0  0  0  0  0
    5.9666   -6.6605   23.2537 C   0  0  0  0  0  0  0  0  0  0  0  0
    6.1891   -4.4781   21.1325 C   0  0  0  0  0  0  0  0  0  0  0  0
    4.7501   -3.8425   23.4877 C   0  0  0  0  0  0  0  0  0  0  0  0
   12.1738   -4.4180   25.7365 C   0  0  0  0  0  0  0  0  0  0  0  0
   13.7288   -0.4690   24.7037 C   0  0  0  0  0  0  0  0  0  0  0  0
    8.2128   -5.8079   23.9899 C   0  0  0  0  0  0  0  0  0  0  0  0
   10.6821   -4.6450   25.5177 C   0  0  0  0  0  0  0  0  0  0  0  0
   12.3507   -0.8290   24.1774 C   0  0  0  0  0  0  0  0  0  0  0  0
   10.0412   -2.0628   22.6450 C   0  0  0  0  0  0  0  0  0  0  0  0
    8.5728   -2.4215   22.3545 C   0  0  0  0  0  0  0  0  0  0  0  0
   12.0809   -2.3476   24.2082 C   0  0  2  0  0  0  0  0  0  0  0  0
    8.7641   -4.3867   23.8711 C   0  0  1  0  0  0  0  0  0  0  0  0
   10.2566   -4.1557   24.1274 C   0  0  1  0  0  0  0  0  0  0  0  0
   10.5645   -2.6364   23.9860 C   0  0  2  0  0  0  0  0  0  0  0  0
    6.8264   -4.3784   22.4917 C   0  0  2  0  0  0  0  0  0  0  0  0
    8.3172   -3.9351   22.4559 C   0  0  1  0  0  0  0  0  0  0  0  0
    6.3483   -5.7856   20.4047 C   0  0  0  0  0  0  0  0  0  0  0  0
    4.2825   -3.2628   24.7882 C   0  0  0  0  0  0  0  0  0  0  0  0
    9.0816   -4.6612   21.3111 C   0  0  0  0  0  0  0  0  0  0  0  0
   14.5529   -0.4087   26.9537 O   0  0  0  0  0  0  0  0  0  0  0  0
    5.5668   -3.5377   20.6411 O   0  0  0  0  0  0  0  0  0  0  0  0
    4.0606   -4.5497   22.7655 O   0  0  0  0  0  0  0  0  0  0  0  0
    6.0416   -3.4623   23.2455 O   0  0  0  0  0  0  0  0  0  0  0  0
   13.6908   -2.8320   27.3077 H   0  0  0  0  0  0  0  0  0  0  0  0
    5.0482   -6.5423   22.6948 H   0  0  0  0  0  0  0  0  0  0  0  0
    6.1181   -7.5651   23.8266 H   0  0  0  0  0  0  0  0  0  0  0  0
   12.7414   -5.0541   25.0450 H   0  0  0  0  0  0  0  0  0  0  0  0
   12.4364   -4.7460   26.7496 H   0  0  0  0  0  0  0  0  0  0  0  0
   13.8354    0.6209   24.7327 H   0  0  0  0  0  0  0  0  0  0  0  0
   14.5192   -0.8764   24.0642 H   0  0  0  0  0  0  0  0  0  0  0  0
    8.0582   -6.0890   25.0365 H   0  0  0  0  0  0  0  0  0  0  0  0
    8.8752   -6.5388   23.5145 H   0  0  0  0  0  0  0  0  0  0  0  0
   10.4710   -5.7151   25.6256 H   0  0  0  0  0  0  0  0  0  0  0  0
   10.1073   -4.1257   26.2952 H   0  0  0  0  0  0  0  0  0  0  0  0
   11.5953   -0.3073   24.7808 H   0  0  0  0  0  0  0  0  0  0  0  0
   12.2591   -0.4498   23.1533 H   0  0  0  0  0  0  0  0  0  0  0  0
   10.6798   -2.4040   21.8222 H   0  0  0  0  0  0  0  0  0  0  0  0
   10.1139   -0.9692   22.6542 H   0  0  0  0  0  0  0  0  0  0  0  0
    7.9543   -1.8752   23.0768 H   0  0  0  0  0  0  0  0  0  0  0  0
    8.2918   -2.0506   21.3616 H   0  0  0  0  0  0  0  0  0  0  0  0
   12.6460   -2.8106   23.3868 H   0  0  0  0  0  0  0  0  0  0  0  0
    8.2251   -3.7803   24.6191 H   0  0  0  0  0  0  0  0  0  0  0  0
   10.8477   -4.7131   23.3909 H   0  0  0  0  0  0  0  0  0  0  0  0
   10.0094   -2.1174   24.7833 H   0  0  0  0  0  0  0  0  0  0  0  0
    5.5194   -6.4522   20.6586 H   0  0  0  0  0  0  0  0  0  0  0  0
    7.2868   -6.2590   20.7032 H   0  0  0  0  0  0  0  0  0  0  0  0
    6.3414   -5.6079   19.3266 H   0  0  0  0  0  0  0  0  0  0  0  0
    4.5058   -3.9545   25.6042 H   0  0  0  0  0  0  0  0  0  0  0  0
    3.2101   -3.0581   24.7388 H   0  0  0  0  0  0  0  0  0  0  0  0
    4.8078   -2.3217   24.9754 H   0  0  0  0  0  0  0  0  0  0  0  0
    8.8933   -5.7207   21.3947 H   0  0  0  0  0  0  0  0  0  0  0  0
   10.1352   -4.4540   21.4206 H   0  0  0  0  0  0  0  0  0  0  0  0
    8.7177   -4.2851   20.3670 H   0  0  0  0  0  0  0  0  0  0  0  0
  1  2  2  0  0  0  0
  1  3  1  0  0  0  0
  2  8  1  0  0  0  0
  2 15  1  0  0  0  0
  3  9  1  0  0  0  0
  3 24  2  0  0  0  0
  4  5  2  0  0  0  0
  4 10  1  0  0  0  0
  4 19  1  0  0  0  0
  6 19  1  0  0  0  0
  6 21  1  0  0  0  0
  6 25  2  0  0  0  0
  7 22  1  0  0  0  0
  7 26  2  0  0  0  0
  7 27  1  0  0  0  0
  8 11  1  0  0  0  0
  9 12  1  0  0  0  0
 10 16  1  0  0  0  0
 11 17  1  0  0  0  0
 12 15  1  0  0  0  0
 13 14  1  0  0  0  0
 13 18  1  0  0  0  0
 14 20  1  0  0  0  0
 15 18  1  0  0  0  0
 16 17  1  0  0  0  0
 16 20  1  0  0  0  0
 17 18  1  0  0  0  0
 19 20  1  0  0  0  0
 19 27  1  0  0  0  0
 20 23  1  0  0  0  0
  1 28  1  0  0  0  0
  5 29  1  0  0  0  0
  5 30  1  0  0  0  0
  8 31  1  0  0  0  0
  8 32  1  0  0  0  0
  9 33  1  0  0  0  0
  9 34  1  0  0  0  0
 10 35  1  0  0  0  0
 10 36  1  0  0  0  0
 11 37  1  0  0  0  0
 11 38  1  0  0  0  0
 12 39  1  0  0  0  0
 12 40  1  0  0  0  0
 13 41  1  0  0  0  0
 13 42  1  0  0  0  0
 14 43  1  0  0  0  0
 14 44  1  0  0  0  0
 15 45  1  0  0  0  0
 16 46  1  0  0  0  0
 17 47  1  0  0  0  0
 18 48  1  0  0  0  0
 21 49  1  0  0  0  0
 21 50  1  0  0  0  0
 21 51  1  0  0  0  0
 22 52  1  0  0  0  0
 22 53  1  0  0  0  0
 22 54  1  0  0  0  0
 23 55  1  0  0  0  0
 23 56  1  0  0  0  0
 23 57  1  0  0  0  0
M  END
> <Hybrid2>
-9.076952

> <docked_fragment>
x0749

> <Mpro-_dock>
5.287785

> <site>
active-covalent

$$$$
CHEMBL2105501
  -OEChem-04122014263D

 43 44  0     0  0  0  0  0  0999 V2000
   10.6964   -3.4599   24.5036 C   0  0  0  0  0  0  0  0  0  0  0  0
   10.6068   -1.3906   23.2517 C   0  0  0  0  0  0  0  0  0  0  0  0
    9.5171   -3.8760   23.8818 C   0  0  0  0  0  0  0  0  0  0  0  0
   11.2388   -2.2142   24.1849 C   0  0  0  0  0  0  0  0  0  0  0  0
    9.4286   -1.8087   22.6325 C   0  0  0  0  0  0  0  0  0  0  0  0
    8.8839   -3.0533   22.9486 C   0  0  0  0  0  0  0  0  0  0  0  0
    7.6743   -5.5253   23.4841 C   0  0  0  0  0  0  0  0  0  0  0  0
    8.9213   -5.1860   24.1988 C   0  0  0  0  0  0  0  0  0  0  0  0
    7.1782   -4.6396   22.6148 C   0  0  0  0  0  0  0  0  0  0  0  0
    5.9026   -4.9985   21.8892 C   0  0  0  0  0  0  0  0  0  0  0  0
   13.0294   -2.8318   25.8455 C   0  0  0  0  0  0  0  0  0  0  0  0
   12.2745   -0.4392   25.6420 C   0  0  0  0  0  0  0  0  0  0  0  0
   13.6925   -1.4659   23.8767 C   0  0  0  0  0  0  0  0  0  0  0  0
    9.5733    0.4180   21.4634 C   0  0  0  0  0  0  0  0  0  0  0  0
    7.3269   -0.5307   22.0878 C   0  0  0  0  0  0  0  0  0  0  0  0
    8.6205   -1.4985   20.1980 C   0  0  0  0  0  0  0  0  0  0  0  0
   12.4982   -1.7606   24.8436 C   0  0  0  0  0  0  0  0  0  0  0  0
    8.7717   -0.9082   21.6384 C   0  0  0  0  0  0  0  0  0  0  0  0
    5.4791   -4.1245   21.0795 O   0  5  0  0  0  0  0  0  0  0  0  0
    9.4228   -5.9561   25.0061 O   0  0  0  0  0  0  0  0  0  0  0  0
    5.4162   -6.1285   22.1811 O   0  0  0  0  0  0  0  0  0  0  0  0
    7.7231   -3.4123   22.3087 O   0  0  0  0  0  0  0  0  0  0  0  0
   11.1962   -4.0935   25.2318 H   0  0  0  0  0  0  0  0  0  0  0  0
   11.0343   -0.4208   23.0074 H   0  0  0  0  0  0  0  0  0  0  0  0
    7.2084   -6.4816   23.6909 H   0  0  0  0  0  0  0  0  0  0  0  0
   13.9556   -2.5228   26.3440 H   0  0  0  0  0  0  0  0  0  0  0  0
   12.2975   -3.0430   26.6329 H   0  0  0  0  0  0  0  0  0  0  0  0
   13.2306   -3.7741   25.3221 H   0  0  0  0  0  0  0  0  0  0  0  0
   13.1970   -0.1024   26.1275 H   0  0  0  0  0  0  0  0  0  0  0  0
   11.9271    0.3850   25.0080 H   0  0  0  0  0  0  0  0  0  0  0  0
   11.5262   -0.5932   26.4285 H   0  0  0  0  0  0  0  0  0  0  0  0
   14.5939   -1.1362   24.4073 H   0  0  0  0  0  0  0  0  0  0  0  0
   13.9642   -2.3626   23.3076 H   0  0  0  0  0  0  0  0  0  0  0  0
   13.4313   -0.6749   23.1640 H   0  0  0  0  0  0  0  0  0  0  0  0
    9.1117    1.0979   20.7378 H   0  0  0  0  0  0  0  0  0  0  0  0
    9.6547    0.9661   22.4084 H   0  0  0  0  0  0  0  0  0  0  0  0
   10.5918    0.2036   21.1186 H   0  0  0  0  0  0  0  0  0  0  0  0
    6.8400    0.1299   21.3622 H   0  0  0  0  0  0  0  0  0  0  0  0
    6.6793   -1.4072   22.2078 H   0  0  0  0  0  0  0  0  0  0  0  0
    7.3537   -0.0019   23.0480 H   0  0  0  0  0  0  0  0  0  0  0  0
    8.1334   -0.8011   19.5058 H   0  0  0  0  0  0  0  0  0  0  0  0
    9.6002   -1.7434   19.7713 H   0  0  0  0  0  0  0  0  0  0  0  0
    8.0158   -2.4128   20.2122 H   0  0  0  0  0  0  0  0  0  0  0  0
  1  3  2  0  0  0  0
  1  4  1  0  0  0  0
  2  4  2  0  0  0  0
  2  5  1  0  0  0  0
  3  6  1  0  0  0  0
  3  8  1  0  0  0  0
  4 17  1  0  0  0  0
  5  6  2  0  0  0  0
  5 18  1  0  0  0  0
  6 22  1  0  0  0  0
  7  8  1  0  0  0  0
  7  9  2  0  0  0  0
  8 20  2  0  0  0  0
  9 10  1  0  0  0  0
  9 22  1  0  0  0  0
 10 19  1  0  0  0  0
 10 21  2  0  0  0  0
 11 17  1  0  0  0  0
 12 17  1  0  0  0  0
 13 17  1  0  0  0  0
 14 18  1  0  0  0  0
 15 18  1  0  0  0  0
 16 18  1  0  0  0  0
  1 23  1  0  0  0  0
  2 24  1  0  0  0  0
  7 25  1  0  0  0  0
 11 26  1  0  0  0  0
 11 27  1  0  0  0  0
 11 28  1  0  0  0  0
 12 29  1  0  0  0  0
 12 30  1  0  0  0  0
 12 31  1  0  0  0  0
 13 32  1  0  0  0  0
 13 33  1  0  0  0  0
 13 34  1  0  0  0  0
 14 35  1  0  0  0  0
 14 36  1  0  0  0  0
 14 37  1  0  0  0  0
 15 38  1  0  0  0  0
 15 39  1  0  0  0  0
 15 40  1  0  0  0  0
 16 41  1  0  0  0  0
 16 42  1  0  0  0  0
 16 43  1  0  0  0  0
M  CHG  1  19  -1
M  END
> <Hybrid2>
-9.066968

> <docked_fragment>
x0749

> <Mpro-_dock>
1.924605

> <site>
active-covalent

$$$$
CHEMBL2104274
  -OEChem-04122014263D

 33 35  0     1  0  0  0  0  0999 V2000
    9.6668    0.9121   22.1929 C   0  0  0  0  0  0  0  0  0  0  0  0
    8.9316    0.2927   23.1843 C   0  0  0  0  0  0  0  0  0  0  0  0
    7.7353    0.7935   21.1696 C   0  0  0  0  0  0  0  0  0  0  0  0
    4.8705    1.6965   19.2289 C   0  0  0  0  0  0  0  0  0  0  0  0
   11.1145    1.2299   22.3382 C   0  0  0  0  0  0  0  0  0  0  0  0
    9.4486   -0.0921   24.5285 C   0  0  0  0  0  0  0  0  0  0  0  0
    5.3826    0.6235   18.3471 C   0  0  0  0  0  0  0  0  0  0  0  0
   11.5543    1.1640   23.8118 C   0  0  0  0  0  0  0  0  0  0  0  0
   10.9884   -0.0762   24.5267 C   0  0  0  0  0  0  0  0  0  0  0  0
    6.4904   -0.0688   19.1869 C   0  0  2  0  0  0  0  0  0  0  0  0
    5.9803   -1.3678   19.8059 C   0  0  0  0  0  0  0  0  0  0  0  0
    8.9807    1.1964   21.0308 N   0  0  0  0  0  0  0  0  0  0  0  0
    6.7778    0.9227   20.2127 N   0  0  0  0  0  0  0  0  0  0  0  0
    5.6938    1.8690   20.2521 N   0  3  0  0  0  0  0  0  0  0  0  0
    3.7569    2.3397   18.9356 N   0  0  0  0  0  0  0  0  0  0  0  0
    7.3258    0.0617   22.6715 S   0  0  0  0  0  0  0  0  0  0  0  0
   11.6921    0.5042   21.7532 H   0  0  0  0  0  0  0  0  0  0  0  0
   11.3288    2.2249   21.9331 H   0  0  0  0  0  0  0  0  0  0  0  0
    9.0797    0.6253   25.2715 H   0  0  0  0  0  0  0  0  0  0  0  0
    9.0928   -1.0866   24.8205 H   0  0  0  0  0  0  0  0  0  0  0  0
    4.5911   -0.0699   18.0464 H   0  0  0  0  0  0  0  0  0  0  0  0
    5.8186    1.0748   17.4486 H   0  0  0  0  0  0  0  0  0  0  0  0
   12.6487    1.1608   23.8668 H   0  0  0  0  0  0  0  0  0  0  0  0
   11.2101    2.0644   24.3367 H   0  0  0  0  0  0  0  0  0  0  0  0
   11.3541   -0.1114   25.5589 H   0  0  0  0  0  0  0  0  0  0  0  0
   11.3622   -0.9773   24.0237 H   0  0  0  0  0  0  0  0  0  0  0  0
    7.3684   -0.2719   18.5632 H   0  0  0  0  0  0  0  0  0  0  0  0
    5.1080   -1.1646   20.4253 H   0  0  0  0  0  0  0  0  0  0  0  0
    6.7589   -1.8140   20.4228 H   0  0  0  0  0  0  0  0  0  0  0  0
    5.7035   -2.0684   19.0195 H   0  0  0  0  0  0  0  0  0  0  0  0
    5.5476    2.5680   20.9700 H   0  0  0  0  0  0  0  0  0  0  0  0
    3.2269    2.1105   18.0958 H   0  0  0  0  0  0  0  0  0  0  0  0
    3.4046    3.0784   19.5430 H   0  0  0  0  0  0  0  0  0  0  0  0
  1  2  2  0  0  0  0
  1  5  1  0  0  0  0
  1 12  1  0  0  0  0
  2  6  1  0  0  0  0
  2 16  1  0  0  0  0
  3 12  2  0  0  0  0
  3 13  1  0  0  0  0
  3 16  1  0  0  0  0
  4  7  1  0  0  0  0
  4 14  2  0  0  0  0
  4 15  1  0  0  0  0
  5  8  1  0  0  0  0
  6  9  1  0  0  0  0
  7 10  1  0  0  0  0
  8  9  1  0  0  0  0
 10 11  1  0  0  0  0
 10 13  1  0  0  0  0
 13 14  1  0  0  0  0
  5 17  1  0  0  0  0
  5 18  1  0  0  0  0
  6 19  1  0  0  0  0
  6 20  1  0  0  0  0
  7 21  1  0  0  0  0
  7 22  1  0  0  0  0
  8 23  1  0  0  0  0
  8 24  1  0  0  0  0
  9 25  1  0  0  0  0
  9 26  1  0  0  0  0
 10 27  1  0  0  0  0
 11 28  1  0  0  0  0
 11 29  1  0  0  0  0
 11 30  1  0  0  0  0
 14 31  1  0  0  0  0
 15 32  1  0  0  0  0
 15 33  1  0  0  0  0
M  CHG  1  14   1
M  END
> <Hybrid2>
-9.059706

> <docked_fragment>
x0434

> <Mpro-_dock>
-0.683164

> <site>
active-noncovalent

$$$$
CHEMBL2110816
  -OEChem-04122014263D

 50 52  0     1  0  0  0  0  0999 V2000
   14.5432   -1.4941   21.5266 C   0  0  0  0  0  0  0  0  0  0  0  0
    8.6421   -2.0601   26.3860 C   0  0  0  0  0  0  0  0  0  0  0  0
   14.8318   -0.5697   22.5213 C   0  0  0  0  0  0  0  0  0  0  0  0
    9.1239   -0.8263   26.7851 C   0  0  0  0  0  0  0  0  0  0  0  0
   13.2233   -1.8804   21.3054 C   0  0  0  0  0  0  0  0  0  0  0  0
    9.0358   -2.5831   25.1567 C   0  0  0  0  0  0  0  0  0  0  0  0
   13.7989   -0.0318   23.2889 C   0  0  0  0  0  0  0  0  0  0  0  0
   10.0009   -0.1311   25.9546 C   0  0  0  0  0  0  0  0  0  0  0  0
   12.1739   -1.3467   22.0753 C   0  0  0  0  0  0  0  0  0  0  0  0
    9.9135   -1.8890   24.2888 C   0  0  0  0  0  0  0  0  0  0  0  0
   12.4568   -0.4107   23.0825 C   0  0  0  0  0  0  0  0  0  0  0  0
   10.4261   -0.6433   24.7024 C   0  0  0  0  0  0  0  0  0  0  0  0
   10.7714   -1.8232   21.8276 C   0  0  0  0  0  0  0  0  0  0  0  0
   10.2472   -2.6246   23.0100 C   0  0  0  0  0  0  0  0  0  0  0  0
   11.3798    0.2561   23.9214 C   0  0  2  0  0  0  0  0  0  0  0  0
   10.6496    2.6968   21.0388 C   0  0  0  0  0  0  0  0  0  0  0  0
   10.3684    4.3430   23.7056 C   0  0  0  0  0  0  0  0  0  0  0  0
   12.5294    5.5711   23.5548 C   0  0  0  0  0  0  0  0  0  0  0  0
   10.6220    1.3389   23.1375 C   0  0  0  0  0  0  0  0  0  0  0  0
   12.3913    3.1987   22.8109 C   0  0  0  0  0  0  0  0  0  0  0  0
   11.5169    2.1167   22.1622 C   0  0  2  0  0  0  0  0  0  0  0  0
   11.6698    4.4853   22.9536 N   0  3  0  0  0  0  0  0  0  0  0  0
   15.3427   -1.9160   20.9251 H   0  0  0  0  0  0  0  0  0  0  0  0
    7.9632   -2.6173   27.0240 H   0  0  0  0  0  0  0  0  0  0  0  0
   15.8580   -0.2621   22.6989 H   0  0  0  0  0  0  0  0  0  0  0  0
    8.8245   -0.4020   27.7385 H   0  0  0  0  0  0  0  0  0  0  0  0
   13.0169   -2.6118   20.5273 H   0  0  0  0  0  0  0  0  0  0  0  0
    8.6469   -3.5583   24.8670 H   0  0  0  0  0  0  0  0  0  0  0  0
   14.0528    0.6996   24.0532 H   0  0  0  0  0  0  0  0  0  0  0  0
   10.3623    0.8378   26.2965 H   0  0  0  0  0  0  0  0  0  0  0  0
   10.1108   -0.9902   21.5755 H   0  0  0  0  0  0  0  0  0  0  0  0
   10.7601   -2.4744   20.9435 H   0  0  0  0  0  0  0  0  0  0  0  0
   10.9587   -3.4234   23.2603 H   0  0  0  0  0  0  0  0  0  0  0  0
    9.3298   -3.1194   22.6615 H   0  0  0  0  0  0  0  0  0  0  0  0
   11.9368    0.8081   24.6943 H   0  0  0  0  0  0  0  0  0  0  0  0
    9.9350    3.4263   21.4344 H   0  0  0  0  0  0  0  0  0  0  0  0
   10.0882    1.9175   20.5136 H   0  0  0  0  0  0  0  0  0  0  0  0
   11.2727    3.2116   20.2995 H   0  0  0  0  0  0  0  0  0  0  0  0
   10.6016    3.9955   24.7137 H   0  0  0  0  0  0  0  0  0  0  0  0
    9.8874    5.3227   23.7295 H   0  0  0  0  0  0  0  0  0  0  0  0
    9.7524    3.6161   23.1728 H   0  0  0  0  0  0  0  0  0  0  0  0
   12.8147    5.2532   24.5593 H   0  0  0  0  0  0  0  0  0  0  0  0
   13.4072    5.6936   22.9176 H   0  0  0  0  0  0  0  0  0  0  0  0
   11.9366    6.4872   23.5868 H   0  0  0  0  0  0  0  0  0  0  0  0
   10.1364    2.0070   23.8512 H   0  0  0  0  0  0  0  0  0  0  0  0
    9.8262    0.8388   22.5796 H   0  0  0  0  0  0  0  0  0  0  0  0
   13.2790    3.4061   22.2045 H   0  0  0  0  0  0  0  0  0  0  0  0
   12.7214    2.9106   23.8131 H   0  0  0  0  0  0  0  0  0  0  0  0
   12.2036    1.3988   21.6931 H   0  0  0  0  0  0  0  0  0  0  0  0
   11.4164    4.8147   22.0057 H   0  0  0  0  0  0  0  0  0  0  0  0
  1  3  1  0  0  0  0
  1  5  2  0  0  0  0
  2  4  2  0  0  0  0
  2  6  1  0  0  0  0
  3  7  2  0  0  0  0
  4  8  1  0  0  0  0
  5  9  1  0  0  0  0
  6 10  2  0  0  0  0
  7 11  1  0  0  0  0
  8 12  2  0  0  0  0
  9 11  2  0  0  0  0
  9 13  1  0  0  0  0
 10 12  1  0  0  0  0
 10 14  1  0  0  0  0
 11 15  1  0  0  0  0
 12 15  1  0  0  0  0
 13 14  1  0  0  0  0
 15 19  1  0  0  0  0
 16 21  1  0  0  0  0
 17 22  1  0  0  0  0
 18 22  1  0  0  0  0
 19 21  1  0  0  0  0
 20 21  1  0  0  0  0
 20 22  1  0  0  0  0
  1 23  1  0  0  0  0
  2 24  1  0  0  0  0
  3 25  1  0  0  0  0
  4 26  1  0  0  0  0
  5 27  1  0  0  0  0
  6 28  1  0  0  0  0
  7 29  1  0  0  0  0
  8 30  1  0  0  0  0
 13 31  1  0  0  0  0
 13 32  1  0  0  0  0
 14 33  1  0  0  0  0
 14 34  1  0  0  0  0
 15 35  1  0  0  0  0
 16 36  1  0  0  0  0
 16 37  1  0  0  0  0
 16 38  1  0  0  0  0
 17 39  1  0  0  0  0
 17 40  1  0  0  0  0
 17 41  1  0  0  0  0
 18 42  1  0  0  0  0
 18 43  1  0  0  0  0
 18 44  1  0  0  0  0
 19 45  1  0  0  0  0
 19 46  1  0  0  0  0
 20 47  1  0  0  0  0
 20 48  1  0  0  0  0
 21 49  1  0  0  0  0
 22 50  1  0  0  0  0
M  CHG  1  22   1
M  END
> <Hybrid2>
-9.058302

> <docked_fragment>
x0195

> <Mpro-_dock>
0.257624

> <site>
active-noncovalent

$$$$
CHEMBL2110660
  -OEChem-04122014263D

 54 56  0     1  0  0  0  0  0999 V2000
   13.7978   -3.0886   24.0948 C   0  0  0  0  0  0  0  0  0  0  0  0
    9.6557    7.8173   24.3774 C   0  0  0  0  0  0  0  0  0  0  0  0
   14.3605   -1.9055   24.5735 C   0  0  0  0  0  0  0  0  0  0  0  0
   12.4595   -3.1156   23.7025 C   0  0  0  0  0  0  0  0  0  0  0  0
   10.7140    7.2621   25.0968 C   0  0  0  0  0  0  0  0  0  0  0  0
    9.0873    7.1119   23.3168 C   0  0  0  0  0  0  0  0  0  0  0  0
   13.5849   -0.7494   24.6600 C   0  0  0  0  0  0  0  0  0  0  0  0
   11.6839   -1.9595   23.7890 C   0  0  0  0  0  0  0  0  0  0  0  0
   11.2039    6.0016   24.7554 C   0  0  0  0  0  0  0  0  0  0  0  0
    9.5773    5.8514   22.9754 C   0  0  0  0  0  0  0  0  0  0  0  0
   12.2466   -0.7763   24.2677 C   0  0  0  0  0  0  0  0  0  0  0  0
   10.6356    5.2961   23.6947 C   0  0  0  0  0  0  0  0  0  0  0  0
   11.4279    0.4429   24.3589 C   0  0  0  0  0  0  0  0  0  0  0  0
   11.9133    1.6925   24.4291 C   0  0  0  0  0  0  0  0  0  0  0  0
    6.8263    2.0733   21.4937 C   0  0  0  0  0  0  0  0  0  0  0  0
    7.0261    3.5426   21.2470 C   0  0  0  0  0  0  0  0  0  0  0  0
    8.2163    2.6311   21.3617 C   0  0  0  0  0  0  0  0  0  0  0  0
   12.9886    4.8672   21.7051 C   0  0  0  0  0  0  0  0  0  0  0  0
   11.3101    2.2397   21.4758 C   0  0  0  0  0  0  0  0  0  0  0  0
   11.0378    2.9182   24.5175 C   0  0  0  0  0  0  0  0  0  0  0  0
    9.1235    2.7116   22.5699 C   0  0  0  0  0  0  0  0  0  0  0  0
   12.6760    3.9757   22.9047 C   0  0  0  0  0  0  0  0  0  0  0  0
   11.1742    3.9096   23.3184 C   0  0  2  0  0  0  0  0  0  0  0  0
   10.4517    3.2619   22.1532 N   0  3  1  0  0  0  0  0  0  0  0  0
   14.4020   -3.9884   24.0262 H   0  0  0  0  0  0  0  0  0  0  0  0
    9.2735    8.7983   24.6443 H   0  0  0  0  0  0  0  0  0  0  0  0
   15.4029   -1.8839   24.8779 H   0  0  0  0  0  0  0  0  0  0  0  0
   12.0215   -4.0364   23.3286 H   0  0  0  0  0  0  0  0  0  0  0  0
   11.1560    7.8108   25.9234 H   0  0  0  0  0  0  0  0  0  0  0  0
    8.2627    7.5434   22.7572 H   0  0  0  0  0  0  0  0  0  0  0  0
   14.0377    0.1654   25.0353 H   0  0  0  0  0  0  0  0  0  0  0  0
   10.6421   -1.9965   23.4793 H   0  0  0  0  0  0  0  0  0  0  0  0
   12.0289    5.5769   25.3213 H   0  0  0  0  0  0  0  0  0  0  0  0
    9.1283    5.3091   22.1474 H   0  0  0  0  0  0  0  0  0  0  0  0
   10.3515    0.2886   24.3770 H   0  0  0  0  0  0  0  0  0  0  0  0
   12.9859    1.8652   24.4441 H   0  0  0  0  0  0  0  0  0  0  0  0
    6.4799    1.7698   22.4739 H   0  0  0  0  0  0  0  0  0  0  0  0
    6.4449    1.4724   20.6772 H   0  0  0  0  0  0  0  0  0  0  0  0
    6.7790    3.9271   20.2650 H   0  0  0  0  0  0  0  0  0  0  0  0
    6.8133    4.2234   22.0620 H   0  0  0  0  0  0  0  0  0  0  0  0
    8.7649    2.4038   20.4556 H   0  0  0  0  0  0  0  0  0  0  0  0
   12.6402    5.8865   21.9030 H   0  0  0  0  0  0  0  0  0  0  0  0
   12.4864    4.5180   20.7984 H   0  0  0  0  0  0  0  0  0  0  0  0
   14.0629    4.9227   21.5091 H   0  0  0  0  0  0  0  0  0  0  0  0
   11.5022    1.4380   22.1913 H   0  0  0  0  0  0  0  0  0  0  0  0
   10.7641    1.8679   20.6067 H   0  0  0  0  0  0  0  0  0  0  0  0
   12.2388    2.7290   21.1761 H   0  0  0  0  0  0  0  0  0  0  0  0
   11.2857    3.4346   25.4552 H   0  0  0  0  0  0  0  0  0  0  0  0
    9.9885    2.6119   24.6260 H   0  0  0  0  0  0  0  0  0  0  0  0
    9.3066    1.7251   23.0047 H   0  0  0  0  0  0  0  0  0  0  0  0
    8.7221    3.3843   23.3328 H   0  0  0  0  0  0  0  0  0  0  0  0
   13.0366    2.9636   22.6754 H   0  0  0  0  0  0  0  0  0  0  0  0
   13.2851    4.3204   23.7499 H   0  0  0  0  0  0  0  0  0  0  0  0
   10.2751    4.0115   21.4768 H   0  0  0  0  0  0  0  0  0  0  0  0
  1  3  1  0  0  0  0
  1  4  2  0  0  0  0
  2  5  1  0  0  0  0
  2  6  2  0  0  0  0
  3  7  2  0  0  0  0
  4  8  1  0  0  0  0
  5  9  2  0  0  0  0
  6 10  1  0  0  0  0
  7 11  1  0  0  0  0
  8 11  2  0  0  0  0
  9 12  1  0  0  0  0
 10 12  2  0  0  0  0
 11 13  1  0  0  0  0
 12 23  1  0  0  0  0
 13 14  2  0  0  0  0
 14 20  1  0  0  0  0
 15 16  1  0  0  0  0
 15 17  1  0  0  0  0
 16 17  1  0  0  0  0
 17 21  1  0  0  0  0
 18 22  1  0  0  0  0
 19 24  1  0  0  0  0
 20 23  1  0  0  0  0
 21 24  1  0  0  0  0
 22 23  1  0  0  0  0
 23 24  1  0  0  0  0
  1 25  1  0  0  0  0
  2 26  1  0  0  0  0
  3 27  1  0  0  0  0
  4 28  1  0  0  0  0
  5 29  1  0  0  0  0
  6 30  1  0  0  0  0
  7 31  1  0  0  0  0
  8 32  1  0  0  0  0
  9 33  1  0  0  0  0
 10 34  1  0  0  0  0
 13 35  1  0  0  0  0
 14 36  1  0  0  0  0
 15 37  1  0  0  0  0
 15 38  1  0  0  0  0
 16 39  1  0  0  0  0
 16 40  1  0  0  0  0
 17 41  1  0  0  0  0
 18 42  1  0  0  0  0
 18 43  1  0  0  0  0
 18 44  1  0  0  0  0
 19 45  1  0  0  0  0
 19 46  1  0  0  0  0
 19 47  1  0  0  0  0
 20 48  1  0  0  0  0
 20 49  1  0  0  0  0
 21 50  1  0  0  0  0
 21 51  1  0  0  0  0
 22 52  1  0  0  0  0
 22 53  1  0  0  0  0
 24 54  1  0  0  0  0
M  CHG  1  24   1
M  END
> <Hybrid2>
-9.056583

> <docked_fragment>
x0161

> <Mpro-_dock>
2.642704

> <site>
active-noncovalent

$$$$
DB08655
  -OEChem-04122014263D

 30 32  0     0  0  0  0  0  0999 V2000
   14.4062   -1.2414   22.2763 C   0  0  0  0  0  0  0  0  0  0  0  0
   13.4109   -2.0355   22.8231 C   0  0  0  0  0  0  0  0  0  0  0  0
   14.2680    0.1458   22.2695 C   0  0  0  0  0  0  0  0  0  0  0  0
   12.2641   -1.4643   23.3857 C   0  0  0  0  0  0  0  0  0  0  0  0
   13.1185    0.7438   22.8329 C   0  0  0  0  0  0  0  0  0  0  0  0
   12.6906    2.0865   22.9458 C   0  0  0  0  0  0  0  0  0  0  0  0
   12.1285   -0.0606   23.4136 C   0  0  0  0  0  0  0  0  0  0  0  0
   11.4726    2.1006   23.6028 C   0  0  0  0  0  0  0  0  0  0  0  0
   10.8029    3.3475   23.9663 C   0  0  0  0  0  0  0  0  0  0  0  0
    9.8839    0.4012   24.4766 C   0  0  0  0  0  0  0  0  0  0  0  0
   13.3880    3.3196   22.4725 C   0  0  0  0  0  0  0  0  0  0  0  0
   11.3819    4.6020   23.3173 C   0  0  0  0  0  0  0  0  0  0  0  0
   12.9085    4.5484   23.2496 C   0  0  0  0  0  0  0  0  0  0  0  0
    9.9521   -0.3914   25.7429 C   0  0  0  0  0  0  0  0  0  0  0  0
   11.1039    0.7811   23.8795 N   0  0  0  0  0  0  0  0  0  0  0  0
    9.8355    3.4447   24.7184 O   0  0  0  0  0  0  0  0  0  0  0  0
    8.8294    0.7256   23.9464 O   0  0  0  0  0  0  0  0  0  0  0  0
   15.3012   -1.6976   21.8634 H   0  0  0  0  0  0  0  0  0  0  0  0
   13.5237   -3.1166   22.8233 H   0  0  0  0  0  0  0  0  0  0  0  0
   15.0525    0.7604   21.8359 H   0  0  0  0  0  0  0  0  0  0  0  0
   11.5136   -2.1274   23.7965 H   0  0  0  0  0  0  0  0  0  0  0  0
   14.4681    3.1913   22.6139 H   0  0  0  0  0  0  0  0  0  0  0  0
   13.2129    3.4766   21.4023 H   0  0  0  0  0  0  0  0  0  0  0  0
   10.9764    4.6882   22.3032 H   0  0  0  0  0  0  0  0  0  0  0  0
   11.0462    5.4721   23.8927 H   0  0  0  0  0  0  0  0  0  0  0  0
   13.3303    4.5359   24.2606 H   0  0  0  0  0  0  0  0  0  0  0  0
   13.2782    5.4563   22.7551 H   0  0  0  0  0  0  0  0  0  0  0  0
    9.9646    0.2828   26.5981 H   0  0  0  0  0  0  0  0  0  0  0  0
   10.8565   -0.9988   25.7484 H   0  0  0  0  0  0  0  0  0  0  0  0
    9.0853   -1.0477   25.8128 H   0  0  0  0  0  0  0  0  0  0  0  0
  1  2  1  0  0  0  0
  1  3  2  0  0  0  0
  2  4  2  0  0  0  0
  3  5  1  0  0  0  0
  4  7  1  0  0  0  0
  5  6  1  0  0  0  0
  5  7  2  0  0  0  0
  6  8  2  0  0  0  0
  6 11  1  0  0  0  0
  7 15  1  0  0  0  0
  8  9  1  0  0  0  0
  8 15  1  0  0  0  0
  9 12  1  0  0  0  0
  9 16  2  0  0  0  0
 10 14  1  0  0  0  0
 10 15  1  0  0  0  0
 10 17  2  0  0  0  0
 11 13  1  0  0  0  0
 12 13  1  0  0  0  0
  1 18  1  0  0  0  0
  2 19  1  0  0  0  0
  3 20  1  0  0  0  0
  4 21  1  0  0  0  0
 11 22  1  0  0  0  0
 11 23  1  0  0  0  0
 12 24  1  0  0  0  0
 12 25  1  0  0  0  0
 13 26  1  0  0  0  0
 13 27  1  0  0  0  0
 14 28  1  0  0  0  0
 14 29  1  0  0  0  0
 14 30  1  0  0  0  0
M  END
> <Hybrid2>
-9.054573

> <docked_fragment>
x0195

> <Mpro-_dock>
0.223334

> <site>
active-noncovalent

$$$$
CHEMBL2106771
  -OEChem-04122014263D

 35 36  0     0  0  0  0  0  0999 V2000
   10.6945   -1.6706   22.6414 C   0  0  0  0  0  0  0  0  0  0  0  0
    9.5732   -1.7191   21.8184 C   0  0  0  0  0  0  0  0  0  0  0  0
    8.7048   -5.0252   25.5500 C   0  0  0  0  0  0  0  0  0  0  0  0
   10.7634   -2.4790   23.7764 C   0  0  0  0  0  0  0  0  0  0  0  0
    8.5166   -2.5761   22.1273 C   0  0  0  0  0  0  0  0  0  0  0  0
    9.7615   -4.1682   25.2411 C   0  0  0  0  0  0  0  0  0  0  0  0
    7.5835   -5.0736   24.7270 C   0  0  0  0  0  0  0  0  0  0  0  0
    9.7091   -3.3475   24.1026 C   0  0  0  0  0  0  0  0  0  0  0  0
    8.5688   -3.3968   23.2657 C   0  0  0  0  0  0  0  0  0  0  0  0
    7.5145   -4.2653   23.5920 C   0  0  0  0  0  0  0  0  0  0  0  0
    6.7598   -4.8279   21.3112 C   0  0  0  0  0  0  0  0  0  0  0  0
    3.9613   -5.6078   22.5715 C   0  0  0  0  0  0  0  0  0  0  0  0
    5.0550   -2.2677   23.7209 C   0  0  0  0  0  0  0  0  0  0  0  0
    5.2644   -5.4117   23.3413 C   0  0  0  0  0  0  0  0  0  0  0  0
    5.5306   -3.0052   22.4703 C   0  0  0  0  0  0  0  0  0  0  0  0
    6.2418   -4.3701   22.7244 C   0  0  0  0  0  0  0  0  0  0  0  0
    5.8690   -4.9754   20.4229 O   0  5  0  0  0  0  0  0  0  0  0  0
    8.0087   -4.9958   21.2073 O   0  0  0  0  0  0  0  0  0  0  0  0
   11.5167   -1.0032   22.4004 H   0  0  0  0  0  0  0  0  0  0  0  0
    9.5205   -1.0894   20.9349 H   0  0  0  0  0  0  0  0  0  0  0  0
    8.7578   -5.6546   26.4336 H   0  0  0  0  0  0  0  0  0  0  0  0
   11.6496   -2.4246   24.4053 H   0  0  0  0  0  0  0  0  0  0  0  0
    7.6581   -2.5852   21.4598 H   0  0  0  0  0  0  0  0  0  0  0  0
   10.6281   -4.1469   25.8986 H   0  0  0  0  0  0  0  0  0  0  0  0
    6.7667   -5.7454   24.9784 H   0  0  0  0  0  0  0  0  0  0  0  0
    4.1444   -5.8877   21.5302 H   0  0  0  0  0  0  0  0  0  0  0  0
    3.3301   -6.3726   23.0324 H   0  0  0  0  0  0  0  0  0  0  0  0
    3.3905   -4.6731   22.5673 H   0  0  0  0  0  0  0  0  0  0  0  0
    5.8999   -2.1122   24.4003 H   0  0  0  0  0  0  0  0  0  0  0  0
    4.6389   -1.2851   23.4814 H   0  0  0  0  0  0  0  0  0  0  0  0
    4.3021   -2.8423   24.2674 H   0  0  0  0  0  0  0  0  0  0  0  0
    5.0039   -5.1344   24.3708 H   0  0  0  0  0  0  0  0  0  0  0  0
    5.7576   -6.3877   23.4302 H   0  0  0  0  0  0  0  0  0  0  0  0
    4.6584   -3.1415   21.8169 H   0  0  0  0  0  0  0  0  0  0  0  0
    6.2004   -2.3274   21.9266 H   0  0  0  0  0  0  0  0  0  0  0  0
  1  2  1  0  0  0  0
  1  4  2  0  0  0  0
  2  5  2  0  0  0  0
  3  6  1  0  0  0  0
  3  7  2  0  0  0  0
  4  8  1  0  0  0  0
  5  9  1  0  0  0  0
  6  8  2  0  0  0  0
  7 10  1  0  0  0  0
  8  9  1  0  0  0  0
  9 10  2  0  0  0  0
 10 16  1  0  0  0  0
 11 16  1  0  0  0  0
 11 17  1  0  0  0  0
 11 18  2  0  0  0  0
 12 14  1  0  0  0  0
 13 15  1  0  0  0  0
 14 16  1  0  0  0  0
 15 16  1  0  0  0  0
  1 19  1  0  0  0  0
  2 20  1  0  0  0  0
  3 21  1  0  0  0  0
  4 22  1  0  0  0  0
  5 23  1  0  0  0  0
  6 24  1  0  0  0  0
  7 25  1  0  0  0  0
 12 26  1  0  0  0  0
 12 27  1  0  0  0  0
 12 28  1  0  0  0  0
 13 29  1  0  0  0  0
 13 30  1  0  0  0  0
 13 31  1  0  0  0  0
 14 32  1  0  0  0  0
 14 33  1  0  0  0  0
 15 34  1  0  0  0  0
 15 35  1  0  0  0  0
M  CHG  1  17  -1
M  END
> <Hybrid2>
-9.052024

> <docked_fragment>
x0759

> <Mpro-_dock>
0.451238

> <site>
active-covalent

$$$$
CHEMBL190279
  -OEChem-04122014263D

 56 59  0     1  0  0  0  0  0999 V2000
    9.5650   -1.9058   22.9395 C   0  0  0  0  0  0  0  0  0  0  0  0
   13.6722   -0.8067   25.0207 C   0  0  0  0  0  0  0  0  0  0  0  0
   11.0427   -1.5787   23.1233 C   0  0  0  0  0  0  0  0  0  0  0  0
   13.2683   -3.1842   25.7680 C   0  0  0  0  0  0  0  0  0  0  0  0
   11.9951   -4.0470   25.8019 C   0  0  0  0  0  0  0  0  0  0  0  0
    7.9893   -5.7839   24.4482 C   0  0  0  0  0  0  0  0  0  0  0  0
    9.4571   -5.4206   24.6519 C   0  0  0  0  0  0  0  0  0  0  0  0
    5.7428   -3.8539   21.1808 C   0  0  0  0  0  0  0  0  0  0  0  0
    7.1569   -3.3549   21.5075 C   0  0  0  0  0  0  0  0  0  0  0  0
    6.0504   -5.7651   22.8191 C   0  0  0  0  0  0  0  0  0  0  0  0
    9.1576   -3.3850   23.1320 C   0  0  1  0  0  0  0  0  0  0  0  0
   13.0445   -2.1213   24.6727 C   0  0  1  0  0  0  0  0  0  0  0  0
    7.4809   -5.2713   23.0961 C   0  0  1  0  0  0  0  0  0  0  0  0
    9.7146   -3.9163   24.4910 C   0  0  2  0  0  0  0  0  0  0  0  0
   11.2139   -3.5977   24.5708 C   0  0  1  0  0  0  0  0  0  0  0  0
    5.5713   -5.3495   21.4276 C   0  0  2  0  0  0  0  0  0  0  0  0
   11.5120   -2.0831   24.4888 C   0  0  2  0  0  0  0  0  0  0  0  0
    7.6342   -3.7197   22.9438 C   0  0  2  0  0  0  0  0  0  0  0  0
   13.5368    0.2972   24.0072 C   0  0  0  0  0  0  0  0  0  0  0  0
   10.8330   -1.2466   25.6056 C   0  0  0  0  0  0  0  0  0  0  0  0
    6.7700   -2.9545   23.9783 C   0  0  0  0  0  0  0  0  0  0  0  0
    8.7851   -1.0220   22.5899 O   0  0  0  0  0  0  0  0  0  0  0  0
   14.2673   -0.6373   26.0838 O   0  0  0  0  0  0  0  0  0  0  0  0
    6.3128   -6.0565   20.4334 O   0  0  0  0  0  0  0  0  0  0  0  0
   11.5927   -2.0515   22.3014 H   0  0  0  0  0  0  0  0  0  0  0  0
   11.1861   -0.4960   23.0332 H   0  0  0  0  0  0  0  0  0  0  0  0
   13.4529   -2.7418   26.7536 H   0  0  0  0  0  0  0  0  0  0  0  0
   14.1431   -3.7972   25.5222 H   0  0  0  0  0  0  0  0  0  0  0  0
   12.2382   -5.1139   25.7673 H   0  0  0  0  0  0  0  0  0  0  0  0
   11.4330   -3.8654   26.7246 H   0  0  0  0  0  0  0  0  0  0  0  0
    7.8899   -6.8754   24.4936 H   0  0  0  0  0  0  0  0  0  0  0  0
    7.3852   -5.3846   25.2705 H   0  0  0  0  0  0  0  0  0  0  0  0
    9.7665   -5.7524   25.6498 H   0  0  0  0  0  0  0  0  0  0  0  0
   10.0676   -5.9802   23.9314 H   0  0  0  0  0  0  0  0  0  0  0  0
    5.0082   -3.2972   21.7733 H   0  0  0  0  0  0  0  0  0  0  0  0
    5.5356   -3.6287   20.1273 H   0  0  0  0  0  0  0  0  0  0  0  0
    7.8561   -3.7766   20.7734 H   0  0  0  0  0  0  0  0  0  0  0  0
    7.1674   -2.2717   21.3513 H   0  0  0  0  0  0  0  0  0  0  0  0
    6.0340   -6.8600   22.8917 H   0  0  0  0  0  0  0  0  0  0  0  0
    5.3583   -5.3890   23.5805 H   0  0  0  0  0  0  0  0  0  0  0  0
    9.6948   -3.9113   22.3270 H   0  0  0  0  0  0  0  0  0  0  0  0
   13.5279   -2.4613   23.7471 H   0  0  0  0  0  0  0  0  0  0  0  0
    8.1222   -5.7385   22.3324 H   0  0  0  0  0  0  0  0  0  0  0  0
    9.2080   -3.4106   25.3197 H   0  0  0  0  0  0  0  0  0  0  0  0
   11.6903   -4.0930   23.7079 H   0  0  0  0  0  0  0  0  0  0  0  0
    4.5182   -5.6226   21.2989 H   0  0  0  0  0  0  0  0  0  0  0  0
   12.6258    0.8691   24.2042 H   0  0  0  0  0  0  0  0  0  0  0  0
   13.4747   -0.1320   23.0042 H   0  0  0  0  0  0  0  0  0  0  0  0
   14.3970    0.9673   24.0783 H   0  0  0  0  0  0  0  0  0  0  0  0
   11.1721   -1.6121   26.5644 H   0  0  0  0  0  0  0  0  0  0  0  0
    9.7618   -1.3601   25.5180 H   0  0  0  0  0  0  0  0  0  0  0  0
   11.1126   -0.2105   25.4783 H   0  0  0  0  0  0  0  0  0  0  0  0
    7.1084   -3.2140   24.9720 H   0  0  0  0  0  0  0  0  0  0  0  0
    5.7364   -3.2438   23.8478 H   0  0  0  0  0  0  0  0  0  0  0  0
    6.8859   -1.8929   23.8088 H   0  0  0  0  0  0  0  0  0  0  0  0
    5.9431   -5.7932   19.5772 H   0  0  0  0  0  0  0  0  0  0  0  0
  1  3  1  0  0  0  0
  1 11  1  0  0  0  0
  1 22  2  0  0  0  0
  2 12  1  0  0  0  0
  2 19  1  0  0  0  0
  2 23  2  0  0  0  0
  3 17  1  0  0  0  0
  4  5  1  0  0  0  0
  4 12  1  0  0  0  0
  5 15  1  0  0  0  0
  6  7  1  0  0  0  0
  6 13  1  0  0  0  0
  7 14  1  0  0  0  0
  8  9  1  0  0  0  0
  8 16  1  0  0  0  0
  9 18  1  0  0  0  0
 10 13  1  0  0  0  0
 10 16  1  0  0  0  0
 11 14  1  0  0  0  0
 11 18  1  0  0  0  0
 12 17  1  0  0  0  0
 13 18  1  0  0  0  0
 14 15  1  0  0  0  0
 15 17  1  0  0  0  0
 16 24  1  0  0  0  0
 17 20  1  0  0  0  0
 18 21  1  0  0  0  0
  3 25  1  0  0  0  0
  3 26  1  0  0  0  0
  4 27  1  0  0  0  0
  4 28  1  0  0  0  0
  5 29  1  0  0  0  0
  5 30  1  0  0  0  0
  6 31  1  0  0  0  0
  6 32  1  0  0  0  0
  7 33  1  0  0  0  0
  7 34  1  0  0  0  0
  8 35  1  0  0  0  0
  8 36  1  0  0  0  0
  9 37  1  0  0  0  0
  9 38  1  0  0  0  0
 10 39  1  0  0  0  0
 10 40  1  0  0  0  0
 11 41  1  0  0  0  0
 12 42  1  0  0  0  0
 13 43  1  0  0  0  0
 14 44  1  0  0  0  0
 15 45  1  0  0  0  0
 16 46  1  0  0  0  0
 19 47  1  0  0  0  0
 19 48  1  0  0  0  0
 19 49  1  0  0  0  0
 20 50  1  0  0  0  0
 20 51  1  0  0  0  0
 20 52  1  0  0  0  0
 21 53  1  0  0  0  0
 21 54  1  0  0  0  0
 21 55  1  0  0  0  0
 24 56  1  0  0  0  0
M  END
> <Hybrid2>
-9.049335

> <docked_fragment>
x0749

> <Mpro-_dock>
3.924456

> <site>
active-covalent

$$$$
CHEMBL887
  -OEChem-04122014263D

 27 28  0     1  0  0  0  0  0999 V2000
    7.9982    0.0669   19.4070 C   0  0  0  0  0  0  0  0  0  0  0  0
    8.8312   -0.2385   20.2158 C   0  0  0  0  0  0  0  0  0  0  0  0
   14.3488   -0.0923   22.6830 C   0  0  0  0  0  0  0  0  0  0  0  0
   14.3585   -1.0431   21.6499 C   0  0  0  0  0  0  0  0  0  0  0  0
   13.2536    0.0143   23.5429 C   0  0  0  0  0  0  0  0  0  0  0  0
   13.2728   -1.9008   21.4611 C   0  0  0  0  0  0  0  0  0  0  0  0
   12.1866   -0.8480   23.3563 C   0  0  0  0  0  0  0  0  0  0  0  0
   12.1944   -1.7948   22.3237 C   0  0  0  0  0  0  0  0  0  0  0  0
   10.8993   -0.8982   24.1188 C   0  0  0  0  0  0  0  0  0  0  0  0
   10.3665   -2.2832   23.7132 C   0  0  0  0  0  0  0  0  0  0  0  0
   10.9158   -2.5730   22.3049 C   0  0  1  0  0  0  0  0  0  0  0  0
    9.8455   -0.6045   21.2010 C   0  0  0  0  0  0  0  0  0  0  0  0
    9.9505   -2.0859   21.2860 N   0  3  0  0  0  0  0  0  0  0  0  0
    7.2591    0.3371   18.6895 H   0  0  0  0  0  0  0  0  0  0  0  0
   15.2003    0.5709   22.8094 H   0  0  0  0  0  0  0  0  0  0  0  0
   15.2183   -1.1070   20.9884 H   0  0  0  0  0  0  0  0  0  0  0  0
   13.2440    0.7563   24.3341 H   0  0  0  0  0  0  0  0  0  0  0  0
   13.2780   -2.6285   20.6567 H   0  0  0  0  0  0  0  0  0  0  0  0
   11.0503   -0.8313   25.1998 H   0  0  0  0  0  0  0  0  0  0  0  0
   10.2294   -0.1004   23.7822 H   0  0  0  0  0  0  0  0  0  0  0  0
   10.7706   -3.0332   24.4085 H   0  0  0  0  0  0  0  0  0  0  0  0
    9.2755   -2.3487   23.7844 H   0  0  0  0  0  0  0  0  0  0  0  0
   11.0650   -3.6437   22.1361 H   0  0  0  0  0  0  0  0  0  0  0  0
    9.5899   -0.2490   22.2028 H   0  0  0  0  0  0  0  0  0  0  0  0
   10.8364   -0.2339   20.9254 H   0  0  0  0  0  0  0  0  0  0  0  0
   10.2161   -2.4574   20.3632 H   0  0  0  0  0  0  0  0  0  0  0  0
    9.0198   -2.4779   21.4871 H   0  0  0  0  0  0  0  0  0  0  0  0
  1  2  3  0  0  0  0
  2 12  1  0  0  0  0
  3  4  2  0  0  0  0
  3  5  1  0  0  0  0
  4  6  1  0  0  0  0
  5  7  2  0  0  0  0
  6  8  2  0  0  0  0
  7  8  1  0  0  0  0
  7  9  1  0  0  0  0
  8 11  1  0  0  0  0
  9 10  1  0  0  0  0
 10 11  1  0  0  0  0
 11 13  1  0  0  0  0
 12 13  1  0  0  0  0
  1 14  1  0  0  0  0
  3 15  1  0  0  0  0
  4 16  1  0  0  0  0
  5 17  1  0  0  0  0
  6 18  1  0  0  0  0
  9 19  1  0  0  0  0
  9 20  1  0  0  0  0
 10 21  1  0  0  0  0
 10 22  1  0  0  0  0
 11 23  1  0  0  0  0
 12 24  1  0  0  0  0
 12 25  1  0  0  0  0
 13 26  1  0  0  0  0
 13 27  1  0  0  0  0
M  CHG  1  13   1
M  END
> <Hybrid2>
-9.048687

> <docked_fragment>
x1382

> <Mpro-_dock>
-0.968121

> <site>
active-covalent

$$$$
CHEMBL2107797
  -OEChem-04122014263D

 51 54  0     1  0  0  0  0  0999 V2000
    4.8808   -6.8782   22.6711 C   0  0  0  0  0  0  0  0  0  0  0  0
    5.7711   -6.1298   22.3739 C   0  0  0  0  0  0  0  0  0  0  0  0
   13.1018   -1.1614   24.7391 C   0  0  0  0  0  0  0  0  0  0  0  0
   11.9613   -1.7158   24.2988 C   0  0  0  0  0  0  0  0  0  0  0  0
   13.7017   -1.5842   26.0274 C   0  0  0  0  0  0  0  0  0  0  0  0
   11.4062   -1.3421   22.9464 C   0  0  0  0  0  0  0  0  0  0  0  0
   13.0525   -2.7081   26.8013 C   0  0  0  0  0  0  0  0  0  0  0  0
    9.8814   -1.4053   22.8727 C   0  0  0  0  0  0  0  0  0  0  0  0
   12.2133   -3.6125   25.9054 C   0  0  0  0  0  0  0  0  0  0  0  0
    7.2852   -2.7862   21.7581 C   0  0  0  0  0  0  0  0  0  0  0  0
    9.6967   -4.8682   24.7642 C   0  0  0  0  0  0  0  0  0  0  0  0
    6.3408   -3.9274   21.3205 C   0  0  0  0  0  0  0  0  0  0  0  0
    8.7406   -5.6069   23.8080 C   0  0  0  0  0  0  0  0  0  0  0  0
   11.2186   -2.7861   25.0820 C   0  0  2  0  0  0  0  0  0  0  0  0
    9.2639   -2.6731   23.5006 C   0  0  2  0  0  0  0  0  0  0  0  0
   10.3388   -3.6203   24.1196 C   0  0  2  0  0  0  0  0  0  0  0  0
    8.4016   -3.4858   22.5294 C   0  0  1  0  0  0  0  0  0  0  0  0
    6.8597   -5.2140   22.0102 C   0  0  1  0  0  0  0  0  0  0  0  0
    7.6705   -4.6677   23.2215 C   0  0  1  0  0  0  0  0  0  0  0  0
    6.0441   -5.3881   24.9782 C   0  0  0  0  0  0  0  0  0  0  0  0
    6.7114   -4.2159   24.3622 C   0  0  0  0  0  0  0  0  0  0  0  0
   14.6913   -0.9950   26.4595 O   0  0  0  0  0  0  0  0  0  0  0  0
    7.7343   -5.8876   21.1006 O   0  0  0  0  0  0  0  0  0  0  0  0
    4.0911   -7.5423   22.9348 H   0  0  0  0  0  0  0  0  0  0  0  0
   13.5861   -0.3433   24.2167 H   0  0  0  0  0  0  0  0  0  0  0  0
   11.7353   -0.3169   22.7103 H   0  0  0  0  0  0  0  0  0  0  0  0
   11.8231   -1.9824   22.1524 H   0  0  0  0  0  0  0  0  0  0  0  0
   13.8445   -3.3070   27.2804 H   0  0  0  0  0  0  0  0  0  0  0  0
   12.4402   -2.2685   27.6062 H   0  0  0  0  0  0  0  0  0  0  0  0
    9.4706   -0.5011   23.3710 H   0  0  0  0  0  0  0  0  0  0  0  0
    9.5578   -1.3178   21.8113 H   0  0  0  0  0  0  0  0  0  0  0  0
   12.8808   -4.1661   25.2445 H   0  0  0  0  0  0  0  0  0  0  0  0
   11.6891   -4.3290   26.5340 H   0  0  0  0  0  0  0  0  0  0  0  0
    7.6709   -2.2407   20.8913 H   0  0  0  0  0  0  0  0  0  0  0  0
    6.7485   -2.0689   22.3884 H   0  0  0  0  0  0  0  0  0  0  0  0
    9.1677   -4.5869   25.6784 H   0  0  0  0  0  0  0  0  0  0  0  0
   10.4728   -5.5794   25.0602 H   0  0  0  0  0  0  0  0  0  0  0  0
    5.3172   -3.6761   21.6230 H   0  0  0  0  0  0  0  0  0  0  0  0
    6.3453   -4.0247   20.2289 H   0  0  0  0  0  0  0  0  0  0  0  0
    9.3418   -6.0508   23.0053 H   0  0  0  0  0  0  0  0  0  0  0  0
    8.2672   -6.4418   24.3376 H   0  0  0  0  0  0  0  0  0  0  0  0
   10.5608   -2.2384   25.7817 H   0  0  0  0  0  0  0  0  0  0  0  0
    8.6013   -2.3175   24.3354 H   0  0  0  0  0  0  0  0  0  0  0  0
   10.9692   -3.9621   23.2945 H   0  0  0  0  0  0  0  0  0  0  0  0
    9.0950   -3.8909   21.7757 H   0  0  0  0  0  0  0  0  0  0  0  0
    5.4586   -5.9013   24.2063 H   0  0  0  0  0  0  0  0  0  0  0  0
    5.3598   -5.0845   25.7776 H   0  0  0  0  0  0  0  0  0  0  0  0
    6.7743   -6.0988   25.3793 H   0  0  0  0  0  0  0  0  0  0  0  0
    7.3031   -3.6784   25.0941 H   0  0  0  0  0  0  0  0  0  0  0  0
    5.9836   -3.5394   23.9295 H   0  0  0  0  0  0  0  0  0  0  0  0
    8.4378   -5.2584   20.8819 H   0  0  0  0  0  0  0  0  0  0  0  0
  1  2  3  0  0  0  0
  2 18  1  0  0  0  0
  3  4  2  0  0  0  0
  3  5  1  0  0  0  0
  4  6  1  0  0  0  0
  4 14  1  0  0  0  0
  5  7  1  0  0  0  0
  5 22  2  0  0  0  0
  6  8  1  0  0  0  0
  7  9  1  0  0  0  0
  8 15  1  0  0  0  0
  9 14  1  0  0  0  0
 10 12  1  0  0  0  0
 10 17  1  0  0  0  0
 11 13  1  0  0  0  0
 11 16  1  0  0  0  0
 12 18  1  0  0  0  0
 13 19  1  0  0  0  0
 14 16  1  0  0  0  0
 15 16  1  0  0  0  0
 15 17  1  0  0  0  0
 17 19  1  0  0  0  0
 18 19  1  0  0  0  0
 18 23  1  0  0  0  0
 19 21  1  0  0  0  0
 20 21  1  0  0  0  0
  1 24  1  0  0  0  0
  3 25  1  0  0  0  0
  6 26  1  0  0  0  0
  6 27  1  0  0  0  0
  7 28  1  0  0  0  0
  7 29  1  0  0  0  0
  8 30  1  0  0  0  0
  8 31  1  0  0  0  0
  9 32  1  0  0  0  0
  9 33  1  0  0  0  0
 10 34  1  0  0  0  0
 10 35  1  0  0  0  0
 11 36  1  0  0  0  0
 11 37  1  0  0  0  0
 12 38  1  0  0  0  0
 12 39  1  0  0  0  0
 13 40  1  0  0  0  0
 13 41  1  0  0  0  0
 14 42  1  0  0  0  0
 15 43  1  0  0  0  0
 16 44  1  0  0  0  0
 17 45  1  0  0  0  0
 20 46  1  0  0  0  0
 20 47  1  0  0  0  0
 20 48  1  0  0  0  0
 21 49  1  0  0  0  0
 21 50  1  0  0  0  0
 23 51  1  0  0  0  0
M  END
> <Hybrid2>
-9.002963

> <docked_fragment>
x0749

> <Mpro-_dock>
2.616094

> <site>
active-covalent

$$$$
CHEMBL75880
  -OEChem-04122014263D

 56 58  0     1  0  0  0  0  0999 V2000
    5.5309    1.2475   18.3990 C   0  0  0  0  0  0  0  0  0  0  0  0
    7.2958   -4.4055   23.5639 C   0  0  0  0  0  0  0  0  0  0  0  0
    5.0569    1.5323   19.8208 C   0  0  0  0  0  0  0  0  0  0  0  0
    6.0485   -0.1804   18.2557 C   0  0  0  0  0  0  0  0  0  0  0  0
    8.6682   -3.7423   23.6248 C   0  0  0  0  0  0  0  0  0  0  0  0
    6.6052   -4.1442   22.2290 C   0  0  0  0  0  0  0  0  0  0  0  0
   12.2780    1.3500   23.1403 C   0  0  0  0  0  0  0  0  0  0  0  0
   11.5361    1.8652   24.3711 C   0  0  0  0  0  0  0  0  0  0  0  0
    6.1431    1.2246   20.8490 C   0  0  0  0  0  0  0  0  0  0  0  0
    7.1362   -0.4911   19.2814 C   0  0  0  0  0  0  0  0  0  0  0  0
    8.5860   -2.2483   23.3200 C   0  0  0  0  0  0  0  0  0  0  0  0
    6.5196   -2.6509   21.9217 C   0  0  0  0  0  0  0  0  0  0  0  0
   11.3239    1.1215   21.9694 C   0  0  0  0  0  0  0  0  0  0  0  0
   10.3764    0.9569   24.7471 C   0  0  0  0  0  0  0  0  0  0  0  0
    6.6600   -0.2140   20.7138 C   0  0  0  0  0  0  0  0  0  0  0  0
    7.8997   -1.9817   21.9735 C   0  0  0  0  0  0  0  0  0  0  0  0
   10.1625    0.2072   22.3599 C   0  0  2  0  0  0  0  0  0  0  0  0
    9.1369    0.0750   21.2436 C   0  0  0  0  0  0  0  0  0  0  0  0
    7.7814   -0.4807   21.7161 C   0  0  0  0  0  0  0  0  0  0  0  0
    9.4791    0.7878   23.5644 N   0  3  0  0  0  0  0  0  0  0  0  0
    4.7072    1.4134   17.6956 H   0  0  0  0  0  0  0  0  0  0  0  0
    6.3278    1.9525   18.1323 H   0  0  0  0  0  0  0  0  0  0  0  0
    7.4008   -5.4852   23.7195 H   0  0  0  0  0  0  0  0  0  0  0  0
    6.6696   -4.0231   24.3793 H   0  0  0  0  0  0  0  0  0  0  0  0
    4.7564    2.5829   19.9048 H   0  0  0  0  0  0  0  0  0  0  0  0
    4.1677    0.9276   20.0376 H   0  0  0  0  0  0  0  0  0  0  0  0
    5.2169   -0.8848   18.3813 H   0  0  0  0  0  0  0  0  0  0  0  0
    6.4424   -0.3290   17.2438 H   0  0  0  0  0  0  0  0  0  0  0  0
    9.1056   -3.8926   24.6184 H   0  0  0  0  0  0  0  0  0  0  0  0
    9.3397   -4.2251   22.9041 H   0  0  0  0  0  0  0  0  0  0  0  0
    7.1565   -4.6505   21.4271 H   0  0  0  0  0  0  0  0  0  0  0  0
    5.5979   -4.5758   22.2453 H   0  0  0  0  0  0  0  0  0  0  0  0
   13.0560    2.0650   22.8501 H   0  0  0  0  0  0  0  0  0  0  0  0
   12.7842    0.4086   23.3871 H   0  0  0  0  0  0  0  0  0  0  0  0
   12.2320    1.9403   25.2141 H   0  0  0  0  0  0  0  0  0  0  0  0
   11.1628    2.8783   24.1763 H   0  0  0  0  0  0  0  0  0  0  0  0
    6.9717    1.9329   20.7202 H   0  0  0  0  0  0  0  0  0  0  0  0
    5.7428    1.3854   21.8572 H   0  0  0  0  0  0  0  0  0  0  0  0
    7.4366   -1.5411   19.1833 H   0  0  0  0  0  0  0  0  0  0  0  0
    8.0240    0.1149   19.0593 H   0  0  0  0  0  0  0  0  0  0  0  0
    8.0350   -1.7463   24.1258 H   0  0  0  0  0  0  0  0  0  0  0  0
    9.5971   -1.8238   23.3154 H   0  0  0  0  0  0  0  0  0  0  0  0
    6.0724   -2.5106   20.9303 H   0  0  0  0  0  0  0  0  0  0  0  0
    5.8455   -2.1728   22.6442 H   0  0  0  0  0  0  0  0  0  0  0  0
   10.9425    2.0892   21.6185 H   0  0  0  0  0  0  0  0  0  0  0  0
   11.8785    0.6793   21.1334 H   0  0  0  0  0  0  0  0  0  0  0  0
   10.7135   -0.0410   25.0463 H   0  0  0  0  0  0  0  0  0  0  0  0
    9.7706    1.3894   25.5487 H   0  0  0  0  0  0  0  0  0  0  0  0
    5.8338   -0.9007   20.9416 H   0  0  0  0  0  0  0  0  0  0  0  0
    8.5219   -2.4137   21.1779 H   0  0  0  0  0  0  0  0  0  0  0  0
   10.5261   -0.7848   22.6529 H   0  0  0  0  0  0  0  0  0  0  0  0
    8.9977    1.0533   20.7675 H   0  0  0  0  0  0  0  0  0  0  0  0
    9.5514   -0.5920   20.4774 H   0  0  0  0  0  0  0  0  0  0  0  0
    7.5166    0.0020   22.6661 H   0  0  0  0  0  0  0  0  0  0  0  0
    8.6904    0.1830   23.8328 H   0  0  0  0  0  0  0  0  0  0  0  0
    9.0616    1.6977   23.3225 H   0  0  0  0  0  0  0  0  0  0  0  0
  1  3  1  0  0  0  0
  1  4  1  0  0  0  0
  2  5  1  0  0  0  0
  2  6  1  0  0  0  0
  3  9  1  0  0  0  0
  4 10  1  0  0  0  0
  5 11  1  0  0  0  0
  6 12  1  0  0  0  0
  7  8  1  0  0  0  0
  7 13  1  0  0  0  0
  8 14  1  0  0  0  0
  9 15  1  0  0  0  0
 10 15  1  0  0  0  0
 11 16  1  0  0  0  0
 12 16  1  0  0  0  0
 13 17  1  0  0  0  0
 14 20  1  0  0  0  0
 15 19  1  0  0  0  0
 16 19  1  0  0  0  0
 17 18  1  0  0  0  0
 17 20  1  0  0  0  0
 18 19  1  0  0  0  0
  1 21  1  0  0  0  0
  1 22  1  0  0  0  0
  2 23  1  0  0  0  0
  2 24  1  0  0  0  0
  3 25  1  0  0  0  0
  3 26  1  0  0  0  0
  4 27  1  0  0  0  0
  4 28  1  0  0  0  0
  5 29  1  0  0  0  0
  5 30  1  0  0  0  0
  6 31  1  0  0  0  0
  6 32  1  0  0  0  0
  7 33  1  0  0  0  0
  7 34  1  0  0  0  0
  8 35  1  0  0  0  0
  8 36  1  0  0  0  0
  9 37  1  0  0  0  0
  9 38  1  0  0  0  0
 10 39  1  0  0  0  0
 10 40  1  0  0  0  0
 11 41  1  0  0  0  0
 11 42  1  0  0  0  0
 12 43  1  0  0  0  0
 12 44  1  0  0  0  0
 13 45  1  0  0  0  0
 13 46  1  0  0  0  0
 14 47  1  0  0  0  0
 14 48  1  0  0  0  0
 15 49  1  0  0  0  0
 16 50  1  0  0  0  0
 17 51  1  0  0  0  0
 18 52  1  0  0  0  0
 18 53  1  0  0  0  0
 19 54  1  0  0  0  0
 20 55  1  0  0  0  0
 20 56  1  0  0  0  0
M  CHG  1  20   1
M  END
> <Hybrid2>
-8.983480

> <docked_fragment>
x0434

> <Mpro-_dock>
-0.388464

> <site>
active-noncovalent

$$$$
DB08440
  -OEChem-04122014263D

 29 31  0     0  0  0  0  0  0999 V2000
   13.6924   -1.9873   22.6012 C   0  0  0  0  0  0  0  0  0  0  0  0
    9.4440    3.1346   24.6058 C   0  0  0  0  0  0  0  0  0  0  0  0
   14.0160   -0.6748   22.2954 C   0  0  0  0  0  0  0  0  0  0  0  0
   10.6004    3.4430   23.9070 C   0  0  0  0  0  0  0  0  0  0  0  0
   13.4874    1.6997   22.3885 C   0  0  0  0  0  0  0  0  0  0  0  0
   12.5241   -2.2053   23.2989 C   0  0  0  0  0  0  0  0  0  0  0  0
    9.1984    1.8042   24.8680 C   0  0  0  0  0  0  0  0  0  0  0  0
   13.1720    0.3719   22.6911 C   0  0  0  0  0  0  0  0  0  0  0  0
   11.4699    2.4240   23.4943 C   0  0  0  0  0  0  0  0  0  0  0  0
   11.9926    0.0585   23.4037 C   0  0  0  0  0  0  0  0  0  0  0  0
   11.1408    1.0854   23.8056 C   0  0  0  0  0  0  0  0  0  0  0  0
   12.6393    2.7223   22.7887 C   0  0  0  0  0  0  0  0  0  0  0  0
   14.1318    4.4684   21.7652 C   0  0  0  0  0  0  0  0  0  0  0  0
   14.1527    5.9692   21.6179 C   0  0  0  0  0  0  0  0  0  0  0  0
   11.6850   -1.2218   23.6974 N   0  0  0  0  0  0  0  0  0  0  0  0
   10.0130    0.7939   24.4863 N   0  0  0  0  0  0  0  0  0  0  0  0
   12.9993    4.0351   22.4615 N   0  0  0  0  0  0  0  0  0  0  0  0
   15.0337    3.7790   21.3000 O   0  0  0  0  0  0  0  0  0  0  0  0
   14.3333   -2.8083   22.3030 H   0  0  0  0  0  0  0  0  0  0  0  0
    8.7606    3.9093   24.9326 H   0  0  0  0  0  0  0  0  0  0  0  0
   14.9325   -0.4728   21.7454 H   0  0  0  0  0  0  0  0  0  0  0  0
   10.8033    4.4900   23.6949 H   0  0  0  0  0  0  0  0  0  0  0  0
   14.3978    1.9341   21.8393 H   0  0  0  0  0  0  0  0  0  0  0  0
   12.2156   -3.2099   23.5685 H   0  0  0  0  0  0  0  0  0  0  0  0
    8.3102    1.4982   25.4109 H   0  0  0  0  0  0  0  0  0  0  0  0
   14.6729    6.4175   22.4691 H   0  0  0  0  0  0  0  0  0  0  0  0
   13.1287    6.3523   21.5866 H   0  0  0  0  0  0  0  0  0  0  0  0
   14.6619    6.2462   20.6902 H   0  0  0  0  0  0  0  0  0  0  0  0
   12.3545    4.7694   22.7688 H   0  0  0  0  0  0  0  0  0  0  0  0
  1  3  2  0  0  0  0
  1  6  1  0  0  0  0
  2  4  2  0  0  0  0
  2  7  1  0  0  0  0
  3  8  1  0  0  0  0
  4  9  1  0  0  0  0
  5  8  2  0  0  0  0
  5 12  1  0  0  0  0
  6 15  2  0  0  0  0
  7 16  2  0  0  0  0
  8 10  1  0  0  0  0
  9 11  1  0  0  0  0
  9 12  2  0  0  0  0
 10 11  2  0  0  0  0
 10 15  1  0  0  0  0
 11 16  1  0  0  0  0
 12 17  1  0  0  0  0
 13 14  1  0  0  0  0
 13 17  1  0  0  0  0
 13 18  2  0  0  0  0
  1 19  1  0  0  0  0
  2 20  1  0  0  0  0
  3 21  1  0  0  0  0
  4 22  1  0  0  0  0
  5 23  1  0  0  0  0
  6 24  1  0  0  0  0
  7 25  1  0  0  0  0
 14 26  1  0  0  0  0
 14 27  1  0  0  0  0
 14 28  1  0  0  0  0
 17 29  1  0  0  0  0
M  END
> <Hybrid2>
-8.949649

> <docked_fragment>
x0195

> <Mpro-_dock>
-0.855075

> <site>
active-noncovalent

$$$$
CHEMBL110691
  -OEChem-04122014263D

 57 60  0     1  0  0  0  0  0999 V2000
   12.2947    1.9370   23.0420 C   0  0  0  0  0  0  0  0  0  0  0  0
   11.0715   -1.4700   22.3261 C   0  0  0  0  0  0  0  0  0  0  0  0
   11.4325    0.9417   22.7573 C   0  0  0  0  0  0  0  0  0  0  0  0
   11.8958   -0.4119   22.4143 C   0  0  0  0  0  0  0  0  0  0  0  0
   11.8469    3.3125   23.3712 C   0  0  0  0  0  0  0  0  0  0  0  0
    5.8619   -4.4304   24.2041 C   0  0  0  0  0  0  0  0  0  0  0  0
    7.9769   -5.0649   26.1624 C   0  0  0  0  0  0  0  0  0  0  0  0
   10.3738    3.6126   23.3877 C   0  0  0  0  0  0  0  0  0  0  0  0
    9.5663    2.3671   23.7153 C   0  0  0  0  0  0  0  0  0  0  0  0
    9.3026   -4.0241   22.7821 C   0  0  0  0  0  0  0  0  0  0  0  0
    7.7092   -0.0435   23.6651 C   0  0  0  0  0  0  0  0  0  0  0  0
    8.2433   -4.9111   23.4686 C   0  0  0  0  0  0  0  0  0  0  0  0
    7.1424   -1.3264   24.3062 C   0  0  0  0  0  0  0  0  0  0  0  0
    9.5915   -1.4053   22.5864 C   0  0  2  0  0  0  0  0  0  0  0  0
    9.2347   -0.1337   23.4118 C   0  0  1  0  0  0  0  0  0  0  0  0
    9.0462   -2.6260   23.3411 C   0  0  1  0  0  0  0  0  0  0  0  0
    9.9012    1.1533   22.8051 C   0  0  2  0  0  0  0  0  0  0  0  0
    7.2811   -3.9484   24.1994 C   0  0  1  0  0  0  0  0  0  0  0  0
    7.5027   -2.5845   23.4971 C   0  0  1  0  0  0  0  0  0  0  0  0
    5.4282   -5.2693   23.0326 C   0  0  0  0  0  0  0  0  0  0  0  0
    9.3809   -4.9890   26.6812 C   0  0  0  0  0  0  0  0  0  0  0  0
    9.3923    1.4435   21.3730 C   0  0  0  0  0  0  0  0  0  0  0  0
    6.7445   -2.5537   22.1396 C   0  0  0  0  0  0  0  0  0  0  0  0
   12.6831    4.1914   23.5758 O   0  0  0  0  0  0  0  0  0  0  0  0
    5.0901   -4.1555   25.1216 O   0  0  0  0  0  0  0  0  0  0  0  0
    7.2630   -6.0539   26.2597 O   0  0  0  0  0  0  0  0  0  0  0  0
    7.6354   -3.8783   25.5777 O   0  0  0  0  0  0  0  0  0  0  0  0
   13.5730   -0.6885   22.0265 Cl  0  0  0  0  0  0  0  0  0  0  0  0
   13.3713    1.8052   23.0384 H   0  0  0  0  0  0  0  0  0  0  0  0
   11.4700   -2.4312   22.0094 H   0  0  0  0  0  0  0  0  0  0  0  0
   10.1844    4.3715   24.1552 H   0  0  0  0  0  0  0  0  0  0  0  0
   10.0922    4.0353   22.4185 H   0  0  0  0  0  0  0  0  0  0  0  0
    9.7546    2.0990   24.7645 H   0  0  0  0  0  0  0  0  0  0  0  0
    8.5030    2.6247   23.6432 H   0  0  0  0  0  0  0  0  0  0  0  0
   10.3144   -4.3764   23.0079 H   0  0  0  0  0  0  0  0  0  0  0  0
    9.1790   -4.0523   21.6937 H   0  0  0  0  0  0  0  0  0  0  0  0
    7.1789    0.1717   22.7321 H   0  0  0  0  0  0  0  0  0  0  0  0
    7.4863    0.7846   24.3464 H   0  0  0  0  0  0  0  0  0  0  0  0
    7.7295   -5.5138   22.7109 H   0  0  0  0  0  0  0  0  0  0  0  0
    8.7312   -5.6020   24.1656 H   0  0  0  0  0  0  0  0  0  0  0  0
    7.5419   -1.3977   25.3255 H   0  0  0  0  0  0  0  0  0  0  0  0
    6.0545   -1.2339   24.4081 H   0  0  0  0  0  0  0  0  0  0  0  0
    9.1163   -1.3632   21.6008 H   0  0  0  0  0  0  0  0  0  0  0  0
    9.6840   -0.2651   24.4112 H   0  0  0  0  0  0  0  0  0  0  0  0
    9.5058   -2.6104   24.3434 H   0  0  0  0  0  0  0  0  0  0  0  0
    5.6125   -6.3257   23.2471 H   0  0  0  0  0  0  0  0  0  0  0  0
    5.9999   -4.9838   22.1461 H   0  0  0  0  0  0  0  0  0  0  0  0
    4.3597   -5.1260   22.8549 H   0  0  0  0  0  0  0  0  0  0  0  0
   10.0805   -5.3132   25.9069 H   0  0  0  0  0  0  0  0  0  0  0  0
    9.4801   -5.6101   27.5750 H   0  0  0  0  0  0  0  0  0  0  0  0
    9.6128   -3.9542   26.9495 H   0  0  0  0  0  0  0  0  0  0  0  0
    8.3208    1.5915   21.4066 H   0  0  0  0  0  0  0  0  0  0  0  0
    9.6316    0.5993   20.7397 H   0  0  0  0  0  0  0  0  0  0  0  0
    9.8799    2.3361   21.0034 H   0  0  0  0  0  0  0  0  0  0  0  0
    7.0059   -3.4408   21.5826 H   0  0  0  0  0  0  0  0  0  0  0  0
    7.0447   -1.6673   21.6013 H   0  0  0  0  0  0  0  0  0  0  0  0
    5.6841   -2.5327   22.3415 H   0  0  0  0  0  0  0  0  0  0  0  0
  1  3  2  0  0  0  0
  1  5  1  0  0  0  0
  2  4  2  0  0  0  0
  2 14  1  0  0  0  0
  3  4  1  0  0  0  0
  3 17  1  0  0  0  0
  4 28  1  0  0  0  0
  5  8  1  0  0  0  0
  5 24  2  0  0  0  0
  6 18  1  0  0  0  0
  6 20  1  0  0  0  0
  6 25  2  0  0  0  0
  7 21  1  0  0  0  0
  7 26  2  0  0  0  0
  7 27  1  0  0  0  0
  8  9  1  0  0  0  0
  9 17  1  0  0  0  0
 10 12  1  0  0  0  0
 10 16  1  0  0  0  0
 11 13  1  0  0  0  0
 11 15  1  0  0  0  0
 12 18  1  0  0  0  0
 13 19  1  0  0  0  0
 14 15  1  0  0  0  0
 14 16  1  0  0  0  0
 15 17  1  0  0  0  0
 16 19  1  0  0  0  0
 17 22  1  0  0  0  0
 18 19  1  0  0  0  0
 18 27  1  0  0  0  0
 19 23  1  0  0  0  0
  1 29  1  0  0  0  0
  2 30  1  0  0  0  0
  8 31  1  0  0  0  0
  8 32  1  0  0  0  0
  9 33  1  0  0  0  0
  9 34  1  0  0  0  0
 10 35  1  0  0  0  0
 10 36  1  0  0  0  0
 11 37  1  0  0  0  0
 11 38  1  0  0  0  0
 12 39  1  0  0  0  0
 12 40  1  0  0  0  0
 13 41  1  0  0  0  0
 13 42  1  0  0  0  0
 14 43  1  0  0  0  0
 15 44  1  0  0  0  0
 16 45  1  0  0  0  0
 20 46  1  0  0  0  0
 20 47  1  0  0  0  0
 20 48  1  0  0  0  0
 21 49  1  0  0  0  0
 21 50  1  0  0  0  0
 21 51  1  0  0  0  0
 22 52  1  0  0  0  0
 22 53  1  0  0  0  0
 22 54  1  0  0  0  0
 23 55  1  0  0  0  0
 23 56  1  0  0  0  0
 23 57  1  0  0  0  0
M  END
> <Hybrid2>
-8.937246

> <docked_fragment>
x0874

> <Mpro-_dock>
2.657656

> <site>
active-noncovalent

$$$$
CHEMBL240773
  -OEChem-04122014263D

 38 40  0     1  0  0  0  0  0999 V2000
    7.5045   -6.5220   22.6014 C   0  0  0  0  0  0  0  0  0  0  0  0
    8.0525   -5.2630   22.6141 C   0  0  0  0  0  0  0  0  0  0  0  0
    7.1651   -4.4828   21.8402 C   0  0  0  0  0  0  0  0  0  0  0  0
    9.2920   -4.7355   23.2389 C   0  0  0  0  0  0  0  0  0  0  0  0
    7.3463   -3.0307   21.5941 C   0  0  0  0  0  0  0  0  0  0  0  0
   10.3110   -0.6087   22.2272 C   0  0  0  0  0  0  0  0  0  0  0  0
    8.9024   -1.0682   21.8846 C   0  0  0  0  0  0  0  0  0  0  0  0
   10.7538   -1.1499   23.5743 C   0  0  0  0  0  0  0  0  0  0  0  0
    8.7996   -2.5955   21.9137 C   0  0  1  0  0  0  0  0  0  0  0  0
    9.2857   -3.1852   23.2714 C   0  0  2  0  0  0  0  0  0  0  0  0
   13.5337   -2.3701   24.1411 C   0  0  0  0  0  0  0  0  0  0  0  0
   12.4840   -2.3629   25.2406 C   0  0  0  0  0  0  0  0  0  0  0  0
   11.2762   -3.2012   24.8534 C   0  0  0  0  0  0  0  0  0  0  0  0
    6.1283   -5.1848   21.3768 N   0  0  0  0  0  0  0  0  0  0  0  0
    6.3649   -6.4213   21.8544 N   0  0  0  0  0  0  0  0  0  0  0  0
   10.6923   -2.6634   23.5685 N   0  3  2  0  0  0  0  0  0  0  0  0
    7.8130   -7.4595   23.0416 H   0  0  0  0  0  0  0  0  0  0  0  0
    9.3790   -5.1352   24.2555 H   0  0  0  0  0  0  0  0  0  0  0  0
   10.1496   -5.0983   22.6585 H   0  0  0  0  0  0  0  0  0  0  0  0
    7.1102   -2.7878   20.5512 H   0  0  0  0  0  0  0  0  0  0  0  0
    6.6410   -2.4782   22.2275 H   0  0  0  0  0  0  0  0  0  0  0  0
   11.0102   -0.9325   21.4463 H   0  0  0  0  0  0  0  0  0  0  0  0
   10.3427    0.4866   22.2461 H   0  0  0  0  0  0  0  0  0  0  0  0
    8.1937   -0.6297   22.5985 H   0  0  0  0  0  0  0  0  0  0  0  0
    8.6279   -0.6925   20.8918 H   0  0  0  0  0  0  0  0  0  0  0  0
   11.7918   -0.8631   23.7732 H   0  0  0  0  0  0  0  0  0  0  0  0
   10.1136   -0.7951   24.3899 H   0  0  0  0  0  0  0  0  0  0  0  0
    9.4503   -2.9963   21.1215 H   0  0  0  0  0  0  0  0  0  0  0  0
    8.6411   -2.8285   24.0863 H   0  0  0  0  0  0  0  0  0  0  0  0
   13.8536   -3.3951   23.9289 H   0  0  0  0  0  0  0  0  0  0  0  0
   13.1360   -1.9400   23.2164 H   0  0  0  0  0  0  0  0  0  0  0  0
   14.4157   -1.7932   24.4372 H   0  0  0  0  0  0  0  0  0  0  0  0
   12.1774   -1.3287   25.4377 H   0  0  0  0  0  0  0  0  0  0  0  0
   12.9296   -2.7483   26.1653 H   0  0  0  0  0  0  0  0  0  0  0  0
   11.5442   -4.2454   24.6677 H   0  0  0  0  0  0  0  0  0  0  0  0
   10.4845   -3.1525   25.6066 H   0  0  0  0  0  0  0  0  0  0  0  0
    5.7040   -7.1548   21.6312 H   0  0  0  0  0  0  0  0  0  0  0  0
   11.3067   -2.9869   22.8086 H   0  0  0  0  0  0  0  0  0  0  0  0
  1  2  2  0  0  0  0
  1 15  1  0  0  0  0
  2  3  1  0  0  0  0
  2  4  1  0  0  0  0
  3  5  1  0  0  0  0
  3 14  2  0  0  0  0
  4 10  1  0  0  0  0
  5  9  1  0  0  0  0
  6  7  1  0  0  0  0
  6  8  1  0  0  0  0
  7  9  1  0  0  0  0
  8 16  1  0  0  0  0
  9 10  1  0  0  0  0
 10 16  1  0  0  0  0
 11 12  1  0  0  0  0
 12 13  1  0  0  0  0
 13 16  1  0  0  0  0
 14 15  1  0  0  0  0
  1 17  1  0  0  0  0
  4 18  1  0  0  0  0
  4 19  1  0  0  0  0
  5 20  1  0  0  0  0
  5 21  1  0  0  0  0
  6 22  1  0  0  0  0
  6 23  1  0  0  0  0
  7 24  1  0  0  0  0
  7 25  1  0  0  0  0
  8 26  1  0  0  0  0
  8 27  1  0  0  0  0
  9 28  1  0  0  0  0
 10 29  1  0  0  0  0
 11 30  1  0  0  0  0
 11 31  1  0  0  0  0
 11 32  1  0  0  0  0
 12 33  1  0  0  0  0
 12 34  1  0  0  0  0
 13 35  1  0  0  0  0
 13 36  1  0  0  0  0
 15 37  1  0  0  0  0
 16 38  1  0  0  0  0
M  CHG  1  16   1
M  END
> <Hybrid2>
-8.930215

> <docked_fragment>
x0749

> <Mpro-_dock>
-0.695524

> <site>
active-covalent

$$$$
CHEMBL2220420
  -OEChem-04122014263D

 44 45  0     1  0  0  0  0  0999 V2000
   13.5837   -2.6687   23.3546 C   0  0  0  0  0  0  0  0  0  0  0  0
   12.2978   -2.3265   22.9367 C   0  0  0  0  0  0  0  0  0  0  0  0
   14.3912   -1.7169   23.9772 C   0  0  0  0  0  0  0  0  0  0  0  0
   12.6267   -0.0804   23.7638 C   0  0  0  0  0  0  0  0  0  0  0  0
   11.8192   -1.0323   23.1412 C   0  0  0  0  0  0  0  0  0  0  0  0
   13.9127   -0.4227   24.1818 C   0  0  0  0  0  0  0  0  0  0  0  0
   10.5729    0.4972   21.6577 C   0  0  0  0  0  0  0  0  0  0  0  0
    9.2814    0.8344   20.9229 C   0  0  0  0  0  0  0  0  0  0  0  0
    8.4707   -1.5174   21.2249 C   0  0  0  0  0  0  0  0  0  0  0  0
    9.7562   -1.8936   21.9781 C   0  0  1  0  0  0  0  0  0  0  0  0
   10.4323   -0.6632   22.6899 C   0  0  1  0  0  0  0  0  0  0  0  0
    9.4502   -3.0592   22.9290 C   0  0  0  0  0  0  0  0  0  0  0  0
    9.1945   -0.5731   26.3560 C   0  0  0  0  0  0  0  0  0  0  0  0
    7.5549   -0.0997   19.3926 C   0  0  0  0  0  0  0  0  0  0  0  0
    9.6532   -0.1822   23.9238 C   0  0  0  0  0  0  0  0  0  0  0  0
    9.9469   -1.0630   25.1291 C   0  0  0  0  0  0  0  0  0  0  0  0
    8.7545   -0.4043   20.2485 N   0  3  1  0  0  0  0  0  0  0  0  0
   14.7006    0.5059   24.7899 O   0  0  0  0  0  0  0  0  0  0  0  0
   13.9560   -3.6764   23.1957 H   0  0  0  0  0  0  0  0  0  0  0  0
   11.6761   -3.0747   22.4521 H   0  0  0  0  0  0  0  0  0  0  0  0
   15.3919   -1.9897   24.3004 H   0  0  0  0  0  0  0  0  0  0  0  0
   12.2564    0.9294   23.9244 H   0  0  0  0  0  0  0  0  0  0  0  0
   11.3350    0.2324   20.9103 H   0  0  0  0  0  0  0  0  0  0  0  0
   10.9480    1.4015   22.1549 H   0  0  0  0  0  0  0  0  0  0  0  0
    8.5040    1.2091   21.5969 H   0  0  0  0  0  0  0  0  0  0  0  0
    9.4715    1.5780   20.1416 H   0  0  0  0  0  0  0  0  0  0  0  0
    8.1041   -2.3697   20.6414 H   0  0  0  0  0  0  0  0  0  0  0  0
    7.6756   -1.1765   21.8971 H   0  0  0  0  0  0  0  0  0  0  0  0
   10.4683   -2.2790   21.2325 H   0  0  0  0  0  0  0  0  0  0  0  0
    8.7476   -2.7305   23.6892 H   0  0  0  0  0  0  0  0  0  0  0  0
   10.3698   -3.3893   23.4035 H   0  0  0  0  0  0  0  0  0  0  0  0
    9.0173   -3.8809   22.3657 H   0  0  0  0  0  0  0  0  0  0  0  0
    9.4622    0.4615   26.5931 H   0  0  0  0  0  0  0  0  0  0  0  0
    9.4382   -1.1946   27.2234 H   0  0  0  0  0  0  0  0  0  0  0  0
    8.1124   -0.6206   26.1975 H   0  0  0  0  0  0  0  0  0  0  0  0
    6.7594    0.2593   20.0483 H   0  0  0  0  0  0  0  0  0  0  0  0
    7.8449    0.6666   18.6713 H   0  0  0  0  0  0  0  0  0  0  0  0
    7.2612   -1.0224   18.8884 H   0  0  0  0  0  0  0  0  0  0  0  0
    9.9353    0.8521   24.1266 H   0  0  0  0  0  0  0  0  0  0  0  0
    8.5885   -0.1997   23.6862 H   0  0  0  0  0  0  0  0  0  0  0  0
    9.6569   -2.0994   24.9195 H   0  0  0  0  0  0  0  0  0  0  0  0
   11.0221   -1.0643   25.3432 H   0  0  0  0  0  0  0  0  0  0  0  0
    9.4878   -0.7398   19.6087 H   0  0  0  0  0  0  0  0  0  0  0  0
   15.5599    0.1186   25.0207 H   0  0  0  0  0  0  0  0  0  0  0  0
  1  2  2  0  0  0  0
  1  3  1  0  0  0  0
  2  5  1  0  0  0  0
  3  6  2  0  0  0  0
  4  5  2  0  0  0  0
  4  6  1  0  0  0  0
  5 11  1  0  0  0  0
  6 18  1  0  0  0  0
  7  8  1  0  0  0  0
  7 11  1  0  0  0  0
  8 17  1  0  0  0  0
  9 10  1  0  0  0  0
  9 17  1  0  0  0  0
 10 11  1  0  0  0  0
 10 12  1  0  0  0  0
 11 15  1  0  0  0  0
 13 16  1  0  0  0  0
 14 17  1  0  0  0  0
 15 16  1  0  0  0  0
  1 19  1  0  0  0  0
  2 20  1  0  0  0  0
  3 21  1  0  0  0  0
  4 22  1  0  0  0  0
  7 23  1  0  0  0  0
  7 24  1  0  0  0  0
  8 25  1  0  0  0  0
  8 26  1  0  0  0  0
  9 27  1  0  0  0  0
  9 28  1  0  0  0  0
 10 29  1  0  0  0  0
 12 30  1  0  0  0  0
 12 31  1  0  0  0  0
 12 32  1  0  0  0  0
 13 33  1  0  0  0  0
 13 34  1  0  0  0  0
 13 35  1  0  0  0  0
 14 36  1  0  0  0  0
 14 37  1  0  0  0  0
 14 38  1  0  0  0  0
 15 39  1  0  0  0  0
 15 40  1  0  0  0  0
 16 41  1  0  0  0  0
 16 42  1  0  0  0  0
 17 43  1  0  0  0  0
 18 44  1  0  0  0  0
M  CHG  1  17   1
M  END
> <Hybrid2>
-8.914103

> <docked_fragment>
x0678

> <Mpro-_dock>
1.390393

> <site>
active-noncovalent

$$$$
CHEMBL2106825
  -OEChem-04122014263D

 57 60  0     1  0  0  0  0  0999 V2000
    7.1225   -6.1320   21.7634 C   0  0  0  0  0  0  0  0  0  0  0  0
    9.6126   -5.3461   24.3627 C   0  0  0  0  0  0  0  0  0  0  0  0
    7.8431   -5.4070   22.6412 C   0  0  0  0  0  0  0  0  0  0  0  0
    8.7559   -6.0565   23.6041 C   0  0  0  0  0  0  0  0  0  0  0  0
    6.1838   -5.5145   20.7952 C   0  0  0  0  0  0  0  0  0  0  0  0
   13.2323   -0.3349   25.3234 C   0  0  0  0  0  0  0  0  0  0  0  0
    6.0305   -4.0187   20.7831 C   0  0  0  0  0  0  0  0  0  0  0  0
    7.2872   -3.3336   21.2958 C   0  0  0  0  0  0  0  0  0  0  0  0
   12.0350   -3.8187   25.6517 C   0  0  0  0  0  0  0  0  0  0  0  0
    9.3306   -1.7515   22.9046 C   0  0  0  0  0  0  0  0  0  0  0  0
   13.2160   -2.8311   25.6994 C   0  0  0  0  0  0  0  0  0  0  0  0
   10.7756   -1.2769   23.1595 C   0  0  0  0  0  0  0  0  0  0  0  0
    9.7647   -3.8506   24.3086 C   0  0  2  0  0  0  0  0  0  0  0  0
    9.1966   -3.2934   22.9712 C   0  0  1  0  0  0  0  0  0  0  0  0
   11.2210   -3.3770   24.4406 C   0  0  1  0  0  0  0  0  0  0  0  0
    7.7646   -3.8641   22.6760 C   0  0  2  0  0  0  0  0  0  0  0  0
   12.8853   -1.6709   24.7144 C   0  0  1  0  0  0  0  0  0  0  0  0
   11.3452   -1.8307   24.4782 C   0  0  1  0  0  0  0  0  0  0  0  0
    8.7051   -7.5549   23.7757 C   0  0  0  0  0  0  0  0  0  0  0  0
   12.9627    0.8830   24.4817 C   0  0  0  0  0  0  0  0  0  0  0  0
    6.7426   -3.4410   23.7583 C   0  0  0  0  0  0  0  0  0  0  0  0
   13.7529   -1.7962   23.4498 C   0  0  0  0  0  0  0  0  0  0  0  0
   10.5575   -1.1904   25.6631 C   0  0  0  0  0  0  0  0  0  0  0  0
    5.5150   -6.2335   20.0541 O   0  0  0  0  0  0  0  0  0  0  0  0
   13.7103   -0.2455   26.4532 O   0  0  0  0  0  0  0  0  0  0  0  0
    7.1717   -7.2146   21.7154 H   0  0  0  0  0  0  0  0  0  0  0  0
   10.2230   -5.8698   25.0945 H   0  0  0  0  0  0  0  0  0  0  0  0
    5.8466   -3.6987   19.7513 H   0  0  0  0  0  0  0  0  0  0  0  0
    5.1527   -3.7530   21.3801 H   0  0  0  0  0  0  0  0  0  0  0  0
    8.0860   -3.4758   20.5544 H   0  0  0  0  0  0  0  0  0  0  0  0
    7.0893   -2.2561   21.3412 H   0  0  0  0  0  0  0  0  0  0  0  0
   12.3917   -4.8493   25.5546 H   0  0  0  0  0  0  0  0  0  0  0  0
   11.4478   -3.7601   26.5750 H   0  0  0  0  0  0  0  0  0  0  0  0
    8.6493   -1.2755   23.6167 H   0  0  0  0  0  0  0  0  0  0  0  0
    9.0419   -1.3892   21.9121 H   0  0  0  0  0  0  0  0  0  0  0  0
   13.3578   -2.4846   26.7295 H   0  0  0  0  0  0  0  0  0  0  0  0
   14.1417   -3.3449   25.4139 H   0  0  0  0  0  0  0  0  0  0  0  0
   11.3817   -1.6085   22.3084 H   0  0  0  0  0  0  0  0  0  0  0  0
   10.8087   -0.1809   23.1567 H   0  0  0  0  0  0  0  0  0  0  0  0
    9.1926   -3.4624   25.1574 H   0  0  0  0  0  0  0  0  0  0  0  0
    9.8475   -3.6728   22.1647 H   0  0  0  0  0  0  0  0  0  0  0  0
   11.7531   -3.7596   23.5561 H   0  0  0  0  0  0  0  0  0  0  0  0
    7.9691   -7.7994   24.5339 H   0  0  0  0  0  0  0  0  0  0  0  0
    9.6842   -7.9100   24.0799 H   0  0  0  0  0  0  0  0  0  0  0  0
    8.4305   -8.0103   22.8301 H   0  0  0  0  0  0  0  0  0  0  0  0
   11.9491    1.2464   24.6729 H   0  0  0  0  0  0  0  0  0  0  0  0
   13.0515    0.6241   23.4238 H   0  0  0  0  0  0  0  0  0  0  0  0
   13.6750    1.6708   24.7385 H   0  0  0  0  0  0  0  0  0  0  0  0
    6.6875   -2.3606   23.7828 H   0  0  0  0  0  0  0  0  0  0  0  0
    7.0732   -3.8187   24.7169 H   0  0  0  0  0  0  0  0  0  0  0  0
    5.7760   -3.8576   23.5071 H   0  0  0  0  0  0  0  0  0  0  0  0
   13.5450   -2.7447   22.9659 H   0  0  0  0  0  0  0  0  0  0  0  0
   14.8003   -1.7501   23.7287 H   0  0  0  0  0  0  0  0  0  0  0  0
   13.5184   -0.9813   22.7730 H   0  0  0  0  0  0  0  0  0  0  0  0
   10.9595   -1.5808   26.5840 H   0  0  0  0  0  0  0  0  0  0  0  0
    9.5179   -1.4554   25.5577 H   0  0  0  0  0  0  0  0  0  0  0  0
   10.6860   -0.1211   25.6133 H   0  0  0  0  0  0  0  0  0  0  0  0
  1  3  2  0  0  0  0
  1  5  1  0  0  0  0
  2  4  2  0  0  0  0
  2 13  1  0  0  0  0
  3  4  1  0  0  0  0
  3 16  1  0  0  0  0
  4 19  1  0  0  0  0
  5  7  1  0  0  0  0
  5 24  2  0  0  0  0
  6 17  1  0  0  0  0
  6 20  1  0  0  0  0
  6 25  2  0  0  0  0
  7  8  1  0  0  0  0
  8 16  1  0  0  0  0
  9 11  1  0  0  0  0
  9 15  1  0  0  0  0
 10 12  1  0  0  0  0
 10 14  1  0  0  0  0
 11 17  1  0  0  0  0
 12 18  1  0  0  0  0
 13 14  1  0  0  0  0
 13 15  1  0  0  0  0
 14 16  1  0  0  0  0
 15 18  1  0  0  0  0
 16 21  1  0  0  0  0
 17 18  1  0  0  0  0
 17 22  1  0  0  0  0
 18 23  1  0  0  0  0
  1 26  1  0  0  0  0
  2 27  1  0  0  0  0
  7 28  1  0  0  0  0
  7 29  1  0  0  0  0
  8 30  1  0  0  0  0
  8 31  1  0  0  0  0
  9 32  1  0  0  0  0
  9 33  1  0  0  0  0
 10 34  1  0  0  0  0
 10 35  1  0  0  0  0
 11 36  1  0  0  0  0
 11 37  1  0  0  0  0
 12 38  1  0  0  0  0
 12 39  1  0  0  0  0
 13 40  1  0  0  0  0
 14 41  1  0  0  0  0
 15 42  1  0  0  0  0
 19 43  1  0  0  0  0
 19 44  1  0  0  0  0
 19 45  1  0  0  0  0
 20 46  1  0  0  0  0
 20 47  1  0  0  0  0
 20 48  1  0  0  0  0
 21 49  1  0  0  0  0
 21 50  1  0  0  0  0
 21 51  1  0  0  0  0
 22 52  1  0  0  0  0
 22 53  1  0  0  0  0
 22 54  1  0  0  0  0
 23 55  1  0  0  0  0
 23 56  1  0  0  0  0
 23 57  1  0  0  0  0
M  END
> <Hybrid2>
-8.912298

> <docked_fragment>
x0749

> <Mpro-_dock>
2.676357

> <site>
active-covalent

$$$$
CHEMBL2105609
  -OEChem-04122014263D

 22 22  0     0  0  0  0  0  0999 V2000
    9.8902    2.3751   23.4203 C   0  0  0  0  0  0  0  0  0  0  0  0
   11.0829    2.2912   23.3094 C   0  0  0  0  0  0  0  0  0  0  0  0
   13.8175   -1.8420   22.4041 C   0  0  0  0  0  0  0  0  0  0  0  0
   14.5595   -0.7699   21.9088 C   0  0  0  0  0  0  0  0  0  0  0  0
   12.6624   -1.6056   23.1496 C   0  0  0  0  0  0  0  0  0  0  0  0
   14.1466    0.5388   22.1591 C   0  0  0  0  0  0  0  0  0  0  0  0
   12.2495   -0.2970   23.3998 C   0  0  0  0  0  0  0  0  0  0  0  0
   12.9916    0.7753   22.9046 C   0  0  0  0  0  0  0  0  0  0  0  0
   13.2680    4.3245   22.4887 C   0  0  0  0  0  0  0  0  0  0  0  0
   12.5497    2.1743   23.1727 C   0  0  1  0  0  0  0  0  0  0  0  0
   12.4691    5.1964   21.7911 N   0  0  0  0  0  0  0  0  0  0  0  0
   14.1008    4.6660   23.3218 O   0  0  0  0  0  0  0  0  0  0  0  0
   12.9999    3.0393   22.1211 O   0  0  0  0  0  0  0  0  0  0  0  0
    8.8324    2.4492   23.5182 H   0  0  0  0  0  0  0  0  0  0  0  0
   14.1384   -2.8610   22.2081 H   0  0  0  0  0  0  0  0  0  0  0  0
   15.4583   -0.9538   21.3274 H   0  0  0  0  0  0  0  0  0  0  0  0
   12.0838   -2.4402   23.5344 H   0  0  0  0  0  0  0  0  0  0  0  0
   14.7312    1.3680   21.7693 H   0  0  0  0  0  0  0  0  0  0  0  0
   11.3484   -0.1223   23.9817 H   0  0  0  0  0  0  0  0  0  0  0  0
   13.0220    2.5567   24.0933 H   0  0  0  0  0  0  0  0  0  0  0  0
   12.5562    6.1929   21.9594 H   0  0  0  0  0  0  0  0  0  0  0  0
   11.7936    4.8648   21.1107 H   0  0  0  0  0  0  0  0  0  0  0  0
  1  2  3  0  0  0  0
  2 10  1  0  0  0  0
  3  4  1  0  0  0  0
  3  5  2  0  0  0  0
  4  6  2  0  0  0  0
  5  7  1  0  0  0  0
  6  8  1  0  0  0  0
  7  8  2  0  0  0  0
  8 10  1  0  0  0  0
  9 11  1  0  0  0  0
  9 12  2  0  0  0  0
  9 13  1  0  0  0  0
 10 13  1  0  0  0  0
  1 14  1  0  0  0  0
  3 15  1  0  0  0  0
  4 16  1  0  0  0  0
  5 17  1  0  0  0  0
  6 18  1  0  0  0  0
  7 19  1  0  0  0  0
 10 20  1  0  0  0  0
 11 21  1  0  0  0  0
 11 22  1  0  0  0  0
M  END
> <Hybrid2>
-8.908838

> <docked_fragment>
x0195

> <Mpro-_dock>
1.537287

> <site>
active-noncovalent

$$$$
CHEMBL93218
  -OEChem-04122014263D

 35 36  0     0  0  0  0  0  0999 V2000
   13.2478   -2.1609   25.0320 C   0  0  0  0  0  0  0  0  0  0  0  0
   12.4146   -3.1378   25.5771 C   0  0  0  0  0  0  0  0  0  0  0  0
   12.8549   -1.4693   23.8861 C   0  0  0  0  0  0  0  0  0  0  0  0
   11.1885   -3.4231   24.9762 C   0  0  0  0  0  0  0  0  0  0  0  0
   11.6288   -1.7547   23.2853 C   0  0  0  0  0  0  0  0  0  0  0  0
   10.7956   -2.7316   23.8303 C   0  0  0  0  0  0  0  0  0  0  0  0
    7.0755   -3.6537   21.8634 C   0  0  0  0  0  0  0  0  0  0  0  0
    9.0205   -4.3432   23.3240 C   0  0  0  0  0  0  0  0  0  0  0  0
    8.8814   -2.0265   22.4363 C   0  0  0  0  0  0  0  0  0  0  0  0
    7.5177   -4.4623   23.0696 C   0  0  0  0  0  0  0  0  0  0  0  0
    7.0905   -2.4856   24.5413 C   0  0  0  0  0  0  0  0  0  0  0  0
    7.7796   -6.5018   21.6498 C   0  0  0  0  0  0  0  0  0  0  0  0
    6.7789   -3.9236   24.3076 C   0  0  0  0  0  0  0  0  0  0  0  0
    7.1307   -5.9361   22.8652 C   0  0  0  0  0  0  0  0  0  0  0  0
    7.7695   -2.4643   21.7118 N   0  0  0  0  0  0  0  0  0  0  0  0
    9.5233   -3.0278   23.2071 N   0  0  0  0  0  0  0  0  0  0  0  0
    6.1408   -3.9777   21.1336 O   0  0  0  0  0  0  0  0  0  0  0  0
    9.7019   -5.3345   23.5937 O   0  0  0  0  0  0  0  0  0  0  0  0
    9.2067   -0.8372   22.3906 O   0  0  0  0  0  0  0  0  0  0  0  0
   14.2022   -1.9379   25.5000 H   0  0  0  0  0  0  0  0  0  0  0  0
   12.7198   -3.6758   26.4697 H   0  0  0  0  0  0  0  0  0  0  0  0
   13.5035   -0.7080   23.4624 H   0  0  0  0  0  0  0  0  0  0  0  0
   10.5474   -4.1865   25.4101 H   0  0  0  0  0  0  0  0  0  0  0  0
   11.3330   -1.2092   22.3925 H   0  0  0  0  0  0  0  0  0  0  0  0
    8.1703   -2.3696   24.6913 H   0  0  0  0  0  0  0  0  0  0  0  0
    6.5815   -2.1126   25.4364 H   0  0  0  0  0  0  0  0  0  0  0  0
    6.7996   -1.8747   23.6802 H   0  0  0  0  0  0  0  0  0  0  0  0
    7.4654   -5.9253   20.7719 H   0  0  0  0  0  0  0  0  0  0  0  0
    7.4843   -7.5449   21.4944 H   0  0  0  0  0  0  0  0  0  0  0  0
    8.8708   -6.4430   21.7221 H   0  0  0  0  0  0  0  0  0  0  0  0
    5.7074   -4.0543   24.1567 H   0  0  0  0  0  0  0  0  0  0  0  0
    7.0749   -4.5157   25.1734 H   0  0  0  0  0  0  0  0  0  0  0  0
    7.4332   -6.4988   23.7478 H   0  0  0  0  0  0  0  0  0  0  0  0
    6.0469   -5.9999   22.7753 H   0  0  0  0  0  0  0  0  0  0  0  0
    7.4518   -1.8517   20.9656 H   0  0  0  0  0  0  0  0  0  0  0  0
  1  2  1  0  0  0  0
  1  3  2  0  0  0  0
  2  4  2  0  0  0  0
  3  5  1  0  0  0  0
  4  6  1  0  0  0  0
  5  6  2  0  0  0  0
  6 16  1  0  0  0  0
  7 10  1  0  0  0  0
  7 15  1  0  0  0  0
  7 17  2  0  0  0  0
  8 10  1  0  0  0  0
  8 16  1  0  0  0  0
  8 18  2  0  0  0  0
  9 15  1  0  0  0  0
  9 16  1  0  0  0  0
  9 19  2  0  0  0  0
 10 13  1  0  0  0  0
 10 14  1  0  0  0  0
 11 13  1  0  0  0  0
 12 14  1  0  0  0  0
  1 20  1  0  0  0  0
  2 21  1  0  0  0  0
  3 22  1  0  0  0  0
  4 23  1  0  0  0  0
  5 24  1  0  0  0  0
 11 25  1  0  0  0  0
 11 26  1  0  0  0  0
 11 27  1  0  0  0  0
 12 28  1  0  0  0  0
 12 29  1  0  0  0  0
 12 30  1  0  0  0  0
 13 31  1  0  0  0  0
 13 32  1  0  0  0  0
 14 33  1  0  0  0  0
 14 34  1  0  0  0  0
 15 35  1  0  0  0  0
M  END
> <Hybrid2>
-8.902903

> <docked_fragment>
x0749

> <Mpro-_dock>
-0.275627

> <site>
active-covalent

$$$$
CHEMBL2111184
  -OEChem-04122014263D

 32 33  0     1  0  0  0  0  0999 V2000
   12.4633   -1.9319   22.6938 C   0  0  0  0  0  0  0  0  0  0  0  0
   13.8339   -1.8255   22.4693 C   0  0  0  0  0  0  0  0  0  0  0  0
   11.6968   -0.7824   22.8877 C   0  0  0  0  0  0  0  0  0  0  0  0
   14.4381   -0.5696   22.4311 C   0  0  0  0  0  0  0  0  0  0  0  0
   12.2958    0.4844   22.8628 C   0  0  0  0  0  0  0  0  0  0  0  0
   13.6712    0.5844   22.6147 C   0  0  0  0  0  0  0  0  0  0  0  0
   11.4536    1.7110   23.0719 C   0  0  0  0  0  0  0  0  0  0  0  0
   12.3499    2.8919   23.4154 C   0  0  1  0  0  0  0  0  0  0  0  0
   13.5573    2.9686   22.4768 C   0  0  2  0  0  0  0  0  0  0  0  0
   13.2466    3.2578   21.0066 C   0  0  0  0  0  0  0  0  0  0  0  0
   10.3600    4.0972   24.2791 C   0  0  0  0  0  0  0  0  0  0  0  0
   12.3980    5.3652   23.6163 C   0  0  0  0  0  0  0  0  0  0  0  0
   11.5555    4.1431   23.3652 N   0  3  0  0  0  0  0  0  0  0  0  0
   14.3545    1.7723   22.5578 O   0  0  0  0  0  0  0  0  0  0  0  0
   11.9904   -2.9093   22.7148 H   0  0  0  0  0  0  0  0  0  0  0  0
   14.4322   -2.7204   22.3252 H   0  0  0  0  0  0  0  0  0  0  0  0
   10.6267   -0.8796   23.0536 H   0  0  0  0  0  0  0  0  0  0  0  0
   15.5100   -0.4969   22.2638 H   0  0  0  0  0  0  0  0  0  0  0  0
   10.8487    1.9213   22.1923 H   0  0  0  0  0  0  0  0  0  0  0  0
   10.7840    1.5174   23.9095 H   0  0  0  0  0  0  0  0  0  0  0  0
   12.6811    2.8084   24.4736 H   0  0  0  0  0  0  0  0  0  0  0  0
   14.2167    3.7994   22.8355 H   0  0  0  0  0  0  0  0  0  0  0  0
   12.6040    2.4763   20.6033 H   0  0  0  0  0  0  0  0  0  0  0  0
   14.1714    3.2896   20.4321 H   0  0  0  0  0  0  0  0  0  0  0  0
   12.7389    4.2173   20.9173 H   0  0  0  0  0  0  0  0  0  0  0  0
   10.7259    4.0004   25.3030 H   0  0  0  0  0  0  0  0  0  0  0  0
    9.8029    5.0267   24.1475 H   0  0  0  0  0  0  0  0  0  0  0  0
    9.7554    3.2337   23.9953 H   0  0  0  0  0  0  0  0  0  0  0  0
   12.8005    5.2912   24.6282 H   0  0  0  0  0  0  0  0  0  0  0  0
   13.1993    5.3768   22.8750 H   0  0  0  0  0  0  0  0  0  0  0  0
   11.7549    6.2413   23.5129 H   0  0  0  0  0  0  0  0  0  0  0  0
   11.1868    4.2344   22.4061 H   0  0  0  0  0  0  0  0  0  0  0  0
  1  2  1  0  0  0  0
  1  3  2  0  0  0  0
  2  4  2  0  0  0  0
  3  5  1  0  0  0  0
  4  6  1  0  0  0  0
  5  6  2  0  0  0  0
  5  7  1  0  0  0  0
  6 14  1  0  0  0  0
  7  8  1  0  0  0  0
  8  9  1  0  0  0  0
  8 13  1  0  0  0  0
  9 10  1  0  0  0  0
  9 14  1  0  0  0  0
 11 13  1  0  0  0  0
 12 13  1  0  0  0  0
  1 15  1  0  0  0  0
  2 16  1  0  0  0  0
  3 17  1  0  0  0  0
  4 18  1  0  0  0  0
  7 19  1  0  0  0  0
  7 20  1  0  0  0  0
  8 21  1  0  0  0  0
  9 22  1  0  0  0  0
 10 23  1  0  0  0  0
 10 24  1  0  0  0  0
 10 25  1  0  0  0  0
 11 26  1  0  0  0  0
 11 27  1  0  0  0  0
 11 28  1  0  0  0  0
 12 29  1  0  0  0  0
 12 30  1  0  0  0  0
 12 31  1  0  0  0  0
 13 32  1  0  0  0  0
M  CHG  1  13   1
M  END
> <Hybrid2>
-8.900448

> <docked_fragment>
x0195

> <Mpro-_dock>
-1.210834

> <site>
active-noncovalent

$$$$
DB08186
  -OEChem-04122014263D

 28 29  0     0  0  0  0  0  0999 V2000
   14.5657   -0.1292   22.0883 C   0  0  0  0  0  0  0  0  0  0  0  0
   14.1521   -1.4591   22.0426 C   0  0  0  0  0  0  0  0  0  0  0  0
   13.7756    0.8458   22.7080 C   0  0  0  0  0  0  0  0  0  0  0  0
   12.9394   -1.8567   22.6129 C   0  0  0  0  0  0  0  0  0  0  0  0
   10.5480    0.2603   24.3203 C   0  0  0  0  0  0  0  0  0  0  0  0
   12.5490    0.4687   23.2898 C   0  0  0  0  0  0  0  0  0  0  0  0
   11.5223    1.1706   23.9813 C   0  0  0  0  0  0  0  0  0  0  0  0
   12.1600   -0.8712   23.2290 C   0  0  0  0  0  0  0  0  0  0  0  0
   11.4683    2.5479   24.2886 C   0  0  0  0  0  0  0  0  0  0  0  0
   11.4565    3.5879   23.3877 C   0  0  0  0  0  0  0  0  0  0  0  0
   11.3870    5.0140   23.8157 C   0  0  0  0  0  0  0  0  0  0  0  0
   12.7001    5.7128   24.0528 C   0  0  0  0  0  0  0  0  0  0  0  0
   10.1750   -2.1844   24.0292 C   0  0  0  0  0  0  0  0  0  0  0  0
   10.9416   -0.9685   23.8625 N   0  0  0  0  0  0  0  0  0  0  0  0
   10.3192    5.6076   23.9483 O   0  0  0  0  0  0  0  0  0  0  0  0
   15.5128    0.1558   21.6383 H   0  0  0  0  0  0  0  0  0  0  0  0
   14.7814   -2.1999   21.5563 H   0  0  0  0  0  0  0  0  0  0  0  0
   14.1135    1.8779   22.7336 H   0  0  0  0  0  0  0  0  0  0  0  0
   12.6223   -2.8937   22.5747 H   0  0  0  0  0  0  0  0  0  0  0  0
    9.6100    0.3803   24.8476 H   0  0  0  0  0  0  0  0  0  0  0  0
   11.4099    2.8442   25.3619 H   0  0  0  0  0  0  0  0  0  0  0  0
   11.4852    3.3913   22.3219 H   0  0  0  0  0  0  0  0  0  0  0  0
   13.0354    6.1778   23.1223 H   0  0  0  0  0  0  0  0  0  0  0  0
   12.5660    6.4767   24.8239 H   0  0  0  0  0  0  0  0  0  0  0  0
   13.4634    5.0134   24.4044 H   0  0  0  0  0  0  0  0  0  0  0  0
    9.5127   -2.2865   23.1655 H   0  0  0  0  0  0  0  0  0  0  0  0
   10.8555   -3.0381   24.0922 H   0  0  0  0  0  0  0  0  0  0  0  0
    9.5934   -2.1211   24.9531 H   0  0  0  0  0  0  0  0  0  0  0  0
  1  2  2  0  0  0  0
  1  3  1  0  0  0  0
  2  4  1  0  0  0  0
  3  6  2  0  0  0  0
  4  8  2  0  0  0  0
  5  7  2  0  0  0  0
  5 14  1  0  0  0  0
  6  7  1  0  0  0  0
  6  8  1  0  0  0  0
  7  9  1  0  0  0  0
  8 14  1  0  0  0  0
  9 10  2  0  0  0  0
 10 11  1  0  0  0  0
 11 12  1  0  0  0  0
 11 15  2  0  0  0  0
 13 14  1  0  0  0  0
  1 16  1  0  0  0  0
  2 17  1  0  0  0  0
  3 18  1  0  0  0  0
  4 19  1  0  0  0  0
  5 20  1  0  0  0  0
  9 21  1  0  0  0  0
 10 22  1  0  0  0  0
 12 23  1  0  0  0  0
 12 24  1  0  0  0  0
 12 25  1  0  0  0  0
 13 26  1  0  0  0  0
 13 27  1  0  0  0  0
 13 28  1  0  0  0  0
M  END
> <Hybrid2>
-8.889580

> <docked_fragment>
x0195

> <Mpro-_dock>
-1.058285

> <site>
active-noncovalent

$$$$
CHEMBL1200853
  -OEChem-04122014263D

 51 54  0     1  0  0  0  0  0999 V2000
   11.3229   -4.2239   25.4695 C   0  0  0  0  0  0  0  0  0  0  0  0
   13.3167   -2.9210   25.8444 C   0  0  0  0  0  0  0  0  0  0  0  0
   10.3102   -4.5773   24.6722 C   0  0  0  0  0  0  0  0  0  0  0  0
   12.1159   -3.0319   25.2524 C   0  0  0  0  0  0  0  0  0  0  0  0
   14.1150   -1.6767   25.7390 C   0  0  0  0  0  0  0  0  0  0  0  0
    5.9211   -3.0865   20.4916 C   0  0  0  0  0  0  0  0  0  0  0  0
   13.5105   -0.4919   25.0306 C   0  0  0  0  0  0  0  0  0  0  0  0
   12.5679   -0.9416   23.9235 C   0  0  0  0  0  0  0  0  0  0  0  0
    6.1972   -4.2704   22.7056 C   0  0  0  0  0  0  0  0  0  0  0  0
    7.4553   -4.7385   23.4606 C   0  0  0  0  0  0  0  0  0  0  0  0
    9.8788   -1.4578   22.3979 C   0  0  0  0  0  0  0  0  0  0  0  0
    8.9544   -1.9894   21.2963 C   0  0  0  0  0  0  0  0  0  0  0  0
    9.9621   -3.8679   23.3963 C   0  0  2  0  0  0  0  0  0  0  0  0
    6.6413   -3.0967   21.8044 C   0  0  1  0  0  0  0  0  0  0  0  0
   10.7440   -2.5314   23.1333 C   0  0  2  0  0  0  0  0  0  0  0  0
    8.4686   -3.6351   23.1746 C   0  0  1  0  0  0  0  0  0  0  0  0
   11.4702   -1.9318   24.4087 C   0  0  1  0  0  0  0  0  0  0  0  0
    8.1754   -3.2578   21.6971 C   0  0  2  0  0  0  0  0  0  0  0  0
    5.6847   -1.7413   19.8599 C   0  0  0  0  0  0  0  0  0  0  0  0
   10.4856   -1.1757   25.3393 C   0  0  0  0  0  0  0  0  0  0  0  0
    8.5379   -4.3720   20.6747 C   0  0  0  0  0  0  0  0  0  0  0  0
   15.2180   -1.6121   26.2792 O   0  0  0  0  0  0  0  0  0  0  0  0
    5.5431   -4.1267   19.9550 O   0  0  0  0  0  0  0  0  0  0  0  0
   11.5748   -4.8645   26.3035 H   0  0  0  0  0  0  0  0  0  0  0  0
   13.7540   -3.7234   26.4251 H   0  0  0  0  0  0  0  0  0  0  0  0
    9.7310   -5.4547   24.9322 H   0  0  0  0  0  0  0  0  0  0  0  0
   12.9984    0.1286   25.7678 H   0  0  0  0  0  0  0  0  0  0  0  0
   14.3210    0.0947   24.5908 H   0  0  0  0  0  0  0  0  0  0  0  0
   12.1258   -0.0439   23.4820 H   0  0  0  0  0  0  0  0  0  0  0  0
   13.1667   -1.4172   23.1358 H   0  0  0  0  0  0  0  0  0  0  0  0
    5.7651   -5.1005   22.1358 H   0  0  0  0  0  0  0  0  0  0  0  0
    5.4301   -3.9301   23.4104 H   0  0  0  0  0  0  0  0  0  0  0  0
    7.2540   -4.8507   24.5289 H   0  0  0  0  0  0  0  0  0  0  0  0
    7.7917   -5.7065   23.0787 H   0  0  0  0  0  0  0  0  0  0  0  0
   10.5680   -0.7392   21.9452 H   0  0  0  0  0  0  0  0  0  0  0  0
    9.2839   -0.8743   23.0972 H   0  0  0  0  0  0  0  0  0  0  0  0
    8.2444   -1.1979   21.0005 H   0  0  0  0  0  0  0  0  0  0  0  0
    9.5501   -2.1878   20.3871 H   0  0  0  0  0  0  0  0  0  0  0  0
   10.2976   -4.5583   22.5807 H   0  0  0  0  0  0  0  0  0  0  0  0
    6.3921   -2.1530   22.3041 H   0  0  0  0  0  0  0  0  0  0  0  0
   11.5362   -2.7786   22.4514 H   0  0  0  0  0  0  0  0  0  0  0  0
    8.1677   -2.7811   23.7964 H   0  0  0  0  0  0  0  0  0  0  0  0
    6.5267   -1.4857   19.2107 H   0  0  0  0  0  0  0  0  0  0  0  0
    5.5960   -0.9809   20.6397 H   0  0  0  0  0  0  0  0  0  0  0  0
    4.7725   -1.7739   19.2592 H   0  0  0  0  0  0  0  0  0  0  0  0
   10.0054   -0.3844   24.7764 H   0  0  0  0  0  0  0  0  0  0  0  0
   11.0386   -0.7546   26.1702 H   0  0  0  0  0  0  0  0  0  0  0  0
    9.7413   -1.8724   25.7059 H   0  0  0  0  0  0  0  0  0  0  0  0
    8.0002   -5.2714   20.9395 H   0  0  0  0  0  0  0  0  0  0  0  0
    9.6038   -4.5459   20.7174 H   0  0  0  0  0  0  0  0  0  0  0  0
    8.2509   -4.0404   19.6867 H   0  0  0  0  0  0  0  0  0  0  0  0
  1  3  2  0  0  0  0
  1  4  1  0  0  0  0
  2  4  2  0  0  0  0
  2  5  1  0  0  0  0
  3 13  1  0  0  0  0
  4 17  1  0  0  0  0
  5  7  1  0  0  0  0
  5 22  2  0  0  0  0
  6 14  1  0  0  0  0
  6 19  1  0  0  0  0
  6 23  2  0  0  0  0
  7  8  1  0  0  0  0
  8 17  1  0  0  0  0
  9 10  1  0  0  0  0
  9 14  1  0  0  0  0
 10 16  1  0  0  0  0
 11 12  1  0  0  0  0
 11 15  1  0  0  0  0
 12 18  1  0  0  0  0
 13 15  1  0  0  0  0
 13 16  1  0  0  0  0
 14 18  1  0  0  0  0
 15 17  1  0  0  0  0
 16 18  1  0  0  0  0
 17 20  1  0  0  0  0
 18 21  1  0  0  0  0
  1 24  1  0  0  0  0
  2 25  1  0  0  0  0
  3 26  1  0  0  0  0
  7 27  1  0  0  0  0
  7 28  1  0  0  0  0
  8 29  1  0  0  0  0
  8 30  1  0  0  0  0
  9 31  1  0  0  0  0
  9 32  1  0  0  0  0
 10 33  1  0  0  0  0
 10 34  1  0  0  0  0
 11 35  1  0  0  0  0
 11 36  1  0  0  0  0
 12 37  1  0  0  0  0
 12 38  1  0  0  0  0
 13 39  1  0  0  0  0
 14 40  1  0  0  0  0
 15 41  1  0  0  0  0
 16 42  1  0  0  0  0
 19 43  1  0  0  0  0
 19 44  1  0  0  0  0
 19 45  1  0  0  0  0
 20 46  1  0  0  0  0
 20 47  1  0  0  0  0
 20 48  1  0  0  0  0
 21 49  1  0  0  0  0
 21 50  1  0  0  0  0
 21 51  1  0  0  0  0
M  END
> <Hybrid2>
-8.851148

> <docked_fragment>
x0749

> <Mpro-_dock>
3.072092

> <site>
active-covalent

$$$$
CHEMBL1533
  -OEChem-04122014263D

 53 56  0     1  0  0  0  0  0999 V2000
    8.6900   -7.3603   20.8151 C   0  0  0  0  0  0  0  0  0  0  0  0
    7.9771   -6.6408   21.4594 C   0  0  0  0  0  0  0  0  0  0  0  0
   13.0057   -0.8649   23.8320 C   0  0  0  0  0  0  0  0  0  0  0  0
   11.7499   -1.3361   23.9369 C   0  0  0  0  0  0  0  0  0  0  0  0
    9.7826   -4.6436   24.9174 C   0  0  0  0  0  0  0  0  0  0  0  0
    9.8189   -4.7438   26.2561 C   0  0  0  0  0  0  0  0  0  0  0  0
   14.1730   -1.4142   24.5904 C   0  0  0  0  0  0  0  0  0  0  0  0
   10.6211   -0.6685   23.2027 C   0  0  0  0  0  0  0  0  0  0  0  0
    8.9860   -5.6623   24.1089 C   0  0  0  0  0  0  0  0  0  0  0  0
   13.7459   -2.3190   25.7398 C   0  0  0  0  0  0  0  0  0  0  0  0
    9.8308   -1.6823   22.3896 C   0  0  0  0  0  0  0  0  0  0  0  0
   12.6529   -3.2811   25.2885 C   0  0  0  0  0  0  0  0  0  0  0  0
    7.3375   -3.3717   21.5847 C   0  0  0  0  0  0  0  0  0  0  0  0
    6.5048   -4.6491   21.3409 C   0  0  0  0  0  0  0  0  0  0  0  0
   11.3807   -2.5325   24.8078 C   0  0  2  0  0  0  0  0  0  0  0  0
   10.4147   -3.5219   24.0736 C   0  0  2  0  0  0  0  0  0  0  0  0
    9.2708   -2.7867   23.2935 C   0  0  2  0  0  0  0  0  0  0  0  0
    8.4908   -3.8302   22.4723 C   0  0  1  0  0  0  0  0  0  0  0  0
    7.1001   -5.7563   22.2514 C   0  0  2  0  0  0  0  0  0  0  0  0
    7.8546   -4.9414   23.3436 C   0  0  1  0  0  0  0  0  0  0  0  0
    6.2556   -5.5109   25.1785 C   0  0  0  0  0  0  0  0  0  0  0  0
    6.8261   -4.3983   24.3837 C   0  0  0  0  0  0  0  0  0  0  0  0
    6.0470   -6.5421   22.7930 O   0  0  0  0  0  0  0  0  0  0  0  0
    9.3226   -7.9985   20.2436 H   0  0  0  0  0  0  0  0  0  0  0  0
   13.2125   -0.0176   23.1832 H   0  0  0  0  0  0  0  0  0  0  0  0
   10.3784   -4.0298   26.8416 H   0  0  0  0  0  0  0  0  0  0  0  0
    9.2892   -5.5393   26.7583 H   0  0  0  0  0  0  0  0  0  0  0  0
   14.8134   -1.9675   23.8935 H   0  0  0  0  0  0  0  0  0  0  0  0
   14.7709   -0.5872   24.9899 H   0  0  0  0  0  0  0  0  0  0  0  0
    9.9626   -0.1792   23.9312 H   0  0  0  0  0  0  0  0  0  0  0  0
   10.9870    0.1183   22.5322 H   0  0  0  0  0  0  0  0  0  0  0  0
    9.6827   -6.1611   23.4243 H   0  0  0  0  0  0  0  0  0  0  0  0
    8.5652   -6.4494   24.7469 H   0  0  0  0  0  0  0  0  0  0  0  0
   14.6125   -2.8793   26.1085 H   0  0  0  0  0  0  0  0  0  0  0  0
   13.3778   -1.7128   26.5773 H   0  0  0  0  0  0  0  0  0  0  0  0
    9.0122   -1.1612   21.8797 H   0  0  0  0  0  0  0  0  0  0  0  0
   10.4688   -2.1167   21.6090 H   0  0  0  0  0  0  0  0  0  0  0  0
   13.0475   -3.9114   24.4803 H   0  0  0  0  0  0  0  0  0  0  0  0
   12.4228   -3.9533   26.1197 H   0  0  0  0  0  0  0  0  0  0  0  0
    7.6941   -2.9472   20.6404 H   0  0  0  0  0  0  0  0  0  0  0  0
    6.7278   -2.6085   22.0812 H   0  0  0  0  0  0  0  0  0  0  0  0
    5.4519   -4.4500   21.5740 H   0  0  0  0  0  0  0  0  0  0  0  0
    6.5378   -4.9271   20.2804 H   0  0  0  0  0  0  0  0  0  0  0  0
   10.8655   -2.1193   25.6860 H   0  0  0  0  0  0  0  0  0  0  0  0
   11.0339   -4.0325   23.3179 H   0  0  0  0  0  0  0  0  0  0  0  0
    8.5986   -2.3048   24.0151 H   0  0  0  0  0  0  0  0  0  0  0  0
    9.2276   -4.2927   21.7952 H   0  0  0  0  0  0  0  0  0  0  0  0
    5.7387   -6.1948   24.4951 H   0  0  0  0  0  0  0  0  0  0  0  0
    5.5270   -5.1481   25.9113 H   0  0  0  0  0  0  0  0  0  0  0  0
    7.0378   -6.0755   25.6969 H   0  0  0  0  0  0  0  0  0  0  0  0
    7.3487   -3.6939   25.0186 H   0  0  0  0  0  0  0  0  0  0  0  0
    6.0534   -3.8768   23.8332 H   0  0  0  0  0  0  0  0  0  0  0  0
    5.5706   -6.9306   22.0411 H   0  0  0  0  0  0  0  0  0  0  0  0
  1  2  3  0  0  0  0
  2 19  1  0  0  0  0
  3  4  2  0  0  0  0
  3  7  1  0  0  0  0
  4  8  1  0  0  0  0
  4 15  1  0  0  0  0
  5  6  2  0  0  0  0
  5  9  1  0  0  0  0
  5 16  1  0  0  0  0
  7 10  1  0  0  0  0
  8 11  1  0  0  0  0
  9 20  1  0  0  0  0
 10 12  1  0  0  0  0
 11 17  1  0  0  0  0
 12 15  1  0  0  0  0
 13 14  1  0  0  0  0
 13 18  1  0  0  0  0
 14 19  1  0  0  0  0
 15 16  1  0  0  0  0
 16 17  1  0  0  0  0
 17 18  1  0  0  0  0
 18 20  1  0  0  0  0
 19 20  1  0  0  0  0
 19 23  1  0  0  0  0
 20 22  1  0  0  0  0
 21 22  1  0  0  0  0
  1 24  1  0  0  0  0
  3 25  1  0  0  0  0
  6 26  1  0  0  0  0
  6 27  1  0  0  0  0
  7 28  1  0  0  0  0
  7 29  1  0  0  0  0
  8 30  1  0  0  0  0
  8 31  1  0  0  0  0
  9 32  1  0  0  0  0
  9 33  1  0  0  0  0
 10 34  1  0  0  0  0
 10 35  1  0  0  0  0
 11 36  1  0  0  0  0
 11 37  1  0  0  0  0
 12 38  1  0  0  0  0
 12 39  1  0  0  0  0
 13 40  1  0  0  0  0
 13 41  1  0  0  0  0
 14 42  1  0  0  0  0
 14 43  1  0  0  0  0
 15 44  1  0  0  0  0
 16 45  1  0  0  0  0
 17 46  1  0  0  0  0
 18 47  1  0  0  0  0
 21 48  1  0  0  0  0
 21 49  1  0  0  0  0
 21 50  1  0  0  0  0
 22 51  1  0  0  0  0
 22 52  1  0  0  0  0
 23 53  1  0  0  0  0
M  END
> <Hybrid2>
-8.845607

> <docked_fragment>
x0749

> <Mpro-_dock>
3.867025

> <site>
active-covalent

$$$$
CHEMBL2104245
  -OEChem-04122014263D

 35 36  0     1  0  0  0  0  0999 V2000
    9.3460   -4.4253   23.9613 C   0  0  0  0  0  0  0  0  0  0  0  0
   10.5006   -4.4842   24.6340 C   0  0  0  0  0  0  0  0  0  0  0  0
   11.3481   -3.3356   24.8609 C   0  0  0  0  0  0  0  0  0  0  0  0
   12.5023   -3.4114   25.5372 C   0  0  0  0  0  0  0  0  0  0  0  0
   13.3393   -2.1964   25.7433 C   0  0  0  0  0  0  0  0  0  0  0  0
    7.1588   -5.4087   24.5480 C   0  0  0  0  0  0  0  0  0  0  0  0
    6.4361   -4.2560   23.8263 C   0  0  0  0  0  0  0  0  0  0  0  0
    7.9241   -5.2609   22.2994 C   0  0  0  0  0  0  0  0  0  0  0  0
    8.4269   -5.6037   23.7002 C   0  0  1  0  0  0  0  0  0  0  0  0
    7.4330   -3.8638   22.7118 C   0  0  2  0  0  0  0  0  0  0  0  0
    8.7317   -3.2037   23.2852 C   0  0  0  0  0  0  0  0  0  0  0  0
   14.6196   -2.3783   26.5154 C   0  0  0  0  0  0  0  0  0  0  0  0
    9.6220   -2.6664   22.1495 C   0  0  0  0  0  0  0  0  0  0  0  0
    8.4509   -2.0594   24.2689 C   0  0  0  0  0  0  0  0  0  0  0  0
   13.0220   -1.0983   25.2920 O   0  0  0  0  0  0  0  0  0  0  0  0
   10.8242   -5.4416   25.0338 H   0  0  0  0  0  0  0  0  0  0  0  0
   11.0065   -2.3871   24.4544 H   0  0  0  0  0  0  0  0  0  0  0  0
   12.8612   -4.3472   25.9524 H   0  0  0  0  0  0  0  0  0  0  0  0
    7.3813   -5.1609   25.5915 H   0  0  0  0  0  0  0  0  0  0  0  0
    6.5350   -6.3096   24.5353 H   0  0  0  0  0  0  0  0  0  0  0  0
    5.5025   -4.6259   23.3849 H   0  0  0  0  0  0  0  0  0  0  0  0
    6.1719   -3.4366   24.4986 H   0  0  0  0  0  0  0  0  0  0  0  0
    8.7091   -5.2576   21.5375 H   0  0  0  0  0  0  0  0  0  0  0  0
    7.1134   -5.9179   21.9632 H   0  0  0  0  0  0  0  0  0  0  0  0
    8.8943   -6.5850   23.8023 H   0  0  0  0  0  0  0  0  0  0  0  0
    6.9661   -3.2908   21.9063 H   0  0  0  0  0  0  0  0  0  0  0  0
   15.4543   -2.6206   25.8522 H   0  0  0  0  0  0  0  0  0  0  0  0
   14.8475   -1.4572   27.0576 H   0  0  0  0  0  0  0  0  0  0  0  0
   14.4988   -3.2064   27.2195 H   0  0  0  0  0  0  0  0  0  0  0  0
    9.1450   -1.8017   21.7013 H   0  0  0  0  0  0  0  0  0  0  0  0
    9.7526   -3.4413   21.4020 H   0  0  0  0  0  0  0  0  0  0  0  0
   10.5867   -2.3832   22.5564 H   0  0  0  0  0  0  0  0  0  0  0  0
    8.0161   -1.2206   23.7331 H   0  0  0  0  0  0  0  0  0  0  0  0
    9.3807   -1.7483   24.7364 H   0  0  0  0  0  0  0  0  0  0  0  0
    7.7576   -2.4009   25.0323 H   0  0  0  0  0  0  0  0  0  0  0  0
  1  2  2  0  0  0  0
  1  9  1  0  0  0  0
  1 11  1  0  0  0  0
  2  3  1  0  0  0  0
  3  4  2  0  0  0  0
  4  5  1  0  0  0  0
  5 12  1  0  0  0  0
  5 15  2  0  0  0  0
  6  7  1  0  0  0  0
  6  9  1  0  0  0  0
  7 10  1  0  0  0  0
  8  9  1  0  0  0  0
  8 10  1  0  0  0  0
 10 11  1  0  0  0  0
 11 13  1  0  0  0  0
 11 14  1  0  0  0  0
  2 16  1  0  0  0  0
  3 17  1  0  0  0  0
  4 18  1  0  0  0  0
  6 19  1  0  0  0  0
  6 20  1  0  0  0  0
  7 21  1  0  0  0  0
  7 22  1  0  0  0  0
  8 23  1  0  0  0  0
  8 24  1  0  0  0  0
  9 25  1  0  0  0  0
 10 26  1  0  0  0  0
 12 27  1  0  0  0  0
 12 28  1  0  0  0  0
 12 29  1  0  0  0  0
 13 30  1  0  0  0  0
 13 31  1  0  0  0  0
 13 32  1  0  0  0  0
 14 33  1  0  0  0  0
 14 34  1  0  0  0  0
 14 35  1  0  0  0  0
M  END
> <Hybrid2>
-8.843953

> <docked_fragment>
x0749

> <Mpro-_dock>
1.453055

> <site>
active-covalent

$$$$
CHEMBL1743261
  -OEChem-04122014263D

 41 44  0     1  0  0  0  0  0999 V2000
   13.0606   -0.2889   21.7280 C   0  0  0  0  0  0  0  0  0  0  0  0
   13.5074   -1.3703   22.4871 C   0  0  0  0  0  0  0  0  0  0  0  0
   11.6945   -0.0259   21.6252 C   0  0  0  0  0  0  0  0  0  0  0  0
    6.6381   -1.8766   24.6999 C   0  0  0  0  0  0  0  0  0  0  0  0
   12.5883   -2.1890   23.1433 C   0  0  0  0  0  0  0  0  0  0  0  0
    7.1479   -1.3476   25.8821 C   0  0  0  0  0  0  0  0  0  0  0  0
    8.9490   -0.4076   24.6187 C   0  0  0  0  0  0  0  0  0  0  0  0
   10.7754   -0.8446   22.2814 C   0  0  0  0  0  0  0  0  0  0  0  0
    8.4638   -0.9427   23.3869 C   0  0  0  0  0  0  0  0  0  0  0  0
    7.2807   -1.7033   23.4482 C   0  0  0  0  0  0  0  0  0  0  0  0
    8.3138   -0.6109   25.8423 C   0  0  0  0  0  0  0  0  0  0  0  0
   11.2223   -1.9261   23.0405 C   0  0  0  0  0  0  0  0  0  0  0  0
    6.9279   -2.6208   21.1051 C   0  0  0  0  0  0  0  0  0  0  0  0
    8.3358   -2.4163   20.6756 C   0  0  0  0  0  0  0  0  0  0  0  0
    8.5706    1.3163   20.8710 C   0  0  0  0  0  0  0  0  0  0  0  0
    7.8800    0.0902   20.3035 C   0  0  1  0  0  0  0  0  0  0  0  0
    9.2674   -0.5188   22.1393 C   0  0  2  0  0  0  0  0  0  0  0  0
    7.7663    0.1021   18.7917 C   0  0  0  0  0  0  0  0  0  0  0  0
    6.5813   -2.3267   22.3918 N   0  0  0  0  0  0  0  0  0  0  0  0
    8.7917   -1.0103   20.7799 N   0  3  1  0  0  0  0  0  0  0  0  0
    6.1130   -3.1174   20.3211 O   0  0  0  0  0  0  0  0  0  0  0  0
    9.1016    0.9329   22.1491 O   0  0  0  0  0  0  0  0  0  0  0  0
    8.9968    0.0161   27.2886 Cl  0  0  0  0  0  0  0  0  0  0  0  0
   10.1150   -2.9608   23.8666 Cl  0  0  0  0  0  0  0  0  0  0  0  0
   13.7765    0.3490   21.2177 H   0  0  0  0  0  0  0  0  0  0  0  0
   14.5712   -1.5740   22.5679 H   0  0  0  0  0  0  0  0  0  0  0  0
   11.3571    0.8196   21.0314 H   0  0  0  0  0  0  0  0  0  0  0  0
    5.6806   -2.4129   24.7431 H   0  0  0  0  0  0  0  0  0  0  0  0
   12.9529   -3.0270   23.7319 H   0  0  0  0  0  0  0  0  0  0  0  0
    6.6142   -1.5131   26.8122 H   0  0  0  0  0  0  0  0  0  0  0  0
    9.8858    0.1627   24.6224 H   0  0  0  0  0  0  0  0  0  0  0  0
    8.9951   -3.0181   21.3257 H   0  0  0  0  0  0  0  0  0  0  0  0
    8.4968   -2.7726   19.6410 H   0  0  0  0  0  0  0  0  0  0  0  0
    9.4044    1.6573   20.2423 H   0  0  0  0  0  0  0  0  0  0  0  0
    7.8789    2.1554   21.0090 H   0  0  0  0  0  0  0  0  0  0  0  0
    6.9077   -0.0616   20.7883 H   0  0  0  0  0  0  0  0  0  0  0  0
    8.7483    0.2546   18.3382 H   0  0  0  0  0  0  0  0  0  0  0  0
    7.1040    0.9079   18.4671 H   0  0  0  0  0  0  0  0  0  0  0  0
    7.3611   -0.8473   18.4339 H   0  0  0  0  0  0  0  0  0  0  0  0
    5.5981   -2.6216   22.6523 H   0  0  0  0  0  0  0  0  0  0  0  0
    9.6643   -0.9521   20.1535 H   0  0  0  0  0  0  0  0  0  0  0  0
  1  2  1  0  0  0  0
  1  3  2  0  0  0  0
  2  5  2  0  0  0  0
  3  8  1  0  0  0  0
  4  6  1  0  0  0  0
  4 10  2  0  0  0  0
  5 12  1  0  0  0  0
  6 11  2  0  0  0  0
  7  9  2  0  0  0  0
  7 11  1  0  0  0  0
  8 12  2  0  0  0  0
  8 17  1  0  0  0  0
  9 10  1  0  0  0  0
  9 17  1  0  0  0  0
 10 19  1  0  0  0  0
 11 23  1  0  0  0  0
 12 24  1  0  0  0  0
 13 14  1  0  0  0  0
 13 19  1  0  0  0  0
 13 21  2  0  0  0  0
 14 20  1  0  0  0  0
 15 16  1  0  0  0  0
 15 22  1  0  0  0  0
 16 18  1  0  0  0  0
 16 20  1  0  0  0  0
 17 20  1  0  0  0  0
 17 22  1  0  0  0  0
  1 25  1  0  0  0  0
  2 26  1  0  0  0  0
  3 27  1  0  0  0  0
  4 28  1  0  0  0  0
  5 29  1  0  0  0  0
  6 30  1  0  0  0  0
  7 31  1  0  0  0  0
 14 32  1  0  0  0  0
 14 33  1  0  0  0  0
 15 34  1  0  0  0  0
 15 35  1  0  0  0  0
 16 36  1  0  0  0  0
 18 37  1  0  0  0  0
 18 38  1  0  0  0  0
 18 39  1  0  0  0  0
 19 40  1  0  0  0  0
 20 41  1  0  0  0  0
M  CHG  1  20   1
M  END
> <Hybrid2>
-8.834261

> <docked_fragment>
x0830

> <Mpro-_dock>
1.505796

> <site>
active-covalent

$$$$
CHEMBL2106982
  -OEChem-04122014263D

 50 53  0     1  0  0  0  0  0999 V2000
   10.5218   -1.8573   22.7139 C   0  0  0  0  0  0  0  0  0  0  0  0
   12.1681    1.3909   23.3615 C   0  0  0  0  0  0  0  0  0  0  0  0
   10.7482   -0.6242   23.2030 C   0  0  0  0  0  0  0  0  0  0  0  0
   11.9887    0.1205   22.9599 C   0  0  0  0  0  0  0  0  0  0  0  0
    9.2987   -2.6197   23.0287 C   0  0  0  0  0  0  0  0  0  0  0  0
    9.8255    7.0739   24.6730 C   0  0  0  0  0  0  0  0  0  0  0  0
   12.3841    4.4971   23.7872 C   0  0  0  0  0  0  0  0  0  0  0  0
    8.5958    2.4246   24.5046 C   0  0  0  0  0  0  0  0  0  0  0  0
   11.9084    5.9639   23.7784 C   0  0  0  0  0  0  0  0  0  0  0  0
    8.6700    3.9276   24.1706 C   0  0  0  0  0  0  0  0  0  0  0  0
    8.3103   -0.4982   23.5977 C   0  0  0  0  0  0  0  0  0  0  0  0
   11.1151    2.2010   24.0701 C   0  0  2  0  0  0  0  0  0  0  0  0
    9.7022    1.6093   23.7920 C   0  0  1  0  0  0  0  0  0  0  0  0
   11.1005    3.6799   23.6549 C   0  0  1  0  0  0  0  0  0  0  0  0
    9.6706    0.0658   24.0502 C   0  0  2  0  0  0  0  0  0  0  0  0
   10.3673    5.9219   23.8805 C   0  0  1  0  0  0  0  0  0  0  0  0
   10.0644    4.5133   24.4552 C   0  0  1  0  0  0  0  0  0  0  0  0
   10.7105    7.6243   25.7585 C   0  0  0  0  0  0  0  0  0  0  0  0
    9.8999   -0.2883   25.5368 C   0  0  0  0  0  0  0  0  0  0  0  0
   10.3182    4.5033   25.9899 C   0  0  0  0  0  0  0  0  0  0  0  0
    9.2260   -3.8190   22.7840 O   0  0  0  0  0  0  0  0  0  0  0  0
    8.7132    7.5471   24.4455 O   0  0  0  0  0  0  0  0  0  0  0  0
    8.2890   -1.9361   23.6185 O   0  0  0  0  0  0  0  0  0  0  0  0
    9.8371    6.1043   22.5715 O   0  0  0  0  0  0  0  0  0  0  0  0
   13.3344   -0.6589   22.1750 Cl  0  0  0  0  0  0  0  0  0  0  0  0
   11.2473   -2.3936   22.1121 H   0  0  0  0  0  0  0  0  0  0  0  0
   13.1325    1.8683   23.2047 H   0  0  0  0  0  0  0  0  0  0  0  0
   13.0782    4.3063   22.9624 H   0  0  0  0  0  0  0  0  0  0  0  0
   12.9113    4.2715   24.7209 H   0  0  0  0  0  0  0  0  0  0  0  0
    8.6503    2.2833   25.5883 H   0  0  0  0  0  0  0  0  0  0  0  0
    7.6073    2.0678   24.1960 H   0  0  0  0  0  0  0  0  0  0  0  0
   12.3639    6.4977   24.6203 H   0  0  0  0  0  0  0  0  0  0  0  0
   12.2389    6.4570   22.8571 H   0  0  0  0  0  0  0  0  0  0  0  0
    8.4103    4.0525   23.1120 H   0  0  0  0  0  0  0  0  0  0  0  0
    7.9043    4.4666   24.7412 H   0  0  0  0  0  0  0  0  0  0  0  0
    7.5065   -0.1720   24.2663 H   0  0  0  0  0  0  0  0  0  0  0  0
    8.0420   -0.1726   22.5843 H   0  0  0  0  0  0  0  0  0  0  0  0
   11.3522    2.1371   25.1375 H   0  0  0  0  0  0  0  0  0  0  0  0
    9.5084    1.7437   22.7138 H   0  0  0  0  0  0  0  0  0  0  0  0
   10.8290    3.7078   22.5865 H   0  0  0  0  0  0  0  0  0  0  0  0
   11.3433    8.4178   25.3514 H   0  0  0  0  0  0  0  0  0  0  0  0
   11.3492    6.8283   26.1491 H   0  0  0  0  0  0  0  0  0  0  0  0
   10.0934    8.0399   26.5587 H   0  0  0  0  0  0  0  0  0  0  0  0
    9.1398    0.1983   26.1350 H   0  0  0  0  0  0  0  0  0  0  0  0
   10.8823    0.0580   25.8327 H   0  0  0  0  0  0  0  0  0  0  0  0
    9.8340   -1.3626   25.6560 H   0  0  0  0  0  0  0  0  0  0  0  0
   11.2982    4.9160   26.1756 H   0  0  0  0  0  0  0  0  0  0  0  0
   10.2654    3.4826   26.3370 H   0  0  0  0  0  0  0  0  0  0  0  0
    9.5579    5.1046   26.4647 H   0  0  0  0  0  0  0  0  0  0  0  0
    8.8713    6.0844   22.6588 H   0  0  0  0  0  0  0  0  0  0  0  0
  1  3  2  0  0  0  0
  1  5  1  0  0  0  0
  2  4  2  0  0  0  0
  2 12  1  0  0  0  0
  3  4  1  0  0  0  0
  3 15  1  0  0  0  0
  4 25  1  0  0  0  0
  5 21  2  0  0  0  0
  5 23  1  0  0  0  0
  6 16  1  0  0  0  0
  6 18  1  0  0  0  0
  6 22  2  0  0  0  0
  7  9  1  0  0  0  0
  7 14  1  0  0  0  0
  8 10  1  0  0  0  0
  8 13  1  0  0  0  0
  9 16  1  0  0  0  0
 10 17  1  0  0  0  0
 11 15  1  0  0  0  0
 11 23  1  0  0  0  0
 12 13  1  0  0  0  0
 12 14  1  0  0  0  0
 13 15  1  0  0  0  0
 14 17  1  0  0  0  0
 15 19  1  0  0  0  0
 16 17  1  0  0  0  0
 16 24  1  0  0  0  0
 17 20  1  0  0  0  0
  1 26  1  0  0  0  0
  2 27  1  0  0  0  0
  7 28  1  0  0  0  0
  7 29  1  0  0  0  0
  8 30  1  0  0  0  0
  8 31  1  0  0  0  0
  9 32  1  0  0  0  0
  9 33  1  0  0  0  0
 10 34  1  0  0  0  0
 10 35  1  0  0  0  0
 11 36  1  0  0  0  0
 11 37  1  0  0  0  0
 12 38  1  0  0  0  0
 13 39  1  0  0  0  0
 14 40  1  0  0  0  0
 18 41  1  0  0  0  0
 18 42  1  0  0  0  0
 18 43  1  0  0  0  0
 19 44  1  0  0  0  0
 19 45  1  0  0  0  0
 19 46  1  0  0  0  0
 20 47  1  0  0  0  0
 20 48  1  0  0  0  0
 20 49  1  0  0  0  0
 24 50  1  0  0  0  0
M  END
> <Hybrid2>
-8.833907

> <docked_fragment>
x0104

> <Mpro-_dock>
2.158576

> <site>
active-noncovalent

$$$$
CHEMBL2105240
  -OEChem-04122014263D

 46 48  0     1  0  0  0  0  0999 V2000
   13.8104    2.9309   22.5318 C   0  0  0  0  0  0  0  0  0  0  0  0
   11.9109    3.8254   23.7041 C   0  0  0  0  0  0  0  0  0  0  0  0
   12.0221    1.4345   23.2343 C   0  0  0  0  0  0  0  0  0  0  0  0
   13.1357    4.0196   23.0751 C   0  0  0  0  0  0  0  0  0  0  0  0
   13.2616    1.6475   22.6253 C   0  0  0  0  0  0  0  0  0  0  0  0
   11.3574    2.5441   23.7812 C   0  0  0  0  0  0  0  0  0  0  0  0
   11.4601    0.0721   23.2600 C   0  0  0  0  0  0  0  0  0  0  0  0
   12.2738   -0.9501   22.9250 C   0  0  0  0  0  0  0  0  0  0  0  0
    9.1444    3.2430   23.7360 C   0  0  0  0  0  0  0  0  0  0  0  0
   10.0213   -0.1241   23.6807 C   0  0  0  0  0  0  0  0  0  0  0  0
   11.8026   -2.3899   22.9988 C   0  0  0  0  0  0  0  0  0  0  0  0
   10.4805   -2.5843   23.7424 C   0  0  0  0  0  0  0  0  0  0  0  0
    9.4491   -1.5177   23.3740 C   0  0  2  0  0  0  0  0  0  0  0  0
   13.7188   -0.7076   22.4864 C   0  0  0  0  0  0  0  0  0  0  0  0
   13.7218    5.3870   22.9815 C   0  0  0  0  0  0  0  0  0  0  0  0
    8.6032    4.2781   24.6770 C   0  0  0  0  0  0  0  0  0  0  0  0
    8.9972   -1.6353   21.9148 C   0  0  0  0  0  0  0  0  0  0  0  0
   14.6931   -1.0137   23.6360 C   0  0  0  0  0  0  0  0  0  0  0  0
   14.0930   -1.5658   21.2659 C   0  0  0  0  0  0  0  0  0  0  0  0
    8.7684    3.1001   22.5801 O   0  0  0  0  0  0  0  0  0  0  0  0
   13.9891    0.6443   22.0534 O   0  0  0  0  0  0  0  0  0  0  0  0
   10.1323    2.4826   24.3797 O   0  0  0  0  0  0  0  0  0  0  0  0
   14.7626    3.0774   22.0272 H   0  0  0  0  0  0  0  0  0  0  0  0
   11.3816    4.6727   24.1347 H   0  0  0  0  0  0  0  0  0  0  0  0
    9.9199    0.0214   24.7665 H   0  0  0  0  0  0  0  0  0  0  0  0
    9.4000    0.6295   23.1730 H   0  0  0  0  0  0  0  0  0  0  0  0
   11.6839   -2.8030   21.9910 H   0  0  0  0  0  0  0  0  0  0  0  0
   12.5767   -2.9828   23.5016 H   0  0  0  0  0  0  0  0  0  0  0  0
   10.0773   -3.5883   23.5168 H   0  0  0  0  0  0  0  0  0  0  0  0
   10.6722   -2.5752   24.8292 H   0  0  0  0  0  0  0  0  0  0  0  0
    8.5562   -1.6710   24.0111 H   0  0  0  0  0  0  0  0  0  0  0  0
   13.3878    5.8844   22.0624 H   0  0  0  0  0  0  0  0  0  0  0  0
   13.4276    6.0070   23.8386 H   0  0  0  0  0  0  0  0  0  0  0  0
   14.8194    5.3514   22.9781 H   0  0  0  0  0  0  0  0  0  0  0  0
    7.7503    3.8708   25.2257 H   0  0  0  0  0  0  0  0  0  0  0  0
    8.2658    5.1468   24.1043 H   0  0  0  0  0  0  0  0  0  0  0  0
    9.3883    4.5986   25.3665 H   0  0  0  0  0  0  0  0  0  0  0  0
    9.8487   -1.4904   21.2519 H   0  0  0  0  0  0  0  0  0  0  0  0
    8.2447   -0.8785   21.6994 H   0  0  0  0  0  0  0  0  0  0  0  0
    8.5717   -2.6219   21.7386 H   0  0  0  0  0  0  0  0  0  0  0  0
   15.7096   -0.8346   23.3013 H   0  0  0  0  0  0  0  0  0  0  0  0
   14.5836   -2.0521   23.9314 H   0  0  0  0  0  0  0  0  0  0  0  0
   14.4670   -0.3683   24.4786 H   0  0  0  0  0  0  0  0  0  0  0  0
   15.1226   -1.3644   20.9878 H   0  0  0  0  0  0  0  0  0  0  0  0
   13.4365   -1.3177   20.4381 H   0  0  0  0  0  0  0  0  0  0  0  0
   13.9819   -2.6156   21.5178 H   0  0  0  0  0  0  0  0  0  0  0  0
  1  4  1  0  0  0  0
  1  5  2  0  0  0  0
  2  4  2  0  0  0  0
  2  6  1  0  0  0  0
  3  5  1  0  0  0  0
  3  6  2  0  0  0  0
  3  7  1  0  0  0  0
  4 15  1  0  0  0  0
  5 21  1  0  0  0  0
  6 22  1  0  0  0  0
  7  8  2  0  0  0  0
  7 10  1  0  0  0  0
  8 11  1  0  0  0  0
  8 14  1  0  0  0  0
  9 16  1  0  0  0  0
  9 20  2  0  0  0  0
  9 22  1  0  0  0  0
 10 13  1  0  0  0  0
 11 12  1  0  0  0  0
 12 13  1  0  0  0  0
 13 17  1  0  0  0  0
 14 18  1  0  0  0  0
 14 19  1  0  0  0  0
 14 21  1  0  0  0  0
  1 23  1  0  0  0  0
  2 24  1  0  0  0  0
 10 25  1  0  0  0  0
 10 26  1  0  0  0  0
 11 27  1  0  0  0  0
 11 28  1  0  0  0  0
 12 29  1  0  0  0  0
 12 30  1  0  0  0  0
 13 31  1  0  0  0  0
 15 32  1  0  0  0  0
 15 33  1  0  0  0  0
 15 34  1  0  0  0  0
 16 35  1  0  0  0  0
 16 36  1  0  0  0  0
 16 37  1  0  0  0  0
 17 38  1  0  0  0  0
 17 39  1  0  0  0  0
 17 40  1  0  0  0  0
 18 41  1  0  0  0  0
 18 42  1  0  0  0  0
 18 43  1  0  0  0  0
 19 44  1  0  0  0  0
 19 45  1  0  0  0  0
 19 46  1  0  0  0  0
M  END
> <Hybrid2>
-8.833778

> <docked_fragment>
x0195

> <Mpro-_dock>
1.991238

> <site>
active-noncovalent

$$$$
CHEMBL972
  -OEChem-04122014263D

 32 32  0     1  0  0  0  0  0999 V2000
   12.3883    6.3990   25.2535 C   0  0  0  0  0  0  0  0  0  0  0  0
   11.8579    6.3223   24.1793 C   0  0  0  0  0  0  0  0  0  0  0  0
   13.7009   -0.7861   24.1010 C   0  0  0  0  0  0  0  0  0  0  0  0
   13.8477   -0.2622   22.8167 C   0  0  0  0  0  0  0  0  0  0  0  0
   12.7247   -0.2740   24.9558 C   0  0  0  0  0  0  0  0  0  0  0  0
   13.0184    0.7738   22.3871 C   0  0  0  0  0  0  0  0  0  0  0  0
   11.8955    0.7620   24.5262 C   0  0  0  0  0  0  0  0  0  0  0  0
   12.0423    1.2860   23.2418 C   0  0  0  0  0  0  0  0  0  0  0  0
   13.0053    4.0610   22.3328 C   0  0  0  0  0  0  0  0  0  0  0  0
    9.3582    4.6208   23.2623 C   0  0  0  0  0  0  0  0  0  0  0  0
   11.2139    6.2345   22.8712 C   0  0  0  0  0  0  0  0  0  0  0  0
   11.1487    2.4022   22.7798 C   0  0  0  0  0  0  0  0  0  0  0  0
   11.7027    3.8016   23.0785 C   0  0  2  0  0  0  0  0  0  0  0  0
   10.7151    4.8317   22.6441 N   0  3  1  0  0  0  0  0  0  0  0  0
   12.8588    6.4663   26.2065 H   0  0  0  0  0  0  0  0  0  0  0  0
   14.3458   -1.5938   24.4349 H   0  0  0  0  0  0  0  0  0  0  0  0
   14.6069   -0.6616   22.1506 H   0  0  0  0  0  0  0  0  0  0  0  0
   12.6094   -0.6824   25.9554 H   0  0  0  0  0  0  0  0  0  0  0  0
   13.1401    1.1760   21.3847 H   0  0  0  0  0  0  0  0  0  0  0  0
   11.1378    1.1548   25.1991 H   0  0  0  0  0  0  0  0  0  0  0  0
   12.8772    3.9117   21.2552 H   0  0  0  0  0  0  0  0  0  0  0  0
   13.3624    5.0844   22.4916 H   0  0  0  0  0  0  0  0  0  0  0  0
   13.7872    3.3739   22.6730 H   0  0  0  0  0  0  0  0  0  0  0  0
    9.4641    4.7252   24.3437 H   0  0  0  0  0  0  0  0  0  0  0  0
    8.6854    5.3799   22.8586 H   0  0  0  0  0  0  0  0  0  0  0  0
    9.0221    3.6168   22.9961 H   0  0  0  0  0  0  0  0  0  0  0  0
   11.9090    6.4572   22.0572 H   0  0  0  0  0  0  0  0  0  0  0  0
   10.3447    6.8936   22.7978 H   0  0  0  0  0  0  0  0  0  0  0  0
   10.1754    2.2892   23.2771 H   0  0  0  0  0  0  0  0  0  0  0  0
   10.9420    2.3008   21.7057 H   0  0  0  0  0  0  0  0  0  0  0  0
   11.8504    3.9557   24.1530 H   0  0  0  0  0  0  0  0  0  0  0  0
   10.5900    4.7285   21.6249 H   0  0  0  0  0  0  0  0  0  0  0  0
  1  2  3  0  0  0  0
  2 11  1  0  0  0  0
  3  4  1  0  0  0  0
  3  5  2  0  0  0  0
  4  6  2  0  0  0  0
  5  7  1  0  0  0  0
  6  8  1  0  0  0  0
  7  8  2  0  0  0  0
  8 12  1  0  0  0  0
  9 13  1  0  0  0  0
 10 14  1  0  0  0  0
 11 14  1  0  0  0  0
 12 13  1  0  0  0  0
 13 14  1  0  0  0  0
  1 15  1  0  0  0  0
  3 16  1  0  0  0  0
  4 17  1  0  0  0  0
  5 18  1  0  0  0  0
  6 19  1  0  0  0  0
  7 20  1  0  0  0  0
  9 21  1  0  0  0  0
  9 22  1  0  0  0  0
  9 23  1  0  0  0  0
 10 24  1  0  0  0  0
 10 25  1  0  0  0  0
 10 26  1  0  0  0  0
 11 27  1  0  0  0  0
 11 28  1  0  0  0  0
 12 29  1  0  0  0  0
 12 30  1  0  0  0  0
 13 31  1  0  0  0  0
 14 32  1  0  0  0  0
M  CHG  1  14   1
M  END
> <Hybrid2>
-8.827469

> <docked_fragment>
x0161

> <Mpro-_dock>
-0.99364

> <site>
active-noncovalent

$$$$
CHEMBL2106527
  -OEChem-04122014263D

 41 42  0     1  0  0  0  0  0999 V2000
    7.1827   -3.0284   25.9956 C   0  0  0  0  0  0  0  0  0  0  0  0
    8.6202   -4.6738   24.9643 C   0  0  0  0  0  0  0  0  0  0  0  0
    6.7292   -3.9904   26.8981 C   0  0  0  0  0  0  0  0  0  0  0  0
    8.1667   -5.6357   25.8668 C   0  0  0  0  0  0  0  0  0  0  0  0
    8.1282   -3.3701   25.0286 C   0  0  0  0  0  0  0  0  0  0  0  0
    7.2212   -5.2940   26.8338 C   0  0  0  0  0  0  0  0  0  0  0  0
   10.8147   -1.2062   22.4192 C   0  0  0  0  0  0  0  0  0  0  0  0
    9.6354   -1.9228   21.7689 C   0  0  0  0  0  0  0  0  0  0  0  0
    9.8106   -1.5976   24.6962 C   0  0  0  0  0  0  0  0  0  0  0  0
    8.6158   -2.3370   24.0596 C   0  0  1  0  0  0  0  0  0  0  0  0
   10.4126   -0.5551   23.7457 C   0  0  1  0  0  0  0  0  0  0  0  0
    9.0090   -2.9748   22.7004 C   0  0  1  0  0  0  0  0  0  0  0  0
    7.8075   -3.6200   21.9998 C   0  0  0  0  0  0  0  0  0  0  0  0
   12.8652   -0.7252   24.2551 C   0  0  0  0  0  0  0  0  0  0  0  0
   11.8356    1.5131   23.7719 C   0  0  0  0  0  0  0  0  0  0  0  0
   11.6119    0.1361   24.3921 C   0  0  0  0  0  0  0  0  0  0  0  0
    6.7794   -6.2322   27.7154 O   0  0  0  0  0  0  0  0  0  0  0  0
    6.7940   -2.0153   26.0530 H   0  0  0  0  0  0  0  0  0  0  0  0
    9.3570   -4.9491   24.2140 H   0  0  0  0  0  0  0  0  0  0  0  0
    5.9927   -3.7179   27.6494 H   0  0  0  0  0  0  0  0  0  0  0  0
    8.5540   -6.6492   25.8117 H   0  0  0  0  0  0  0  0  0  0  0  0
   11.6293   -1.9232   22.5836 H   0  0  0  0  0  0  0  0  0  0  0  0
   11.1973   -0.4442   21.7297 H   0  0  0  0  0  0  0  0  0  0  0  0
    8.8781   -1.1819   21.4819 H   0  0  0  0  0  0  0  0  0  0  0  0
    9.9749   -2.4020   20.8425 H   0  0  0  0  0  0  0  0  0  0  0  0
    9.4875   -1.1057   25.6234 H   0  0  0  0  0  0  0  0  0  0  0  0
   10.5849   -2.3221   24.9858 H   0  0  0  0  0  0  0  0  0  0  0  0
    7.7991   -1.6213   23.9032 H   0  0  0  0  0  0  0  0  0  0  0  0
    9.6514    0.2098   23.5424 H   0  0  0  0  0  0  0  0  0  0  0  0
    9.7544   -3.7628   22.8780 H   0  0  0  0  0  0  0  0  0  0  0  0
    7.0495   -2.8648   21.8093 H   0  0  0  0  0  0  0  0  0  0  0  0
    7.3912   -4.3974   22.6350 H   0  0  0  0  0  0  0  0  0  0  0  0
    8.1278   -4.0563   21.0574 H   0  0  0  0  0  0  0  0  0  0  0  0
   13.1235   -0.8889   23.2032 H   0  0  0  0  0  0  0  0  0  0  0  0
   12.7177   -1.7039   24.7237 H   0  0  0  0  0  0  0  0  0  0  0  0
   13.7205   -0.2460   24.7431 H   0  0  0  0  0  0  0  0  0  0  0  0
   12.0534    1.4376   22.7010 H   0  0  0  0  0  0  0  0  0  0  0  0
   12.6763    2.0238   24.2533 H   0  0  0  0  0  0  0  0  0  0  0  0
   10.9479    2.1430   23.8931 H   0  0  0  0  0  0  0  0  0  0  0  0
   11.3988    0.2685   25.4596 H   0  0  0  0  0  0  0  0  0  0  0  0
    6.1290   -5.8438   28.3221 H   0  0  0  0  0  0  0  0  0  0  0  0
  1  3  2  0  0  0  0
  1  5  1  0  0  0  0
  2  4  1  0  0  0  0
  2  5  2  0  0  0  0
  3  6  1  0  0  0  0
  4  6  2  0  0  0  0
  5 10  1  0  0  0  0
  6 17  1  0  0  0  0
  7  8  1  0  0  0  0
  7 11  1  0  0  0  0
  8 12  1  0  0  0  0
  9 10  1  0  0  0  0
  9 11  1  0  0  0  0
 10 12  1  0  0  0  0
 11 16  1  0  0  0  0
 12 13  1  0  0  0  0
 14 16  1  0  0  0  0
 15 16  1  0  0  0  0
  1 18  1  0  0  0  0
  2 19  1  0  0  0  0
  3 20  1  0  0  0  0
  4 21  1  0  0  0  0
  7 22  1  0  0  0  0
  7 23  1  0  0  0  0
  8 24  1  0  0  0  0
  8 25  1  0  0  0  0
  9 26  1  0  0  0  0
  9 27  1  0  0  0  0
 10 28  1  0  0  0  0
 11 29  1  0  0  0  0
 12 30  1  0  0  0  0
 13 31  1  0  0  0  0
 13 32  1  0  0  0  0
 13 33  1  0  0  0  0
 14 34  1  0  0  0  0
 14 35  1  0  0  0  0
 14 36  1  0  0  0  0
 15 37  1  0  0  0  0
 15 38  1  0  0  0  0
 15 39  1  0  0  0  0
 16 40  1  0  0  0  0
 17 41  1  0  0  0  0
M  END
> <Hybrid2>
-8.821215

> <docked_fragment>
x0072

> <Mpro-_dock>
-0.223354

> <site>
active-noncovalent

$$$$
EDRUG316
  -OEChem-04122014263D

 37 37  0     0  0  0  0  0  0999 V2000
   13.7080    1.7070   22.2508 C   0  0  0  0  0  0  0  0  0  0  0  0
   11.9692    1.5106   23.9167 C   0  0  0  0  0  0  0  0  0  0  0  0
   13.4414    3.0711   22.1334 C   0  0  0  0  0  0  0  0  0  0  0  0
   11.7027    2.8747   23.7993 C   0  0  0  0  0  0  0  0  0  0  0  0
   12.9718    0.9267   23.1424 C   0  0  0  0  0  0  0  0  0  0  0  0
   12.4388    3.6550   22.9076 C   0  0  0  0  0  0  0  0  0  0  0  0
   14.3470   -0.7262   24.3839 C   0  0  0  0  0  0  0  0  0  0  0  0
   13.8894   -1.2055   22.0062 C   0  0  0  0  0  0  0  0  0  0  0  0
   10.3215   -2.8660   22.6058 C   0  0  0  0  0  0  0  0  0  0  0  0
   10.7687   -0.6305   21.6309 C   0  0  0  0  0  0  0  0  0  0  0  0
    9.4856   -0.8344   23.7736 C   0  0  0  0  0  0  0  0  0  0  0  0
   12.0176   -1.4137   23.7392 C   0  0  0  0  0  0  0  0  0  0  0  0
   13.2667   -0.5813   23.2728 C   0  0  0  0  0  0  0  0  0  0  0  0
   10.6593   -1.3972   22.9633 C   0  0  0  0  0  0  0  0  0  0  0  0
   12.1798    4.9863   22.7938 O   0  0  0  0  0  0  0  0  0  0  0  0
   14.4908    1.2604   21.6436 H   0  0  0  0  0  0  0  0  0  0  0  0
   11.3904    0.9103   24.6140 H   0  0  0  0  0  0  0  0  0  0  0  0
   14.0186    3.6738   21.4371 H   0  0  0  0  0  0  0  0  0  0  0  0
   10.9208    3.3236   24.4053 H   0  0  0  0  0  0  0  0  0  0  0  0
   14.6269   -1.7723   24.5530 H   0  0  0  0  0  0  0  0  0  0  0  0
   13.9922   -0.3232   25.3405 H   0  0  0  0  0  0  0  0  0  0  0  0
   15.2635   -0.1863   24.1174 H   0  0  0  0  0  0  0  0  0  0  0  0
   14.0830   -2.2770   22.1411 H   0  0  0  0  0  0  0  0  0  0  0  0
   13.2157   -1.1113   21.1468 H   0  0  0  0  0  0  0  0  0  0  0  0
   14.8437   -0.7423   21.7411 H   0  0  0  0  0  0  0  0  0  0  0  0
   10.2264   -3.4814   23.5076 H   0  0  0  0  0  0  0  0  0  0  0  0
   11.1025   -3.3094   21.9776 H   0  0  0  0  0  0  0  0  0  0  0  0
    9.3744   -2.9373   22.0586 H   0  0  0  0  0  0  0  0  0  0  0  0
   11.0076    0.4257   21.7976 H   0  0  0  0  0  0  0  0  0  0  0  0
   11.5637   -1.0495   21.0022 H   0  0  0  0  0  0  0  0  0  0  0  0
    9.8514   -0.6801   21.0412 H   0  0  0  0  0  0  0  0  0  0  0  0
    9.6700    0.2091   24.0563 H   0  0  0  0  0  0  0  0  0  0  0  0
    8.5565   -0.8505   23.1952 H   0  0  0  0  0  0  0  0  0  0  0  0
    9.3302   -1.3870   24.7039 H   0  0  0  0  0  0  0  0  0  0  0  0
   12.3304   -2.4675   23.8005 H   0  0  0  0  0  0  0  0  0  0  0  0
   11.8042   -1.1438   24.7820 H   0  0  0  0  0  0  0  0  0  0  0  0
   12.7713    5.3892   22.1384 H   0  0  0  0  0  0  0  0  0  0  0  0
  1  3  2  0  0  0  0
  1  5  1  0  0  0  0
  2  4  1  0  0  0  0
  2  5  2  0  0  0  0
  3  6  1  0  0  0  0
  4  6  2  0  0  0  0
  5 13  1  0  0  0  0
  6 15  1  0  0  0  0
  7 13  1  0  0  0  0
  8 13  1  0  0  0  0
  9 14  1  0  0  0  0
 10 14  1  0  0  0  0
 11 14  1  0  0  0  0
 12 13  1  0  0  0  0
 12 14  1  0  0  0  0
  1 16  1  0  0  0  0
  2 17  1  0  0  0  0
  3 18  1  0  0  0  0
  4 19  1  0  0  0  0
  7 20  1  0  0  0  0
  7 21  1  0  0  0  0
  7 22  1  0  0  0  0
  8 23  1  0  0  0  0
  8 24  1  0  0  0  0
  8 25  1  0  0  0  0
  9 26  1  0  0  0  0
  9 27  1  0  0  0  0
  9 28  1  0  0  0  0
 10 29  1  0  0  0  0
 10 30  1  0  0  0  0
 10 31  1  0  0  0  0
 11 32  1  0  0  0  0
 11 33  1  0  0  0  0
 11 34  1  0  0  0  0
 12 35  1  0  0  0  0
 12 36  1  0  0  0  0
 15 37  1  0  0  0  0
M  END
> <Hybrid2>
-8.804402

> <docked_fragment>
x0195

> <Mpro-_dock>
0.494507

> <site>
active-noncovalent

$$$$
CHEMBL2104546
  -OEChem-04122014263D

 36 38  0     1  0  0  0  0  0999 V2000
   13.4856   -0.0930   23.1927 C   0  0  0  0  0  0  0  0  0  0  0  0
    7.4459   -0.0123   19.1990 C   0  0  0  0  0  0  0  0  0  0  0  0
   12.4604    0.7053   23.7000 C   0  0  0  0  0  0  0  0  0  0  0  0
   13.1841   -1.3082   22.5779 C   0  0  0  0  0  0  0  0  0  0  0  0
    8.3462    0.8077   19.8659 C   0  0  0  0  0  0  0  0  0  0  0  0
    7.1260   -1.2668   19.7185 C   0  0  0  0  0  0  0  0  0  0  0  0
   11.1337    0.2882   23.5926 C   0  0  0  0  0  0  0  0  0  0  0  0
   11.8573   -1.7253   22.4705 C   0  0  0  0  0  0  0  0  0  0  0  0
    8.9483    0.3645   21.0418 C   0  0  0  0  0  0  0  0  0  0  0  0
    7.7170   -1.7246   20.9091 C   0  0  0  0  0  0  0  0  0  0  0  0
   10.8321   -0.9270   22.9779 C   0  0  0  0  0  0  0  0  0  0  0  0
    8.6750   -0.9158   21.5646 C   0  0  0  0  0  0  0  0  0  0  0  0
    7.3014   -3.0268   21.5205 C   0  0  0  0  0  0  0  0  0  0  0  0
    9.3859   -2.9362   22.8665 C   0  0  0  0  0  0  0  0  0  0  0  0
    9.3602   -1.3905   22.8586 C   0  0  1  0  0  0  0  0  0  0  0  0
    8.9661   -1.4043   25.3390 C   0  0  0  0  0  0  0  0  0  0  0  0
    8.4679   -0.9000   24.0285 C   0  0  0  0  0  0  0  0  0  0  0  0
    8.1053   -3.5112   22.5310 N   0  0  0  0  0  0  0  0  0  0  0  0
    5.9270   -3.9056   21.1112 S   0  0  0  0  0  0  0  0  0  0  0  0
   14.5185    0.2325   23.2751 H   0  0  0  0  0  0  0  0  0  0  0  0
    6.9853    0.3245   18.2746 H   0  0  0  0  0  0  0  0  0  0  0  0
   12.6949    1.6520   24.1778 H   0  0  0  0  0  0  0  0  0  0  0  0
   13.9819   -1.9294   22.1818 H   0  0  0  0  0  0  0  0  0  0  0  0
    8.5812    1.7912   19.4721 H   0  0  0  0  0  0  0  0  0  0  0  0
    6.3944   -1.8613   19.1762 H   0  0  0  0  0  0  0  0  0  0  0  0
   10.3414    0.9166   23.9910 H   0  0  0  0  0  0  0  0  0  0  0  0
   11.6319   -2.6737   21.9900 H   0  0  0  0  0  0  0  0  0  0  0  0
    9.6465    1.0329   21.5366 H   0  0  0  0  0  0  0  0  0  0  0  0
   10.1139   -3.3286   22.1377 H   0  0  0  0  0  0  0  0  0  0  0  0
    9.6711   -3.3313   23.8565 H   0  0  0  0  0  0  0  0  0  0  0  0
    8.9689   -2.5005   25.3273 H   0  0  0  0  0  0  0  0  0  0  0  0
    8.3194   -1.0752   26.1593 H   0  0  0  0  0  0  0  0  0  0  0  0
    9.9897   -1.0640   25.5283 H   0  0  0  0  0  0  0  0  0  0  0  0
    8.4599    0.1901   24.0263 H   0  0  0  0  0  0  0  0  0  0  0  0
    7.4488   -1.2473   23.8578 H   0  0  0  0  0  0  0  0  0  0  0  0
    7.7550   -4.2845   23.0966 H   0  0  0  0  0  0  0  0  0  0  0  0
  1  3  1  0  0  0  0
  1  4  2  0  0  0  0
  2  5  2  0  0  0  0
  2  6  1  0  0  0  0
  3  7  2  0  0  0  0
  4  8  1  0  0  0  0
  5  9  1  0  0  0  0
  6 10  2  0  0  0  0
  7 11  1  0  0  0  0
  8 11  2  0  0  0  0
  9 12  2  0  0  0  0
 10 12  1  0  0  0  0
 10 13  1  0  0  0  0
 11 15  1  0  0  0  0
 12 15  1  0  0  0  0
 13 18  1  0  0  0  0
 13 19  2  0  0  0  0
 14 15  1  0  0  0  0
 14 18  1  0  0  0  0
 15 17  1  0  0  0  0
 16 17  1  0  0  0  0
  1 20  1  0  0  0  0
  2 21  1  0  0  0  0
  3 22  1  0  0  0  0
  4 23  1  0  0  0  0
  5 24  1  0  0  0  0
  6 25  1  0  0  0  0
  7 26  1  0  0  0  0
  8 27  1  0  0  0  0
  9 28  1  0  0  0  0
 14 29  1  0  0  0  0
 14 30  1  0  0  0  0
 16 31  1  0  0  0  0
 16 32  1  0  0  0  0
 16 33  1  0  0  0  0
 17 34  1  0  0  0  0
 17 35  1  0  0  0  0
 18 36  1  0  0  0  0
M  END
> <Hybrid2>
-8.786167

> <docked_fragment>
x0708

> <Mpro-_dock>
-1.144489

> <site>
active-covalent

$$$$
CHEMBL2111066
  -OEChem-04122014263D

 40 42  0     1  0  0  0  0  0999 V2000
   10.1765    4.9169   24.1144 C   0  0  0  0  0  0  0  0  0  0  0  0
   11.1877    5.5756   23.4338 C   0  0  0  0  0  0  0  0  0  0  0  0
   13.9782   -1.3355   22.1029 C   0  0  0  0  0  0  0  0  0  0  0  0
   10.2634    3.5385   24.3314 C   0  0  0  0  0  0  0  0  0  0  0  0
   12.2799    4.8529   22.9674 C   0  0  0  0  0  0  0  0  0  0  0  0
   14.2286    0.0243   22.0210 C   0  0  0  0  0  0  0  0  0  0  0  0
   12.8965   -1.7309   22.8543 C   0  0  0  0  0  0  0  0  0  0  0  0
   11.3626    2.7738   23.8805 C   0  0  0  0  0  0  0  0  0  0  0  0
   12.3705    3.4647   23.1799 C   0  0  0  0  0  0  0  0  0  0  0  0
   13.3985    0.9441   22.6798 C   0  0  0  0  0  0  0  0  0  0  0  0
   12.3133    0.4697   23.4272 C   0  0  0  0  0  0  0  0  0  0  0  0
    7.9620    0.2523   25.2102 C   0  0  0  0  0  0  0  0  0  0  0  0
    9.1510   -2.0231   24.2090 C   0  0  0  0  0  0  0  0  0  0  0  0
    8.3789   -0.7313   22.2251 C   0  0  0  0  0  0  0  0  0  0  0  0
   10.4588    0.7542   24.9889 C   0  0  0  0  0  0  0  0  0  0  0  0
    9.1412    0.4665   24.2708 C   0  0  1  0  0  0  0  0  0  0  0  0
   12.0794   -0.8727   23.5032 N   0  0  0  0  0  0  0  0  0  0  0  0
   11.4463    1.3769   24.0970 N   0  0  0  0  0  0  0  0  0  0  0  0
    9.2957   -0.7471   23.4208 N   0  3  0  0  0  0  0  0  0  0  0  0
   13.8246    2.6604   22.5419 S   0  0  0  0  0  0  0  0  0  0  0  0
    9.3180    5.4705   24.4835 H   0  0  0  0  0  0  0  0  0  0  0  0
   11.1303    6.6472   23.2702 H   0  0  0  0  0  0  0  0  0  0  0  0
   14.6067   -2.0555   21.5930 H   0  0  0  0  0  0  0  0  0  0  0  0
    9.4448    3.0829   24.8832 H   0  0  0  0  0  0  0  0  0  0  0  0
   13.0640    5.3880   22.4347 H   0  0  0  0  0  0  0  0  0  0  0  0
   15.0803    0.3615   21.4336 H   0  0  0  0  0  0  0  0  0  0  0  0
   12.6435   -2.7801   22.9627 H   0  0  0  0  0  0  0  0  0  0  0  0
    8.1694   -0.5656   25.9079 H   0  0  0  0  0  0  0  0  0  0  0  0
    7.7695    1.1539   25.8020 H   0  0  0  0  0  0  0  0  0  0  0  0
    7.0421    0.0103   24.6672 H   0  0  0  0  0  0  0  0  0  0  0  0
    8.1385   -2.0513   24.6157 H   0  0  0  0  0  0  0  0  0  0  0  0
    9.3238   -2.8583   23.5275 H   0  0  0  0  0  0  0  0  0  0  0  0
    9.8946   -2.0083   25.0082 H   0  0  0  0  0  0  0  0  0  0  0  0
    7.3510   -0.7339   22.5925 H   0  0  0  0  0  0  0  0  0  0  0  0
    8.5896    0.1751   21.6544 H   0  0  0  0  0  0  0  0  0  0  0  0
    8.5862   -1.6249   21.6333 H   0  0  0  0  0  0  0  0  0  0  0  0
   10.2858    1.4175   25.8439 H   0  0  0  0  0  0  0  0  0  0  0  0
   10.8767   -0.1778   25.3850 H   0  0  0  0  0  0  0  0  0  0  0  0
    8.9153    1.2873   23.5814 H   0  0  0  0  0  0  0  0  0  0  0  0
   10.2586   -0.7444   23.0478 H   0  0  0  0  0  0  0  0  0  0  0  0
  1  2  1  0  0  0  0
  1  4  2  0  0  0  0
  2  5  2  0  0  0  0
  3  6  1  0  0  0  0
  3  7  2  0  0  0  0
  4  8  1  0  0  0  0
  5  9  1  0  0  0  0
  6 10  2  0  0  0  0
  7 17  1  0  0  0  0
  8  9  2  0  0  0  0
  8 18  1  0  0  0  0
  9 20  1  0  0  0  0
 10 11  1  0  0  0  0
 10 20  1  0  0  0  0
 11 17  2  0  0  0  0
 11 18  1  0  0  0  0
 12 16  1  0  0  0  0
 13 19  1  0  0  0  0
 14 19  1  0  0  0  0
 15 16  1  0  0  0  0
 15 18  1  0  0  0  0
 16 19  1  0  0  0  0
  1 21  1  0  0  0  0
  2 22  1  0  0  0  0
  3 23  1  0  0  0  0
  4 24  1  0  0  0  0
  5 25  1  0  0  0  0
  6 26  1  0  0  0  0
  7 27  1  0  0  0  0
 12 28  1  0  0  0  0
 12 29  1  0  0  0  0
 12 30  1  0  0  0  0
 13 31  1  0  0  0  0
 13 32  1  0  0  0  0
 13 33  1  0  0  0  0
 14 34  1  0  0  0  0
 14 35  1  0  0  0  0
 14 36  1  0  0  0  0
 15 37  1  0  0  0  0
 15 38  1  0  0  0  0
 16 39  1  0  0  0  0
 19 40  1  0  0  0  0
M  CHG  1  19   1
M  END
> <Hybrid2>
-8.753884

> <docked_fragment>
x0195

> <Mpro-_dock>
0.554228

> <site>
active-noncovalent

$$$$
CHEMBL103
  -OEChem-04122014263D

 53 56  0     1  0  0  0  0  0999 V2000
   13.3231   -0.5127   24.2473 C   0  0  0  0  0  0  0  0  0  0  0  0
   12.0710   -0.9996   24.2624 C   0  0  0  0  0  0  0  0  0  0  0  0
   14.3892   -1.0985   25.0916 C   0  0  0  0  0  0  0  0  0  0  0  0
    6.4697   -6.2670   22.5821 C   0  0  0  0  0  0  0  0  0  0  0  0
   10.9917   -0.2892   23.4800 C   0  0  0  0  0  0  0  0  0  0  0  0
   14.0060   -2.1687   26.0786 C   0  0  0  0  0  0  0  0  0  0  0  0
   10.2029   -1.2441   22.5932 C   0  0  0  0  0  0  0  0  0  0  0  0
   12.8986   -3.0416   25.5095 C   0  0  0  0  0  0  0  0  0  0  0  0
    6.9244   -4.1463   21.2857 C   0  0  0  0  0  0  0  0  0  0  0  0
    7.6955   -2.8701   21.6687 C   0  0  0  0  0  0  0  0  0  0  0  0
   10.2394   -4.4497   24.8551 C   0  0  0  0  0  0  0  0  0  0  0  0
    9.3684   -5.3460   23.9566 C   0  0  0  0  0  0  0  0  0  0  0  0
    7.5117   -5.2844   22.1462 C   0  0  1  0  0  0  0  0  0  0  0  0
    9.6192   -2.4047   23.4089 C   0  0  2  0  0  0  0  0  0  0  0  0
   10.7643   -3.1753   24.1381 C   0  0  1  0  0  0  0  0  0  0  0  0
    8.8538   -3.3865   22.5157 C   0  0  1  0  0  0  0  0  0  0  0  0
   11.6430   -2.2408   25.0562 C   0  0  2  0  0  0  0  0  0  0  0  0
    8.2262   -4.5549   23.3053 C   0  0  2  0  0  0  0  0  0  0  0  0
    5.0787   -5.7314   22.7884 C   0  0  0  0  0  0  0  0  0  0  0  0
   10.8708   -1.7696   26.3093 C   0  0  0  0  0  0  0  0  0  0  0  0
    7.2124   -4.1074   24.3906 C   0  0  0  0  0  0  0  0  0  0  0  0
   15.5352   -0.6586   25.0240 O   0  0  0  0  0  0  0  0  0  0  0  0
    6.7370   -7.4543   22.7607 O   0  0  0  0  0  0  0  0  0  0  0  0
   13.5913    0.3610   23.6625 H   0  0  0  0  0  0  0  0  0  0  0  0
   10.3103    0.2054   24.1833 H   0  0  0  0  0  0  0  0  0  0  0  0
   11.4127    0.5054   22.8516 H   0  0  0  0  0  0  0  0  0  0  0  0
   14.8865   -2.7900   26.2770 H   0  0  0  0  0  0  0  0  0  0  0  0
   13.7074   -1.6917   27.0172 H   0  0  0  0  0  0  0  0  0  0  0  0
    9.3980   -0.6840   22.1032 H   0  0  0  0  0  0  0  0  0  0  0  0
   10.8521   -1.6305   21.7968 H   0  0  0  0  0  0  0  0  0  0  0  0
   13.3096   -3.5933   24.6522 H   0  0  0  0  0  0  0  0  0  0  0  0
   12.6289   -3.7932   26.2610 H   0  0  0  0  0  0  0  0  0  0  0  0
    5.8501   -4.0038   21.4486 H   0  0  0  0  0  0  0  0  0  0  0  0
    7.0607   -4.3731   20.2219 H   0  0  0  0  0  0  0  0  0  0  0  0
    8.0420   -2.3354   20.7785 H   0  0  0  0  0  0  0  0  0  0  0  0
    7.0534   -2.1878   22.2366 H   0  0  0  0  0  0  0  0  0  0  0  0
    9.6655   -4.1749   25.7456 H   0  0  0  0  0  0  0  0  0  0  0  0
   11.0822   -5.0548   25.2070 H   0  0  0  0  0  0  0  0  0  0  0  0
   10.0084   -5.7902   23.1832 H   0  0  0  0  0  0  0  0  0  0  0  0
    8.9726   -6.1814   24.5464 H   0  0  0  0  0  0  0  0  0  0  0  0
    8.2378   -5.8452   21.5465 H   0  0  0  0  0  0  0  0  0  0  0  0
    8.9318   -1.9770   24.1465 H   0  0  0  0  0  0  0  0  0  0  0  0
   11.4317   -3.5425   23.3413 H   0  0  0  0  0  0  0  0  0  0  0  0
    9.5874   -3.8029   21.8049 H   0  0  0  0  0  0  0  0  0  0  0  0
    4.5146   -5.8003   21.8541 H   0  0  0  0  0  0  0  0  0  0  0  0
    5.1312   -4.6832   23.0930 H   0  0  0  0  0  0  0  0  0  0  0  0
    4.5686   -6.3216   23.5536 H   0  0  0  0  0  0  0  0  0  0  0  0
   10.5630   -2.6376   26.8787 H   0  0  0  0  0  0  0  0  0  0  0  0
   10.0020   -1.2055   25.9945 H   0  0  0  0  0  0  0  0  0  0  0  0
   11.5216   -1.1449   26.9082 H   0  0  0  0  0  0  0  0  0  0  0  0
    6.4172   -3.5529   23.9126 H   0  0  0  0  0  0  0  0  0  0  0  0
    7.7270   -3.4827   25.1070 H   0  0  0  0  0  0  0  0  0  0  0  0
    6.8162   -4.9878   24.8768 H   0  0  0  0  0  0  0  0  0  0  0  0
  1  2  2  0  0  0  0
  1  3  1  0  0  0  0
  2  5  1  0  0  0  0
  2 17  1  0  0  0  0
  3  6  1  0  0  0  0
  3 22  2  0  0  0  0
  4 13  1  0  0  0  0
  4 19  1  0  0  0  0
  4 23  2  0  0  0  0
  5  7  1  0  0  0  0
  6  8  1  0  0  0  0
  7 14  1  0  0  0  0
  8 17  1  0  0  0  0
  9 10  1  0  0  0  0
  9 13  1  0  0  0  0
 10 16  1  0  0  0  0
 11 12  1  0  0  0  0
 11 15  1  0  0  0  0
 12 18  1  0  0  0  0
 13 18  1  0  0  0  0
 14 15  1  0  0  0  0
 14 16  1  0  0  0  0
 15 17  1  0  0  0  0
 16 18  1  0  0  0  0
 17 20  1  0  0  0  0
 18 21  1  0  0  0  0
  1 24  1  0  0  0  0
  5 25  1  0  0  0  0
  5 26  1  0  0  0  0
  6 27  1  0  0  0  0
  6 28  1  0  0  0  0
  7 29  1  0  0  0  0
  7 30  1  0  0  0  0
  8 31  1  0  0  0  0
  8 32  1  0  0  0  0
  9 33  1  0  0  0  0
  9 34  1  0  0  0  0
 10 35  1  0  0  0  0
 10 36  1  0  0  0  0
 11 37  1  0  0  0  0
 11 38  1  0  0  0  0
 12 39  1  0  0  0  0
 12 40  1  0  0  0  0
 13 41  1  0  0  0  0
 14 42  1  0  0  0  0
 15 43  1  0  0  0  0
 16 44  1  0  0  0  0
 19 45  1  0  0  0  0
 19 46  1  0  0  0  0
 19 47  1  0  0  0  0
 20 48  1  0  0  0  0
 20 49  1  0  0  0  0
 20 50  1  0  0  0  0
 21 51  1  0  0  0  0
 21 52  1  0  0  0  0
 21 53  1  0  0  0  0
M  END
> <Hybrid2>
-8.726217

> <docked_fragment>
x0749

> <Mpro-_dock>
2.196428

> <site>
active-covalent

$$$$
EDRUG178
  -OEChem-04122014263D

 51 54  0     1  0  0  0  0  0999 V2000
   11.9777    7.1215   25.5243 C   0  0  0  0  0  0  0  0  0  0  0  0
   11.8843    6.2370   24.7181 C   0  0  0  0  0  0  0  0  0  0  0  0
   10.3544   -2.5401   22.7623 C   0  0  0  0  0  0  0  0  0  0  0  0
   10.9311   -1.4152   23.2151 C   0  0  0  0  0  0  0  0  0  0  0  0
    9.1212   -3.0634   23.3937 C   0  0  0  0  0  0  0  0  0  0  0  0
   12.2746   -0.9918   22.6746 C   0  0  0  0  0  0  0  0  0  0  0  0
    8.6634   -2.4200   24.6767 C   0  0  0  0  0  0  0  0  0  0  0  0
   12.3119    0.4867   22.3036 C   0  0  0  0  0  0  0  0  0  0  0  0
    8.8698   -0.9170   24.6104 C   0  0  0  0  0  0  0  0  0  0  0  0
   13.2341    3.4560   22.6733 C   0  0  0  0  0  0  0  0  0  0  0  0
    9.8881    1.9100   25.0298 C   0  0  0  0  0  0  0  0  0  0  0  0
   13.0825    4.9716   22.9271 C   0  0  0  0  0  0  0  0  0  0  0  0
   10.0709    3.4075   24.7214 C   0  0  0  0  0  0  0  0  0  0  0  0
   10.3313   -0.5315   24.3014 C   0  0  2  0  0  0  0  0  0  0  0  0
   11.8768    1.3543   23.4915 C   0  0  2  0  0  0  0  0  0  0  0  0
   10.4274    0.9766   23.9163 C   0  0  2  0  0  0  0  0  0  0  0  0
   11.9209    2.8483   23.1572 C   0  0  1  0  0  0  0  0  0  0  0  0
   11.7696    5.1551   23.7314 C   0  0  1  0  0  0  0  0  0  0  0  0
   11.5252    3.7471   24.3540 C   0  0  1  0  0  0  0  0  0  0  0  0
   12.0028    4.4087   26.7168 C   0  0  0  0  0  0  0  0  0  0  0  0
   12.4344    3.5343   25.5997 C   0  0  0  0  0  0  0  0  0  0  0  0
    8.5526   -4.0423   22.9156 O   0  0  0  0  0  0  0  0  0  0  0  0
   10.7190    5.5149   22.8324 O   0  0  0  0  0  0  0  0  0  0  0  0
   12.0607    7.9060   26.2397 H   0  0  0  0  0  0  0  0  0  0  0  0
   10.7987   -3.1419   21.9771 H   0  0  0  0  0  0  0  0  0  0  0  0
   13.0330   -1.1908   23.4426 H   0  0  0  0  0  0  0  0  0  0  0  0
   12.5572   -1.5841   21.7958 H   0  0  0  0  0  0  0  0  0  0  0  0
    7.5990   -2.6357   24.8189 H   0  0  0  0  0  0  0  0  0  0  0  0
    9.2206   -2.8630   25.5091 H   0  0  0  0  0  0  0  0  0  0  0  0
   13.3313    0.7463   21.9957 H   0  0  0  0  0  0  0  0  0  0  0  0
   11.6602    0.6709   21.4398 H   0  0  0  0  0  0  0  0  0  0  0  0
    8.2071   -0.5036   23.8380 H   0  0  0  0  0  0  0  0  0  0  0  0
    8.5583   -0.4806   25.5662 H   0  0  0  0  0  0  0  0  0  0  0  0
   13.4113    3.2506   21.6125 H   0  0  0  0  0  0  0  0  0  0  0  0
   14.0894    3.0605   23.2328 H   0  0  0  0  0  0  0  0  0  0  0  0
   10.3687    1.6632   25.9834 H   0  0  0  0  0  0  0  0  0  0  0  0
    8.8158    1.7351   25.1749 H   0  0  0  0  0  0  0  0  0  0  0  0
   13.9615    5.3274   23.4784 H   0  0  0  0  0  0  0  0  0  0  0  0
   13.0510    5.5133   21.9745 H   0  0  0  0  0  0  0  0  0  0  0  0
    9.3960    3.6660   23.8960 H   0  0  0  0  0  0  0  0  0  0  0  0
    9.7448    4.0011   25.5838 H   0  0  0  0  0  0  0  0  0  0  0  0
   10.9265   -0.6950   25.2110 H   0  0  0  0  0  0  0  0  0  0  0  0
   12.5635    1.1404   24.3192 H   0  0  0  0  0  0  0  0  0  0  0  0
    9.7810    1.1350   23.0388 H   0  0  0  0  0  0  0  0  0  0  0  0
   11.1948    2.9960   22.3428 H   0  0  0  0  0  0  0  0  0  0  0  0
   12.0845    5.4531   26.3935 H   0  0  0  0  0  0  0  0  0  0  0  0
   12.6390    4.2753   27.5981 H   0  0  0  0  0  0  0  0  0  0  0  0
   10.9601    4.2192   26.9929 H   0  0  0  0  0  0  0  0  0  0  0  0
   12.3687    2.4890   25.8786 H   0  0  0  0  0  0  0  0  0  0  0  0
   13.4528    3.7584   25.3041 H   0  0  0  0  0  0  0  0  0  0  0  0
   10.9841    6.3527   22.4246 H   0  0  0  0  0  0  0  0  0  0  0  0
  1  2  3  0  0  0  0
  2 18  1  0  0  0  0
  3  4  2  0  0  0  0
  3  5  1  0  0  0  0
  4  6  1  0  0  0  0
  4 14  1  0  0  0  0
  5  7  1  0  0  0  0
  5 22  2  0  0  0  0
  6  8  1  0  0  0  0
  7  9  1  0  0  0  0
  8 15  1  0  0  0  0
  9 14  1  0  0  0  0
 10 12  1  0  0  0  0
 10 17  1  0  0  0  0
 11 13  1  0  0  0  0
 11 16  1  0  0  0  0
 12 18  1  0  0  0  0
 13 19  1  0  0  0  0
 14 16  1  0  0  0  0
 15 16  1  0  0  0  0
 15 17  1  0  0  0  0
 17 19  1  0  0  0  0
 18 19  1  0  0  0  0
 18 23  1  0  0  0  0
 19 21  1  0  0  0  0
 20 21  1  0  0  0  0
  1 24  1  0  0  0  0
  3 25  1  0  0  0  0
  6 26  1  0  0  0  0
  6 27  1  0  0  0  0
  7 28  1  0  0  0  0
  7 29  1  0  0  0  0
  8 30  1  0  0  0  0
  8 31  1  0  0  0  0
  9 32  1  0  0  0  0
  9 33  1  0  0  0  0
 10 34  1  0  0  0  0
 10 35  1  0  0  0  0
 11 36  1  0  0  0  0
 11 37  1  0  0  0  0
 12 38  1  0  0  0  0
 12 39  1  0  0  0  0
 13 40  1  0  0  0  0
 13 41  1  0  0  0  0
 14 42  1  0  0  0  0
 15 43  1  0  0  0  0
 16 44  1  0  0  0  0
 17 45  1  0  0  0  0
 20 46  1  0  0  0  0
 20 47  1  0  0  0  0
 20 48  1  0  0  0  0
 21 49  1  0  0  0  0
 21 50  1  0  0  0  0
 23 51  1  0  0  0  0
M  END
> <Hybrid2>
-8.705896

> <docked_fragment>
x0104

> <Mpro-_dock>
2.248707

> <site>
active-noncovalent

$$$$
CHEMBL1201146
  -OEChem-04122014263D

 53 56  0     1  0  0  0  0  0999 V2000
    8.6997    6.4365   22.2810 C   0  0  0  0  0  0  0  0  0  0  0  0
    9.5152    6.2659   23.1453 C   0  0  0  0  0  0  0  0  0  0  0  0
   11.4740   -1.6373   22.7580 C   0  0  0  0  0  0  0  0  0  0  0  0
   11.6407   -0.4379   23.3380 C   0  0  0  0  0  0  0  0  0  0  0  0
   10.3607   -2.5247   23.1653 C   0  0  0  0  0  0  0  0  0  0  0  0
    9.0138    6.8458   25.8512 C   0  0  0  0  0  0  0  0  0  0  0  0
   12.8741    0.3762   23.0357 C   0  0  0  0  0  0  0  0  0  0  0  0
    9.5634   -2.1348   24.3825 C   0  0  0  0  0  0  0  0  0  0  0  0
   12.5462    1.8322   22.7252 C   0  0  0  0  0  0  0  0  0  0  0  0
    9.3457   -0.6321   24.4051 C   0  0  0  0  0  0  0  0  0  0  0  0
   12.5407    4.9005   23.3447 C   0  0  0  0  0  0  0  0  0  0  0  0
    9.4589    2.3229   25.0847 C   0  0  0  0  0  0  0  0  0  0  0  0
   11.9456    6.2913   23.6469 C   0  0  0  0  0  0  0  0  0  0  0  0
    9.2482    3.8315   24.8591 C   0  0  0  0  0  0  0  0  0  0  0  0
   10.6679    0.1608   24.3458 C   0  0  2  0  0  0  0  0  0  0  0  0
   11.7173    2.4553   23.8558 C   0  0  2  0  0  0  0  0  0  0  0  0
   10.3887    1.6636   24.0345 C   0  0  2  0  0  0  0  0  0  0  0  0
   11.3893    3.9255   23.5791 C   0  0  1  0  0  0  0  0  0  0  0  0
   10.5184    6.0560   24.2077 C   0  0  2  0  0  0  0  0  0  0  0  0
   10.5832    4.5854   24.7202 C   0  0  1  0  0  0  0  0  0  0  0  0
    9.0900    7.2606   27.2893 C   0  0  0  0  0  0  0  0  0  0  0  0
   11.3094    4.5505   26.0977 C   0  0  0  0  0  0  0  0  0  0  0  0
   10.1639   -3.5798   22.5667 O   0  0  0  0  0  0  0  0  0  0  0  0
    7.9905    6.4598   25.3027 O   0  0  0  0  0  0  0  0  0  0  0  0
   10.2444    6.9654   25.2651 O   0  0  0  0  0  0  0  0  0  0  0  0
    7.9760    6.5879   21.5145 H   0  0  0  0  0  0  0  0  0  0  0  0
   12.1775   -2.0309   22.0324 H   0  0  0  0  0  0  0  0  0  0  0  0
   13.5382    0.3332   23.9085 H   0  0  0  0  0  0  0  0  0  0  0  0
   13.4366   -0.0469   22.1946 H   0  0  0  0  0  0  0  0  0  0  0  0
    8.5939   -2.6432   24.3463 H   0  0  0  0  0  0  0  0  0  0  0  0
   10.0987   -2.4741   25.2757 H   0  0  0  0  0  0  0  0  0  0  0  0
   13.4848    2.3829   22.5937 H   0  0  0  0  0  0  0  0  0  0  0  0
   12.0014    1.8970   21.7744 H   0  0  0  0  0  0  0  0  0  0  0  0
    8.7097   -0.3543   23.5535 H   0  0  0  0  0  0  0  0  0  0  0  0
    8.7918   -0.3744   25.3150 H   0  0  0  0  0  0  0  0  0  0  0  0
   12.9153    4.8467   22.3172 H   0  0  0  0  0  0  0  0  0  0  0  0
   13.3838    4.6955   24.0140 H   0  0  0  0  0  0  0  0  0  0  0  0
    9.8524    2.1447   26.0919 H   0  0  0  0  0  0  0  0  0  0  0  0
    8.4711    1.8487   25.0569 H   0  0  0  0  0  0  0  0  0  0  0  0
   12.5859    6.8159   24.3662 H   0  0  0  0  0  0  0  0  0  0  0  0
   11.9356    6.9067   22.7390 H   0  0  0  0  0  0  0  0  0  0  0  0
    8.6416    3.9460   23.9525 H   0  0  0  0  0  0  0  0  0  0  0  0
    8.6548    4.2479   25.6819 H   0  0  0  0  0  0  0  0  0  0  0  0
   11.1492    0.0948   25.3318 H   0  0  0  0  0  0  0  0  0  0  0  0
   12.3096    2.3768   24.7758 H   0  0  0  0  0  0  0  0  0  0  0  0
    9.8529    1.7080   23.0733 H   0  0  0  0  0  0  0  0  0  0  0  0
   10.7816    3.9392   22.6600 H   0  0  0  0  0  0  0  0  0  0  0  0
    9.3305    6.3957   27.9125 H   0  0  0  0  0  0  0  0  0  0  0  0
    8.1407    7.7059   27.5977 H   0  0  0  0  0  0  0  0  0  0  0  0
    9.8798    8.0077   27.4099 H   0  0  0  0  0  0  0  0  0  0  0  0
   12.2451    5.0787   26.0008 H   0  0  0  0  0  0  0  0  0  0  0  0
   11.4812    3.5192   26.3639 H   0  0  0  0  0  0  0  0  0  0  0  0
   10.6757    5.0307   26.8269 H   0  0  0  0  0  0  0  0  0  0  0  0
  1  2  3  0  0  0  0
  2 19  1  0  0  0  0
  3  4  2  0  0  0  0
  3  5  1  0  0  0  0
  4  7  1  0  0  0  0
  4 15  1  0  0  0  0
  5  8  1  0  0  0  0
  5 23  2  0  0  0  0
  6 21  1  0  0  0  0
  6 24  2  0  0  0  0
  6 25  1  0  0  0  0
  7  9  1  0  0  0  0
  8 10  1  0  0  0  0
  9 16  1  0  0  0  0
 10 15  1  0  0  0  0
 11 13  1  0  0  0  0
 11 18  1  0  0  0  0
 12 14  1  0  0  0  0
 12 17  1  0  0  0  0
 13 19  1  0  0  0  0
 14 20  1  0  0  0  0
 15 17  1  0  0  0  0
 16 17  1  0  0  0  0
 16 18  1  0  0  0  0
 18 20  1  0  0  0  0
 19 20  1  0  0  0  0
 19 25  1  0  0  0  0
 20 22  1  0  0  0  0
  1 26  1  0  0  0  0
  3 27  1  0  0  0  0
  7 28  1  0  0  0  0
  7 29  1  0  0  0  0
  8 30  1  0  0  0  0
  8 31  1  0  0  0  0
  9 32  1  0  0  0  0
  9 33  1  0  0  0  0
 10 34  1  0  0  0  0
 10 35  1  0  0  0  0
 11 36  1  0  0  0  0
 11 37  1  0  0  0  0
 12 38  1  0  0  0  0
 12 39  1  0  0  0  0
 13 40  1  0  0  0  0
 13 41  1  0  0  0  0
 14 42  1  0  0  0  0
 14 43  1  0  0  0  0
 15 44  1  0  0  0  0
 16 45  1  0  0  0  0
 17 46  1  0  0  0  0
 18 47  1  0  0  0  0
 21 48  1  0  0  0  0
 21 49  1  0  0  0  0
 21 50  1  0  0  0  0
 22 51  1  0  0  0  0
 22 52  1  0  0  0  0
 22 53  1  0  0  0  0
M  END
> <Hybrid2>
-8.671487

> <docked_fragment>
x0104

> <Mpro-_dock>
2.946252

> <site>
active-noncovalent

$$$$
CHEMBL1717401
  -OEChem-04122014263D

 47 49  0     1  0  0  0  0  0999 V2000
   10.3328    5.6341   25.0959 C   0  0  0  0  0  0  0  0  0  0  0  0
   11.0912    6.2829   24.1334 C   0  0  0  0  0  0  0  0  0  0  0  0
   14.1132   -0.4841   22.7454 C   0  0  0  0  0  0  0  0  0  0  0  0
   10.3195    4.2377   25.1503 C   0  0  0  0  0  0  0  0  0  0  0  0
   11.8397    5.5340   23.2315 C   0  0  0  0  0  0  0  0  0  0  0  0
   13.9494    0.8099   22.2626 C   0  0  0  0  0  0  0  0  0  0  0  0
   12.2686   -0.1256   24.2560 C   0  0  0  0  0  0  0  0  0  0  0  0
   13.2740   -0.9513   23.7455 C   0  0  0  0  0  0  0  0  0  0  0  0
   11.0577    3.4468   24.2429 C   0  0  0  0  0  0  0  0  0  0  0  0
   12.0666    1.1885   23.7801 C   0  0  0  0  0  0  0  0  0  0  0  0
   11.8339    4.1288   23.2850 C   0  0  0  0  0  0  0  0  0  0  0  0
   12.9427    1.6467   22.7763 C   0  0  0  0  0  0  0  0  0  0  0  0
    7.9099    2.5980   24.1552 C   0  0  0  0  0  0  0  0  0  0  0  0
    8.1942   -1.4712   23.3730 C   0  0  0  0  0  0  0  0  0  0  0  0
    9.5112   -1.1322   21.2871 C   0  0  0  0  0  0  0  0  0  0  0  0
    9.9522    1.3889   25.0349 C   0  0  0  0  0  0  0  0  0  0  0  0
    8.9419    0.8156   22.7302 C   0  0  0  0  0  0  0  0  0  0  0  0
    8.6846    1.2755   24.1709 C   0  0  2  0  0  0  0  0  0  0  0  0
   13.4486   -2.3325   24.2815 C   0  0  0  0  0  0  0  0  0  0  0  0
   11.0544    2.0303   24.3064 N   0  0  0  0  0  0  0  0  0  0  0  0
    9.2472   -0.6346   22.6876 N   0  3  0  0  0  0  0  0  0  0  0  0
   14.4720   -3.0214   23.6955 F   0  0  0  0  0  0  0  0  0  0  0  0
   13.7151   -2.3692   25.6205 F   0  0  0  0  0  0  0  0  0  0  0  0
   12.3385   -3.1071   24.1074 F   0  0  0  0  0  0  0  0  0  0  0  0
   12.8124    3.2751   22.0650 S   0  0  0  0  0  0  0  0  0  0  0  0
    9.7539    6.2097   25.8123 H   0  0  0  0  0  0  0  0  0  0  0  0
   11.1051    7.3674   24.0868 H   0  0  0  0  0  0  0  0  0  0  0  0
   14.8986   -1.1150   22.3385 H   0  0  0  0  0  0  0  0  0  0  0  0
    9.7296    3.7832   25.9429 H   0  0  0  0  0  0  0  0  0  0  0  0
   12.4307    6.0613   22.4852 H   0  0  0  0  0  0  0  0  0  0  0  0
   14.6186    1.1596   21.4789 H   0  0  0  0  0  0  0  0  0  0  0  0
   11.6535   -0.5258   25.0595 H   0  0  0  0  0  0  0  0  0  0  0  0
    8.5050    3.3880   23.6841 H   0  0  0  0  0  0  0  0  0  0  0  0
    6.9803    2.4984   23.5851 H   0  0  0  0  0  0  0  0  0  0  0  0
    7.6554    2.9297   25.1673 H   0  0  0  0  0  0  0  0  0  0  0  0
    7.2537   -1.3285   22.8378 H   0  0  0  0  0  0  0  0  0  0  0  0
    8.5158   -2.5136   23.3307 H   0  0  0  0  0  0  0  0  0  0  0  0
    8.1140   -1.1269   24.4059 H   0  0  0  0  0  0  0  0  0  0  0  0
    8.6021   -0.9814   20.7022 H   0  0  0  0  0  0  0  0  0  0  0  0
   10.3418   -0.5538   20.8780 H   0  0  0  0  0  0  0  0  0  0  0  0
    9.7651   -2.1920   21.3515 H   0  0  0  0  0  0  0  0  0  0  0  0
    9.7370    1.9730   25.9368 H   0  0  0  0  0  0  0  0  0  0  0  0
   10.2765    0.4001   25.3753 H   0  0  0  0  0  0  0  0  0  0  0  0
    9.7868    1.3327   22.2653 H   0  0  0  0  0  0  0  0  0  0  0  0
    8.0536    0.9596   22.1067 H   0  0  0  0  0  0  0  0  0  0  0  0
    8.0360    0.5312   24.6531 H   0  0  0  0  0  0  0  0  0  0  0  0
   10.1234   -0.7902   23.2155 H   0  0  0  0  0  0  0  0  0  0  0  0
  1  2  1  0  0  0  0
  1  4  2  0  0  0  0
  2  5  2  0  0  0  0
  3  6  1  0  0  0  0
  3  8  2  0  0  0  0
  4  9  1  0  0  0  0
  5 11  1  0  0  0  0
  6 12  2  0  0  0  0
  7  8  1  0  0  0  0
  7 10  2  0  0  0  0
  8 19  1  0  0  0  0
  9 11  2  0  0  0  0
  9 20  1  0  0  0  0
 10 12  1  0  0  0  0
 10 20  1  0  0  0  0
 11 25  1  0  0  0  0
 12 25  1  0  0  0  0
 13 18  1  0  0  0  0
 14 21  1  0  0  0  0
 15 21  1  0  0  0  0
 16 18  1  0  0  0  0
 16 20  1  0  0  0  0
 17 18  1  0  0  0  0
 17 21  1  0  0  0  0
 19 22  1  0  0  0  0
 19 23  1  0  0  0  0
 19 24  1  0  0  0  0
  1 26  1  0  0  0  0
  2 27  1  0  0  0  0
  3 28  1  0  0  0  0
  4 29  1  0  0  0  0
  5 30  1  0  0  0  0
  6 31  1  0  0  0  0
  7 32  1  0  0  0  0
 13 33  1  0  0  0  0
 13 34  1  0  0  0  0
 13 35  1  0  0  0  0
 14 36  1  0  0  0  0
 14 37  1  0  0  0  0
 14 38  1  0  0  0  0
 15 39  1  0  0  0  0
 15 40  1  0  0  0  0
 15 41  1  0  0  0  0
 16 42  1  0  0  0  0
 16 43  1  0  0  0  0
 17 44  1  0  0  0  0
 17 45  1  0  0  0  0
 18 46  1  0  0  0  0
 21 47  1  0  0  0  0
M  CHG  1  21   1
M  END
> <Hybrid2>
-8.654140

> <docked_fragment>
x0161

> <Mpro-_dock>
2.428459

> <site>
active-noncovalent

$$$$
CHEMBL2106950
  -OEChem-04122014263D

 63 66  0     1  0  0  0  0  0999 V2000
    8.0751    6.1510   21.8844 C   0  0  0  0  0  0  0  0  0  0  0  0
    8.9631    6.1937   22.6910 C   0  0  0  0  0  0  0  0  0  0  0  0
   10.6260   -1.2915   23.0628 C   0  0  0  0  0  0  0  0  0  0  0  0
   11.0598   -0.2321   23.7672 C   0  0  0  0  0  0  0  0  0  0  0  0
    8.4619   -4.0897   23.5303 C   0  0  0  0  0  0  0  0  0  0  0  0
    8.5420    7.6126   24.8801 C   0  0  0  0  0  0  0  0  0  0  0  0
   12.3803    0.4226   23.4821 C   0  0  0  0  0  0  0  0  0  0  0  0
   12.1319    1.8573   23.0237 C   0  0  0  0  0  0  0  0  0  0  0  0
    8.3021   -0.9775   23.9868 C   0  0  0  0  0  0  0  0  0  0  0  0
    8.9873   -0.3808   25.2142 C   0  0  0  0  0  0  0  0  0  0  0  0
   12.0547    4.9483   22.9755 C   0  0  0  0  0  0  0  0  0  0  0  0
   11.4258    6.3584   22.9574 C   0  0  0  0  0  0  0  0  0  0  0  0
    8.9069    4.2238   24.9442 C   0  0  0  0  0  0  0  0  0  0  0  0
    9.2591   -1.8868   23.2148 C   0  0  2  0  0  0  0  0  0  0  0  0
   10.2400    0.4473   24.8521 C   0  0  2  0  0  0  0  0  0  0  0  0
   11.2931    2.6536   24.0423 C   0  0  1  0  0  0  0  0  0  0  0  0
   10.9421    4.0437   23.4976 C   0  0  1  0  0  0  0  0  0  0  0  0
    9.9550    1.9148   24.4071 C   0  0  2  0  0  0  0  0  0  0  0  0
    9.0844    2.7489   25.4039 C   0  0  1  0  0  0  0  0  0  0  0  0
   10.0556    6.2466   23.6829 C   0  0  2  0  0  0  0  0  0  0  0  0
   10.2095    4.9351   24.5215 C   0  0  1  0  0  0  0  0  0  0  0  0
    8.6972   -5.3408   24.3211 C   0  0  0  0  0  0  0  0  0  0  0  0
    8.3290    9.0814   25.0880 C   0  0  0  0  0  0  0  0  0  0  0  0
    9.5332    2.6347   26.8659 C   0  0  0  0  0  0  0  0  0  0  0  0
   11.0553    5.2629   25.7858 C   0  0  0  0  0  0  0  0  0  0  0  0
    7.5817   -3.9659   22.6895 O   0  0  0  0  0  0  0  0  0  0  0  0
    7.6684    6.7672   25.0186 O   0  0  0  0  0  0  0  0  0  0  0  0
    9.3694   -3.1353   23.8939 O   0  0  0  0  0  0  0  0  0  0  0  0
    9.8404    7.3759   24.5197 O   0  0  0  0  0  0  0  0  0  0  0  0
    7.2872    6.1130   21.1688 H   0  0  0  0  0  0  0  0  0  0  0  0
   11.2929   -1.7732   22.3512 H   0  0  0  0  0  0  0  0  0  0  0  0
   12.9805    0.4252   24.3891 H   0  0  0  0  0  0  0  0  0  0  0  0
   12.9362   -0.1052   22.7123 H   0  0  0  0  0  0  0  0  0  0  0  0
   13.1036    2.3479   22.8733 H   0  0  0  0  0  0  0  0  0  0  0  0
   11.6297    1.8515   22.0442 H   0  0  0  0  0  0  0  0  0  0  0  0
    7.4052   -1.5340   24.2906 H   0  0  0  0  0  0  0  0  0  0  0  0
    7.9456   -0.1770   23.3272 H   0  0  0  0  0  0  0  0  0  0  0  0
    8.2596    0.2447   25.7532 H   0  0  0  0  0  0  0  0  0  0  0  0
    9.2529   -1.1998   25.8949 H   0  0  0  0  0  0  0  0  0  0  0  0
   12.3867    4.6525   21.9751 H   0  0  0  0  0  0  0  0  0  0  0  0
   12.9298    4.9292   23.6346 H   0  0  0  0  0  0  0  0  0  0  0  0
   12.0977    7.0682   23.4542 H   0  0  0  0  0  0  0  0  0  0  0  0
   11.3158    6.7098   21.9242 H   0  0  0  0  0  0  0  0  0  0  0  0
    8.2166    4.1910   24.0908 H   0  0  0  0  0  0  0  0  0  0  0  0
    8.3860    4.8052   25.7160 H   0  0  0  0  0  0  0  0  0  0  0  0
    8.8581   -2.0953   22.2086 H   0  0  0  0  0  0  0  0  0  0  0  0
   10.9127    0.4694   25.7310 H   0  0  0  0  0  0  0  0  0  0  0  0
   11.9045    2.7527   24.9538 H   0  0  0  0  0  0  0  0  0  0  0  0
   10.2716    3.8684   22.6400 H   0  0  0  0  0  0  0  0  0  0  0  0
    9.3852    1.8555   23.4768 H   0  0  0  0  0  0  0  0  0  0  0  0
    8.0702    2.3267   25.3815 H   0  0  0  0  0  0  0  0  0  0  0  0
    9.4010   -5.9875   23.7914 H   0  0  0  0  0  0  0  0  0  0  0  0
    7.7489   -5.8580   24.4879 H   0  0  0  0  0  0  0  0  0  0  0  0
    9.1266   -5.0802   25.2929 H   0  0  0  0  0  0  0  0  0  0  0  0
    8.5328    9.3420   26.1295 H   0  0  0  0  0  0  0  0  0  0  0  0
    7.3049    9.3497   24.8167 H   0  0  0  0  0  0  0  0  0  0  0  0
    9.0164    9.6417   24.4476 H   0  0  0  0  0  0  0  0  0  0  0  0
   10.5377    3.0360   26.9694 H   0  0  0  0  0  0  0  0  0  0  0  0
    9.5282    1.5905   27.1663 H   0  0  0  0  0  0  0  0  0  0  0  0
    8.8521    3.1967   27.4993 H   0  0  0  0  0  0  0  0  0  0  0  0
   11.9607    5.7591   25.4708 H   0  0  0  0  0  0  0  0  0  0  0  0
   11.2871    4.3370   26.2900 H   0  0  0  0  0  0  0  0  0  0  0  0
   10.4736    5.9078   26.4270 H   0  0  0  0  0  0  0  0  0  0  0  0
  1  2  3  0  0  0  0
  2 20  1  0  0  0  0
  3  4  2  0  0  0  0
  3 14  1  0  0  0  0
  4  7  1  0  0  0  0
  4 15  1  0  0  0  0
  5 22  1  0  0  0  0
  5 26  2  0  0  0  0
  5 28  1  0  0  0  0
  6 23  1  0  0  0  0
  6 27  2  0  0  0  0
  6 29  1  0  0  0  0
  7  8  1  0  0  0  0
  8 16  1  0  0  0  0
  9 10  1  0  0  0  0
  9 14  1  0  0  0  0
 10 15  1  0  0  0  0
 11 12  1  0  0  0  0
 11 17  1  0  0  0  0
 12 20  1  0  0  0  0
 13 19  1  0  0  0  0
 13 21  1  0  0  0  0
 14 28  1  0  0  0  0
 15 18  1  0  0  0  0
 16 17  1  0  0  0  0
 16 18  1  0  0  0  0
 17 21  1  0  0  0  0
 18 19  1  0  0  0  0
 19 24  1  0  0  0  0
 20 21  1  0  0  0  0
 20 29  1  0  0  0  0
 21 25  1  0  0  0  0
  1 30  1  0  0  0  0
  3 31  1  0  0  0  0
  7 32  1  0  0  0  0
  7 33  1  0  0  0  0
  8 34  1  0  0  0  0
  8 35  1  0  0  0  0
  9 36  1  0  0  0  0
  9 37  1  0  0  0  0
 10 38  1  0  0  0  0
 10 39  1  0  0  0  0
 11 40  1  0  0  0  0
 11 41  1  0  0  0  0
 12 42  1  0  0  0  0
 12 43  1  0  0  0  0
 13 44  1  0  0  0  0
 13 45  1  0  0  0  0
 14 46  1  0  0  0  0
 15 47  1  0  0  0  0
 16 48  1  0  0  0  0
 17 49  1  0  0  0  0
 18 50  1  0  0  0  0
 19 51  1  0  0  0  0
 22 52  1  0  0  0  0
 22 53  1  0  0  0  0
 22 54  1  0  0  0  0
 23 55  1  0  0  0  0
 23 56  1  0  0  0  0
 23 57  1  0  0  0  0
 24 58  1  0  0  0  0
 24 59  1  0  0  0  0
 24 60  1  0  0  0  0
 25 61  1  0  0  0  0
 25 62  1  0  0  0  0
 25 63  1  0  0  0  0
M  END
> <Hybrid2>
-8.652840

> <docked_fragment>
x0104

> <Mpro-_dock>
6.328729

> <site>
active-noncovalent

$$$$
CHEMBL1531
  -OEChem-04122014263D

 52 55  0     1  0  0  0  0  0999 V2000
    5.0901   -4.8353   25.8595 C   0  0  0  0  0  0  0  0  0  0  0  0
    5.4252   -4.8285   24.7069 C   0  0  0  0  0  0  0  0  0  0  0  0
   13.0137   -2.5980   25.5768 C   0  0  0  0  0  0  0  0  0  0  0  0
   11.8767   -2.9918   24.9802 C   0  0  0  0  0  0  0  0  0  0  0  0
   13.3767   -1.1621   25.6345 C   0  0  0  0  0  0  0  0  0  0  0  0
    8.3659   -1.8064   23.5719 C   0  0  0  0  0  0  0  0  0  0  0  0
    8.4939   -0.6561   22.8928 C   0  0  0  0  0  0  0  0  0  0  0  0
   11.4686   -4.4420   25.0193 C   0  0  0  0  0  0  0  0  0  0  0  0
   12.3718   -0.1385   25.1600 C   0  0  0  0  0  0  0  0  0  0  0  0
    6.9993   -2.4714   23.7145 C   0  0  0  0  0  0  0  0  0  0  0  0
   10.7782   -4.8659   23.7334 C   0  0  0  0  0  0  0  0  0  0  0  0
   10.9556   -0.7054   25.1214 C   0  0  0  0  0  0  0  0  0  0  0  0
    7.9664   -6.0680   22.9562 C   0  0  0  0  0  0  0  0  0  0  0  0
    6.4277   -6.2059   22.9052 C   0  0  0  0  0  0  0  0  0  0  0  0
   10.9241   -2.0093   24.3030 C   0  0  2  0  0  0  0  0  0  0  0  0
    9.5090   -2.6330   24.1692 C   0  0  2  0  0  0  0  0  0  0  0  0
    9.5698   -3.9852   23.3677 C   0  0  2  0  0  0  0  0  0  0  0  0
    8.2090   -4.6862   23.5575 C   0  0  1  0  0  0  0  0  0  0  0  0
    5.8377   -4.8197   23.2893 C   0  0  2  0  0  0  0  0  0  0  0  0
    7.0209   -3.8461   23.0031 C   0  0  1  0  0  0  0  0  0  0  0  0
    5.9524   -2.7951   21.0006 C   0  0  0  0  0  0  0  0  0  0  0  0
    7.1167   -3.5843   21.4660 C   0  0  0  0  0  0  0  0  0  0  0  0
   14.4878   -0.8304   26.0444 O   0  0  0  0  0  0  0  0  0  0  0  0
    4.6827   -4.5219   22.5188 O   0  0  0  0  0  0  0  0  0  0  0  0
    4.7927   -4.8415   26.8821 H   0  0  0  0  0  0  0  0  0  0  0  0
   13.7327   -3.3022   25.9746 H   0  0  0  0  0  0  0  0  0  0  0  0
    9.4609   -0.1865   22.7925 H   0  0  0  0  0  0  0  0  0  0  0  0
    7.6311   -0.1903   22.4410 H   0  0  0  0  0  0  0  0  0  0  0  0
   12.3658   -5.0554   25.1786 H   0  0  0  0  0  0  0  0  0  0  0  0
   10.7989   -4.6463   25.8650 H   0  0  0  0  0  0  0  0  0  0  0  0
   12.3980    0.7210   25.8492 H   0  0  0  0  0  0  0  0  0  0  0  0
   12.6821    0.2227   24.1661 H   0  0  0  0  0  0  0  0  0  0  0  0
    6.7908   -2.5760   24.7847 H   0  0  0  0  0  0  0  0  0  0  0  0
    6.1979   -1.8493   23.3011 H   0  0  0  0  0  0  0  0  0  0  0  0
   11.5211   -4.8399   22.9119 H   0  0  0  0  0  0  0  0  0  0  0  0
   10.4616   -5.9270   23.8088 H   0  0  0  0  0  0  0  0  0  0  0  0
   10.6307   -0.8993   26.1445 H   0  0  0  0  0  0  0  0  0  0  0  0
   10.2963    0.0500   24.7066 H   0  0  0  0  0  0  0  0  0  0  0  0
    8.4124   -6.8612   23.5650 H   0  0  0  0  0  0  0  0  0  0  0  0
    8.3889   -6.1476   21.9484 H   0  0  0  0  0  0  0  0  0  0  0  0
    6.1210   -6.5161   21.8998 H   0  0  0  0  0  0  0  0  0  0  0  0
    6.0953   -6.9970   23.5876 H   0  0  0  0  0  0  0  0  0  0  0  0
   11.3545   -1.8374   23.3112 H   0  0  0  0  0  0  0  0  0  0  0  0
    9.1931   -2.9077   25.1849 H   0  0  0  0  0  0  0  0  0  0  0  0
    9.6791   -3.7254   22.2813 H   0  0  0  0  0  0  0  0  0  0  0  0
    8.0735   -4.7972   24.6453 H   0  0  0  0  0  0  0  0  0  0  0  0
    5.0411   -3.3695   21.2046 H   0  0  0  0  0  0  0  0  0  0  0  0
    6.0006   -2.6063   19.9229 H   0  0  0  0  0  0  0  0  0  0  0  0
    5.8777   -1.8399   21.5310 H   0  0  0  0  0  0  0  0  0  0  0  0
    8.0436   -3.0549   21.2846 H   0  0  0  0  0  0  0  0  0  0  0  0
    7.1549   -4.5485   20.9748 H   0  0  0  0  0  0  0  0  0  0  0  0
    4.0343   -5.2215   22.7019 H   0  0  0  0  0  0  0  0  0  0  0  0
  1  2  3  0  0  0  0
  2 19  1  0  0  0  0
  3  4  2  0  0  0  0
  3  5  1  0  0  0  0
  4  8  1  0  0  0  0
  4 15  1  0  0  0  0
  5  9  1  0  0  0  0
  5 23  2  0  0  0  0
  6  7  2  0  0  0  0
  6 10  1  0  0  0  0
  6 16  1  0  0  0  0
  8 11  1  0  0  0  0
  9 12  1  0  0  0  0
 10 20  1  0  0  0  0
 11 17  1  0  0  0  0
 12 15  1  0  0  0  0
 13 14  1  0  0  0  0
 13 18  1  0  0  0  0
 14 19  1  0  0  0  0
 15 16  1  0  0  0  0
 16 17  1  0  0  0  0
 17 18  1  0  0  0  0
 18 20  1  0  0  0  0
 19 20  1  0  0  0  0
 19 24  1  0  0  0  0
 20 22  1  0  0  0  0
 21 22  1  0  0  0  0
  1 25  1  0  0  0  0
  3 26  1  0  0  0  0
  7 27  1  0  0  0  0
  7 28  1  0  0  0  0
  8 29  1  0  0  0  0
  8 30  1  0  0  0  0
  9 31  1  0  0  0  0
  9 32  1  0  0  0  0
 10 33  1  0  0  0  0
 10 34  1  0  0  0  0
 11 35  1  0  0  0  0
 11 36  1  0  0  0  0
 12 37  1  0  0  0  0
 12 38  1  0  0  0  0
 13 39  1  0  0  0  0
 13 40  1  0  0  0  0
 14 41  1  0  0  0  0
 14 42  1  0  0  0  0
 15 43  1  0  0  0  0
 16 44  1  0  0  0  0
 17 45  1  0  0  0  0
 18 46  1  0  0  0  0
 21 47  1  0  0  0  0
 21 48  1  0  0  0  0
 21 49  1  0  0  0  0
 22 50  1  0  0  0  0
 22 51  1  0  0  0  0
 24 52  1  0  0  0  0
M  END
> <Hybrid2>
-8.650203

> <docked_fragment>
x0749

> <Mpro-_dock>
5.009519

> <site>
active-covalent

$$$$
CHEMBL2106880
  -OEChem-04122014263D

 57 60  0     1  0  0  0  0  0999 V2000
    9.7040    5.4492   25.3468 C   0  0  0  0  0  0  0  0  0  0  0  0
    9.7036    4.1313   25.0643 C   0  0  0  0  0  0  0  0  0  0  0  0
   10.4684    6.4359   24.5538 C   0  0  0  0  0  0  0  0  0  0  0  0
   11.3195   -3.8874   24.5365 C   0  0  0  0  0  0  0  0  0  0  0  0
   11.3578    5.9365   23.4510 C   0  0  0  0  0  0  0  0  0  0  0  0
   12.7365    4.0394   22.6082 C   0  0  0  0  0  0  0  0  0  0  0  0
   13.3010    2.6704   22.9306 C   0  0  0  0  0  0  0  0  0  0  0  0
   13.9002   -0.3260   22.5894 C   0  0  0  0  0  0  0  0  0  0  0  0
   10.0384    0.8972   24.2001 C   0  0  0  0  0  0  0  0  0  0  0  0
   13.8732   -1.8280   22.9292 C   0  0  0  0  0  0  0  0  0  0  0  0
   10.6380   -0.5022   24.4437 C   0  0  0  0  0  0  0  0  0  0  0  0
   11.7590    4.4798   23.6967 C   0  0  2  0  0  0  0  0  0  0  0  0
   12.1838    1.6378   23.0540 C   0  0  2  0  0  0  0  0  0  0  0  0
   11.0996    2.0424   24.1262 C   0  0  1  0  0  0  0  0  0  0  0  0
   12.7586    0.2619   23.4174 C   0  0  1  0  0  0  0  0  0  0  0  0
   12.5906   -2.0556   23.7540 C   0  0  1  0  0  0  0  0  0  0  0  0
   10.5249    3.5176   23.8919 C   0  0  1  0  0  0  0  0  0  0  0  0
   11.6964   -0.8513   23.3957 C   0  0  1  0  0  0  0  0  0  0  0  0
    8.8127    3.2705   25.9151 C   0  0  0  0  0  0  0  0  0  0  0  0
    9.8842   -4.1007   24.1616 C   0  0  0  0  0  0  0  0  0  0  0  0
    9.5962    3.5269   22.6523 C   0  0  0  0  0  0  0  0  0  0  0  0
   11.0127   -1.0695   22.0218 C   0  0  0  0  0  0  0  0  0  0  0  0
   10.3377    7.6370   24.7829 O   0  0  0  0  0  0  0  0  0  0  0  0
   11.7960   -4.1881   25.6226 O   0  0  0  0  0  0  0  0  0  0  0  0
   11.9997   -3.3142   23.4937 O   0  0  0  0  0  0  0  0  0  0  0  0
    9.1087    5.8588   26.1573 H   0  0  0  0  0  0  0  0  0  0  0  0
   10.8466    6.0707   22.4928 H   0  0  0  0  0  0  0  0  0  0  0  0
   12.2568    6.5650   23.4436 H   0  0  0  0  0  0  0  0  0  0  0  0
   13.5678    4.7518   22.5398 H   0  0  0  0  0  0  0  0  0  0  0  0
   12.2521    4.0312   21.6249 H   0  0  0  0  0  0  0  0  0  0  0  0
   13.9990    2.3848   22.1352 H   0  0  0  0  0  0  0  0  0  0  0  0
   13.8808    2.7161   23.8610 H   0  0  0  0  0  0  0  0  0  0  0  0
   14.8664    0.1203   22.8456 H   0  0  0  0  0  0  0  0  0  0  0  0
   13.7378   -0.1738   21.5165 H   0  0  0  0  0  0  0  0  0  0  0  0
    9.4458    0.8743   23.2803 H   0  0  0  0  0  0  0  0  0  0  0  0
    9.3301    1.0549   25.0091 H   0  0  0  0  0  0  0  0  0  0  0  0
   13.8922   -2.4347   22.0168 H   0  0  0  0  0  0  0  0  0  0  0  0
   14.7532   -2.1100   23.5182 H   0  0  0  0  0  0  0  0  0  0  0  0
   11.0787   -0.5212   25.4491 H   0  0  0  0  0  0  0  0  0  0  0  0
    9.8358   -1.2502   24.4456 H   0  0  0  0  0  0  0  0  0  0  0  0
   12.3240    4.4659   24.6439 H   0  0  0  0  0  0  0  0  0  0  0  0
   11.7013    1.5741   22.0720 H   0  0  0  0  0  0  0  0  0  0  0  0
   11.6053    2.0637   25.1037 H   0  0  0  0  0  0  0  0  0  0  0  0
   13.1508    0.3508   24.4448 H   0  0  0  0  0  0  0  0  0  0  0  0
   12.8541   -2.0297   24.8312 H   0  0  0  0  0  0  0  0  0  0  0  0
    7.8296    3.2065   25.4568 H   0  0  0  0  0  0  0  0  0  0  0  0
    8.7277    3.7087   26.9062 H   0  0  0  0  0  0  0  0  0  0  0  0
    9.2447    2.2765   25.9979 H   0  0  0  0  0  0  0  0  0  0  0  0
    9.2960   -3.2196   24.4297 H   0  0  0  0  0  0  0  0  0  0  0  0
    9.4976   -4.9902   24.6653 H   0  0  0  0  0  0  0  0  0  0  0  0
    9.8105   -4.2535   23.0810 H   0  0  0  0  0  0  0  0  0  0  0  0
   10.1329    3.1063   21.8127 H   0  0  0  0  0  0  0  0  0  0  0  0
    9.3113    4.5484   22.4392 H   0  0  0  0  0  0  0  0  0  0  0  0
    8.7193    2.9324   22.8705 H   0  0  0  0  0  0  0  0  0  0  0  0
   11.7719   -1.3152   21.2919 H   0  0  0  0  0  0  0  0  0  0  0  0
   10.5036   -0.1583   21.7394 H   0  0  0  0  0  0  0  0  0  0  0  0
   10.3041   -1.8814   22.1123 H   0  0  0  0  0  0  0  0  0  0  0  0
  1  2  2  0  0  0  0
  1  3  1  0  0  0  0
  2 17  1  0  0  0  0
  2 19  1  0  0  0  0
  3  5  1  0  0  0  0
  3 23  2  0  0  0  0
  4 20  1  0  0  0  0
  4 24  2  0  0  0  0
  4 25  1  0  0  0  0
  5 12  1  0  0  0  0
  6  7  1  0  0  0  0
  6 12  1  0  0  0  0
  7 13  1  0  0  0  0
  8 10  1  0  0  0  0
  8 15  1  0  0  0  0
  9 11  1  0  0  0  0
  9 14  1  0  0  0  0
 10 16  1  0  0  0  0
 11 18  1  0  0  0  0
 12 17  1  0  0  0  0
 13 14  1  0  0  0  0
 13 15  1  0  0  0  0
 14 17  1  0  0  0  0
 15 18  1  0  0  0  0
 16 18  1  0  0  0  0
 16 25  1  0  0  0  0
 17 21  1  0  0  0  0
 18 22  1  0  0  0  0
  1 26  1  0  0  0  0
  5 27  1  0  0  0  0
  5 28  1  0  0  0  0
  6 29  1  0  0  0  0
  6 30  1  0  0  0  0
  7 31  1  0  0  0  0
  7 32  1  0  0  0  0
  8 33  1  0  0  0  0
  8 34  1  0  0  0  0
  9 35  1  0  0  0  0
  9 36  1  0  0  0  0
 10 37  1  0  0  0  0
 10 38  1  0  0  0  0
 11 39  1  0  0  0  0
 11 40  1  0  0  0  0
 12 41  1  0  0  0  0
 13 42  1  0  0  0  0
 14 43  1  0  0  0  0
 15 44  1  0  0  0  0
 16 45  1  0  0  0  0
 19 46  1  0  0  0  0
 19 47  1  0  0  0  0
 19 48  1  0  0  0  0
 20 49  1  0  0  0  0
 20 50  1  0  0  0  0
 20 51  1  0  0  0  0
 21 52  1  0  0  0  0
 21 53  1  0  0  0  0
 21 54  1  0  0  0  0
 22 55  1  0  0  0  0
 22 56  1  0  0  0  0
 22 57  1  0  0  0  0
M  END
> <Hybrid2>
-8.634189

> <docked_fragment>
x0161

> <Mpro-_dock>
3.502438

> <site>
active-noncovalent

$$$$
CHEMBL1274
  -OEChem-04122014263D

 33 34  0     0  0  0  0  0  0999 V2000
   10.6445    1.9988   22.5348 C   0  0  0  0  0  0  0  0  0  0  0  0
   10.3086    0.6797   22.2304 C   0  0  0  0  0  0  0  0  0  0  0  0
   12.9261    1.3217   22.9509 C   0  0  0  0  0  0  0  0  0  0  0  0
   12.5901    0.0025   22.6466 C   0  0  0  0  0  0  0  0  0  0  0  0
   11.9533    2.3198   22.8950 C   0  0  0  0  0  0  0  0  0  0  0  0
   11.2813   -0.3185   22.2864 C   0  0  0  0  0  0  0  0  0  0  0  0
   11.4214    4.5725   23.7493 C   0  0  0  0  0  0  0  0  0  0  0  0
   13.5426    4.2058   22.9999 C   0  0  0  0  0  0  0  0  0  0  0  0
   12.1634    5.8988   23.9229 C   0  0  0  0  0  0  0  0  0  0  0  0
   11.5346    6.9785   23.0517 C   0  0  0  0  0  0  0  0  0  0  0  0
   12.2136    6.2956   25.3924 C   0  0  0  0  0  0  0  0  0  0  0  0
   13.6464   -1.0509   22.7125 C   0  0  0  0  0  0  0  0  0  0  0  0
   13.4652    5.5281   23.4370 N   0  0  0  0  0  0  0  0  0  0  0  0
   12.2878    3.6347   23.1982 N   0  0  0  0  0  0  0  0  0  0  0  0
   10.9117   -1.6901   21.9651 N   0  0  0  0  0  0  0  0  0  0  0  0
    9.8756   -1.7073   21.0764 O   0  5  0  0  0  0  0  0  0  0  0  0
   10.2465    4.4006   24.0528 O   0  0  0  0  0  0  0  0  0  0  0  0
   14.5401    3.6681   22.5350 O   0  0  0  0  0  0  0  0  0  0  0  0
   10.5044   -2.3482   23.0895 O   0  0  0  0  0  0  0  0  0  0  0  0
   14.8714   -0.5731   23.0800 F   0  0  0  0  0  0  0  0  0  0  0  0
   13.3685   -2.0462   23.6046 F   0  0  0  0  0  0  0  0  0  0  0  0
   13.8393   -1.6742   21.5144 F   0  0  0  0  0  0  0  0  0  0  0  0
    9.8783    2.7685   22.4879 H   0  0  0  0  0  0  0  0  0  0  0  0
    9.2866    0.4381   21.9506 H   0  0  0  0  0  0  0  0  0  0  0  0
   13.9472    1.5706   23.2317 H   0  0  0  0  0  0  0  0  0  0  0  0
   12.0685    7.9201   23.1808 H   0  0  0  0  0  0  0  0  0  0  0  0
   10.4909    7.1228   23.3315 H   0  0  0  0  0  0  0  0  0  0  0  0
   11.5823    6.6861   22.0025 H   0  0  0  0  0  0  0  0  0  0  0  0
   12.7439    7.2414   25.5060 H   0  0  0  0  0  0  0  0  0  0  0  0
   12.7316    5.5288   25.9688 H   0  0  0  0  0  0  0  0  0  0  0  0
   11.2021    6.4086   25.7834 H   0  0  0  0  0  0  0  0  0  0  0  0
   14.2531    6.1681   23.4142 H   0  0  0  0  0  0  0  0  0  0  0  0
   11.7318   -2.1836   21.5516 H   0  0  0  0  0  0  0  0  0  0  0  0
  1  2  2  0  0  0  0
  1  5  1  0  0  0  0
  2  6  1  0  0  0  0
  3  4  1  0  0  0  0
  3  5  2  0  0  0  0
  4  6  2  0  0  0  0
  4 12  1  0  0  0  0
  5 14  1  0  0  0  0
  6 15  1  0  0  0  0
  7  9  1  0  0  0  0
  7 14  1  0  0  0  0
  7 17  2  0  0  0  0
  8 13  1  0  0  0  0
  8 14  1  0  0  0  0
  8 18  2  0  0  0  0
  9 10  1  0  0  0  0
  9 11  1  0  0  0  0
  9 13  1  0  0  0  0
 12 20  1  0  0  0  0
 12 21  1  0  0  0  0
 12 22  1  0  0  0  0
 15 16  1  0  0  0  0
 15 19  2  0  0  0  0
  1 23  1  0  0  0  0
  2 24  1  0  0  0  0
  3 25  1  0  0  0  0
 10 26  1  0  0  0  0
 10 27  1  0  0  0  0
 10 28  1  0  0  0  0
 11 29  1  0  0  0  0
 11 30  1  0  0  0  0
 11 31  1  0  0  0  0
 13 32  1  0  0  0  0
 15 33  1  0  0  0  0
M  CHG  1  16  -1
M  END
> <Hybrid2>
-8.618824

> <docked_fragment>
x0195

> <Mpro-_dock>
2.583118

> <site>
active-noncovalent

$$$$
DB07871
  -OEChem-04122014263D

 44 46  0     0  0  0  0  0  0999 V2000
   12.1946    4.5412   23.4644 C   0  0  0  0  0  0  0  0  0  0  0  0
   11.0742    5.0285   24.1300 C   0  0  0  0  0  0  0  0  0  0  0  0
   10.3731    2.7587   24.5933 C   0  0  0  0  0  0  0  0  0  0  0  0
   11.4881    2.2456   23.9132 C   0  0  0  0  0  0  0  0  0  0  0  0
   12.3984    3.1603   23.3644 C   0  0  0  0  0  0  0  0  0  0  0  0
   10.1670    4.1385   24.6969 C   0  0  0  0  0  0  0  0  0  0  0  0
   11.7721    0.8046   23.7563 C   0  0  0  0  0  0  0  0  0  0  0  0
   12.8901    0.3753   23.1425 C   0  0  0  0  0  0  0  0  0  0  0  0
   13.8681    1.3614   22.5770 C   0  0  0  0  0  0  0  0  0  0  0  0
    8.8737   -3.0344   24.2168 C   0  0  0  0  0  0  0  0  0  0  0  0
   10.1964   -2.8522   23.4779 C   0  0  0  0  0  0  0  0  0  0  0  0
    8.4914   -1.7849   25.0049 C   0  0  0  0  0  0  0  0  0  0  0  0
   10.1755   -1.6120   22.5840 C   0  0  0  0  0  0  0  0  0  0  0  0
    8.4697   -0.5416   24.1149 C   0  0  0  0  0  0  0  0  0  0  0  0
    9.7837   -0.3517   23.3570 C   0  0  0  0  0  0  0  0  0  0  0  0
   13.3814   -1.3848   21.4635 C   0  0  0  0  0  0  0  0  0  0  0  0
   14.6017   -1.3573   23.6608 C   0  0  0  0  0  0  0  0  0  0  0  0
   13.2861   -1.0639   22.9495 C   0  0  0  0  0  0  0  0  0  0  0  0
   13.5504    2.6944   22.7126 N   0  0  0  0  0  0  0  0  0  0  0  0
   14.8958    0.9841   22.0150 O   0  0  0  0  0  0  0  0  0  0  0  0
   10.8076   -0.0214   24.2931 O   0  0  0  0  0  0  0  0  0  0  0  0
    8.7842    4.7385   25.5295 Cl  0  0  0  0  0  0  0  0  0  0  0  0
   12.9050    5.2416   23.0328 H   0  0  0  0  0  0  0  0  0  0  0  0
   10.9244    6.1023   24.2042 H   0  0  0  0  0  0  0  0  0  0  0  0
    9.6498    2.0815   25.0437 H   0  0  0  0  0  0  0  0  0  0  0  0
    8.0809   -3.2761   23.5003 H   0  0  0  0  0  0  0  0  0  0  0  0
    8.9546   -3.8868   24.9026 H   0  0  0  0  0  0  0  0  0  0  0  0
   11.0163   -2.7713   24.2000 H   0  0  0  0  0  0  0  0  0  0  0  0
   10.3967   -3.7382   22.8634 H   0  0  0  0  0  0  0  0  0  0  0  0
    7.5011   -1.9252   25.4552 H   0  0  0  0  0  0  0  0  0  0  0  0
    9.1993   -1.6349   25.8275 H   0  0  0  0  0  0  0  0  0  0  0  0
   11.1637   -1.4710   22.1225 H   0  0  0  0  0  0  0  0  0  0  0  0
    9.4814   -1.7642   21.7464 H   0  0  0  0  0  0  0  0  0  0  0  0
    7.6351   -0.6063   23.4032 H   0  0  0  0  0  0  0  0  0  0  0  0
    8.2636    0.3495   24.7262 H   0  0  0  0  0  0  0  0  0  0  0  0
    9.6913    0.4934   22.6644 H   0  0  0  0  0  0  0  0  0  0  0  0
   14.1545   -0.7859   20.9689 H   0  0  0  0  0  0  0  0  0  0  0  0
   12.4302   -1.1911   20.9553 H   0  0  0  0  0  0  0  0  0  0  0  0
   13.6285   -2.4416   21.3155 H   0  0  0  0  0  0  0  0  0  0  0  0
   15.4183   -0.7561   23.2455 H   0  0  0  0  0  0  0  0  0  0  0  0
   14.8835   -2.4128   23.5735 H   0  0  0  0  0  0  0  0  0  0  0  0
   14.5209   -1.1181   24.7266 H   0  0  0  0  0  0  0  0  0  0  0  0
   12.5038   -1.6847   23.3965 H   0  0  0  0  0  0  0  0  0  0  0  0
   14.1873    3.3807   22.3177 H   0  0  0  0  0  0  0  0  0  0  0  0
  1  2  2  0  0  0  0
  1  5  1  0  0  0  0
  2  6  1  0  0  0  0
  3  4  1  0  0  0  0
  3  6  2  0  0  0  0
  4  5  2  0  0  0  0
  4  7  1  0  0  0  0
  5 19  1  0  0  0  0
  6 22  1  0  0  0  0
  7  8  2  0  0  0  0
  7 21  1  0  0  0  0
  8  9  1  0  0  0  0
  8 18  1  0  0  0  0
  9 19  1  0  0  0  0
  9 20  2  0  0  0  0
 10 11  1  0  0  0  0
 10 12  1  0  0  0  0
 11 13  1  0  0  0  0
 12 14  1  0  0  0  0
 13 15  1  0  0  0  0
 14 15  1  0  0  0  0
 15 21  1  0  0  0  0
 16 18  1  0  0  0  0
 17 18  1  0  0  0  0
  1 23  1  0  0  0  0
  2 24  1  0  0  0  0
  3 25  1  0  0  0  0
 10 26  1  0  0  0  0
 10 27  1  0  0  0  0
 11 28  1  0  0  0  0
 11 29  1  0  0  0  0
 12 30  1  0  0  0  0
 12 31  1  0  0  0  0
 13 32  1  0  0  0  0
 13 33  1  0  0  0  0
 14 34  1  0  0  0  0
 14 35  1  0  0  0  0
 15 36  1  0  0  0  0
 16 37  1  0  0  0  0
 16 38  1  0  0  0  0
 16 39  1  0  0  0  0
 17 40  1  0  0  0  0
 17 41  1  0  0  0  0
 17 42  1  0  0  0  0
 18 43  1  0  0  0  0
 19 44  1  0  0  0  0
M  END
> <Hybrid2>
-8.601430

> <docked_fragment>
x0195

> <Mpro-_dock>
0.012213

> <site>
active-noncovalent

$$$$
CHEMBL2104738
  -OEChem-04122014263D

 26 28  0     1  0  0  0  0  0999 V2000
   11.3921   -4.4751   25.2419 C   0  0  0  0  0  0  0  0  0  0  0  0
   12.0801   -3.3476   25.6921 C   0  0  0  0  0  0  0  0  0  0  0  0
   10.6495   -1.9187   24.3586 C   0  0  0  0  0  0  0  0  0  0  0  0
    9.9562   -3.0452   23.9117 C   0  0  0  0  0  0  0  0  0  0  0  0
   10.3199   -4.3264   24.3629 C   0  0  0  0  0  0  0  0  0  0  0  0
   11.7078   -2.0745   25.2549 C   0  0  0  0  0  0  0  0  0  0  0  0
    8.8735   -2.9095   22.9073 C   0  0  0  0  0  0  0  0  0  0  0  0
    7.7873   -6.3350   22.6841 C   0  0  0  0  0  0  0  0  0  0  0  0
    6.7123   -5.5701   21.9224 C   0  0  2  0  0  0  0  0  0  0  0  0
    8.3413   -5.2454   23.5631 C   0  0  2  0  0  0  0  0  0  0  0  0
    6.4023   -6.1742   20.5663 C   0  0  0  0  0  0  0  0  0  0  0  0
    8.2245   -4.0818   22.7239 N   0  0  0  0  0  0  0  0  0  0  0  0
    8.6673   -1.8594   22.3155 O   0  0  0  0  0  0  0  0  0  0  0  0
    9.6943   -5.4798   23.9429 O   0  0  0  0  0  0  0  0  0  0  0  0
    7.2249   -4.2332   21.7522 O   0  0  0  0  0  0  0  0  0  0  0  0
   12.5683   -0.6918   25.8143 Cl  0  0  0  0  0  0  0  0  0  0  0  0
   11.6930   -5.4610   25.5853 H   0  0  0  0  0  0  0  0  0  0  0  0
   12.9093   -3.4762   26.3836 H   0  0  0  0  0  0  0  0  0  0  0  0
   10.3744   -0.9265   24.0091 H   0  0  0  0  0  0  0  0  0  0  0  0
    7.3831   -7.1807   23.2483 H   0  0  0  0  0  0  0  0  0  0  0  0
    8.5657   -6.7220   22.0148 H   0  0  0  0  0  0  0  0  0  0  0  0
    5.7954   -5.4969   22.5195 H   0  0  0  0  0  0  0  0  0  0  0  0
    7.7229   -5.0976   24.4585 H   0  0  0  0  0  0  0  0  0  0  0  0
    7.3125   -6.2495   19.9670 H   0  0  0  0  0  0  0  0  0  0  0  0
    5.6824   -5.5523   20.0292 H   0  0  0  0  0  0  0  0  0  0  0  0
    5.9790   -7.1744   20.6839 H   0  0  0  0  0  0  0  0  0  0  0  0
  1  2  2  0  0  0  0
  1  5  1  0  0  0  0
  2  6  1  0  0  0  0
  3  4  1  0  0  0  0
  3  6  2  0  0  0  0
  4  5  2  0  0  0  0
  4  7  1  0  0  0  0
  5 14  1  0  0  0  0
  6 16  1  0  0  0  0
  7 12  1  0  0  0  0
  7 13  2  0  0  0  0
  8  9  1  0  0  0  0
  8 10  1  0  0  0  0
  9 11  1  0  0  0  0
  9 15  1  0  0  0  0
 10 12  1  0  0  0  0
 10 14  1  0  0  0  0
 12 15  1  0  0  0  0
  1 17  1  0  0  0  0
  2 18  1  0  0  0  0
  3 19  1  0  0  0  0
  8 20  1  0  0  0  0
  8 21  1  0  0  0  0
  9 22  1  0  0  0  0
 10 23  1  0  0  0  0
 11 24  1  0  0  0  0
 11 25  1  0  0  0  0
 11 26  1  0  0  0  0
M  END
> <Hybrid2>
-8.596709

> <docked_fragment>
x0749

> <Mpro-_dock>
-0.442267

> <site>
active-covalent

$$$$
CHEMBL1908314
  -OEChem-04122014263D

 60 65  0     1  0  0  0  0  0999 V2000
    6.5552   -1.3217   19.5770 C   0  0  0  0  0  0  0  0  0  0  0  0
    5.8351   -3.4220   20.7810 C   0  0  0  0  0  0  0  0  0  0  0  0
    7.1564   -0.9055   20.6958 C   0  0  0  0  0  0  0  0  0  0  0  0
    6.4458   -3.0022   21.9006 C   0  0  0  0  0  0  0  0  0  0  0  0
    5.8281   -2.6035   19.5518 C   0  0  0  0  0  0  0  0  0  0  0  0
   14.0272   -1.2831   26.2973 C   0  0  0  0  0  0  0  0  0  0  0  0
    7.3699   -6.3495   21.9789 C   0  0  0  0  0  0  0  0  0  0  0  0
    6.5005   -3.9060   23.1117 C   0  0  0  0  0  0  0  0  0  0  0  0
   14.5464   -2.1989   25.2308 C   0  0  0  0  0  0  0  0  0  0  0  0
   13.3594   -2.2936   24.2953 C   0  0  0  0  0  0  0  0  0  0  0  0
    9.5143   -0.6353   22.6315 C   0  0  0  0  0  0  0  0  0  0  0  0
   10.9174   -0.8720   23.2301 C   0  0  0  0  0  0  0  0  0  0  0  0
   10.5772   -3.6989   26.7550 C   0  0  0  0  0  0  0  0  0  0  0  0
    8.6460   -1.9240   22.4895 C   0  0  1  0  0  0  0  0  0  0  0  0
   10.5223   -3.9721   25.2812 C   0  0  2  0  0  0  0  0  0  0  0  0
   11.7959   -3.4672   25.8942 C   0  0  1  0  0  0  0  0  0  0  0  0
    8.7035   -2.8441   23.7689 C   0  0  2  0  0  0  0  0  0  0  0  0
   10.1648   -2.9962   24.1974 C   0  0  1  0  0  0  0  0  0  0  0  0
    7.9460   -4.1808   23.5516 C   0  0  2  0  0  0  0  0  0  0  0  0
    7.1636   -1.6536   22.0219 C   0  0  1  0  0  0  0  0  0  0  0  0
   10.8342   -1.6360   24.5691 C   0  0  1  0  0  0  0  0  0  0  0  0
   12.1699   -2.1298   25.2353 C   0  0  2  0  0  0  0  0  0  0  0  0
    7.4337   -6.9056   20.5847 C   0  0  0  0  0  0  0  0  0  0  0  0
    6.3841   -0.7620   23.0158 C   0  0  0  0  0  0  0  0  0  0  0  0
   10.0692   -0.7105   25.5593 C   0  0  0  0  0  0  0  0  0  0  0  0
    5.2461   -2.9823   18.5411 O   0  0  0  0  0  0  0  0  0  0  0  0
   14.7104   -0.6930   27.1195 O   0  0  0  0  0  0  0  0  0  0  0  0
    6.4527   -6.5924   22.7537 O   0  0  0  0  0  0  0  0  0  0  0  0
   12.6621   -1.2250   26.2360 O   0  0  0  0  0  0  0  0  0  0  0  0
    8.7483   -5.3286   22.3588 S   0  0  0  0  0  0  0  0  0  0  0  0
    6.5739   -0.7265   18.6715 H   0  0  0  0  0  0  0  0  0  0  0  0
    5.3436   -4.3879   20.7262 H   0  0  0  0  0  0  0  0  0  0  0  0
    7.6495    0.0633   20.6597 H   0  0  0  0  0  0  0  0  0  0  0  0
    5.9586   -3.4235   23.9349 H   0  0  0  0  0  0  0  0  0  0  0  0
    5.9695   -4.8511   22.9358 H   0  0  0  0  0  0  0  0  0  0  0  0
   15.4154   -1.7654   24.7304 H   0  0  0  0  0  0  0  0  0  0  0  0
   14.8015   -3.1647   25.6750 H   0  0  0  0  0  0  0  0  0  0  0  0
   13.4338   -1.4549   23.5944 H   0  0  0  0  0  0  0  0  0  0  0  0
   13.3495   -3.2225   23.7172 H   0  0  0  0  0  0  0  0  0  0  0  0
    8.9910    0.1151   23.2313 H   0  0  0  0  0  0  0  0  0  0  0  0
    9.6585   -0.1812   21.6440 H   0  0  0  0  0  0  0  0  0  0  0  0
   11.5032   -1.4336   22.4918 H   0  0  0  0  0  0  0  0  0  0  0  0
   11.4263    0.0903   23.3641 H   0  0  0  0  0  0  0  0  0  0  0  0
    9.9945   -2.8936   27.1649 H   0  0  0  0  0  0  0  0  0  0  0  0
   10.5994   -4.5603   27.4162 H   0  0  0  0  0  0  0  0  0  0  0  0
    9.1322   -2.4886   21.6782 H   0  0  0  0  0  0  0  0  0  0  0  0
   10.4900   -5.0066   24.9690 H   0  0  0  0  0  0  0  0  0  0  0  0
   12.6220   -4.1545   26.0202 H   0  0  0  0  0  0  0  0  0  0  0  0
    8.1686   -2.3473   24.5853 H   0  0  0  0  0  0  0  0  0  0  0  0
   10.7058   -3.3858   23.3197 H   0  0  0  0  0  0  0  0  0  0  0  0
    7.9110   -4.7203   24.5123 H   0  0  0  0  0  0  0  0  0  0  0  0
    6.9382   -6.2285   19.8833 H   0  0  0  0  0  0  0  0  0  0  0  0
    6.9683   -7.8946   20.5498 H   0  0  0  0  0  0  0  0  0  0  0  0
    8.4809   -7.0070   20.2840 H   0  0  0  0  0  0  0  0  0  0  0  0
    6.3598   -1.2517   23.9809 H   0  0  0  0  0  0  0  0  0  0  0  0
    5.3767   -0.6222   22.6451 H   0  0  0  0  0  0  0  0  0  0  0  0
    6.8860    0.1937   23.0969 H   0  0  0  0  0  0  0  0  0  0  0  0
    9.9936   -1.2174   26.5092 H   0  0  0  0  0  0  0  0  0  0  0  0
    9.0878   -0.5166   25.1543 H   0  0  0  0  0  0  0  0  0  0  0  0
   10.6247    0.2089   25.6635 H   0  0  0  0  0  0  0  0  0  0  0  0
  1  3  2  0  0  0  0
  1  5  1  0  0  0  0
  2  4  2  0  0  0  0
  2  5  1  0  0  0  0
  3 20  1  0  0  0  0
  4  8  1  0  0  0  0
  4 20  1  0  0  0  0
  5 26  2  0  0  0  0
  6  9  1  0  0  0  0
  6 27  2  0  0  0  0
  6 29  1  0  0  0  0
  7 23  1  0  0  0  0
  7 28  2  0  0  0  0
  7 30  1  0  0  0  0
  8 19  1  0  0  0  0
  9 10  1  0  0  0  0
 10 22  1  0  0  0  0
 11 12  1  0  0  0  0
 11 14  1  0  0  0  0
 12 21  1  0  0  0  0
 13 15  1  0  0  0  0
 13 16  1  0  0  0  0
 14 17  1  0  0  0  0
 14 20  1  0  0  0  0
 15 16  1  0  0  0  0
 15 18  1  0  0  0  0
 16 22  1  0  0  0  0
 17 18  1  0  0  0  0
 17 19  1  0  0  0  0
 18 21  1  0  0  0  0
 19 30  1  0  0  0  0
 20 24  1  0  0  0  0
 21 22  1  0  0  0  0
 21 25  1  0  0  0  0
 22 29  1  0  0  0  0
  1 31  1  0  0  0  0
  2 32  1  0  0  0  0
  3 33  1  0  0  0  0
  8 34  1  0  0  0  0
  8 35  1  0  0  0  0
  9 36  1  0  0  0  0
  9 37  1  0  0  0  0
 10 38  1  0  0  0  0
 10 39  1  0  0  0  0
 11 40  1  0  0  0  0
 11 41  1  0  0  0  0
 12 42  1  0  0  0  0
 12 43  1  0  0  0  0
 13 44  1  0  0  0  0
 13 45  1  0  0  0  0
 14 46  1  0  0  0  0
 15 47  1  0  0  0  0
 16 48  1  0  0  0  0
 17 49  1  0  0  0  0
 18 50  1  0  0  0  0
 19 51  1  0  0  0  0
 23 52  1  0  0  0  0
 23 53  1  0  0  0  0
 23 54  1  0  0  0  0
 24 55  1  0  0  0  0
 24 56  1  0  0  0  0
 24 57  1  0  0  0  0
 25 58  1  0  0  0  0
 25 59  1  0  0  0  0
 25 60  1  0  0  0  0
M  END
> <Hybrid2>
-8.593760

> <docked_fragment>
x0749

> <Mpro-_dock>
2.938666

> <site>
active-covalent

$$$$
CHEMBL2104328
  -OEChem-04122014263D

 53 56  0     1  0  0  0  0  0999 V2000
    6.8048   -5.8443   25.2995 C   0  0  0  0  0  0  0  0  0  0  0  0
    7.8270   -4.9921   25.1131 C   0  0  0  0  0  0  0  0  0  0  0  0
    5.9503   -5.7773   26.5072 C   0  0  0  0  0  0  0  0  0  0  0  0
   11.1475    1.9912   23.4546 C   0  0  0  0  0  0  0  0  0  0  0  0
    6.3378   -4.8170   27.5991 C   0  0  0  0  0  0  0  0  0  0  0  0
    6.9400   -3.5550   27.0029 C   0  0  0  0  0  0  0  0  0  0  0  0
   10.5503   -1.4312   22.0704 C   0  0  0  0  0  0  0  0  0  0  0  0
    8.7929   -1.2810   26.0759 C   0  0  0  0  0  0  0  0  0  0  0  0
   10.8841    0.0571   21.8417 C   0  0  0  0  0  0  0  0  0  0  0  0
    9.0528   -0.0136   25.2399 C   0  0  0  0  0  0  0  0  0  0  0  0
    8.9448   -3.8824   23.1487 C   0  0  0  0  0  0  0  0  0  0  0  0
    8.7541   -5.1719   23.9328 C   0  0  2  0  0  0  0  0  0  0  0  0
    8.4175   -2.5181   25.2155 C   0  0  1  0  0  0  0  0  0  0  0  0
    9.5983   -1.4384   23.2644 C   0  0  1  0  0  0  0  0  0  0  0  0
    9.4325   -2.7451   24.0527 C   0  0  2  0  0  0  0  0  0  0  0  0
    8.1481   -3.8249   26.0588 C   0  0  2  0  0  0  0  0  0  0  0  0
   10.2927    0.8296   23.0427 C   0  0  1  0  0  0  0  0  0  0  0  0
   10.0931   -0.2581   24.1325 C   0  0  1  0  0  0  0  0  0  0  0  0
   12.6275    1.8602   23.2167 C   0  0  0  0  0  0  0  0  0  0  0  0
    9.3724   -4.2215   26.9152 C   0  0  0  0  0  0  0  0  0  0  0  0
   11.4692   -0.5510   24.8104 C   0  0  0  0  0  0  0  0  0  0  0  0
    4.9974   -6.5448   26.6267 O   0  0  0  0  0  0  0  0  0  0  0  0
   10.6622    3.0021   23.9603 O   0  0  0  0  0  0  0  0  0  0  0  0
    8.2915   -6.1139   23.0588 F   0  0  0  0  0  0  0  0  0  0  0  0
    8.6318    1.7049   22.4625 Br  0  0  0  0  0  0  0  0  0  0  0  0
    6.5956   -6.6526   24.6071 H   0  0  0  0  0  0  0  0  0  0  0  0
    5.4378   -4.5524   28.1652 H   0  0  0  0  0  0  0  0  0  0  0  0
    7.0328   -5.3187   28.2796 H   0  0  0  0  0  0  0  0  0  0  0  0
    6.1497   -3.0333   26.4449 H   0  0  0  0  0  0  0  0  0  0  0  0
    7.2305   -2.8894   27.8244 H   0  0  0  0  0  0  0  0  0  0  0  0
   10.0884   -1.8717   21.1806 H   0  0  0  0  0  0  0  0  0  0  0  0
   11.4640   -1.9982   22.2816 H   0  0  0  0  0  0  0  0  0  0  0  0
    9.6714   -1.4943   26.6922 H   0  0  0  0  0  0  0  0  0  0  0  0
    7.9802   -1.0515   26.7739 H   0  0  0  0  0  0  0  0  0  0  0  0
   11.9734    0.1733   21.7835 H   0  0  0  0  0  0  0  0  0  0  0  0
   10.4874    0.3899   20.8758 H   0  0  0  0  0  0  0  0  0  0  0  0
    8.0892    0.2929   24.8197 H   0  0  0  0  0  0  0  0  0  0  0  0
    9.3772    0.8005   25.8990 H   0  0  0  0  0  0  0  0  0  0  0  0
    9.6623   -4.0684   22.3407 H   0  0  0  0  0  0  0  0  0  0  0  0
    8.0027   -3.6083   22.6558 H   0  0  0  0  0  0  0  0  0  0  0  0
    9.7241   -5.5338   24.2918 H   0  0  0  0  0  0  0  0  0  0  0  0
    7.4613   -2.2597   24.7315 H   0  0  0  0  0  0  0  0  0  0  0  0
    8.6014   -1.1932   22.8669 H   0  0  0  0  0  0  0  0  0  0  0  0
   10.4032   -3.0452   24.4613 H   0  0  0  0  0  0  0  0  0  0  0  0
   12.8767    2.2434   22.2232 H   0  0  0  0  0  0  0  0  0  0  0  0
   12.9157    0.8076   23.2720 H   0  0  0  0  0  0  0  0  0  0  0  0
   13.1718    2.4403   23.9659 H   0  0  0  0  0  0  0  0  0  0  0  0
    9.6093   -3.4062   27.5870 H   0  0  0  0  0  0  0  0  0  0  0  0
   10.2109   -4.4169   26.2589 H   0  0  0  0  0  0  0  0  0  0  0  0
    9.1300   -5.1112   27.4826 H   0  0  0  0  0  0  0  0  0  0  0  0
   12.1957   -0.7218   24.0330 H   0  0  0  0  0  0  0  0  0  0  0  0
   11.3579   -1.4261   25.4292 H   0  0  0  0  0  0  0  0  0  0  0  0
   11.7388    0.3066   25.4047 H   0  0  0  0  0  0  0  0  0  0  0  0
  1  2  2  0  0  0  0
  1  3  1  0  0  0  0
  2 12  1  0  0  0  0
  2 16  1  0  0  0  0
  3  5  1  0  0  0  0
  3 22  2  0  0  0  0
  4 17  1  0  0  0  0
  4 19  1  0  0  0  0
  4 23  2  0  0  0  0
  5  6  1  0  0  0  0
  6 16  1  0  0  0  0
  7  9  1  0  0  0  0
  7 14  1  0  0  0  0
  8 10  1  0  0  0  0
  8 13  1  0  0  0  0
  9 17  1  0  0  0  0
 10 18  1  0  0  0  0
 11 12  1  0  0  0  0
 11 15  1  0  0  0  0
 12 24  1  0  0  0  0
 13 15  1  0  0  0  0
 13 16  1  0  0  0  0
 14 15  1  0  0  0  0
 14 18  1  0  0  0  0
 16 20  1  0  0  0  0
 17 18  1  0  0  0  0
 17 25  1  0  0  0  0
 18 21  1  0  0  0  0
  1 26  1  0  0  0  0
  5 27  1  0  0  0  0
  5 28  1  0  0  0  0
  6 29  1  0  0  0  0
  6 30  1  0  0  0  0
  7 31  1  0  0  0  0
  7 32  1  0  0  0  0
  8 33  1  0  0  0  0
  8 34  1  0  0  0  0
  9 35  1  0  0  0  0
  9 36  1  0  0  0  0
 10 37  1  0  0  0  0
 10 38  1  0  0  0  0
 11 39  1  0  0  0  0
 11 40  1  0  0  0  0
 12 41  1  0  0  0  0
 13 42  1  0  0  0  0
 14 43  1  0  0  0  0
 15 44  1  0  0  0  0
 19 45  1  0  0  0  0
 19 46  1  0  0  0  0
 19 47  1  0  0  0  0
 20 48  1  0  0  0  0
 20 49  1  0  0  0  0
 20 50  1  0  0  0  0
 21 51  1  0  0  0  0
 21 52  1  0  0  0  0
 21 53  1  0  0  0  0
M  END
> <Hybrid2>
-8.591348

> <docked_fragment>
x1077

> <Mpro-_dock>
2.092835

> <site>
active-noncovalent

$$$$
CHEMBL1377940
  -OEChem-04122014263D

 26 27  0     0  0  0  0  0  0999 V2000
   12.3060    6.4806   25.2905 C   0  0  0  0  0  0  0  0  0  0  0  0
   12.4769    6.1123   24.1607 C   0  0  0  0  0  0  0  0  0  0  0  0
   11.6667    1.7815   23.8672 C   0  0  0  0  0  0  0  0  0  0  0  0
   12.1175    3.0947   23.6909 C   0  0  0  0  0  0  0  0  0  0  0  0
   13.9097    2.3044   22.2887 C   0  0  0  0  0  0  0  0  0  0  0  0
   12.3302    0.7086   23.2570 C   0  0  0  0  0  0  0  0  0  0  0  0
   13.4481    0.9999   22.4738 C   0  0  0  0  0  0  0  0  0  0  0  0
   13.2373    3.3556   22.9029 C   0  0  0  0  0  0  0  0  0  0  0  0
   12.6212   -1.6453   22.7703 C   0  0  0  0  0  0  0  0  0  0  0  0
   11.9152   -0.6938   23.3971 C   0  0  0  0  0  0  0  0  0  0  0  0
   13.8027   -1.3541   21.9409 C   0  0  0  0  0  0  0  0  0  0  0  0
   10.7177   -1.0389   24.2338 C   0  0  0  0  0  0  0  0  0  0  0  0
   12.6835    5.6653   22.7829 C   0  0  0  0  0  0  0  0  0  0  0  0
   14.4247   -2.2514   21.3830 O   0  0  0  0  0  0  0  0  0  0  0  0
   14.1708   -0.0225   21.8269 O   0  0  0  0  0  0  0  0  0  0  0  0
   13.6693    4.6345   22.7343 O   0  0  0  0  0  0  0  0  0  0  0  0
   12.1544    6.8075   26.2927 H   0  0  0  0  0  0  0  0  0  0  0  0
   10.7897    1.6233   24.4895 H   0  0  0  0  0  0  0  0  0  0  0  0
   11.5861    3.9107   24.1738 H   0  0  0  0  0  0  0  0  0  0  0  0
   14.7833    2.4971   21.6720 H   0  0  0  0  0  0  0  0  0  0  0  0
   12.3431   -2.6918   22.8526 H   0  0  0  0  0  0  0  0  0  0  0  0
    9.8259   -1.0258   23.6120 H   0  0  0  0  0  0  0  0  0  0  0  0
   10.6146   -0.3118   25.0361 H   0  0  0  0  0  0  0  0  0  0  0  0
   10.8496   -2.0292   24.6633 H   0  0  0  0  0  0  0  0  0  0  0  0
   13.0113    6.4894   22.1417 H   0  0  0  0  0  0  0  0  0  0  0  0
   11.7560    5.2621   22.3655 H   0  0  0  0  0  0  0  0  0  0  0  0
  1  2  3  0  0  0  0
  2 13  1  0  0  0  0
  3  4  1  0  0  0  0
  3  6  2  0  0  0  0
  4  8  2  0  0  0  0
  5  7  2  0  0  0  0
  5  8  1  0  0  0  0
  6  7  1  0  0  0  0
  6 10  1  0  0  0  0
  7 15  1  0  0  0  0
  8 16  1  0  0  0  0
  9 10  2  0  0  0  0
  9 11  1  0  0  0  0
 10 12  1  0  0  0  0
 11 14  2  0  0  0  0
 11 15  1  0  0  0  0
 13 16  1  0  0  0  0
  1 17  1  0  0  0  0
  3 18  1  0  0  0  0
  4 19  1  0  0  0  0
  5 20  1  0  0  0  0
  9 21  1  0  0  0  0
 12 22  1  0  0  0  0
 12 23  1  0  0  0  0
 12 24  1  0  0  0  0
 13 25  1  0  0  0  0
 13 26  1  0  0  0  0
M  END
> <Hybrid2>
-8.584805

> <docked_fragment>
x0195

> <Mpro-_dock>
0.175291

> <site>
active-noncovalent

$$$$
CHEMBL334491
  -OEChem-04122014263D

 50 52  0     0  0  0  0  0  0999 V2000
    7.9549   -0.8471   25.7816 C   0  0  0  0  0  0  0  0  0  0  0  0
   13.5465   -1.1642   21.5611 C   0  0  0  0  0  0  0  0  0  0  0  0
    9.3082   -0.6168   26.0292 C   0  0  0  0  0  0  0  0  0  0  0  0
    7.3644   -0.3516   24.6190 C   0  0  0  0  0  0  0  0  0  0  0  0
   12.2184   -1.5389   21.3575 C   0  0  0  0  0  0  0  0  0  0  0  0
   13.8413    0.0373   22.2054 C   0  0  0  0  0  0  0  0  0  0  0  0
   10.0709    0.1091   25.1143 C   0  0  0  0  0  0  0  0  0  0  0  0
    8.1272    0.3742   23.7041 C   0  0  0  0  0  0  0  0  0  0  0  0
   11.1851   -0.7120   21.7982 C   0  0  0  0  0  0  0  0  0  0  0  0
   12.8080    0.8642   22.6460 C   0  0  0  0  0  0  0  0  0  0  0  0
    9.4804    0.6046   23.9517 C   0  0  0  0  0  0  0  0  0  0  0  0
   11.4799    0.4896   22.4424 C   0  0  0  0  0  0  0  0  0  0  0  0
   10.9822    2.7167   23.5129 C   0  0  0  0  0  0  0  0  0  0  0  0
    9.4191    1.9108   21.7562 C   0  0  0  0  0  0  0  0  0  0  0  0
    9.9953    3.8238   23.8852 C   0  0  0  0  0  0  0  0  0  0  0  0
    8.4042    2.9722   22.1680 C   0  0  0  0  0  0  0  0  0  0  0  0
   10.3282    1.4123   22.9338 C   0  0  0  0  0  0  0  0  0  0  0  0
    7.4461    5.6374   21.7140 C   0  0  0  0  0  0  0  0  0  0  0  0
    7.2564    4.8566   24.1040 C   0  0  0  0  0  0  0  0  0  0  0  0
    9.0559    6.4985   23.4532 C   0  0  0  0  0  0  0  0  0  0  0  0
    8.2075    5.3119   22.9981 C   0  0  0  0  0  0  0  0  0  0  0  0
    9.1405    4.1710   22.6994 N   0  3  0  0  0  0  0  0  0  0  0  0
    7.3615   -1.4134   26.4934 H   0  0  0  0  0  0  0  0  0  0  0  0
   14.3509   -1.8089   21.2191 H   0  0  0  0  0  0  0  0  0  0  0  0
    9.7684   -1.0034   26.9338 H   0  0  0  0  0  0  0  0  0  0  0  0
    6.3112   -0.5317   24.4253 H   0  0  0  0  0  0  0  0  0  0  0  0
   11.9887   -2.4749   20.8569 H   0  0  0  0  0  0  0  0  0  0  0  0
   14.8752    0.3288   22.3650 H   0  0  0  0  0  0  0  0  0  0  0  0
   11.1245    0.2838   25.3157 H   0  0  0  0  0  0  0  0  0  0  0  0
    7.6586    0.7565   22.8011 H   0  0  0  0  0  0  0  0  0  0  0  0
   10.1533   -1.0119   21.6350 H   0  0  0  0  0  0  0  0  0  0  0  0
   13.0472    1.7986   23.1469 H   0  0  0  0  0  0  0  0  0  0  0  0
   11.6968    3.1211   22.7815 H   0  0  0  0  0  0  0  0  0  0  0  0
   11.5759    2.4659   24.4027 H   0  0  0  0  0  0  0  0  0  0  0  0
    8.8751    1.0568   21.3298 H   0  0  0  0  0  0  0  0  0  0  0  0
   10.0442    2.3053   20.9424 H   0  0  0  0  0  0  0  0  0  0  0  0
    9.3307    3.5203   24.7016 H   0  0  0  0  0  0  0  0  0  0  0  0
   10.5342    4.7312   24.1783 H   0  0  0  0  0  0  0  0  0  0  0  0
    7.8281    3.3030   21.2973 H   0  0  0  0  0  0  0  0  0  0  0  0
    7.7161    2.6218   22.9448 H   0  0  0  0  0  0  0  0  0  0  0  0
    8.1254    5.9644   20.9185 H   0  0  0  0  0  0  0  0  0  0  0  0
    6.9042    4.7584   21.3475 H   0  0  0  0  0  0  0  0  0  0  0  0
    6.7132    6.4362   21.8753 H   0  0  0  0  0  0  0  0  0  0  0  0
    7.7991    4.6223   25.0268 H   0  0  0  0  0  0  0  0  0  0  0  0
    6.6996    3.9600   23.8086 H   0  0  0  0  0  0  0  0  0  0  0  0
    6.5259    5.6391   24.3379 H   0  0  0  0  0  0  0  0  0  0  0  0
    9.6036    6.2687   24.3743 H   0  0  0  0  0  0  0  0  0  0  0  0
    9.7920    6.7689   22.6878 H   0  0  0  0  0  0  0  0  0  0  0  0
    8.4367    7.3822   23.6457 H   0  0  0  0  0  0  0  0  0  0  0  0
    9.7703    4.4990   21.9541 H   0  0  0  0  0  0  0  0  0  0  0  0
  1  3  1  0  0  0  0
  1  4  2  0  0  0  0
  2  5  1  0  0  0  0
  2  6  2  0  0  0  0
  3  7  2  0  0  0  0
  4  8  1  0  0  0  0
  5  9  2  0  0  0  0
  6 10  1  0  0  0  0
  7 11  1  0  0  0  0
  8 11  2  0  0  0  0
  9 12  1  0  0  0  0
 10 12  2  0  0  0  0
 11 17  1  0  0  0  0
 12 17  1  0  0  0  0
 13 15  1  0  0  0  0
 13 17  1  0  0  0  0
 14 16  1  0  0  0  0
 14 17  1  0  0  0  0
 15 22  1  0  0  0  0
 16 22  1  0  0  0  0
 18 21  1  0  0  0  0
 19 21  1  0  0  0  0
 20 21  1  0  0  0  0
 21 22  1  0  0  0  0
  1 23  1  0  0  0  0
  2 24  1  0  0  0  0
  3 25  1  0  0  0  0
  4 26  1  0  0  0  0
  5 27  1  0  0  0  0
  6 28  1  0  0  0  0
  7 29  1  0  0  0  0
  8 30  1  0  0  0  0
  9 31  1  0  0  0  0
 10 32  1  0  0  0  0
 13 33  1  0  0  0  0
 13 34  1  0  0  0  0
 14 35  1  0  0  0  0
 14 36  1  0  0  0  0
 15 37  1  0  0  0  0
 15 38  1  0  0  0  0
 16 39  1  0  0  0  0
 16 40  1  0  0  0  0
 18 41  1  0  0  0  0
 18 42  1  0  0  0  0
 18 43  1  0  0  0  0
 19 44  1  0  0  0  0
 19 45  1  0  0  0  0
 19 46  1  0  0  0  0
 20 47  1  0  0  0  0
 20 48  1  0  0  0  0
 20 49  1  0  0  0  0
 22 50  1  0  0  0  0
M  CHG  1  22   1
M  END
> <Hybrid2>
-8.571699

> <docked_fragment>
x0874

> <Mpro-_dock>
0.347899

> <site>
active-noncovalent

$$$$
CHEMBL1395071
  -OEChem-04122014263D

 25 25  0     1  0  0  0  0  0999 V2000
   14.3282   -0.9899   23.4880 C   0  0  0  0  0  0  0  0  0  0  0  0
   13.5086   -0.3264   24.4010 C   0  0  0  0  0  0  0  0  0  0  0  0
   13.7803   -1.9259   22.6107 C   0  0  0  0  0  0  0  0  0  0  0  0
   12.1411   -0.5989   24.4369 C   0  0  0  0  0  0  0  0  0  0  0  0
   12.4128   -2.1984   22.6466 C   0  0  0  0  0  0  0  0  0  0  0  0
   11.5931   -1.5349   23.5597 C   0  0  0  0  0  0  0  0  0  0  0  0
    9.2830    0.0772   21.4028 C   0  0  0  0  0  0  0  0  0  0  0  0
    8.0282   -2.5165   22.2965 C   0  0  0  0  0  0  0  0  0  0  0  0
   10.1129   -1.8305   23.5982 C   0  0  0  0  0  0  0  0  0  0  0  0
    9.5323   -2.2497   22.2353 C   0  0  2  0  0  0  0  0  0  0  0  0
    9.7729   -1.1885   21.2530 N   0  0  0  0  0  0  0  0  0  0  0  0
    9.4141    1.0411   20.6595 O   0  0  0  0  0  0  0  0  0  0  0  0
   15.3928   -0.7766   23.4592 H   0  0  0  0  0  0  0  0  0  0  0  0
   13.9349    0.4032   25.0833 H   0  0  0  0  0  0  0  0  0  0  0  0
   14.4179   -2.4418   21.8990 H   0  0  0  0  0  0  0  0  0  0  0  0
   11.5102   -0.0773   25.1518 H   0  0  0  0  0  0  0  0  0  0  0  0
   11.9947   -2.9292   21.9595 H   0  0  0  0  0  0  0  0  0  0  0  0
    8.7085    0.1459   22.3413 H   0  0  0  0  0  0  0  0  0  0  0  0
    7.4884   -1.6313   22.6521 H   0  0  0  0  0  0  0  0  0  0  0  0
    7.7932   -3.3478   22.9708 H   0  0  0  0  0  0  0  0  0  0  0  0
    7.6295   -2.7608   21.3066 H   0  0  0  0  0  0  0  0  0  0  0  0
    9.9083   -2.6044   24.3503 H   0  0  0  0  0  0  0  0  0  0  0  0
    9.6048   -0.9263   23.9611 H   0  0  0  0  0  0  0  0  0  0  0  0
   10.0314   -3.1572   21.8762 H   0  0  0  0  0  0  0  0  0  0  0  0
   10.3204   -1.4012   20.4365 H   0  0  0  0  0  0  0  0  0  0  0  0
  1  2  1  0  0  0  0
  1  3  2  0  0  0  0
  2  4  2  0  0  0  0
  3  5  1  0  0  0  0
  4  6  1  0  0  0  0
  5  6  2  0  0  0  0
  6  9  1  0  0  0  0
  7 11  1  0  0  0  0
  7 12  2  0  0  0  0
  8 10  1  0  0  0  0
  9 10  1  0  0  0  0
 10 11  1  0  0  0  0
  1 13  1  0  0  0  0
  2 14  1  0  0  0  0
  3 15  1  0  0  0  0
  4 16  1  0  0  0  0
  5 17  1  0  0  0  0
  7 18  1  0  0  0  0
  8 19  1  0  0  0  0
  8 20  1  0  0  0  0
  8 21  1  0  0  0  0
  9 22  1  0  0  0  0
  9 23  1  0  0  0  0
 10 24  1  0  0  0  0
 11 25  1  0  0  0  0
M  END
> <Hybrid2>
-8.564754

> <docked_fragment>
x0678

> <Mpro-_dock>
0.354173

> <site>
active-noncovalent

$$$$
CHEMBL18098
  -OEChem-04122014263D

 25 27  0     0  0  0  0  0  0999 V2000
   11.5737   -3.2604   25.1881 C   0  0  0  0  0  0  0  0  0  0  0  0
   10.8396   -4.4364   25.0003 C   0  0  0  0  0  0  0  0  0  0  0  0
   10.2370   -2.0835   23.5215 C   0  0  0  0  0  0  0  0  0  0  0  0
    9.5311   -3.2569   23.3579 C   0  0  0  0  0  0  0  0  0  0  0  0
   11.2749   -2.0949   24.4553 C   0  0  0  0  0  0  0  0  0  0  0  0
    9.8164   -4.4134   24.0750 C   0  0  0  0  0  0  0  0  0  0  0  0
    8.4167   -3.5622   22.4817 C   0  0  0  0  0  0  0  0  0  0  0  0
   12.0576   -0.8885   24.6752 C   0  0  0  0  0  0  0  0  0  0  0  0
    7.6533   -5.9269   21.6897 C   0  0  0  0  0  0  0  0  0  0  0  0
    6.6915   -5.4974   22.7645 C   0  0  0  0  0  0  0  0  0  0  0  0
    8.0946   -4.9725   22.7567 C   0  0  0  0  0  0  0  0  0  0  0  0
   13.5334   -0.9623   24.4119 C   0  0  0  0  0  0  0  0  0  0  0  0
    7.8632   -2.8251   21.6913 O   0  0  0  0  0  0  0  0  0  0  0  0
   11.6012    0.1878   25.0658 O   0  0  0  0  0  0  0  0  0  0  0  0
    9.0060   -5.4858   23.7774 O   0  0  0  0  0  0  0  0  0  0  0  0
   12.3845   -3.2558   25.9135 H   0  0  0  0  0  0  0  0  0  0  0  0
   11.0722   -5.3310   25.5669 H   0  0  0  0  0  0  0  0  0  0  0  0
    9.9954   -1.1944   22.9498 H   0  0  0  0  0  0  0  0  0  0  0  0
    8.0267   -6.9431   21.7253 H   0  0  0  0  0  0  0  0  0  0  0  0
    7.4898   -5.5462   20.6889 H   0  0  0  0  0  0  0  0  0  0  0  0
    5.8868   -4.8306   22.4799 H   0  0  0  0  0  0  0  0  0  0  0  0
    6.4217   -6.2261   23.5192 H   0  0  0  0  0  0  0  0  0  0  0  0
   13.8161   -0.7085   23.3780 H   0  0  0  0  0  0  0  0  0  0  0  0
   13.9651   -1.9493   24.6395 H   0  0  0  0  0  0  0  0  0  0  0  0
   14.1209   -0.2563   25.0254 H   0  0  0  0  0  0  0  0  0  0  0  0
  1  2  2  0  0  0  0
  1  5  1  0  0  0  0
  2  6  1  0  0  0  0
  3  4  1  0  0  0  0
  3  5  2  0  0  0  0
  4  6  2  0  0  0  0
  4  7  1  0  0  0  0
  5  8  1  0  0  0  0
  6 15  1  0  0  0  0
  7 11  1  0  0  0  0
  7 13  2  0  0  0  0
  8 12  1  0  0  0  0
  8 14  2  0  0  0  0
  9 10  1  0  0  0  0
  9 11  1  0  0  0  0
 10 11  1  0  0  0  0
 11 15  1  0  0  0  0
  1 16  1  0  0  0  0
  2 17  1  0  0  0  0
  3 18  1  0  0  0  0
  9 19  1  0  0  0  0
  9 20  1  0  0  0  0
 10 21  1  0  0  0  0
 10 22  1  0  0  0  0
 12 23  1  0  0  0  0
 12 24  1  0  0  0  0
 12 25  1  0  0  0  0
M  END
> <Hybrid2>
-8.561432

> <docked_fragment>
x0749

> <Mpro-_dock>
-0.034877

> <site>
active-covalent

$$$$
CHEMBL673
  -OEChem-04122014263D

 26 26  0     1  0  0  0  0  0999 V2000
    6.7387    0.3070   21.4516 C   0  0  0  0  0  0  0  0  0  0  0  0
    7.7320    0.2400   20.7806 C   0  0  0  0  0  0  0  0  0  0  0  0
   14.0237   -1.5032   23.6861 C   0  0  0  0  0  0  0  0  0  0  0  0
   13.3387   -0.4500   24.2920 C   0  0  0  0  0  0  0  0  0  0  0  0
   13.6470   -1.9417   22.4167 C   0  0  0  0  0  0  0  0  0  0  0  0
   12.2769    0.1647   23.6284 C   0  0  0  0  0  0  0  0  0  0  0  0
   12.5851   -1.3271   21.7532 C   0  0  0  0  0  0  0  0  0  0  0  0
   11.9000   -0.2738   22.3590 C   0  0  0  0  0  0  0  0  0  0  0  0
    9.5081   -1.7577   21.4410 C   0  0  0  0  0  0  0  0  0  0  0  0
    8.9379    0.1615   19.9603 C   0  0  0  0  0  0  0  0  0  0  0  0
   10.7578    0.3867   21.6448 C   0  0  0  0  0  0  0  0  0  0  0  0
   10.0236   -0.5437   20.7221 N   0  3  1  0  0  0  0  0  0  0  0  0
    5.8580    0.3663   22.0472 H   0  0  0  0  0  0  0  0  0  0  0  0
   14.8514   -1.9809   24.2024 H   0  0  0  0  0  0  0  0  0  0  0  0
   13.6326   -0.1077   25.2799 H   0  0  0  0  0  0  0  0  0  0  0  0
   14.1808   -2.7610   21.9442 H   0  0  0  0  0  0  0  0  0  0  0  0
   11.7487    0.9845   24.1083 H   0  0  0  0  0  0  0  0  0  0  0  0
   12.2985   -1.6755   20.7644 H   0  0  0  0  0  0  0  0  0  0  0  0
    8.7803   -1.4227   22.1823 H   0  0  0  0  0  0  0  0  0  0  0  0
    9.0424   -2.4115   20.7011 H   0  0  0  0  0  0  0  0  0  0  0  0
   10.3578   -2.2487   21.9192 H   0  0  0  0  0  0  0  0  0  0  0  0
    9.3245    1.1518   19.7053 H   0  0  0  0  0  0  0  0  0  0  0  0
    8.7729   -0.4116   19.0439 H   0  0  0  0  0  0  0  0  0  0  0  0
   10.0186    0.7745   22.3540 H   0  0  0  0  0  0  0  0  0  0  0  0
   11.1061    1.2261   21.0334 H   0  0  0  0  0  0  0  0  0  0  0  0
   10.7070   -0.8760   20.0283 H   0  0  0  0  0  0  0  0  0  0  0  0
  1  2  3  0  0  0  0
  2 10  1  0  0  0  0
  3  4  1  0  0  0  0
  3  5  2  0  0  0  0
  4  6  2  0  0  0  0
  5  7  1  0  0  0  0
  6  8  1  0  0  0  0
  7  8  2  0  0  0  0
  8 11  1  0  0  0  0
  9 12  1  0  0  0  0
 10 12  1  0  0  0  0
 11 12  1  0  0  0  0
  1 13  1  0  0  0  0
  3 14  1  0  0  0  0
  4 15  1  0  0  0  0
  5 16  1  0  0  0  0
  6 17  1  0  0  0  0
  7 18  1  0  0  0  0
  9 19  1  0  0  0  0
  9 20  1  0  0  0  0
  9 21  1  0  0  0  0
 10 22  1  0  0  0  0
 10 23  1  0  0  0  0
 11 24  1  0  0  0  0
 11 25  1  0  0  0  0
 12 26  1  0  0  0  0
M  CHG  1  12   1
M  END
> <Hybrid2>
-8.553005

> <docked_fragment>
x0678

> <Mpro-_dock>
-0.092448

> <site>
active-noncovalent

$$$$
CHEMBL1096
  -OEChem-04122014263D

 35 37  0     0  0  0  0  0  0999 V2000
   10.5231   -1.1323   22.1072 C   0  0  0  0  0  0  0  0  0  0  0  0
    9.5085   -2.0878   22.0341 C   0  0  0  0  0  0  0  0  0  0  0  0
    7.2103   -4.4275   26.5441 C   0  0  0  0  0  0  0  0  0  0  0  0
   10.4831   -1.2629   24.5213 C   0  0  0  0  0  0  0  0  0  0  0  0
    7.8290   -3.8037   25.4628 C   0  0  0  0  0  0  0  0  0  0  0  0
    9.4674   -2.2190   24.4423 C   0  0  0  0  0  0  0  0  0  0  0  0
    6.2102   -5.3616   26.3056 C   0  0  0  0  0  0  0  0  0  0  0  0
   11.0093   -0.7210   23.3485 C   0  0  0  0  0  0  0  0  0  0  0  0
    8.9778   -2.6340   23.2045 C   0  0  0  0  0  0  0  0  0  0  0  0
    5.8737   -5.6301   24.9894 C   0  0  0  0  0  0  0  0  0  0  0  0
    7.4290   -4.1330   24.1750 C   0  0  0  0  0  0  0  0  0  0  0  0
    8.8912   -2.8088   25.6590 C   0  0  0  0  0  0  0  0  0  0  0  0
    5.5499   -6.0276   27.4416 C   0  0  0  0  0  0  0  0  0  0  0  0
   13.3759   -0.2472   24.0753 C   0  0  0  0  0  0  0  0  0  0  0  0
   11.6449    1.5841   24.1464 C   0  0  0  0  0  0  0  0  0  0  0  0
   12.0933    0.3009   23.4217 C   0  0  0  0  0  0  0  0  0  0  0  0
    6.4573   -5.0399   23.9213 N   0  0  0  0  0  0  0  0  0  0  0  0
    4.8540   -6.5824   24.7393 N   0  0  0  0  0  0  0  0  0  0  0  0
    4.4980   -5.4865   27.9495 O   0  5  0  0  0  0  0  0  0  0  0  0
    9.2741   -2.4888   26.7744 O   0  0  0  0  0  0  0  0  0  0  0  0
    6.0474   -7.1278   27.8879 O   0  0  0  0  0  0  0  0  0  0  0  0
    7.9831   -3.5676   23.0491 O   0  0  0  0  0  0  0  0  0  0  0  0
   10.9288   -0.7138   21.1897 H   0  0  0  0  0  0  0  0  0  0  0  0
    9.1381   -2.4022   21.0622 H   0  0  0  0  0  0  0  0  0  0  0  0
    7.5007   -4.1909   27.5644 H   0  0  0  0  0  0  0  0  0  0  0  0
   10.8671   -0.9361   25.4840 H   0  0  0  0  0  0  0  0  0  0  0  0
   13.1925   -0.5872   25.1004 H   0  0  0  0  0  0  0  0  0  0  0  0
   14.1628    0.5140   24.1136 H   0  0  0  0  0  0  0  0  0  0  0  0
   13.7616   -1.0996   23.5049 H   0  0  0  0  0  0  0  0  0  0  0  0
   11.3395    1.3563   25.1738 H   0  0  0  0  0  0  0  0  0  0  0  0
   10.7944    2.0535   23.6402 H   0  0  0  0  0  0  0  0  0  0  0  0
   12.4521    2.3233   24.1940 H   0  0  0  0  0  0  0  0  0  0  0  0
   12.3828    0.6144   22.4006 H   0  0  0  0  0  0  0  0  0  0  0  0
    4.4448   -7.0625   25.5108 H   0  0  0  0  0  0  0  0  0  0  0  0
    4.6370   -6.8175   23.7955 H   0  0  0  0  0  0  0  0  0  0  0  0
  1  2  2  0  0  0  0
  1  8  1  0  0  0  0
  2  9  1  0  0  0  0
  3  5  1  0  0  0  0
  3  7  2  0  0  0  0
  4  6  1  0  0  0  0
  4  8  2  0  0  0  0
  5 11  2  0  0  0  0
  5 12  1  0  0  0  0
  6  9  2  0  0  0  0
  6 12  1  0  0  0  0
  7 10  1  0  0  0  0
  7 13  1  0  0  0  0
  8 16  1  0  0  0  0
  9 22  1  0  0  0  0
 10 17  2  0  0  0  0
 10 18  1  0  0  0  0
 11 17  1  0  0  0  0
 11 22  1  0  0  0  0
 12 20  2  0  0  0  0
 13 19  1  0  0  0  0
 13 21  2  0  0  0  0
 14 16  1  0  0  0  0
 15 16  1  0  0  0  0
  1 23  1  0  0  0  0
  2 24  1  0  0  0  0
  3 25  1  0  0  0  0
  4 26  1  0  0  0  0
 14 27  1  0  0  0  0
 14 28  1  0  0  0  0
 14 29  1  0  0  0  0
 15 30  1  0  0  0  0
 15 31  1  0  0  0  0
 15 32  1  0  0  0  0
 16 33  1  0  0  0  0
 18 34  1  0  0  0  0
 18 35  1  0  0  0  0
M  CHG  1  19  -1
M  END
> <Hybrid2>
-8.547929

> <docked_fragment>
x0072

> <Mpro-_dock>
2.276912

> <site>
active-noncovalent

$$$$
CHEMBL554474
  -OEChem-04122014263D

 51 53  0     0  0  0  0  0  0999 V2000
   11.7630    5.0160   23.2895 C   0  0  0  0  0  0  0  0  0  0  0  0
   12.6300    3.9692   22.9765 C   0  0  0  0  0  0  0  0  0  0  0  0
   10.4839    4.7412   23.7734 C   0  0  0  0  0  0  0  0  0  0  0  0
   12.2180    2.6476   23.1473 C   0  0  0  0  0  0  0  0  0  0  0  0
   10.0719    3.4196   23.9442 C   0  0  0  0  0  0  0  0  0  0  0  0
    9.9624   -2.1801   22.3546 C   0  0  0  0  0  0  0  0  0  0  0  0
    9.5560   -3.4928   22.5860 C   0  0  0  0  0  0  0  0  0  0  0  0
    8.5812   -1.4558   24.1819 C   0  0  0  0  0  0  0  0  0  0  0  0
   10.9389    2.3727   23.6312 C   0  0  0  0  0  0  0  0  0  0  0  0
    9.4681   -1.1590   23.1487 C   0  0  0  0  0  0  0  0  0  0  0  0
    8.6430   -3.8195   23.6140 C   0  0  0  0  0  0  0  0  0  0  0  0
    8.1677   -2.7799   24.4510 C   0  0  0  0  0  0  0  0  0  0  0  0
   10.5134    1.0099   23.8074 C   0  0  0  0  0  0  0  0  0  0  0  0
    9.8710    0.2167   22.9030 C   0  0  0  0  0  0  0  0  0  0  0  0
    7.0007   -5.4137   24.7317 C   0  0  0  0  0  0  0  0  0  0  0  0
    7.1183   -4.5371   25.9671 C   0  0  0  0  0  0  0  0  0  0  0  0
    8.2345   -5.2850   23.8111 C   0  0  0  0  0  0  0  0  0  0  0  0
    7.1926   -3.0366   25.6071 C   0  0  0  0  0  0  0  0  0  0  0  0
    9.5535    0.7667   21.5256 C   0  0  0  0  0  0  0  0  0  0  0  0
    9.4277   -6.0535   24.4214 C   0  0  0  0  0  0  0  0  0  0  0  0
    7.8534   -5.9626   22.4732 C   0  0  0  0  0  0  0  0  0  0  0  0
    7.6210   -2.2987   26.8981 C   0  0  0  0  0  0  0  0  0  0  0  0
    5.7937   -2.5248   25.1975 C   0  0  0  0  0  0  0  0  0  0  0  0
   12.0842    6.0450   23.1577 H   0  0  0  0  0  0  0  0  0  0  0  0
   13.6265    4.1830   22.6008 H   0  0  0  0  0  0  0  0  0  0  0  0
    9.8091    5.5562   24.0183 H   0  0  0  0  0  0  0  0  0  0  0  0
   12.9052    1.8422   22.8988 H   0  0  0  0  0  0  0  0  0  0  0  0
    9.0717    3.2216   24.3223 H   0  0  0  0  0  0  0  0  0  0  0  0
   10.6676   -1.9764   21.5527 H   0  0  0  0  0  0  0  0  0  0  0  0
    9.9632   -4.2665   21.9401 H   0  0  0  0  0  0  0  0  0  0  0  0
    8.2099   -0.6374   24.7957 H   0  0  0  0  0  0  0  0  0  0  0  0
   10.7281    0.5920   24.7909 H   0  0  0  0  0  0  0  0  0  0  0  0
    6.8628   -6.4576   25.0407 H   0  0  0  0  0  0  0  0  0  0  0  0
    6.0894   -5.1429   24.1828 H   0  0  0  0  0  0  0  0  0  0  0  0
    6.2641   -4.7285   26.6290 H   0  0  0  0  0  0  0  0  0  0  0  0
    8.0088   -4.8339   26.5365 H   0  0  0  0  0  0  0  0  0  0  0  0
    8.5635    1.2342   21.5141 H   0  0  0  0  0  0  0  0  0  0  0  0
    9.5660   -0.0414   20.7860 H   0  0  0  0  0  0  0  0  0  0  0  0
   10.2745    1.5214   21.1926 H   0  0  0  0  0  0  0  0  0  0  0  0
    9.1418   -7.0877   24.5614 H   0  0  0  0  0  0  0  0  0  0  0  0
    9.6813   -5.6053   25.3731 H   0  0  0  0  0  0  0  0  0  0  0  0
   10.2684   -5.9881   23.7432 H   0  0  0  0  0  0  0  0  0  0  0  0
    7.5742   -6.9909   22.6668 H   0  0  0  0  0  0  0  0  0  0  0  0
    8.7066   -5.9298   21.8070 H   0  0  0  0  0  0  0  0  0  0  0  0
    7.0197   -5.4289   22.0337 H   0  0  0  0  0  0  0  0  0  0  0  0
    6.9027   -2.5121   27.6798 H   0  0  0  0  0  0  0  0  0  0  0  0
    7.6489   -1.2341   26.7015 H   0  0  0  0  0  0  0  0  0  0  0  0
    8.6033   -2.6469   27.1924 H   0  0  0  0  0  0  0  0  0  0  0  0
    5.1039   -2.7048   26.0116 H   0  0  0  0  0  0  0  0  0  0  0  0
    5.4723   -3.0582   24.3126 H   0  0  0  0  0  0  0  0  0  0  0  0
    5.8568   -1.4644   24.9907 H   0  0  0  0  0  0  0  0  0  0  0  0
  1  2  1  0  0  0  0
  1  3  2  0  0  0  0
  2  4  2  0  0  0  0
  3  5  1  0  0  0  0
  4  9  1  0  0  0  0
  5  9  2  0  0  0  0
  6  7  2  0  0  0  0
  6 10  1  0  0  0  0
  7 11  1  0  0  0  0
  8 10  2  0  0  0  0
  8 12  1  0  0  0  0
  9 13  1  0  0  0  0
 10 14  1  0  0  0  0
 11 12  2  0  0  0  0
 11 17  1  0  0  0  0
 12 18  1  0  0  0  0
 13 14  2  0  0  0  0
 14 19  1  0  0  0  0
 15 16  1  0  0  0  0
 15 17  1  0  0  0  0
 16 18  1  0  0  0  0
 17 20  1  0  0  0  0
 17 21  1  0  0  0  0
 18 22  1  0  0  0  0
 18 23  1  0  0  0  0
  1 24  1  0  0  0  0
  2 25  1  0  0  0  0
  3 26  1  0  0  0  0
  4 27  1  0  0  0  0
  5 28  1  0  0  0  0
  6 29  1  0  0  0  0
  7 30  1  0  0  0  0
  8 31  1  0  0  0  0
 13 32  1  0  0  0  0
 15 33  1  0  0  0  0
 15 34  1  0  0  0  0
 16 35  1  0  0  0  0
 16 36  1  0  0  0  0
 19 37  1  0  0  0  0
 19 38  1  0  0  0  0
 19 39  1  0  0  0  0
 20 40  1  0  0  0  0
 20 41  1  0  0  0  0
 20 42  1  0  0  0  0
 21 43  1  0  0  0  0
 21 44  1  0  0  0  0
 21 45  1  0  0  0  0
 22 46  1  0  0  0  0
 22 47  1  0  0  0  0
 22 48  1  0  0  0  0
 23 49  1  0  0  0  0
 23 50  1  0  0  0  0
 23 51  1  0  0  0  0
M  END
> <Hybrid2>
-8.545802

> <docked_fragment>
x1077

> <Mpro-_dock>
0.878044

> <site>
active-noncovalent

$$$$
CHEMBL3545237
  -OEChem-04122014263D

 55 58  0     1  0  0  0  0  0999 V2000
    6.3390   -6.2471   20.6651 C   0  0  0  0  0  0  0  0  0  0  0  0
    6.4407   -5.1921   21.2287 C   0  0  0  0  0  0  0  0  0  0  0  0
   10.2927   -0.3300   25.5102 C   0  0  0  0  0  0  0  0  0  0  0  0
    9.1735   -0.6545   24.5249 C   0  0  0  0  0  0  0  0  0  0  0  0
    7.9877   -1.9065   21.9884 C   0  0  0  0  0  0  0  0  0  0  0  0
    9.8418   -4.4766   24.0323 C   0  0  0  0  0  0  0  0  0  0  0  0
   13.8680   -2.9010   25.5743 C   0  0  0  0  0  0  0  0  0  0  0  0
    7.2494   -2.8514   21.0311 C   0  0  0  0  0  0  0  0  0  0  0  0
    8.7740   -4.7440   22.9704 C   0  0  0  0  0  0  0  0  0  0  0  0
   12.6581   -3.3399   24.7464 C   0  0  0  0  0  0  0  0  0  0  0  0
   12.7470   -0.6753   26.0310 C   0  0  0  0  0  0  0  0  0  0  0  0
   11.5620   -1.1129   25.1609 C   0  0  1  0  0  0  0  0  0  0  0  0
    8.8899   -2.1625   24.4252 C   0  0  1  0  0  0  0  0  0  0  0  0
    7.7595   -2.4506   23.4112 C   0  0  2  0  0  0  0  0  0  0  0  0
   10.1813   -2.9786   24.1453 C   0  0  1  0  0  0  0  0  0  0  0  0
   14.0315   -1.3852   25.6059 C   0  0  1  0  0  0  0  0  0  0  0  0
    6.5648   -3.9004   21.9182 C   0  0  2  0  0  0  0  0  0  0  0  0
   11.3280   -2.6574   25.1796 C   0  0  1  0  0  0  0  0  0  0  0  0
    7.4565   -3.9555   23.1971 C   0  0  1  0  0  0  0  0  0  0  0  0
   10.9571   -3.1704   26.5955 C   0  0  0  0  0  0  0  0  0  0  0  0
    6.6953   -4.5431   24.4014 C   0  0  0  0  0  0  0  0  0  0  0  0
   15.0807   -1.0596   26.5117 O   0  0  0  0  0  0  0  0  0  0  0  0
    5.2432   -3.4479   22.2209 O   0  0  0  0  0  0  0  0  0  0  0  0
    6.2489   -7.1832   20.1653 H   0  0  0  0  0  0  0  0  0  0  0  0
   10.4956    0.7472   25.4688 H   0  0  0  0  0  0  0  0  0  0  0  0
    9.9680   -0.5440   26.5346 H   0  0  0  0  0  0  0  0  0  0  0  0
    8.2629   -0.1248   24.8298 H   0  0  0  0  0  0  0  0  0  0  0  0
    9.4540   -0.2560   23.5424 H   0  0  0  0  0  0  0  0  0  0  0  0
    9.0477   -1.8717   21.7172 H   0  0  0  0  0  0  0  0  0  0  0  0
    7.6010   -0.8851   21.9001 H   0  0  0  0  0  0  0  0  0  0  0  0
    9.5019   -4.8725   24.9943 H   0  0  0  0  0  0  0  0  0  0  0  0
   10.7346   -5.0483   23.7577 H   0  0  0  0  0  0  0  0  0  0  0  0
   13.7952   -3.2916   26.5967 H   0  0  0  0  0  0  0  0  0  0  0  0
   14.7782   -3.3552   25.1626 H   0  0  0  0  0  0  0  0  0  0  0  0
    6.5295   -2.2922   20.4220 H   0  0  0  0  0  0  0  0  0  0  0  0
    7.9762   -3.3027   20.3439 H   0  0  0  0  0  0  0  0  0  0  0  0
    9.2087   -4.5023   21.9927 H   0  0  0  0  0  0  0  0  0  0  0  0
    8.5666   -5.8214   22.9489 H   0  0  0  0  0  0  0  0  0  0  0  0
   12.8585   -3.1117   23.6912 H   0  0  0  0  0  0  0  0  0  0  0  0
   12.5754   -4.4304   24.8183 H   0  0  0  0  0  0  0  0  0  0  0  0
   12.8972    0.4087   25.9426 H   0  0  0  0  0  0  0  0  0  0  0  0
   12.5491   -0.8481   27.0956 H   0  0  0  0  0  0  0  0  0  0  0  0
   11.8255   -0.8347   24.1282 H   0  0  0  0  0  0  0  0  0  0  0  0
    8.5025   -2.4748   25.4036 H   0  0  0  0  0  0  0  0  0  0  0  0
    6.8567   -1.9579   23.8014 H   0  0  0  0  0  0  0  0  0  0  0  0
   10.5597   -2.6687   23.1606 H   0  0  0  0  0  0  0  0  0  0  0  0
   14.3332   -1.0358   24.6110 H   0  0  0  0  0  0  0  0  0  0  0  0
   10.0335   -2.6999   26.9025 H   0  0  0  0  0  0  0  0  0  0  0  0
   11.7548   -2.9103   27.2771 H   0  0  0  0  0  0  0  0  0  0  0  0
   10.8350   -4.2436   26.5531 H   0  0  0  0  0  0  0  0  0  0  0  0
    5.7781   -3.9842   24.5490 H   0  0  0  0  0  0  0  0  0  0  0  0
    7.3176   -4.4680   25.2860 H   0  0  0  0  0  0  0  0  0  0  0  0
    6.4637   -5.5833   24.2021 H   0  0  0  0  0  0  0  0  0  0  0  0
   15.1595   -0.0927   26.5093 H   0  0  0  0  0  0  0  0  0  0  0  0
    5.3438   -2.5977   22.6740 H   0  0  0  0  0  0  0  0  0  0  0  0
  1  2  3  0  0  0  0
  2 17  1  0  0  0  0
  3  4  1  0  0  0  0
  3 12  1  0  0  0  0
  4 13  1  0  0  0  0
  5  8  1  0  0  0  0
  5 14  1  0  0  0  0
  6  9  1  0  0  0  0
  6 15  1  0  0  0  0
  7 10  1  0  0  0  0
  7 16  1  0  0  0  0
  8 17  1  0  0  0  0
  9 19  1  0  0  0  0
 10 18  1  0  0  0  0
 11 12  1  0  0  0  0
 11 16  1  0  0  0  0
 12 18  1  0  0  0  0
 13 14  1  0  0  0  0
 13 15  1  0  0  0  0
 14 19  1  0  0  0  0
 15 18  1  0  0  0  0
 16 22  1  0  0  0  0
 17 19  1  0  0  0  0
 17 23  1  0  0  0  0
 18 20  1  0  0  0  0
 19 21  1  0  0  0  0
  1 24  1  0  0  0  0
  3 25  1  0  0  0  0
  3 26  1  0  0  0  0
  4 27  1  0  0  0  0
  4 28  1  0  0  0  0
  5 29  1  0  0  0  0
  5 30  1  0  0  0  0
  6 31  1  0  0  0  0
  6 32  1  0  0  0  0
  7 33  1  0  0  0  0
  7 34  1  0  0  0  0
  8 35  1  0  0  0  0
  8 36  1  0  0  0  0
  9 37  1  0  0  0  0
  9 38  1  0  0  0  0
 10 39  1  0  0  0  0
 10 40  1  0  0  0  0
 11 41  1  0  0  0  0
 11 42  1  0  0  0  0
 12 43  1  0  0  0  0
 13 44  1  0  0  0  0
 14 45  1  0  0  0  0
 15 46  1  0  0  0  0
 16 47  1  0  0  0  0
 20 48  1  0  0  0  0
 20 49  1  0  0  0  0
 20 50  1  0  0  0  0
 21 51  1  0  0  0  0
 21 52  1  0  0  0  0
 21 53  1  0  0  0  0
 22 54  1  0  0  0  0
 23 55  1  0  0  0  0
M  END
> <Hybrid2>
-8.544281

> <docked_fragment>
x0749

> <Mpro-_dock>
5.589543

> <site>
active-covalent

$$$$
DB01552
  -OEChem-04122014263D

 46 47  0     1  0  0  0  0  0999 V2000
   14.9268   -1.7065   23.7841 C   0  0  0  0  0  0  0  0  0  0  0  0
   14.4754   -2.1215   22.5313 C   0  0  0  0  0  0  0  0  0  0  0  0
   14.1526   -0.8358   24.5511 C   0  0  0  0  0  0  0  0  0  0  0  0
   13.2500   -1.6657   22.0453 C   0  0  0  0  0  0  0  0  0  0  0  0
   12.9271   -0.3801   24.0652 C   0  0  0  0  0  0  0  0  0  0  0  0
   12.4758   -0.7950   22.8123 C   0  0  0  0  0  0  0  0  0  0  0  0
   11.3327    1.7507   23.4709 C   0  0  0  0  0  0  0  0  0  0  0  0
   11.3608    0.4728   20.9542 C   0  0  0  0  0  0  0  0  0  0  0  0
   10.0702    0.8975   20.2634 C   0  0  0  0  0  0  0  0  0  0  0  0
    8.8326   -0.9894   21.3470 C   0  0  0  0  0  0  0  0  0  0  0  0
   10.1067   -1.4550   22.0686 C   0  0  1  0  0  0  0  0  0  0  0  0
   11.1268   -0.2927   22.2779 C   0  0  1  0  0  0  0  0  0  0  0  0
   11.5801    3.4029   25.3484 C   0  0  0  0  0  0  0  0  0  0  0  0
    8.7466   -3.2493   23.1547 C   0  0  0  0  0  0  0  0  0  0  0  0
    7.9780    0.0223   19.2360 C   0  0  0  0  0  0  0  0  0  0  0  0
   10.6143    2.6236   24.4730 C   0  0  0  0  0  0  0  0  0  0  0  0
    9.7029   -2.1298   23.3872 C   0  0  0  0  0  0  0  0  0  0  0  0
    9.1983   -0.3119   20.0501 N   0  3  1  0  0  0  0  0  0  0  0  0
   12.4192    2.0016   22.9679 O   0  0  0  0  0  0  0  0  0  0  0  0
   10.5735    0.6400   23.2186 O   0  0  0  0  0  0  0  0  0  0  0  0
   15.8804   -2.0626   24.1629 H   0  0  0  0  0  0  0  0  0  0  0  0
   15.0776   -2.8003   21.9344 H   0  0  0  0  0  0  0  0  0  0  0  0
   14.5032   -0.5134   25.5271 H   0  0  0  0  0  0  0  0  0  0  0  0
   12.9064   -1.9942   21.0679 H   0  0  0  0  0  0  0  0  0  0  0  0
   12.3308    0.2982   24.6697 H   0  0  0  0  0  0  0  0  0  0  0  0
   11.9416   -0.1497   20.2596 H   0  0  0  0  0  0  0  0  0  0  0  0
   11.9579    1.3741   21.1449 H   0  0  0  0  0  0  0  0  0  0  0  0
    9.5010    1.6234   20.8539 H   0  0  0  0  0  0  0  0  0  0  0  0
   10.2882    1.3246   19.2788 H   0  0  0  0  0  0  0  0  0  0  0  0
    8.1996   -1.8475   21.0942 H   0  0  0  0  0  0  0  0  0  0  0  0
    8.2496   -0.2768   21.9415 H   0  0  0  0  0  0  0  0  0  0  0  0
   10.5821   -2.2226   21.4403 H   0  0  0  0  0  0  0  0  0  0  0  0
   12.2353    2.7279   25.9091 H   0  0  0  0  0  0  0  0  0  0  0  0
   12.2071    4.0575   24.7353 H   0  0  0  0  0  0  0  0  0  0  0  0
   11.0416    4.0239   26.0719 H   0  0  0  0  0  0  0  0  0  0  0  0
    7.8474   -2.8615   22.6617 H   0  0  0  0  0  0  0  0  0  0  0  0
    8.4431   -3.7103   24.1006 H   0  0  0  0  0  0  0  0  0  0  0  0
    9.1867   -4.0139   22.5059 H   0  0  0  0  0  0  0  0  0  0  0  0
    7.3832    0.7392   19.8049 H   0  0  0  0  0  0  0  0  0  0  0  0
    8.3145    0.4534   18.2912 H   0  0  0  0  0  0  0  0  0  0  0  0
    7.4235   -0.9032   19.0698 H   0  0  0  0  0  0  0  0  0  0  0  0
    9.9743    3.3244   23.9265 H   0  0  0  0  0  0  0  0  0  0  0  0
    9.9888    1.9838   25.1046 H   0  0  0  0  0  0  0  0  0  0  0  0
   10.6022   -2.5040   23.8777 H   0  0  0  0  0  0  0  0  0  0  0  0
    9.2491   -1.3815   24.0378 H   0  0  0  0  0  0  0  0  0  0  0  0
    9.7408   -0.9873   19.4938 H   0  0  0  0  0  0  0  0  0  0  0  0
  1  2  1  0  0  0  0
  1  3  2  0  0  0  0
  2  4  2  0  0  0  0
  3  5  1  0  0  0  0
  4  6  1  0  0  0  0
  5  6  2  0  0  0  0
  6 12  1  0  0  0  0
  7 16  1  0  0  0  0
  7 19  2  0  0  0  0
  7 20  1  0  0  0  0
  8  9  1  0  0  0  0
  8 12  1  0  0  0  0
  9 18  1  0  0  0  0
 10 11  1  0  0  0  0
 10 18  1  0  0  0  0
 11 12  1  0  0  0  0
 11 17  1  0  0  0  0
 12 20  1  0  0  0  0
 13 16  1  0  0  0  0
 14 17  1  0  0  0  0
 15 18  1  0  0  0  0
  1 21  1  0  0  0  0
  2 22  1  0  0  0  0
  3 23  1  0  0  0  0
  4 24  1  0  0  0  0
  5 25  1  0  0  0  0
  8 26  1  0  0  0  0
  8 27  1  0  0  0  0
  9 28  1  0  0  0  0
  9 29  1  0  0  0  0
 10 30  1  0  0  0  0
 10 31  1  0  0  0  0
 11 32  1  0  0  0  0
 13 33  1  0  0  0  0
 13 34  1  0  0  0  0
 13 35  1  0  0  0  0
 14 36  1  0  0  0  0
 14 37  1  0  0  0  0
 14 38  1  0  0  0  0
 15 39  1  0  0  0  0
 15 40  1  0  0  0  0
 15 41  1  0  0  0  0
 16 42  1  0  0  0  0
 16 43  1  0  0  0  0
 17 44  1  0  0  0  0
 17 45  1  0  0  0  0
 18 46  1  0  0  0  0
M  CHG  1  18   1
M  END
> <Hybrid2>
-8.538467

> <docked_fragment>
x0678

> <Mpro-_dock>
1.003063

> <site>
active-noncovalent

$$$$
CHEMBL1619758
  -OEChem-04122014263D

 31 32  0     1  0  0  0  0  0999 V2000
   13.0864   -1.2722   23.0633 C   0  0  0  0  0  0  0  0  0  0  0  0
   13.4746   -0.2235   23.8948 C   0  0  0  0  0  0  0  0  0  0  0  0
   11.8400   -1.8887   23.2223 C   0  0  0  0  0  0  0  0  0  0  0  0
   12.6326    0.2419   24.9089 C   0  0  0  0  0  0  0  0  0  0  0  0
    9.3321   -1.0028   25.7295 C   0  0  0  0  0  0  0  0  0  0  0  0
   10.9742   -1.4367   24.2380 C   0  0  0  0  0  0  0  0  0  0  0  0
    9.6741   -1.8167   24.6744 C   0  0  0  0  0  0  0  0  0  0  0  0
   11.3897   -0.3840   25.0562 C   0  0  0  0  0  0  0  0  0  0  0  0
    8.9183   -4.8594   26.4345 C   0  0  0  0  0  0  0  0  0  0  0  0
    8.8197   -2.9097   24.0961 C   0  0  0  0  0  0  0  0  0  0  0  0
    7.9971   -3.6481   26.3743 C   0  0  0  0  0  0  0  0  0  0  0  0
    7.5872   -3.2533   24.9489 C   0  0  1  0  0  0  0  0  0  0  0  0
   10.3730   -0.1417   25.9522 N   0  0  0  0  0  0  0  0  0  0  0  0
    6.6899   -2.0614   25.0081 N   0  3  0  0  0  0  0  0  0  0  0  0
   13.7582   -1.6162   22.2815 H   0  0  0  0  0  0  0  0  0  0  0  0
   14.4472    0.2408   23.7536 H   0  0  0  0  0  0  0  0  0  0  0  0
   11.5516   -2.7045   22.5655 H   0  0  0  0  0  0  0  0  0  0  0  0
   12.9361    1.0575   25.5563 H   0  0  0  0  0  0  0  0  0  0  0  0
    8.4415   -0.9572   26.3412 H   0  0  0  0  0  0  0  0  0  0  0  0
    8.4282   -5.7251   25.9773 H   0  0  0  0  0  0  0  0  0  0  0  0
    9.1620   -5.1167   27.4701 H   0  0  0  0  0  0  0  0  0  0  0  0
    9.8512   -4.6851   25.8907 H   0  0  0  0  0  0  0  0  0  0  0  0
    9.4223   -3.8126   23.9278 H   0  0  0  0  0  0  0  0  0  0  0  0
    8.4881   -2.5884   23.0989 H   0  0  0  0  0  0  0  0  0  0  0  0
    8.5196   -2.8031   26.8399 H   0  0  0  0  0  0  0  0  0  0  0  0
    7.1079   -3.8436   26.9865 H   0  0  0  0  0  0  0  0  0  0  0  0
    6.9977   -4.0535   24.4867 H   0  0  0  0  0  0  0  0  0  0  0  0
   10.3930    0.5691   26.6704 H   0  0  0  0  0  0  0  0  0  0  0  0
    6.2751   -1.9721   25.9381 H   0  0  0  0  0  0  0  0  0  0  0  0
    5.9352   -2.1486   24.3239 H   0  0  0  0  0  0  0  0  0  0  0  0
    7.2150   -1.2083   24.8043 H   0  0  0  0  0  0  0  0  0  0  0  0
  1  2  2  0  0  0  0
  1  3  1  0  0  0  0
  2  4  1  0  0  0  0
  3  6  2  0  0  0  0
  4  8  2  0  0  0  0
  5  7  2  0  0  0  0
  5 13  1  0  0  0  0
  6  7  1  0  0  0  0
  6  8  1  0  0  0  0
  7 10  1  0  0  0  0
  8 13  1  0  0  0  0
  9 11  1  0  0  0  0
 10 12  1  0  0  0  0
 11 12  1  0  0  0  0
 12 14  1  0  0  0  0
  1 15  1  0  0  0  0
  2 16  1  0  0  0  0
  3 17  1  0  0  0  0
  4 18  1  0  0  0  0
  5 19  1  0  0  0  0
  9 20  1  0  0  0  0
  9 21  1  0  0  0  0
  9 22  1  0  0  0  0
 10 23  1  0  0  0  0
 10 24  1  0  0  0  0
 11 25  1  0  0  0  0
 11 26  1  0  0  0  0
 12 27  1  0  0  0  0
 13 28  1  0  0  0  0
 14 29  1  0  0  0  0
 14 30  1  0  0  0  0
 14 31  1  0  0  0  0
M  CHG  1  14   1
M  END
> <Hybrid2>
-8.530258

> <docked_fragment>
x0072

> <Mpro-_dock>
-1.501948

> <site>
active-noncovalent

$$$$
CHEMBL2104489
  -OEChem-04122014263D

 63 66  0     1  0  0  0  0  0999 V2000
   13.2078   -0.3084   25.2141 C   0  0  0  0  0  0  0  0  0  0  0  0
   11.9973   -0.9019   25.1997 C   0  0  0  0  0  0  0  0  0  0  0  0
    5.7827   -4.4564   23.0050 C   0  0  0  0  0  0  0  0  0  0  0  0
    6.7190   -6.4061   21.2807 C   0  0  0  0  0  0  0  0  0  0  0  0
   14.4870   -0.9606   25.6380 C   0  0  0  0  0  0  0  0  0  0  0  0
   14.3287   -2.3703   26.1954 C   0  0  0  0  0  0  0  0  0  0  0  0
    8.4760   -2.6047   22.5057 C   0  0  0  0  0  0  0  0  0  0  0  0
   10.5113   -4.5285   25.0295 C   0  0  0  0  0  0  0  0  0  0  0  0
   13.1510   -3.1127   25.5641 C   0  0  0  0  0  0  0  0  0  0  0  0
    7.8224   -3.7721   21.7575 C   0  0  0  0  0  0  0  0  0  0  0  0
    9.4760   -5.1131   24.0600 C   0  0  0  0  0  0  0  0  0  0  0  0
    9.4367   -0.7664   24.9274 C   0  0  0  0  0  0  0  0  0  0  0  0
   10.8115   -0.1630   24.5923 C   0  0  2  0  0  0  0  0  0  0  0  0
   10.7066   -3.0174   24.8010 C   0  0  1  0  0  0  0  0  0  0  0  0
    8.2580   -2.8654   24.0054 C   0  0  2  0  0  0  0  0  0  0  0  0
    9.3421   -2.3041   24.9488 C   0  0  2  0  0  0  0  0  0  0  0  0
   11.8041   -2.3407   25.6918 C   0  0  2  0  0  0  0  0  0  0  0  0
    7.2589   -4.7076   22.8323 C   0  0  1  0  0  0  0  0  0  0  0  0
    8.0946   -4.4022   24.1045 C   0  0  1  0  0  0  0  0  0  0  0  0
    5.2978   -3.0580   22.7335 C   0  0  0  0  0  0  0  0  0  0  0  0
    6.9112   -7.8647   20.9952 C   0  0  0  0  0  0  0  0  0  0  0  0
   10.9795   -0.0054   23.0726 C   0  0  0  0  0  0  0  0  0  0  0  0
   11.3975   -2.3081   27.1866 C   0  0  0  0  0  0  0  0  0  0  0  0
    7.3679   -4.8250   25.3969 C   0  0  0  0  0  0  0  0  0  0  0  0
    5.0119   -5.3512   23.3489 O   0  0  0  0  0  0  0  0  0  0  0  0
    6.0790   -5.6466   20.5660 O   0  0  0  0  0  0  0  0  0  0  0  0
    7.3596   -6.0661   22.4425 O   0  0  0  0  0  0  0  0  0  0  0  0
   13.3152    0.7322   24.9192 H   0  0  0  0  0  0  0  0  0  0  0  0
   15.1707   -0.9769   24.7715 H   0  0  0  0  0  0  0  0  0  0  0  0
   14.9794   -0.3329   26.4002 H   0  0  0  0  0  0  0  0  0  0  0  0
   15.2598   -2.9373   26.0253 H   0  0  0  0  0  0  0  0  0  0  0  0
   14.2039   -2.3286   27.2912 H   0  0  0  0  0  0  0  0  0  0  0  0
    9.5365   -2.5552   22.2378 H   0  0  0  0  0  0  0  0  0  0  0  0
    8.0267   -1.6506   22.2074 H   0  0  0  0  0  0  0  0  0  0  0  0
   10.1995   -4.7290   26.0552 H   0  0  0  0  0  0  0  0  0  0  0  0
   11.4497   -5.0635   24.8718 H   0  0  0  0  0  0  0  0  0  0  0  0
   13.3901   -3.2856   24.5062 H   0  0  0  0  0  0  0  0  0  0  0  0
   13.0792   -4.1027   26.0295 H   0  0  0  0  0  0  0  0  0  0  0  0
    7.0487   -3.4054   21.0728 H   0  0  0  0  0  0  0  0  0  0  0  0
    8.5676   -4.2830   21.1356 H   0  0  0  0  0  0  0  0  0  0  0  0
    9.9025   -5.0639   23.0490 H   0  0  0  0  0  0  0  0  0  0  0  0
    9.3538   -6.1830   24.2776 H   0  0  0  0  0  0  0  0  0  0  0  0
    9.1047   -0.3795   25.9232 H   0  0  0  0  0  0  0  0  0  0  0  0
    8.6803   -0.3520   24.2138 H   0  0  0  0  0  0  0  0  0  0  0  0
   10.8572    0.8751   24.9762 H   0  0  0  0  0  0  0  0  0  0  0  0
   11.0160   -2.8846   23.7588 H   0  0  0  0  0  0  0  0  0  0  0  0
    7.3082   -2.3932   24.2829 H   0  0  0  0  0  0  0  0  0  0  0  0
    8.9649   -2.5713   25.9881 H   0  0  0  0  0  0  0  0  0  0  0  0
    5.0216   -2.9614   21.6798 H   0  0  0  0  0  0  0  0  0  0  0  0
    6.0946   -2.3443   22.9568 H   0  0  0  0  0  0  0  0  0  0  0  0
    4.4200   -2.8485   23.3496 H   0  0  0  0  0  0  0  0  0  0  0  0
    7.8108   -8.0091   20.3919 H   0  0  0  0  0  0  0  0  0  0  0  0
    6.0330   -8.2605   20.4789 H   0  0  0  0  0  0  0  0  0  0  0  0
    7.0333   -8.4057   21.9381 H   0  0  0  0  0  0  0  0  0  0  0  0
   10.9475   -0.9839   22.6024 H   0  0  0  0  0  0  0  0  0  0  0  0
   11.9344    0.4673   22.8621 H   0  0  0  0  0  0  0  0  0  0  0  0
   10.1752    0.6114   22.6825 H   0  0  0  0  0  0  0  0  0  0  0  0
   11.2615   -3.3241   27.5323 H   0  0  0  0  0  0  0  0  0  0  0  0
   10.4734   -1.7543   27.2836 H   0  0  0  0  0  0  0  0  0  0  0  0
   12.1836   -1.8241   27.7504 H   0  0  0  0  0  0  0  0  0  0  0  0
    6.4019   -4.3343   25.4383 H   0  0  0  0  0  0  0  0  0  0  0  0
    7.9655   -4.5320   26.2528 H   0  0  0  0  0  0  0  0  0  0  0  0
    7.2336   -5.9009   25.3934 H   0  0  0  0  0  0  0  0  0  0  0  0
  1  2  2  0  0  0  0
  1  5  1  0  0  0  0
  2 13  1  0  0  0  0
  2 17  1  0  0  0  0
  3 18  1  0  0  0  0
  3 20  1  0  0  0  0
  3 25  2  0  0  0  0
  4 21  1  0  0  0  0
  4 26  2  0  0  0  0
  4 27  1  0  0  0  0
  5  6  1  0  0  0  0
  6  9  1  0  0  0  0
  7 10  1  0  0  0  0
  7 15  1  0  0  0  0
  8 11  1  0  0  0  0
  8 14  1  0  0  0  0
  9 17  1  0  0  0  0
 10 18  1  0  0  0  0
 11 19  1  0  0  0  0
 12 13  1  0  0  0  0
 12 16  1  0  0  0  0
 13 22  1  0  0  0  0
 14 16  1  0  0  0  0
 14 17  1  0  0  0  0
 15 16  1  0  0  0  0
 15 19  1  0  0  0  0
 17 23  1  0  0  0  0
 18 19  1  0  0  0  0
 18 27  1  0  0  0  0
 19 24  1  0  0  0  0
  1 28  1  0  0  0  0
  5 29  1  0  0  0  0
  5 30  1  0  0  0  0
  6 31  1  0  0  0  0
  6 32  1  0  0  0  0
  7 33  1  0  0  0  0
  7 34  1  0  0  0  0
  8 35  1  0  0  0  0
  8 36  1  0  0  0  0
  9 37  1  0  0  0  0
  9 38  1  0  0  0  0
 10 39  1  0  0  0  0
 10 40  1  0  0  0  0
 11 41  1  0  0  0  0
 11 42  1  0  0  0  0
 12 43  1  0  0  0  0
 12 44  1  0  0  0  0
 13 45  1  0  0  0  0
 14 46  1  0  0  0  0
 15 47  1  0  0  0  0
 16 48  1  0  0  0  0
 20 49  1  0  0  0  0
 20 50  1  0  0  0  0
 20 51  1  0  0  0  0
 21 52  1  0  0  0  0
 21 53  1  0  0  0  0
 21 54  1  0  0  0  0
 22 55  1  0  0  0  0
 22 56  1  0  0  0  0
 22 57  1  0  0  0  0
 23 58  1  0  0  0  0
 23 59  1  0  0  0  0
 23 60  1  0  0  0  0
 24 61  1  0  0  0  0
 24 62  1  0  0  0  0
 24 63  1  0  0  0  0
M  END
> <Hybrid2>
-8.519741

> <docked_fragment>
x0749

> <Mpro-_dock>
2.380451

> <site>
active-covalent

$$$$
DB03149
  -OEChem-04122014263D

 26 26  0     1  0  0  0  0  0999 V2000
   14.4757   -1.4172   23.7275 C   0  0  0  0  0  0  0  0  0  0  0  0
   13.6088   -0.4735   24.2786 C   0  0  0  0  0  0  0  0  0  0  0  0
   14.3026   -1.8368   22.4084 C   0  0  0  0  0  0  0  0  0  0  0  0
   12.5689    0.0505   23.5107 C   0  0  0  0  0  0  0  0  0  0  0  0
   13.2627   -1.3127   21.6406 C   0  0  0  0  0  0  0  0  0  0  0  0
   12.3958   -0.3691   22.1918 C   0  0  0  0  0  0  0  0  0  0  0  0
    8.9000   -0.0087   20.5614 C   0  0  0  0  0  0  0  0  0  0  0  0
    7.4659   -0.2585   20.9534 C   0  0  0  0  0  0  0  0  0  0  0  0
   11.2707    0.1973   21.3605 C   0  0  0  0  0  0  0  0  0  0  0  0
    9.9697   -0.6046   21.4622 C   0  0  2  0  0  0  0  0  0  0  0  0
   10.2272   -2.0207   21.0644 N   0  3  0  0  0  0  0  0  0  0  0  0
    9.1752    0.6644   19.5680 O   0  0  0  0  0  0  0  0  0  0  0  0
   15.2862   -1.8241   24.3250 H   0  0  0  0  0  0  0  0  0  0  0  0
   13.7441   -0.1459   25.3052 H   0  0  0  0  0  0  0  0  0  0  0  0
   14.9780   -2.5706   21.9787 H   0  0  0  0  0  0  0  0  0  0  0  0
   11.8982    0.7852   23.9485 H   0  0  0  0  0  0  0  0  0  0  0  0
   13.1354   -1.6456   20.6139 H   0  0  0  0  0  0  0  0  0  0  0  0
    7.1210    0.5415   21.6132 H   0  0  0  0  0  0  0  0  0  0  0  0
    6.8382   -0.3087   20.0612 H   0  0  0  0  0  0  0  0  0  0  0  0
    7.3928   -1.2080   21.4911 H   0  0  0  0  0  0  0  0  0  0  0  0
   11.1039    1.2323   21.6869 H   0  0  0  0  0  0  0  0  0  0  0  0
   11.5835    0.2804   20.3107 H   0  0  0  0  0  0  0  0  0  0  0  0
    9.5833   -0.6540   22.4856 H   0  0  0  0  0  0  0  0  0  0  0  0
   10.5066   -2.5747   21.8766 H   0  0  0  0  0  0  0  0  0  0  0  0
   10.9751   -2.0654   20.3689 H   0  0  0  0  0  0  0  0  0  0  0  0
    9.3850   -2.4374   20.6620 H   0  0  0  0  0  0  0  0  0  0  0  0
  1  2  1  0  0  0  0
  1  3  2  0  0  0  0
  2  4  2  0  0  0  0
  3  5  1  0  0  0  0
  4  6  1  0  0  0  0
  5  6  2  0  0  0  0
  6  9  1  0  0  0  0
  7  8  1  0  0  0  0
  7 10  1  0  0  0  0
  7 12  2  0  0  0  0
  9 10  1  0  0  0  0
 10 11  1  0  0  0  0
  1 13  1  0  0  0  0
  2 14  1  0  0  0  0
  3 15  1  0  0  0  0
  4 16  1  0  0  0  0
  5 17  1  0  0  0  0
  8 18  1  0  0  0  0
  8 19  1  0  0  0  0
  8 20  1  0  0  0  0
  9 21  1  0  0  0  0
  9 22  1  0  0  0  0
 10 23  1  0  0  0  0
 11 24  1  0  0  0  0
 11 25  1  0  0  0  0
 11 26  1  0  0  0  0
M  CHG  1  11   1
M  END
> <Hybrid2>
-8.486859

> <docked_fragment>
x0678

> <Mpro-_dock>
-1.599352

> <site>
active-noncovalent

$$$$
CHEMBL170179
  -OEChem-04122014263D

 58 59  0     1  0  0  0  0  0999 V2000
   14.1420   -1.6851   22.4176 C   0  0  0  0  0  0  0  0  0  0  0  0
   13.6624    5.4445   22.7224 C   0  0  0  0  0  0  0  0  0  0  0  0
   14.4067   -0.7914   23.4552 C   0  0  0  0  0  0  0  0  0  0  0  0
   13.0257   -1.4969   21.6027 C   0  0  0  0  0  0  0  0  0  0  0  0
   14.0581    4.3300   21.9829 C   0  0  0  0  0  0  0  0  0  0  0  0
   12.5709    5.3565   23.5864 C   0  0  0  0  0  0  0  0  0  0  0  0
   13.5549    0.2905   23.6781 C   0  0  0  0  0  0  0  0  0  0  0  0
   12.1739   -0.4150   21.8256 C   0  0  0  0  0  0  0  0  0  0  0  0
   13.3623    3.1275   22.1073 C   0  0  0  0  0  0  0  0  0  0  0  0
   11.8751    4.1540   23.7109 C   0  0  0  0  0  0  0  0  0  0  0  0
   12.4385    0.4787   22.8633 C   0  0  0  0  0  0  0  0  0  0  0  0
   12.2708    3.0395   22.9714 C   0  0  0  0  0  0  0  0  0  0  0  0
    8.9253    0.1958   20.9490 C   0  0  0  0  0  0  0  0  0  0  0  0
    8.1921   -1.1013   21.1105 C   0  0  0  0  0  0  0  0  0  0  0  0
    8.0752    2.8488   21.3696 C   0  0  0  0  0  0  0  0  0  0  0  0
   10.3920    0.2159   26.6921 C   0  0  0  0  0  0  0  0  0  0  0  0
    9.6839   -2.0677   24.6333 C   0  0  0  0  0  0  0  0  0  0  0  0
    8.2506   -0.0680   25.0175 C   0  0  0  0  0  0  0  0  0  0  0  0
    9.2503    2.9209   22.3404 C   0  0  0  0  0  0  0  0  0  0  0  0
   10.9689    1.5268   24.6107 C   0  0  0  0  0  0  0  0  0  0  0  0
   10.7265    0.1207   25.2044 C   0  0  2  0  0  0  0  0  0  0  0  0
   10.2491    1.7647   22.1194 C   0  0  1  0  0  0  0  0  0  0  0  0
   11.4869    1.6864   23.1118 C   0  0  0  0  0  0  0  0  0  0  0  0
    9.5923   -0.5644   24.5370 N   0  3  0  0  0  0  0  0  0  0  0  0
    8.9749    0.8292   19.9033 O   0  0  0  0  0  0  0  0  0  0  0  0
    9.5093    0.5364   22.1316 O   0  0  0  0  0  0  0  0  0  0  0  0
   14.8061   -2.5267   22.2433 H   0  0  0  0  0  0  0  0  0  0  0  0
   14.2052    6.3803   22.6263 H   0  0  0  0  0  0  0  0  0  0  0  0
   15.2765   -0.9371   24.0891 H   0  0  0  0  0  0  0  0  0  0  0  0
   12.8199   -2.1919   20.7940 H   0  0  0  0  0  0  0  0  0  0  0  0
   14.9087    4.3980   21.3109 H   0  0  0  0  0  0  0  0  0  0  0  0
   12.2632    6.2237   24.1631 H   0  0  0  0  0  0  0  0  0  0  0  0
   13.7689    0.9817   24.4892 H   0  0  0  0  0  0  0  0  0  0  0  0
   11.3064   -0.2764   21.1857 H   0  0  0  0  0  0  0  0  0  0  0  0
   13.6776    2.2643   21.5271 H   0  0  0  0  0  0  0  0  0  0  0  0
   11.0258    4.0948   24.3864 H   0  0  0  0  0  0  0  0  0  0  0  0
    8.8591   -1.9356   20.8798 H   0  0  0  0  0  0  0  0  0  0  0  0
    7.3161   -1.1161   20.4572 H   0  0  0  0  0  0  0  0  0  0  0  0
    7.8549   -1.2007   22.1464 H   0  0  0  0  0  0  0  0  0  0  0  0
    8.4371    2.8879   20.3372 H   0  0  0  0  0  0  0  0  0  0  0  0
    7.5188    1.9148   21.4978 H   0  0  0  0  0  0  0  0  0  0  0  0
    7.3847    3.6850   21.5160 H   0  0  0  0  0  0  0  0  0  0  0  0
    9.5245    0.8638   26.8592 H   0  0  0  0  0  0  0  0  0  0  0  0
   10.1492   -0.7720   27.0975 H   0  0  0  0  0  0  0  0  0  0  0  0
   11.2316    0.6214   27.2675 H   0  0  0  0  0  0  0  0  0  0  0  0
    9.6404   -2.3378   25.6900 H   0  0  0  0  0  0  0  0  0  0  0  0
    8.8395   -2.4897   24.0850 H   0  0  0  0  0  0  0  0  0  0  0  0
   10.6329   -2.3736   24.1889 H   0  0  0  0  0  0  0  0  0  0  0  0
    8.1738   -0.2918   26.0831 H   0  0  0  0  0  0  0  0  0  0  0  0
    8.2086    1.0080   24.8383 H   0  0  0  0  0  0  0  0  0  0  0  0
    7.4782   -0.5908   24.4502 H   0  0  0  0  0  0  0  0  0  0  0  0
    8.8323    2.8781   23.3526 H   0  0  0  0  0  0  0  0  0  0  0  0
    9.7375    3.8927   22.2177 H   0  0  0  0  0  0  0  0  0  0  0  0
   10.0474    2.1062   24.7511 H   0  0  0  0  0  0  0  0  0  0  0  0
   11.7041    2.0089   25.2730 H   0  0  0  0  0  0  0  0  0  0  0  0
   11.5949   -0.5330   25.0839 H   0  0  0  0  0  0  0  0  0  0  0  0
   10.6146    1.8512   21.0952 H   0  0  0  0  0  0  0  0  0  0  0  0
    9.6359   -0.3393   23.5283 H   0  0  0  0  0  0  0  0  0  0  0  0
  1  3  1  0  0  0  0
  1  4  2  0  0  0  0
  2  5  1  0  0  0  0
  2  6  2  0  0  0  0
  3  7  2  0  0  0  0
  4  8  1  0  0  0  0
  5  9  2  0  0  0  0
  6 10  1  0  0  0  0
  7 11  1  0  0  0  0
  8 11  2  0  0  0  0
  9 12  1  0  0  0  0
 10 12  2  0  0  0  0
 11 23  1  0  0  0  0
 12 23  1  0  0  0  0
 13 14  1  0  0  0  0
 13 25  2  0  0  0  0
 13 26  1  0  0  0  0
 15 19  1  0  0  0  0
 16 21  1  0  0  0  0
 17 24  1  0  0  0  0
 18 24  1  0  0  0  0
 19 22  1  0  0  0  0
 20 21  1  0  0  0  0
 20 23  1  0  0  0  0
 21 24  1  0  0  0  0
 22 23  1  0  0  0  0
 22 26  1  0  0  0  0
  1 27  1  0  0  0  0
  2 28  1  0  0  0  0
  3 29  1  0  0  0  0
  4 30  1  0  0  0  0
  5 31  1  0  0  0  0
  6 32  1  0  0  0  0
  7 33  1  0  0  0  0
  8 34  1  0  0  0  0
  9 35  1  0  0  0  0
 10 36  1  0  0  0  0
 14 37  1  0  0  0  0
 14 38  1  0  0  0  0
 14 39  1  0  0  0  0
 15 40  1  0  0  0  0
 15 41  1  0  0  0  0
 15 42  1  0  0  0  0
 16 43  1  0  0  0  0
 16 44  1  0  0  0  0
 16 45  1  0  0  0  0
 17 46  1  0  0  0  0
 17 47  1  0  0  0  0
 17 48  1  0  0  0  0
 18 49  1  0  0  0  0
 18 50  1  0  0  0  0
 18 51  1  0  0  0  0
 19 52  1  0  0  0  0
 19 53  1  0  0  0  0
 20 54  1  0  0  0  0
 20 55  1  0  0  0  0
 21 56  1  0  0  0  0
 22 57  1  0  0  0  0
 24 58  1  0  0  0  0
M  CHG  1  24   1
M  END
> <Hybrid2>
-8.481861

> <docked_fragment>
x0195

> <Mpro-_dock>
2.687346

> <site>
active-noncovalent

$$$$
CHEMBL2111145
  -OEChem-04122014263D

 41 43  0     0  0  0  0  0  0999 V2000
   13.6832   -0.5729   24.1841 C   0  0  0  0  0  0  0  0  0  0  0  0
   12.5101   -0.9387   21.9983 C   0  0  0  0  0  0  0  0  0  0  0  0
   11.2099   -0.9832   24.1419 C   0  0  0  0  0  0  0  0  0  0  0  0
   13.3972    1.3338   22.5801 C   0  0  0  0  0  0  0  0  0  0  0  0
   12.0941    1.2893   24.7286 C   0  0  0  0  0  0  0  0  0  0  0  0
   10.9181    0.9226   22.5381 C   0  0  0  0  0  0  0  0  0  0  0  0
   13.6497   -0.1795   22.6979 C   0  0  0  0  0  0  0  0  0  0  0  0
   12.3429   -0.2241   24.8522 C   0  0  0  0  0  0  0  0  0  0  0  0
   11.1639   -0.5919   22.6555 C   0  0  0  0  0  0  0  0  0  0  0  0
   12.0496    1.7100   23.2405 C   0  0  0  0  0  0  0  0  0  0  0  0
   10.3301    5.1676   23.7058 C   0  0  0  0  0  0  0  0  0  0  0  0
    9.6417    2.8701   24.4542 C   0  0  0  0  0  0  0  0  0  0  0  0
   11.8019    3.2160   23.1215 C   0  0  0  0  0  0  0  0  0  0  0  0
   10.3517    3.6737   23.3627 C   0  0  0  0  0  0  0  0  0  0  0  0
    9.5684    3.5038   22.0966 N   0  3  0  0  0  0  0  0  0  0  0  0
   13.8823   -1.6472   24.2826 H   0  0  0  0  0  0  0  0  0  0  0  0
   14.5026   -0.0496   24.6920 H   0  0  0  0  0  0  0  0  0  0  0  0
   12.4853   -0.6786   20.9329 H   0  0  0  0  0  0  0  0  0  0  0  0
   12.6884   -2.0194   22.0579 H   0  0  0  0  0  0  0  0  0  0  0  0
   11.3652   -2.0647   24.2396 H   0  0  0  0  0  0  0  0  0  0  0  0
   10.2489   -0.7552   24.6192 H   0  0  0  0  0  0  0  0  0  0  0  0
   14.2197    1.8826   23.0568 H   0  0  0  0  0  0  0  0  0  0  0  0
   13.3958    1.6256   21.5220 H   0  0  0  0  0  0  0  0  0  0  0  0
   11.1500    1.5490   25.2247 H   0  0  0  0  0  0  0  0  0  0  0  0
   12.8868    1.8370   25.2543 H   0  0  0  0  0  0  0  0  0  0  0  0
   10.8600    1.2053   21.4789 H   0  0  0  0  0  0  0  0  0  0  0  0
    9.9474    1.1737   22.9845 H   0  0  0  0  0  0  0  0  0  0  0  0
   14.6063   -0.4321   22.2269 H   0  0  0  0  0  0  0  0  0  0  0  0
   12.3719   -0.5085   25.9100 H   0  0  0  0  0  0  0  0  0  0  0  0
   10.3564   -1.1371   22.1543 H   0  0  0  0  0  0  0  0  0  0  0  0
   10.8362    5.7539   22.9306 H   0  0  0  0  0  0  0  0  0  0  0  0
    9.3040    5.5435   23.7910 H   0  0  0  0  0  0  0  0  0  0  0  0
   10.8367    5.3685   24.6569 H   0  0  0  0  0  0  0  0  0  0  0  0
    9.6474    1.7980   24.2253 H   0  0  0  0  0  0  0  0  0  0  0  0
    8.5958    3.1821   24.5499 H   0  0  0  0  0  0  0  0  0  0  0  0
   10.1199    2.9930   25.4317 H   0  0  0  0  0  0  0  0  0  0  0  0
   12.1288    3.5299   22.1235 H   0  0  0  0  0  0  0  0  0  0  0  0
   12.4636    3.7189   23.8357 H   0  0  0  0  0  0  0  0  0  0  0  0
   10.0308    3.9908   21.3285 H   0  0  0  0  0  0  0  0  0  0  0  0
    8.6294    3.8871   22.2102 H   0  0  0  0  0  0  0  0  0  0  0  0
    9.4926    2.5142   21.8597 H   0  0  0  0  0  0  0  0  0  0  0  0
  1  7  1  0  0  0  0
  1  8  1  0  0  0  0
  2  7  1  0  0  0  0
  2  9  1  0  0  0  0
  3  8  1  0  0  0  0
  3  9  1  0  0  0  0
  4  7  1  0  0  0  0
  4 10  1  0  0  0  0
  5  8  1  0  0  0  0
  5 10  1  0  0  0  0
  6  9  1  0  0  0  0
  6 10  1  0  0  0  0
 10 13  1  0  0  0  0
 11 14  1  0  0  0  0
 12 14  1  0  0  0  0
 13 14  1  0  0  0  0
 14 15  1  0  0  0  0
  1 16  1  0  0  0  0
  1 17  1  0  0  0  0
  2 18  1  0  0  0  0
  2 19  1  0  0  0  0
  3 20  1  0  0  0  0
  3 21  1  0  0  0  0
  4 22  1  0  0  0  0
  4 23  1  0  0  0  0
  5 24  1  0  0  0  0
  5 25  1  0  0  0  0
  6 26  1  0  0  0  0
  6 27  1  0  0  0  0
  7 28  1  0  0  0  0
  8 29  1  0  0  0  0
  9 30  1  0  0  0  0
 11 31  1  0  0  0  0
 11 32  1  0  0  0  0
 11 33  1  0  0  0  0
 12 34  1  0  0  0  0
 12 35  1  0  0  0  0
 12 36  1  0  0  0  0
 13 37  1  0  0  0  0
 13 38  1  0  0  0  0
 15 39  1  0  0  0  0
 15 40  1  0  0  0  0
 15 41  1  0  0  0  0
M  CHG  1  15   1
M  END
> <Hybrid2>
-8.473557

> <docked_fragment>
x0161

> <Mpro-_dock>
0.530606

> <site>
active-noncovalent

$$$$
CHEMBL807
  -OEChem-04122014263D

 35 37  0     1  0  0  0  0  0999 V2000
    6.5983   -4.4380   23.9209 C   0  0  0  0  0  0  0  0  0  0  0  0
    8.0224   -2.4565   24.5030 C   0  0  0  0  0  0  0  0  0  0  0  0
    8.1126   -4.5256   25.9199 C   0  0  0  0  0  0  0  0  0  0  0  0
    8.5525   -3.8261   22.4626 C   0  0  0  0  0  0  0  0  0  0  0  0
    8.6433   -5.9009   23.8811 C   0  0  0  0  0  0  0  0  0  0  0  0
   10.0718   -3.9133   24.4650 C   0  0  0  0  0  0  0  0  0  0  0  0
    7.1975   -3.6206   25.0781 C   0  0  0  0  0  0  0  0  0  0  0  0
    7.7201   -5.0060   23.0201 C   0  0  1  0  0  0  0  0  0  0  0  0
    9.1679   -2.9916   23.6118 C   0  0  2  0  0  0  0  0  0  0  0  0
    9.2398   -5.0749   25.0322 C   0  0  0  0  0  0  0  0  0  0  0  0
    7.1164   -5.8182   21.8707 C   0  0  0  0  0  0  0  0  0  0  0  0
    9.9845   -1.8277   23.0430 C   0  0  0  0  0  0  0  0  0  0  0  0
   10.1199   -5.9479   25.8512 N   0  3  0  0  0  0  0  0  0  0  0  0
    5.9866   -5.2547   24.3254 H   0  0  0  0  0  0  0  0  0  0  0  0
    5.9244   -3.8025   23.3320 H   0  0  0  0  0  0  0  0  0  0  0  0
    7.3682   -1.7937   23.9221 H   0  0  0  0  0  0  0  0  0  0  0  0
    8.4309   -1.8538   25.3245 H   0  0  0  0  0  0  0  0  0  0  0  0
    8.5256   -3.9518   26.7594 H   0  0  0  0  0  0  0  0  0  0  0  0
    7.5236   -5.3459   26.3499 H   0  0  0  0  0  0  0  0  0  0  0  0
    9.3497   -4.2075   21.8104 H   0  0  0  0  0  0  0  0  0  0  0  0
    7.9174   -3.1855   21.8357 H   0  0  0  0  0  0  0  0  0  0  0  0
    8.0726   -6.7511   24.2784 H   0  0  0  0  0  0  0  0  0  0  0  0
    9.4445   -6.3193   23.2570 H   0  0  0  0  0  0  0  0  0  0  0  0
   10.8961   -4.2994   23.8504 H   0  0  0  0  0  0  0  0  0  0  0  0
   10.5267   -3.3365   25.2815 H   0  0  0  0  0  0  0  0  0  0  0  0
    6.3912   -3.2255   25.7062 H   0  0  0  0  0  0  0  0  0  0  0  0
    7.9132   -6.2124   21.2445 H   0  0  0  0  0  0  0  0  0  0  0  0
    6.4708   -5.1798   21.2724 H   0  0  0  0  0  0  0  0  0  0  0  0
    6.5337   -6.6432   22.2736 H   0  0  0  0  0  0  0  0  0  0  0  0
   10.7862   -2.2150   22.4187 H   0  0  0  0  0  0  0  0  0  0  0  0
   10.4113   -1.2485   23.8584 H   0  0  0  0  0  0  0  0  0  0  0  0
    9.3401   -1.1874   22.4453 H   0  0  0  0  0  0  0  0  0  0  0  0
   11.0457   -6.0387   25.4213 H   0  0  0  0  0  0  0  0  0  0  0  0
    9.7184   -6.8866   25.9426 H   0  0  0  0  0  0  0  0  0  0  0  0
   10.2428   -5.5616   26.7925 H   0  0  0  0  0  0  0  0  0  0  0  0
  1  7  1  0  0  0  0
  1  8  1  0  0  0  0
  2  7  1  0  0  0  0
  2  9  1  0  0  0  0
  3  7  1  0  0  0  0
  3 10  1  0  0  0  0
  4  8  1  0  0  0  0
  4  9  1  0  0  0  0
  5  8  1  0  0  0  0
  5 10  1  0  0  0  0
  6  9  1  0  0  0  0
  6 10  1  0  0  0  0
  8 11  1  0  0  0  0
  9 12  1  0  0  0  0
 10 13  1  0  0  0  0
  1 14  1  0  0  0  0
  1 15  1  0  0  0  0
  2 16  1  0  0  0  0
  2 17  1  0  0  0  0
  3 18  1  0  0  0  0
  3 19  1  0  0  0  0
  4 20  1  0  0  0  0
  4 21  1  0  0  0  0
  5 22  1  0  0  0  0
  5 23  1  0  0  0  0
  6 24  1  0  0  0  0
  6 25  1  0  0  0  0
  7 26  1  0  0  0  0
 11 27  1  0  0  0  0
 11 28  1  0  0  0  0
 11 29  1  0  0  0  0
 12 30  1  0  0  0  0
 12 31  1  0  0  0  0
 12 32  1  0  0  0  0
 13 33  1  0  0  0  0
 13 34  1  0  0  0  0
 13 35  1  0  0  0  0
M  CHG  1  13   1
M  END
> <Hybrid2>
-8.472478

> <docked_fragment>
x1077

> <Mpro-_dock>
2.192045

> <site>
active-noncovalent

$$$$
DB02538
  -OEChem-04122014263D

 33 35  0     0  0  0  0  0  0999 V2000
    8.4702   -3.0223   23.1671 C   0  0  0  0  0  0  0  0  0  0  0  0
    7.5356   -3.5852   22.3219 C   0  0  0  0  0  0  0  0  0  0  0  0
    8.9835   -1.8063   22.7644 C   0  0  0  0  0  0  0  0  0  0  0  0
    9.9681   -1.1046   23.5557 C   0  0  0  0  0  0  0  0  0  0  0  0
    9.8012   -0.1783   24.5582 C   0  0  0  0  0  0  0  0  0  0  0  0
   11.9167   -0.4143   24.3636 C   0  0  0  0  0  0  0  0  0  0  0  0
    7.7006   -1.8291   20.8880 C   0  0  0  0  0  0  0  0  0  0  0  0
   13.3417   -0.4043   24.4168 C   0  0  0  0  0  0  0  0  0  0  0  0
   14.0460   -1.1924   23.5819 C   0  0  0  0  0  0  0  0  0  0  0  0
   13.3881   -2.0610   22.6188 C   0  0  0  0  0  0  0  0  0  0  0  0
   12.0464   -2.0758   22.5623 C   0  0  0  0  0  0  0  0  0  0  0  0
    7.7337    0.0149   19.1784 C   0  0  0  0  0  0  0  0  0  0  0  0
    8.5479    0.3636   25.1097 C   0  0  0  0  0  0  0  0  0  0  0  0
    7.0572    0.3322   17.8684 C   0  0  0  0  0  0  0  0  0  0  0  0
    7.1262   -3.0139   21.1702 N   0  0  0  0  0  0  0  0  0  0  0  0
    8.6200   -1.1789   21.6266 N   0  0  0  0  0  0  0  0  0  0  0  0
   11.0085    0.2451   25.0535 N   0  0  0  0  0  0  0  0  0  0  0  0
   11.3247   -1.2589   23.4281 N   0  0  0  0  0  0  0  0  0  0  0  0
    7.2968   -1.2053   19.6973 N   0  0  0  0  0  0  0  0  0  0  0  0
    8.5582    0.7838   19.6620 O   0  0  0  0  0  0  0  0  0  0  0  0
    8.7718   -3.5139   24.0836 H   0  0  0  0  0  0  0  0  0  0  0  0
    7.0758   -4.5396   22.5552 H   0  0  0  0  0  0  0  0  0  0  0  0
   13.8436    0.2388   25.1313 H   0  0  0  0  0  0  0  0  0  0  0  0
   15.1302   -1.1986   23.6086 H   0  0  0  0  0  0  0  0  0  0  0  0
   13.9964   -2.6769   21.9673 H   0  0  0  0  0  0  0  0  0  0  0  0
   11.5036   -2.7021   21.8651 H   0  0  0  0  0  0  0  0  0  0  0  0
    8.1859   -0.2458   25.9556 H   0  0  0  0  0  0  0  0  0  0  0  0
    8.6658    1.4000   25.4734 H   0  0  0  0  0  0  0  0  0  0  0  0
    7.7410    0.3983   24.3559 H   0  0  0  0  0  0  0  0  0  0  0  0
    6.1379    0.8951   18.0532 H   0  0  0  0  0  0  0  0  0  0  0  0
    6.8057   -0.5960   17.3473 H   0  0  0  0  0  0  0  0  0  0  0  0
    7.7270    0.9220   17.2357 H   0  0  0  0  0  0  0  0  0  0  0  0
    6.5984   -1.7074   19.1438 H   0  0  0  0  0  0  0  0  0  0  0  0
  1  2  2  0  0  0  0
  1  3  1  0  0  0  0
  2 15  1  0  0  0  0
  3  4  1  0  0  0  0
  3 16  2  0  0  0  0
  4  5  2  0  0  0  0
  4 18  1  0  0  0  0
  5 13  1  0  0  0  0
  5 17  1  0  0  0  0
  6  8  1  0  0  0  0
  6 17  2  0  0  0  0
  6 18  1  0  0  0  0
  7 15  2  0  0  0  0
  7 16  1  0  0  0  0
  7 19  1  0  0  0  0
  8  9  2  0  0  0  0
  9 10  1  0  0  0  0
 10 11  2  0  0  0  0
 11 18  1  0  0  0  0
 12 14  1  0  0  0  0
 12 19  1  0  0  0  0
 12 20  2  0  0  0  0
  1 21  1  0  0  0  0
  2 22  1  0  0  0  0
  8 23  1  0  0  0  0
  9 24  1  0  0  0  0
 10 25  1  0  0  0  0
 11 26  1  0  0  0  0
 13 27  1  0  0  0  0
 13 28  1  0  0  0  0
 13 29  1  0  0  0  0
 14 30  1  0  0  0  0
 14 31  1  0  0  0  0
 14 32  1  0  0  0  0
 19 33  1  0  0  0  0
M  END
> <Hybrid2>
-8.451538

> <docked_fragment>
x0678

> <Mpro-_dock>
2.143808

> <site>
active-noncovalent

$$$$
CHEMBL2105225
  -OEChem-04122014263D

 35 37  0     1  0  0  0  0  0999 V2000
   10.9924   -0.3893   24.0693 C   0  0  0  0  0  0  0  0  0  0  0  0
   12.8390    1.0945   23.5946 C   0  0  0  0  0  0  0  0  0  0  0  0
   11.8758   -1.4666   24.1383 C   0  0  0  0  0  0  0  0  0  0  0  0
   13.7224    0.0172   23.6636 C   0  0  0  0  0  0  0  0  0  0  0  0
   11.4740    0.8913   23.7974 C   0  0  0  0  0  0  0  0  0  0  0  0
   13.2408   -1.2633   23.9355 C   0  0  0  0  0  0  0  0  0  0  0  0
   10.8181    6.7023   24.6861 C   0  0  0  0  0  0  0  0  0  0  0  0
   12.0375    6.1145   24.0325 C   0  0  0  0  0  0  0  0  0  0  0  0
   11.1358    3.3939   24.1416 C   0  0  0  0  0  0  0  0  0  0  0  0
   10.5179    2.0585   23.7241 C   0  0  1  0  0  0  0  0  0  0  0  0
   10.6691    5.7882   23.5016 C   0  0  0  0  0  0  0  0  0  0  0  0
   10.1026    4.4172   23.6755 C   0  0  1  0  0  0  0  0  0  0  0  0
    9.9889    2.3644   22.3187 C   0  0  1  0  0  0  0  0  0  0  0  0
    8.8288    1.4867   21.8834 C   0  0  0  0  0  0  0  0  0  0  0  0
    9.5300    3.7999   22.4163 N   0  3  0  0  0  0  0  0  0  0  0  0
   14.3303   -2.5924   24.0209 Cl  0  0  0  0  0  0  0  0  0  0  0  0
    9.9303   -0.5559   24.2283 H   0  0  0  0  0  0  0  0  0  0  0  0
   13.2224    2.0892   23.3825 H   0  0  0  0  0  0  0  0  0  0  0  0
   11.4860   -2.4586   24.3514 H   0  0  0  0  0  0  0  0  0  0  0  0
   14.7834    0.1907   23.5034 H   0  0  0  0  0  0  0  0  0  0  0  0
   10.5435    6.3312   25.6657 H   0  0  0  0  0  0  0  0  0  0  0  0
   10.6248    7.7574   24.5357 H   0  0  0  0  0  0  0  0  0  0  0  0
   12.6618    6.7751   23.4435 H   0  0  0  0  0  0  0  0  0  0  0  0
   12.5799    5.3496   24.5745 H   0  0  0  0  0  0  0  0  0  0  0  0
   11.3028    3.4473   25.2231 H   0  0  0  0  0  0  0  0  0  0  0  0
   12.1049    3.5570   23.6511 H   0  0  0  0  0  0  0  0  0  0  0  0
    9.6612    1.8282   24.4094 H   0  0  0  0  0  0  0  0  0  0  0  0
   10.3768    6.2324   22.5578 H   0  0  0  0  0  0  0  0  0  0  0  0
    9.2678    4.4493   24.3865 H   0  0  0  0  0  0  0  0  0  0  0  0
   10.7887    2.3512   21.5687 H   0  0  0  0  0  0  0  0  0  0  0  0
    8.0373    1.5054   22.6354 H   0  0  0  0  0  0  0  0  0  0  0  0
    9.1629    0.4553   21.7536 H   0  0  0  0  0  0  0  0  0  0  0  0
    8.4194    1.8434   20.9361 H   0  0  0  0  0  0  0  0  0  0  0  0
    8.5029    3.8695   22.4358 H   0  0  0  0  0  0  0  0  0  0  0  0
    9.8364    4.3185   21.5816 H   0  0  0  0  0  0  0  0  0  0  0  0
  1  3  2  0  0  0  0
  1  5  1  0  0  0  0
  2  4  1  0  0  0  0
  2  5  2  0  0  0  0
  3  6  1  0  0  0  0
  4  6  2  0  0  0  0
  5 10  1  0  0  0  0
  6 16  1  0  0  0  0
  7  8  1  0  0  0  0
  7 11  1  0  0  0  0
  8 11  1  0  0  0  0
  9 10  1  0  0  0  0
  9 12  1  0  0  0  0
 10 13  1  0  0  0  0
 11 12  1  0  0  0  0
 12 15  1  0  0  0  0
 13 14  1  0  0  0  0
 13 15  1  0  0  0  0
  1 17  1  0  0  0  0
  2 18  1  0  0  0  0
  3 19  1  0  0  0  0
  4 20  1  0  0  0  0
  7 21  1  0  0  0  0
  7 22  1  0  0  0  0
  8 23  1  0  0  0  0
  8 24  1  0  0  0  0
  9 25  1  0  0  0  0
  9 26  1  0  0  0  0
 10 27  1  0  0  0  0
 11 28  1  0  0  0  0
 12 29  1  0  0  0  0
 13 30  1  0  0  0  0
 14 31  1  0  0  0  0
 14 32  1  0  0  0  0
 14 33  1  0  0  0  0
 15 34  1  0  0  0  0
 15 35  1  0  0  0  0
M  CHG  1  15   1
M  END
> <Hybrid2>
-8.417772

> <docked_fragment>
x0161

> <Mpro-_dock>
-0.947684

> <site>
active-noncovalent

$$$$
CHEMBL2110791
  -OEChem-04122014263D

 48 49  0     0  0  0  0  0  0999 V2000
    5.3294    1.8077   17.5765 C   0  0  0  0  0  0  0  0  0  0  0  0
    5.3227    1.6037   18.9488 C   0  0  0  0  0  0  0  0  0  0  0  0
    7.3113   -0.2254   21.5020 C   0  0  0  0  0  0  0  0  0  0  0  0
    6.3274    1.1961   16.8453 C   0  0  0  0  0  0  0  0  0  0  0  0
    6.3041    0.8018   19.5470 C   0  0  0  0  0  0  0  0  0  0  0  0
    8.2789   -0.8023   20.6888 C   0  0  0  0  0  0  0  0  0  0  0  0
    7.2832    0.2192   18.7153 C   0  0  0  0  0  0  0  0  0  0  0  0
    8.2580   -0.5772   19.3102 C   0  0  0  0  0  0  0  0  0  0  0  0
    6.3249    0.5755   20.9338 C   0  0  0  0  0  0  0  0  0  0  0  0
   13.7738   -0.5004   25.6044 C   0  0  0  0  0  0  0  0  0  0  0  0
   12.2718    2.5052   23.0501 C   0  0  0  0  0  0  0  0  0  0  0  0
    9.3344   -1.6595   21.3067 C   0  0  0  0  0  0  0  0  0  0  0  0
   13.1547   -1.3715   21.4415 C   0  0  0  0  0  0  0  0  0  0  0  0
   14.0740   -0.6769   24.1320 C   0  0  0  0  0  0  0  0  0  0  0  0
   13.2872    1.6605   23.7883 C   0  0  0  0  0  0  0  0  0  0  0  0
   11.7774   -1.9580   21.7325 C   0  0  0  0  0  0  0  0  0  0  0  0
   13.3641    0.0779   21.8674 C   0  0  0  0  0  0  0  0  0  0  0  0
    7.2923    0.4154   17.3833 N   0  0  0  0  0  0  0  0  0  0  0  0
   10.7143   -1.1512   21.0781 N   0  3  0  0  0  0  0  0  0  0  0  0
   13.1700    0.2271   23.3285 N   0  3  0  0  0  0  0  0  0  0  0  0
    9.2201   -1.1560   18.5275 O   0  0  0  0  0  0  0  0  0  0  0  0
    5.1578    1.2546   22.0223 Cl  0  0  0  0  0  0  0  0  0  0  0  0
    4.5782    2.4241   17.0966 H   0  0  0  0  0  0  0  0  0  0  0  0
    4.5369    2.0859   19.5233 H   0  0  0  0  0  0  0  0  0  0  0  0
    7.3328   -0.4039   22.5747 H   0  0  0  0  0  0  0  0  0  0  0  0
    6.3827    1.3184   15.7687 H   0  0  0  0  0  0  0  0  0  0  0  0
   13.9741    0.5311   25.9100 H   0  0  0  0  0  0  0  0  0  0  0  0
   12.7238   -0.7205   25.8235 H   0  0  0  0  0  0  0  0  0  0  0  0
   14.3953   -1.1618   26.2172 H   0  0  0  0  0  0  0  0  0  0  0  0
   12.4708    2.4812   21.9743 H   0  0  0  0  0  0  0  0  0  0  0  0
   11.2545    2.1350   23.2146 H   0  0  0  0  0  0  0  0  0  0  0  0
   12.3115    3.5491   23.3785 H   0  0  0  0  0  0  0  0  0  0  0  0
    9.2080   -1.7328   22.3947 H   0  0  0  0  0  0  0  0  0  0  0  0
    9.3101   -2.6806   20.9041 H   0  0  0  0  0  0  0  0  0  0  0  0
   13.3431   -1.4575   20.3638 H   0  0  0  0  0  0  0  0  0  0  0  0
   13.9168   -1.9875   21.9352 H   0  0  0  0  0  0  0  0  0  0  0  0
   13.8819   -1.7008   23.7998 H   0  0  0  0  0  0  0  0  0  0  0  0
   15.1035   -0.3965   23.8928 H   0  0  0  0  0  0  0  0  0  0  0  0
   13.1110    1.6672   24.8675 H   0  0  0  0  0  0  0  0  0  0  0  0
   14.3107    1.9827   23.5779 H   0  0  0  0  0  0  0  0  0  0  0  0
   11.5685   -1.9351   22.8065 H   0  0  0  0  0  0  0  0  0  0  0  0
   11.6698   -2.9853   21.3740 H   0  0  0  0  0  0  0  0  0  0  0  0
   14.3668    0.4473   21.6356 H   0  0  0  0  0  0  0  0  0  0  0  0
   12.6278    0.7300   21.3877 H   0  0  0  0  0  0  0  0  0  0  0  0
   10.8946   -1.1123   20.0659 H   0  0  0  0  0  0  0  0  0  0  0  0
   10.7738   -0.1796   21.4114 H   0  0  0  0  0  0  0  0  0  0  0  0
   12.2028   -0.0655   23.5529 H   0  0  0  0  0  0  0  0  0  0  0  0
    9.0801   -0.9133   17.6010 H   0  0  0  0  0  0  0  0  0  0  0  0
  1  2  2  0  0  0  0
  1  4  1  0  0  0  0
  2  5  1  0  0  0  0
  3  6  1  0  0  0  0
  3  9  2  0  0  0  0
  4 18  2  0  0  0  0
  5  7  2  0  0  0  0
  5  9  1  0  0  0  0
  6  8  2  0  0  0  0
  6 12  1  0  0  0  0
  7  8  1  0  0  0  0
  7 18  1  0  0  0  0
  8 21  1  0  0  0  0
  9 22  1  0  0  0  0
 10 14  1  0  0  0  0
 11 15  1  0  0  0  0
 12 19  1  0  0  0  0
 13 16  1  0  0  0  0
 13 17  1  0  0  0  0
 14 20  1  0  0  0  0
 15 20  1  0  0  0  0
 16 19  1  0  0  0  0
 17 20  1  0  0  0  0
  1 23  1  0  0  0  0
  2 24  1  0  0  0  0
  3 25  1  0  0  0  0
  4 26  1  0  0  0  0
 10 27  1  0  0  0  0
 10 28  1  0  0  0  0
 10 29  1  0  0  0  0
 11 30  1  0  0  0  0
 11 31  1  0  0  0  0
 11 32  1  0  0  0  0
 12 33  1  0  0  0  0
 12 34  1  0  0  0  0
 13 35  1  0  0  0  0
 13 36  1  0  0  0  0
 14 37  1  0  0  0  0
 14 38  1  0  0  0  0
 15 39  1  0  0  0  0
 15 40  1  0  0  0  0
 16 41  1  0  0  0  0
 16 42  1  0  0  0  0
 17 43  1  0  0  0  0
 17 44  1  0  0  0  0
 19 45  1  0  0  0  0
 19 46  1  0  0  0  0
 20 47  1  0  0  0  0
 21 48  1  0  0  0  0
M  CHG  2  19   1  20   1
M  END
> <Hybrid2>
-8.409320

> <docked_fragment>
x0678

> <Mpro-_dock>
1.251335

> <site>
active-noncovalent

$$$$
CHEMBL340978
  -OEChem-04122014263D

 32 34  0     1  0  0  0  0  0999 V2000
   10.0358    1.5688   23.9028 C   0  0  0  0  0  0  0  0  0  0  0  0
   11.8867    0.3218   22.9773 C   0  0  0  0  0  0  0  0  0  0  0  0
    8.9808   -5.2024   24.3157 C   0  0  0  0  0  0  0  0  0  0  0  0
   10.0076   -4.3883   23.8253 C   0  0  0  0  0  0  0  0  0  0  0  0
   10.6896    2.7633   23.6006 C   0  0  0  0  0  0  0  0  0  0  0  0
   12.5404    1.5164   22.6751 C   0  0  0  0  0  0  0  0  0  0  0  0
    7.6533   -3.2685   24.9958 C   0  0  0  0  0  0  0  0  0  0  0  0
   10.6344    0.3480   23.5912 C   0  0  0  0  0  0  0  0  0  0  0  0
    7.8263   -4.6561   24.8897 C   0  0  0  0  0  0  0  0  0  0  0  0
    8.6732   -2.4383   24.5091 C   0  0  0  0  0  0  0  0  0  0  0  0
    9.8005   -3.0200   23.9481 C   0  0  0  0  0  0  0  0  0  0  0  0
   11.9418    2.7371   22.9868 C   0  0  0  0  0  0  0  0  0  0  0  0
    9.9619   -0.8830   23.9020 C   0  0  0  0  0  0  0  0  0  0  0  0
    6.6396   -5.4040   26.9342 C   0  0  0  0  0  0  0  0  0  0  0  0
    5.4272   -5.3843   24.6582 C   0  0  0  0  0  0  0  0  0  0  0  0
    6.7586   -5.5674   25.4000 C   0  0  1  0  0  0  0  0  0  0  0  0
    8.7919   -1.0701   24.4722 N   0  0  0  0  0  0  0  0  0  0  0  0
    6.3082   -4.2423   27.3124 O   0  5  0  0  0  0  0  0  0  0  0  0
    6.8788   -6.4290   27.6318 O   0  0  0  0  0  0  0  0  0  0  0  0
   10.6363   -2.0146   23.5542 O   0  0  0  0  0  0  0  0  0  0  0  0
   12.7477    4.2107   22.6117 Cl  0  0  0  0  0  0  0  0  0  0  0  0
    9.0602    1.6055   24.3813 H   0  0  0  0  0  0  0  0  0  0  0  0
   12.3661   -0.6221   22.7280 H   0  0  0  0  0  0  0  0  0  0  0  0
    9.0908   -6.2826   24.2449 H   0  0  0  0  0  0  0  0  0  0  0  0
   10.9043   -4.8009   23.3801 H   0  0  0  0  0  0  0  0  0  0  0  0
   10.2112    3.7074   23.8497 H   0  0  0  0  0  0  0  0  0  0  0  0
   13.5160    1.4809   22.1973 H   0  0  0  0  0  0  0  0  0  0  0  0
    6.7577   -2.8468   25.4415 H   0  0  0  0  0  0  0  0  0  0  0  0
    5.0670   -4.3549   24.7648 H   0  0  0  0  0  0  0  0  0  0  0  0
    5.5354   -5.5937   23.5882 H   0  0  0  0  0  0  0  0  0  0  0  0
    4.6470   -6.0495   25.0443 H   0  0  0  0  0  0  0  0  0  0  0  0
    7.0482   -6.6237   25.2426 H   0  0  0  0  0  0  0  0  0  0  0  0
  1  5  2  0  0  0  0
  1  8  1  0  0  0  0
  2  6  1  0  0  0  0
  2  8  2  0  0  0  0
  3  4  2  0  0  0  0
  3  9  1  0  0  0  0
  4 11  1  0  0  0  0
  5 12  1  0  0  0  0
  6 12  2  0  0  0  0
  7  9  2  0  0  0  0
  7 10  1  0  0  0  0
  8 13  1  0  0  0  0
  9 16  1  0  0  0  0
 10 11  2  0  0  0  0
 10 17  1  0  0  0  0
 11 20  1  0  0  0  0
 12 21  1  0  0  0  0
 13 17  2  0  0  0  0
 13 20  1  0  0  0  0
 14 16  1  0  0  0  0
 14 18  1  0  0  0  0
 14 19  2  0  0  0  0
 15 16  1  0  0  0  0
  1 22  1  0  0  0  0
  2 23  1  0  0  0  0
  3 24  1  0  0  0  0
  4 25  1  0  0  0  0
  5 26  1  0  0  0  0
  6 27  1  0  0  0  0
  7 28  1  0  0  0  0
 15 29  1  0  0  0  0
 15 30  1  0  0  0  0
 15 31  1  0  0  0  0
 16 32  1  0  0  0  0
M  CHG  1  18  -1
M  END
> <Hybrid2>
-8.407418

> <docked_fragment>
x1077

> <Mpro-_dock>
1.981566

> <site>
active-noncovalent

$$$$
CHEMBL1254682
  -OEChem-04122014263D

 47 50  0     1  0  0  0  0  0999 V2000
   12.3618   -2.1385   22.6512 C   0  0  0  0  0  0  0  0  0  0  0  0
   13.4564   -1.5318   23.2595 C   0  0  0  0  0  0  0  0  0  0  0  0
   11.9549   -0.2491   24.6467 C   0  0  0  0  0  0  0  0  0  0  0  0
   11.0500   -1.8075   23.0337 C   0  0  0  0  0  0  0  0  0  0  0  0
   10.8310   -0.8285   24.0292 C   0  0  0  0  0  0  0  0  0  0  0  0
   13.2526   -0.5917   24.2611 C   0  0  0  0  0  0  0  0  0  0  0  0
    6.4811   -4.7025   25.7206 C   0  0  0  0  0  0  0  0  0  0  0  0
    7.0869   -5.2778   24.6761 C   0  0  0  0  0  0  0  0  0  0  0  0
    9.9137   -2.5163   22.3319 C   0  0  0  0  0  0  0  0  0  0  0  0
    8.3735    1.6835   22.6393 C   0  0  0  0  0  0  0  0  0  0  0  0
    9.3551    1.9964   23.7627 C   0  0  0  0  0  0  0  0  0  0  0  0
    8.5064    0.2408   22.1615 C   0  0  0  0  0  0  0  0  0  0  0  0
    9.2162    1.0021   24.9163 C   0  0  0  0  0  0  0  0  0  0  0  0
    9.0435   -1.4024   25.6706 C   0  0  0  0  0  0  0  0  0  0  0  0
    8.9983   -2.8868   25.3113 C   0  0  0  0  0  0  0  0  0  0  0  0
    8.3795   -0.7543   23.3316 C   0  0  1  0  0  0  0  0  0  0  0  0
    8.5144   -2.2142   22.8828 C   0  0  2  0  0  0  0  0  0  0  0  0
    9.3992   -0.4771   24.4730 C   0  0  2  0  0  0  0  0  0  0  0  0
    8.0020   -4.5562   23.7426 C   0  0  0  0  0  0  0  0  0  0  0  0
    8.1506   -3.0963   24.0812 N   0  3  1  0  0  0  0  0  0  0  0  0
   14.3193   -0.0070   24.8723 O   0  0  0  0  0  0  0  0  0  0  0  0
   12.5330   -2.8807   21.8748 H   0  0  0  0  0  0  0  0  0  0  0  0
   14.4627   -1.8033   22.9536 H   0  0  0  0  0  0  0  0  0  0  0  0
   11.8388    0.4741   25.4486 H   0  0  0  0  0  0  0  0  0  0  0  0
    5.8300   -5.2822   26.3659 H   0  0  0  0  0  0  0  0  0  0  0  0
    6.6223   -3.6524   25.9507 H   0  0  0  0  0  0  0  0  0  0  0  0
    6.9158   -6.3353   24.4925 H   0  0  0  0  0  0  0  0  0  0  0  0
    9.9368   -2.1933   21.2821 H   0  0  0  0  0  0  0  0  0  0  0  0
   10.1071   -3.5938   22.3141 H   0  0  0  0  0  0  0  0  0  0  0  0
    7.3492    1.8575   22.9913 H   0  0  0  0  0  0  0  0  0  0  0  0
    8.5411    2.3681   21.8001 H   0  0  0  0  0  0  0  0  0  0  0  0
   10.3791    1.9857   23.3724 H   0  0  0  0  0  0  0  0  0  0  0  0
    9.1700    3.0112   24.1334 H   0  0  0  0  0  0  0  0  0  0  0  0
    7.7260    0.0352   21.4188 H   0  0  0  0  0  0  0  0  0  0  0  0
    9.4649    0.1316   21.6426 H   0  0  0  0  0  0  0  0  0  0  0  0
    9.9041    1.2763   25.7228 H   0  0  0  0  0  0  0  0  0  0  0  0
    8.2108    1.1250   25.3435 H   0  0  0  0  0  0  0  0  0  0  0  0
    8.0606   -1.1186   26.0709 H   0  0  0  0  0  0  0  0  0  0  0  0
    9.7578   -1.2602   26.4919 H   0  0  0  0  0  0  0  0  0  0  0  0
    9.9903   -3.3062   25.1179 H   0  0  0  0  0  0  0  0  0  0  0  0
    8.5358   -3.4573   26.1243 H   0  0  0  0  0  0  0  0  0  0  0  0
    7.3629   -0.6185   23.7327 H   0  0  0  0  0  0  0  0  0  0  0  0
    7.7600   -2.4442   22.1206 H   0  0  0  0  0  0  0  0  0  0  0  0
    7.6094   -4.5973   22.7220 H   0  0  0  0  0  0  0  0  0  0  0  0
    9.0136   -4.9745   23.7440 H   0  0  0  0  0  0  0  0  0  0  0  0
    7.2020   -2.7994   24.3489 H   0  0  0  0  0  0  0  0  0  0  0  0
   14.0170    0.6233   25.5454 H   0  0  0  0  0  0  0  0  0  0  0  0
  1  2  1  0  0  0  0
  1  4  2  0  0  0  0
  2  6  2  0  0  0  0
  3  5  2  0  0  0  0
  3  6  1  0  0  0  0
  4  5  1  0  0  0  0
  4  9  1  0  0  0  0
  5 18  1  0  0  0  0
  6 21  1  0  0  0  0
  7  8  2  0  0  0  0
  8 19  1  0  0  0  0
  9 17  1  0  0  0  0
 10 11  1  0  0  0  0
 10 12  1  0  0  0  0
 11 13  1  0  0  0  0
 12 16  1  0  0  0  0
 13 18  1  0  0  0  0
 14 15  1  0  0  0  0
 14 18  1  0  0  0  0
 15 20  1  0  0  0  0
 16 17  1  0  0  0  0
 16 18  1  0  0  0  0
 17 20  1  0  0  0  0
 19 20  1  0  0  0  0
  1 22  1  0  0  0  0
  2 23  1  0  0  0  0
  3 24  1  0  0  0  0
  7 25  1  0  0  0  0
  7 26  1  0  0  0  0
  8 27  1  0  0  0  0
  9 28  1  0  0  0  0
  9 29  1  0  0  0  0
 10 30  1  0  0  0  0
 10 31  1  0  0  0  0
 11 32  1  0  0  0  0
 11 33  1  0  0  0  0
 12 34  1  0  0  0  0
 12 35  1  0  0  0  0
 13 36  1  0  0  0  0
 13 37  1  0  0  0  0
 14 38  1  0  0  0  0
 14 39  1  0  0  0  0
 15 40  1  0  0  0  0
 15 41  1  0  0  0  0
 16 42  1  0  0  0  0
 17 43  1  0  0  0  0
 19 44  1  0  0  0  0
 19 45  1  0  0  0  0
 20 46  1  0  0  0  0
 21 47  1  0  0  0  0
M  CHG  1  20   1
M  END
> <Hybrid2>
-8.391128

> <docked_fragment>
x0072

> <Mpro-_dock>
1.053632

> <site>
active-noncovalent

$$$$
CHEMBL2107641
  -OEChem-04122014263D

 49 50  0     1  0  0  0  0  0999 V2000
    9.3435   -2.0021   24.2836 C   0  0  0  0  0  0  0  0  0  0  0  0
    9.1035   -0.7002   24.7130 C   0  0  0  0  0  0  0  0  0  0  0  0
   13.4003   -0.5163   22.0460 C   0  0  0  0  0  0  0  0  0  0  0  0
   10.4709   -2.2867   23.5127 C   0  0  0  0  0  0  0  0  0  0  0  0
    9.9900    0.3221   24.3731 C   0  0  0  0  0  0  0  0  0  0  0  0
   12.5138   -1.5386   22.3859 C   0  0  0  0  0  0  0  0  0  0  0  0
   13.1603    0.7856   22.4753 C   0  0  0  0  0  0  0  0  0  0  0  0
   11.3739   -1.2702   23.1612 C   0  0  0  0  0  0  0  0  0  0  0  0
   11.1299    0.0537   23.5978 C   0  0  0  0  0  0  0  0  0  0  0  0
   12.0329    1.0703   23.2463 C   0  0  0  0  0  0  0  0  0  0  0  0
   12.9871    3.4401   23.1518 C   0  0  0  0  0  0  0  0  0  0  0  0
   12.4671    1.7368   26.1261 C   0  0  0  0  0  0  0  0  0  0  0  0
   12.1628    4.1663   25.7204 C   0  0  0  0  0  0  0  0  0  0  0  0
    7.7715    3.8671   22.7274 C   0  0  0  0  0  0  0  0  0  0  0  0
    8.4877    6.2460   22.5594 C   0  0  0  0  0  0  0  0  0  0  0  0
   10.5096    3.0309   22.9745 C   0  0  0  0  0  0  0  0  0  0  0  0
   10.1329    4.4937   23.2101 C   0  0  0  0  0  0  0  0  0  0  0  0
   11.7173    2.7653   25.2603 C   0  0  0  0  0  0  0  0  0  0  0  0
   11.8276    2.5436   23.6904 C   0  0  1  0  0  0  0  0  0  0  0  0
   12.7791    4.0039   21.9117 N   0  0  0  0  0  0  0  0  0  0  0  0
    8.9120    4.8053   22.4220 N   0  3  0  0  0  0  0  0  0  0  0  0
   14.0388    3.6140   23.7693 O   0  0  0  0  0  0  0  0  0  0  0  0
    8.6529   -2.7974   24.5485 H   0  0  0  0  0  0  0  0  0  0  0  0
    8.2255   -0.4795   25.3132 H   0  0  0  0  0  0  0  0  0  0  0  0
   14.2781   -0.7373   21.4457 H   0  0  0  0  0  0  0  0  0  0  0  0
   10.6385   -3.3116   23.1881 H   0  0  0  0  0  0  0  0  0  0  0  0
    9.7679    1.3259   24.7276 H   0  0  0  0  0  0  0  0  0  0  0  0
   12.7213   -2.5488   22.0393 H   0  0  0  0  0  0  0  0  0  0  0  0
   13.8584    1.5733   22.2040 H   0  0  0  0  0  0  0  0  0  0  0  0
   13.5419    1.7237   25.9317 H   0  0  0  0  0  0  0  0  0  0  0  0
   12.0922    0.7281   25.9154 H   0  0  0  0  0  0  0  0  0  0  0  0
   12.3112    1.9132   27.1950 H   0  0  0  0  0  0  0  0  0  0  0  0
   13.2149    4.3553   25.4858 H   0  0  0  0  0  0  0  0  0  0  0  0
   12.0438    4.2694   26.8052 H   0  0  0  0  0  0  0  0  0  0  0  0
   11.5594    4.9565   25.2658 H   0  0  0  0  0  0  0  0  0  0  0  0
    7.5089    3.9921   23.7795 H   0  0  0  0  0  0  0  0  0  0  0  0
    6.9351    4.1358   22.0793 H   0  0  0  0  0  0  0  0  0  0  0  0
    8.1127    2.8498   22.5264 H   0  0  0  0  0  0  0  0  0  0  0  0
    8.2407    6.4229   23.6078 H   0  0  0  0  0  0  0  0  0  0  0  0
    9.3236    6.8723   22.2419 H   0  0  0  0  0  0  0  0  0  0  0  0
    7.6167    6.4002   21.9196 H   0  0  0  0  0  0  0  0  0  0  0  0
    9.6667    2.3985   23.2896 H   0  0  0  0  0  0  0  0  0  0  0  0
   10.5855    2.8608   21.8926 H   0  0  0  0  0  0  0  0  0  0  0  0
   10.9018    5.1892   22.8663 H   0  0  0  0  0  0  0  0  0  0  0  0
    9.8827    4.7028   24.2528 H   0  0  0  0  0  0  0  0  0  0  0  0
   10.6604    2.6854   25.5425 H   0  0  0  0  0  0  0  0  0  0  0  0
   13.5054    4.5946   21.5205 H   0  0  0  0  0  0  0  0  0  0  0  0
   11.9332    3.8554   21.3722 H   0  0  0  0  0  0  0  0  0  0  0  0
    9.1391    4.6664   21.4232 H   0  0  0  0  0  0  0  0  0  0  0  0
  1  2  1  0  0  0  0
  1  4  2  0  0  0  0
  2  5  2  0  0  0  0
  3  6  1  0  0  0  0
  3  7  2  0  0  0  0
  4  8  1  0  0  0  0
  5  9  1  0  0  0  0
  6  8  2  0  0  0  0
  7 10  1  0  0  0  0
  8  9  1  0  0  0  0
  9 10  2  0  0  0  0
 10 19  1  0  0  0  0
 11 19  1  0  0  0  0
 11 20  1  0  0  0  0
 11 22  2  0  0  0  0
 12 18  1  0  0  0  0
 13 18  1  0  0  0  0
 14 21  1  0  0  0  0
 15 21  1  0  0  0  0
 16 17  1  0  0  0  0
 16 19  1  0  0  0  0
 17 21  1  0  0  0  0
 18 19  1  0  0  0  0
  1 23  1  0  0  0  0
  2 24  1  0  0  0  0
  3 25  1  0  0  0  0
  4 26  1  0  0  0  0
  5 27  1  0  0  0  0
  6 28  1  0  0  0  0
  7 29  1  0  0  0  0
 12 30  1  0  0  0  0
 12 31  1  0  0  0  0
 12 32  1  0  0  0  0
 13 33  1  0  0  0  0
 13 34  1  0  0  0  0
 13 35  1  0  0  0  0
 14 36  1  0  0  0  0
 14 37  1  0  0  0  0
 14 38  1  0  0  0  0
 15 39  1  0  0  0  0
 15 40  1  0  0  0  0
 15 41  1  0  0  0  0
 16 42  1  0  0  0  0
 16 43  1  0  0  0  0
 17 44  1  0  0  0  0
 17 45  1  0  0  0  0
 18 46  1  0  0  0  0
 20 47  1  0  0  0  0
 20 48  1  0  0  0  0
 21 49  1  0  0  0  0
M  CHG  1  21   1
M  END
> <Hybrid2>
-8.389303

> <docked_fragment>
x0104

> <Mpro-_dock>
-1.193695

> <site>
active-noncovalent

$$$$
DB01447
  -OEChem-04122014263D

 26 27  0     1  0  0  0  0  0999 V2000
   10.1387   -2.5332   24.0020 C   0  0  0  0  0  0  0  0  0  0  0  0
    9.2983   -1.6117   24.6268 C   0  0  0  0  0  0  0  0  0  0  0  0
   11.2178   -2.0874   23.2388 C   0  0  0  0  0  0  0  0  0  0  0  0
    9.5370   -0.2444   24.4882 C   0  0  0  0  0  0  0  0  0  0  0  0
   11.4564   -0.7201   23.1002 C   0  0  0  0  0  0  0  0  0  0  0  0
   10.6161    0.2014   23.7250 C   0  0  0  0  0  0  0  0  0  0  0  0
   12.2969    3.0180   22.5623 C   0  0  0  0  0  0  0  0  0  0  0  0
   10.8745    1.6792   23.5746 C   0  0  2  0  0  0  0  0  0  0  0  0
   10.1605    2.3021   22.3735 C   0  0  1  0  0  0  0  0  0  0  0  0
    8.8362    2.9530   22.7148 C   0  0  0  0  0  0  0  0  0  0  0  0
   11.1357    3.3078   21.9922 N   0  0  0  0  0  0  0  0  0  0  0  0
   13.4315    3.6765   22.4112 N   0  3  0  0  0  0  0  0  0  0  0  0
   12.2830    1.9333   23.3570 O   0  0  0  0  0  0  0  0  0  0  0  0
    9.9535   -3.5978   24.1111 H   0  0  0  0  0  0  0  0  0  0  0  0
    8.4587   -1.9587   25.2220 H   0  0  0  0  0  0  0  0  0  0  0  0
   11.8729   -2.8045   22.7531 H   0  0  0  0  0  0  0  0  0  0  0  0
    8.8769    0.4663   24.9785 H   0  0  0  0  0  0  0  0  0  0  0  0
   12.2995   -0.3819   22.5035 H   0  0  0  0  0  0  0  0  0  0  0  0
   10.5946    2.1832   24.5235 H   0  0  0  0  0  0  0  0  0  0  0  0
   10.0468    1.6015   21.5376 H   0  0  0  0  0  0  0  0  0  0  0  0
    8.9566    3.6499   23.5484 H   0  0  0  0  0  0  0  0  0  0  0  0
    8.1008    2.1960   22.9997 H   0  0  0  0  0  0  0  0  0  0  0  0
    8.4492    3.5055   21.8544 H   0  0  0  0  0  0  0  0  0  0  0  0
   11.0398    4.1043   21.3722 H   0  0  0  0  0  0  0  0  0  0  0  0
   14.2663    3.3712   22.8939 H   0  0  0  0  0  0  0  0  0  0  0  0
   13.4728    4.4902   21.8118 H   0  0  0  0  0  0  0  0  0  0  0  0
  1  2  1  0  0  0  0
  1  3  2  0  0  0  0
  2  4  2  0  0  0  0
  3  5  1  0  0  0  0
  4  6  1  0  0  0  0
  5  6  2  0  0  0  0
  6  8  1  0  0  0  0
  7 11  1  0  0  0  0
  7 12  2  0  0  0  0
  7 13  1  0  0  0  0
  8  9  1  0  0  0  0
  8 13  1  0  0  0  0
  9 10  1  0  0  0  0
  9 11  1  0  0  0  0
  1 14  1  0  0  0  0
  2 15  1  0  0  0  0
  3 16  1  0  0  0  0
  4 17  1  0  0  0  0
  5 18  1  0  0  0  0
  8 19  1  0  0  0  0
  9 20  1  0  0  0  0
 10 21  1  0  0  0  0
 10 22  1  0  0  0  0
 10 23  1  0  0  0  0
 11 24  1  0  0  0  0
 12 25  1  0  0  0  0
 12 26  1  0  0  0  0
M  CHG  1  12   1
M  END
> <Hybrid2>
-8.385629

> <docked_fragment>
x0104

> <Mpro-_dock>
-0.115688

> <site>
active-noncovalent

$$$$
CHEMBL1201308
  -OEChem-04122014263D

 33 33  0     1  0  0  0  0  0999 V2000
   13.1648    1.6469   22.3808 C   0  0  0  0  0  0  0  0  0  0  0  0
   11.5146    1.3534   24.1208 C   0  0  0  0  0  0  0  0  0  0  0  0
   13.7233    0.4097   22.7017 C   0  0  0  0  0  0  0  0  0  0  0  0
   12.0731    0.1161   24.4417 C   0  0  0  0  0  0  0  0  0  0  0  0
   12.0605    2.1188   23.0904 C   0  0  0  0  0  0  0  0  0  0  0  0
   13.1774   -0.3557   23.7321 C   0  0  0  0  0  0  0  0  0  0  0  0
   10.3950    5.5428   24.8822 C   0  0  0  0  0  0  0  0  0  0  0  0
    9.3742    7.2713   23.3511 C   0  0  0  0  0  0  0  0  0  0  0  0
    9.1652    2.5672   22.1573 C   0  0  0  0  0  0  0  0  0  0  0  0
   11.4601    3.4527   22.7465 C   0  0  0  0  0  0  0  0  0  0  0  0
   10.1908    5.9924   23.4445 C   0  0  0  0  0  0  0  0  0  0  0  0
    9.9533    3.5421   23.0223 C   0  0  1  0  0  0  0  0  0  0  0  0
    9.4704    4.9192   22.7134 N   0  3  0  0  0  0  0  0  0  0  0  0
   14.0115   -2.1973   24.2112 I   0  0  0  0  0  0  0  0  0  0  0  0
   13.5965    2.2368   21.5765 H   0  0  0  0  0  0  0  0  0  0  0  0
   10.6552    1.7134   24.6800 H   0  0  0  0  0  0  0  0  0  0  0  0
   14.5852    0.0624   22.1373 H   0  0  0  0  0  0  0  0  0  0  0  0
   11.6327   -0.4637   25.2490 H   0  0  0  0  0  0  0  0  0  0  0  0
    9.4314    5.4196   25.3876 H   0  0  0  0  0  0  0  0  0  0  0  0
   10.9271    4.5863   24.9332 H   0  0  0  0  0  0  0  0  0  0  0  0
   10.9756    6.2815   25.4456 H   0  0  0  0  0  0  0  0  0  0  0  0
    8.4095    7.1497   23.8549 H   0  0  0  0  0  0  0  0  0  0  0  0
    9.1778    7.5484   22.3096 H   0  0  0  0  0  0  0  0  0  0  0  0
    9.8975    8.1065   23.8291 H   0  0  0  0  0  0  0  0  0  0  0  0
    9.3793    2.7237   21.0945 H   0  0  0  0  0  0  0  0  0  0  0  0
    9.4078    1.5269   22.4008 H   0  0  0  0  0  0  0  0  0  0  0  0
    8.0888    2.7060   22.3035 H   0  0  0  0  0  0  0  0  0  0  0  0
   11.6404    3.6439   21.6795 H   0  0  0  0  0  0  0  0  0  0  0  0
   11.9886    4.2539   23.2807 H   0  0  0  0  0  0  0  0  0  0  0  0
   11.1549    6.1152   22.9404 H   0  0  0  0  0  0  0  0  0  0  0  0
    9.7264    3.3705   24.0802 H   0  0  0  0  0  0  0  0  0  0  0  0
    8.4669    4.9753   22.9281 H   0  0  0  0  0  0  0  0  0  0  0  0
    9.5532    5.0814   21.7019 H   0  0  0  0  0  0  0  0  0  0  0  0
  1  3  2  0  0  0  0
  1  5  1  0  0  0  0
  2  4  1  0  0  0  0
  2  5  2  0  0  0  0
  3  6  1  0  0  0  0
  4  6  2  0  0  0  0
  5 10  1  0  0  0  0
  6 14  1  0  0  0  0
  7 11  1  0  0  0  0
  8 11  1  0  0  0  0
  9 12  1  0  0  0  0
 10 12  1  0  0  0  0
 11 13  1  0  0  0  0
 12 13  1  0  0  0  0
  1 15  1  0  0  0  0
  2 16  1  0  0  0  0
  3 17  1  0  0  0  0
  4 18  1  0  0  0  0
  7 19  1  0  0  0  0
  7 20  1  0  0  0  0
  7 21  1  0  0  0  0
  8 22  1  0  0  0  0
  8 23  1  0  0  0  0
  8 24  1  0  0  0  0
  9 25  1  0  0  0  0
  9 26  1  0  0  0  0
  9 27  1  0  0  0  0
 10 28  1  0  0  0  0
 10 29  1  0  0  0  0
 11 30  1  0  0  0  0
 12 31  1  0  0  0  0
 13 32  1  0  0  0  0
 13 33  1  0  0  0  0
M  CHG  1  13   1
M  END
> <Hybrid2>
-8.378622

> <docked_fragment>
x0161

> <Mpro-_dock>
-0.775227

> <site>
active-noncovalent

$$$$
CHEMBL2106979
  -OEChem-04122014263D

 31 32  0     1  0  0  0  0  0999 V2000
   14.4252   -1.0056   24.6723 C   0  0  0  0  0  0  0  0  0  0  0  0
   13.4821    0.0165   24.5644 C   0  0  0  0  0  0  0  0  0  0  0  0
   14.2676   -2.1804   23.9370 C   0  0  0  0  0  0  0  0  0  0  0  0
   12.3814   -0.1364   23.7214 C   0  0  0  0  0  0  0  0  0  0  0  0
   13.1669   -2.3332   23.0939 C   0  0  0  0  0  0  0  0  0  0  0  0
   12.2238   -1.3112   22.9861 C   0  0  0  0  0  0  0  0  0  0  0  0
    8.0572   -1.4591   21.4320 C   0  0  0  0  0  0  0  0  0  0  0  0
   11.0619   -1.4731   22.0961 C   0  0  0  0  0  0  0  0  0  0  0  0
   10.3109   -0.4715   21.6129 C   0  0  0  0  0  0  0  0  0  0  0  0
    9.1403   -0.6825   20.7238 C   0  0  2  0  0  0  0  0  0  0  0  0
    7.1095    0.4321   20.4691 C   0  0  0  0  0  0  0  0  0  0  0  0
    6.5744    0.2597   19.0501 C   0  0  0  0  0  0  0  0  0  0  0  0
    6.5237    1.6680   21.1386 C   0  0  0  0  0  0  0  0  0  0  0  0
    6.8899   -0.7440   21.2531 N   0  0  0  0  0  0  0  0  0  0  0  0
    8.1939   -2.5157   22.0280 O   0  0  0  0  0  0  0  0  0  0  0  0
    8.5359    0.5809   20.4109 O   0  0  0  0  0  0  0  0  0  0  0  0
   15.2829   -0.8861   25.3276 H   0  0  0  0  0  0  0  0  0  0  0  0
   13.6052    0.9318   25.1360 H   0  0  0  0  0  0  0  0  0  0  0  0
   15.0025   -2.9758   24.0199 H   0  0  0  0  0  0  0  0  0  0  0  0
   11.6546    0.6692   23.6480 H   0  0  0  0  0  0  0  0  0  0  0  0
   13.0580   -3.2550   22.5273 H   0  0  0  0  0  0  0  0  0  0  0  0
   10.8031   -2.4985   21.8410 H   0  0  0  0  0  0  0  0  0  0  0  0
   10.5289    0.5617   21.8683 H   0  0  0  0  0  0  0  0  0  0  0  0
    9.4198   -1.1879   19.7949 H   0  0  0  0  0  0  0  0  0  0  0  0
    7.0090   -0.6298   18.5962 H   0  0  0  0  0  0  0  0  0  0  0  0
    6.8342    1.1294   18.4484 H   0  0  0  0  0  0  0  0  0  0  0  0
    5.4906    0.1539   19.0736 H   0  0  0  0  0  0  0  0  0  0  0  0
    6.9206    1.7691   22.1491 H   0  0  0  0  0  0  0  0  0  0  0  0
    5.4380    1.5844   21.1926 H   0  0  0  0  0  0  0  0  0  0  0  0
    6.7814    2.5601   20.5671 H   0  0  0  0  0  0  0  0  0  0  0  0
    5.9836   -1.0457   21.5976 H   0  0  0  0  0  0  0  0  0  0  0  0
  1  2  1  0  0  0  0
  1  3  2  0  0  0  0
  2  4  2  0  0  0  0
  3  5  1  0  0  0  0
  4  6  1  0  0  0  0
  5  6  2  0  0  0  0
  6  8  1  0  0  0  0
  7 10  1  0  0  0  0
  7 14  1  0  0  0  0
  7 15  2  0  0  0  0
  8  9  2  0  0  0  0
  9 10  1  0  0  0  0
 10 16  1  0  0  0  0
 11 12  1  0  0  0  0
 11 13  1  0  0  0  0
 11 14  1  0  0  0  0
 11 16  1  0  0  0  0
  1 17  1  0  0  0  0
  2 18  1  0  0  0  0
  3 19  1  0  0  0  0
  4 20  1  0  0  0  0
  5 21  1  0  0  0  0
  8 22  1  0  0  0  0
  9 23  1  0  0  0  0
 10 24  1  0  0  0  0
 12 25  1  0  0  0  0
 12 26  1  0  0  0  0
 12 27  1  0  0  0  0
 13 28  1  0  0  0  0
 13 29  1  0  0  0  0
 13 30  1  0  0  0  0
 14 31  1  0  0  0  0
M  END
> <Hybrid2>
-8.376574

> <docked_fragment>
x0678

> <Mpro-_dock>
-0.021617

> <site>
active-noncovalent

$$$$
CHEMBL2104681
  -OEChem-04122014263D

 29 30  0     0  0  0  0  0  0999 V2000
   10.5361   -1.4016   23.2934 C   0  0  0  0  0  0  0  0  0  0  0  0
    9.1039   -0.5230   21.0710 C   0  0  0  0  0  0  0  0  0  0  0  0
   10.8411   -0.1720   22.7071 C   0  0  0  0  0  0  0  0  0  0  0  0
    9.5145   -2.1938   22.7688 C   0  0  0  0  0  0  0  0  0  0  0  0
   10.1263    0.2719   21.5937 C   0  0  0  0  0  0  0  0  0  0  0  0
    8.7980   -1.7529   21.6561 C   0  0  0  0  0  0  0  0  0  0  0  0
    7.2752   -0.9979   19.4264 C   0  0  0  0  0  0  0  0  0  0  0  0
    8.3326   -0.0801   19.8961 C   0  0  0  0  0  0  0  0  0  0  0  0
    7.0916   -2.1466   20.0844 C   0  0  0  0  0  0  0  0  0  0  0  0
   13.1711    0.1479   23.4027 C   0  0  0  0  0  0  0  0  0  0  0  0
   11.9292    0.5886   23.3275 C   0  0  0  0  0  0  0  0  0  0  0  0
    6.0065   -3.0774   19.5949 C   0  0  0  0  0  0  0  0  0  0  0  0
    9.8759   -3.6487   24.7786 C   0  0  0  0  0  0  0  0  0  0  0  0
    9.2083   -3.5054   23.4142 C   0  0  0  0  0  0  0  0  0  0  0  0
   10.4392    1.4110   21.0834 O   0  5  0  0  0  0  0  0  0  0  0  0
    5.8775   -4.1482   20.2544 O   0  5  0  0  0  0  0  0  0  0  0  0
    8.5034    0.9725   19.2952 O   0  0  0  0  0  0  0  0  0  0  0  0
    5.3620   -2.6699   18.5864 O   0  0  0  0  0  0  0  0  0  0  0  0
    7.8042   -2.5739   21.1829 O   0  0  0  0  0  0  0  0  0  0  0  0
   11.0909   -1.7523   24.1619 H   0  0  0  0  0  0  0  0  0  0  0  0
    6.6857   -0.7070   18.5649 H   0  0  0  0  0  0  0  0  0  0  0  0
   13.9172    0.7840   23.8693 H   0  0  0  0  0  0  0  0  0  0  0  0
   13.5157   -0.8054   23.0200 H   0  0  0  0  0  0  0  0  0  0  0  0
   11.6781    1.5603   23.7064 H   0  0  0  0  0  0  0  0  0  0  0  0
   10.9619   -3.5303   24.6996 H   0  0  0  0  0  0  0  0  0  0  0  0
    9.6727   -4.6355   25.2062 H   0  0  0  0  0  0  0  0  0  0  0  0
    9.5056   -2.8926   25.4791 H   0  0  0  0  0  0  0  0  0  0  0  0
    8.1202   -3.6295   23.5295 H   0  0  0  0  0  0  0  0  0  0  0  0
    9.5303   -4.3348   22.7654 H   0  0  0  0  0  0  0  0  0  0  0  0
  1  3  2  0  0  0  0
  1  4  1  0  0  0  0
  2  5  2  0  0  0  0
  2  6  1  0  0  0  0
  2  8  1  0  0  0  0
  3  5  1  0  0  0  0
  3 11  1  0  0  0  0
  4  6  2  0  0  0  0
  4 14  1  0  0  0  0
  5 15  1  0  0  0  0
  6 19  1  0  0  0  0
  7  8  1  0  0  0  0
  7  9  2  0  0  0  0
  8 17  2  0  0  0  0
  9 12  1  0  0  0  0
  9 19  1  0  0  0  0
 10 11  2  0  0  0  0
 12 16  1  0  0  0  0
 12 18  2  0  0  0  0
 13 14  1  0  0  0  0
  1 20  1  0  0  0  0
  7 21  1  0  0  0  0
 10 22  1  0  0  0  0
 10 23  1  0  0  0  0
 11 24  1  0  0  0  0
 13 25  1  0  0  0  0
 13 26  1  0  0  0  0
 13 27  1  0  0  0  0
 14 28  1  0  0  0  0
 14 29  1  0  0  0  0
M  CHG  2  15  -1  16  -1
M  END
> <Hybrid2>
-8.364519

> <docked_fragment>
x0830

> <Mpro-_dock>
0.114761

> <site>
active-covalent

$$$$
CHEMBL1393
  -OEChem-04122014263D

 61 65  0     1  0  0  0  0  0999 V2000
   11.6081    2.0540   22.3247 C   0  0  0  0  0  0  0  0  0  0  0  0
   10.6529    1.1132   22.4139 C   0  0  0  0  0  0  0  0  0  0  0  0
   11.5325    3.3068   23.1101 C   0  0  0  0  0  0  0  0  0  0  0  0
    6.5855   -5.6400   26.5782 C   0  0  0  0  0  0  0  0  0  0  0  0
   13.2998   -1.1055   22.0249 C   0  0  0  0  0  0  0  0  0  0  0  0
   10.7108   -0.0900   21.4987 C   0  0  0  0  0  0  0  0  0  0  0  0
   10.2850    3.5687   23.9110 C   0  0  0  0  0  0  0  0  0  0  0  0
    8.0096   -5.7494   27.0317 C   0  0  0  0  0  0  0  0  0  0  0  0
    9.7296    2.2669   24.4671 C   0  0  0  0  0  0  0  0  0  0  0  0
    8.6003   -4.4589   26.5040 C   0  0  0  0  0  0  0  0  0  0  0  0
    8.0162   -0.2448   25.0282 C   0  0  0  0  0  0  0  0  0  0  0  0
    9.0630   -4.0342   23.1128 C   0  0  0  0  0  0  0  0  0  0  0  0
    7.7998   -1.6085   25.7063 C   0  0  0  0  0  0  0  0  0  0  0  0
    8.3386   -5.0316   24.0333 C   0  0  0  0  0  0  0  0  0  0  0  0
    9.2657   -0.2048   24.1037 C   0  0  1  0  0  0  0  0  0  0  0  0
    9.0850   -2.7276   23.9009 C   0  0  1  0  0  0  0  0  0  0  0  0
    9.3033   -1.4198   23.1183 C   0  0  2  0  0  0  0  0  0  0  0  0
   10.5842   -1.4198   22.2480 C   0  0  2  0  0  0  0  0  0  0  0  0
    9.4634    1.1857   23.3786 C   0  0  2  0  0  0  0  0  0  0  0  0
    7.7551   -2.7562   24.6844 C   0  0  1  0  0  0  0  0  0  0  0  0
    7.7885   -4.2116   25.2366 C   0  0  2  0  0  0  0  0  0  0  0  0
   14.1199    0.0100   22.6082 C   0  0  0  0  0  0  0  0  0  0  0  0
    8.2153    1.5952   22.5625 C   0  0  0  0  0  0  0  0  0  0  0  0
    6.4927   -2.5819   23.7911 C   0  0  0  0  0  0  0  0  0  0  0  0
   12.4429    4.1298   23.0398 O   0  0  0  0  0  0  0  0  0  0  0  0
    5.6529   -6.3057   27.0002 O   0  0  0  0  0  0  0  0  0  0  0  0
   13.4383   -1.5060   20.8755 O   0  0  0  0  0  0  0  0  0  0  0  0
    6.4838   -4.6934   25.5958 O   0  0  0  0  0  0  0  0  0  0  0  0
   12.1377   -1.7609   23.1691 S   0  0  0  0  0  0  0  0  0  0  0  0
   12.4418    1.9607   21.6368 H   0  0  0  0  0  0  0  0  0  0  0  0
    9.8828   -0.0098   20.7818 H   0  0  0  0  0  0  0  0  0  0  0  0
   11.6216   -0.0870   20.8850 H   0  0  0  0  0  0  0  0  0  0  0  0
   10.5395    4.2346   24.7431 H   0  0  0  0  0  0  0  0  0  0  0  0
    9.5585    4.0824   23.2737 H   0  0  0  0  0  0  0  0  0  0  0  0
    8.0721   -5.8011   28.1212 H   0  0  0  0  0  0  0  0  0  0  0  0
    8.4682   -6.6317   26.5773 H   0  0  0  0  0  0  0  0  0  0  0  0
   10.4501    1.8775   25.2001 H   0  0  0  0  0  0  0  0  0  0  0  0
    8.8122    2.4917   25.0239 H   0  0  0  0  0  0  0  0  0  0  0  0
    8.4137   -3.6858   27.2569 H   0  0  0  0  0  0  0  0  0  0  0  0
    9.6805   -4.5209   26.3435 H   0  0  0  0  0  0  0  0  0  0  0  0
    7.1148    0.0245   24.4703 H   0  0  0  0  0  0  0  0  0  0  0  0
    8.1181    0.5049   25.8209 H   0  0  0  0  0  0  0  0  0  0  0  0
   10.0697   -4.3858   22.8674 H   0  0  0  0  0  0  0  0  0  0  0  0
    8.5159   -3.9239   22.1696 H   0  0  0  0  0  0  0  0  0  0  0  0
    8.6258   -1.7476   26.4130 H   0  0  0  0  0  0  0  0  0  0  0  0
    6.8781   -1.5856   26.2997 H   0  0  0  0  0  0  0  0  0  0  0  0
    7.5329   -5.5345   23.4855 H   0  0  0  0  0  0  0  0  0  0  0  0
    9.0343   -5.8151   24.3539 H   0  0  0  0  0  0  0  0  0  0  0  0
   10.1247   -0.3325   24.7800 H   0  0  0  0  0  0  0  0  0  0  0  0
    9.9022   -2.8122   24.6326 H   0  0  0  0  0  0  0  0  0  0  0  0
    8.4689   -1.3111   22.4151 H   0  0  0  0  0  0  0  0  0  0  0  0
   10.4999   -2.2198   21.5006 H   0  0  0  0  0  0  0  0  0  0  0  0
   13.6298    0.9720   22.4344 H   0  0  0  0  0  0  0  0  0  0  0  0
   15.1226    0.0111   22.1718 H   0  0  0  0  0  0  0  0  0  0  0  0
   14.2146   -0.1381   23.6882 H   0  0  0  0  0  0  0  0  0  0  0  0
    7.3642    1.6514   23.2289 H   0  0  0  0  0  0  0  0  0  0  0  0
    8.0385    0.8513   21.7963 H   0  0  0  0  0  0  0  0  0  0  0  0
    8.3957    2.5610   22.1080 H   0  0  0  0  0  0  0  0  0  0  0  0
    6.4674   -3.3903   23.0764 H   0  0  0  0  0  0  0  0  0  0  0  0
    6.5627   -1.6311   23.2851 H   0  0  0  0  0  0  0  0  0  0  0  0
    5.6202   -2.6100   24.4259 H   0  0  0  0  0  0  0  0  0  0  0  0
  1  2  2  0  0  0  0
  1  3  1  0  0  0  0
  2  6  1  0  0  0  0
  2 19  1  0  0  0  0
  3  7  1  0  0  0  0
  3 25  2  0  0  0  0
  4  8  1  0  0  0  0
  4 26  2  0  0  0  0
  4 28  1  0  0  0  0
  5 22  1  0  0  0  0
  5 27  2  0  0  0  0
  5 29  1  0  0  0  0
  6 18  1  0  0  0  0
  7  9  1  0  0  0  0
  8 10  1  0  0  0  0
  9 19  1  0  0  0  0
 10 21  1  0  0  0  0
 11 13  1  0  0  0  0
 11 15  1  0  0  0  0
 12 14  1  0  0  0  0
 12 16  1  0  0  0  0
 13 20  1  0  0  0  0
 14 21  1  0  0  0  0
 15 17  1  0  0  0  0
 15 19  1  0  0  0  0
 16 17  1  0  0  0  0
 16 20  1  0  0  0  0
 17 18  1  0  0  0  0
 18 29  1  0  0  0  0
 19 23  1  0  0  0  0
 20 21  1  0  0  0  0
 20 24  1  0  0  0  0
 21 28  1  0  0  0  0
  1 30  1  0  0  0  0
  6 31  1  0  0  0  0
  6 32  1  0  0  0  0
  7 33  1  0  0  0  0
  7 34  1  0  0  0  0
  8 35  1  0  0  0  0
  8 36  1  0  0  0  0
  9 37  1  0  0  0  0
  9 38  1  0  0  0  0
 10 39  1  0  0  0  0
 10 40  1  0  0  0  0
 11 41  1  0  0  0  0
 11 42  1  0  0  0  0
 12 43  1  0  0  0  0
 12 44  1  0  0  0  0
 13 45  1  0  0  0  0
 13 46  1  0  0  0  0
 14 47  1  0  0  0  0
 14 48  1  0  0  0  0
 15 49  1  0  0  0  0
 16 50  1  0  0  0  0
 17 51  1  0  0  0  0
 18 52  1  0  0  0  0
 22 53  1  0  0  0  0
 22 54  1  0  0  0  0
 22 55  1  0  0  0  0
 23 56  1  0  0  0  0
 23 57  1  0  0  0  0
 23 58  1  0  0  0  0
 24 59  1  0  0  0  0
 24 60  1  0  0  0  0
 24 61  1  0  0  0  0
M  END
> <Hybrid2>
-8.350913

> <docked_fragment>
x0874

> <Mpro-_dock>
1.732902

> <site>
active-noncovalent

$$$$
CHEMBL2105993
  -OEChem-04122014263D

 69 74  0     1  0  0  0  0  0999 V2000
    5.2368   -0.2556   20.0032 C   0  0  0  0  0  0  0  0  0  0  0  0
    6.3894   -0.1757   19.2217 C   0  0  0  0  0  0  0  0  0  0  0  0
    5.2026    0.3497   21.2595 C   0  0  0  0  0  0  0  0  0  0  0  0
    7.5078    0.5094   19.6964 C   0  0  0  0  0  0  0  0  0  0  0  0
    6.3210    1.0347   21.7342 C   0  0  0  0  0  0  0  0  0  0  0  0
    7.4737    1.1146   20.9527 C   0  0  0  0  0  0  0  0  0  0  0  0
    6.9174   -5.7171   24.8239 C   0  0  0  0  0  0  0  0  0  0  0  0
    7.8910   -4.7949   24.7404 C   0  0  0  0  0  0  0  0  0  0  0  0
    6.0474   -5.8149   26.0181 C   0  0  0  0  0  0  0  0  0  0  0  0
   10.7578    2.4965   23.8163 C   0  0  0  0  0  0  0  0  0  0  0  0
    8.8311   -4.8170   23.5582 C   0  0  0  0  0  0  0  0  0  0  0  0
    6.3680   -4.9445   27.2039 C   0  0  0  0  0  0  0  0  0  0  0  0
    8.9586   -3.4490   22.9006 C   0  0  0  0  0  0  0  0  0  0  0  0
    6.9068   -3.5992   26.7433 C   0  0  0  0  0  0  0  0  0  0  0  0
    8.6388   -1.1470   26.0605 C   0  0  0  0  0  0  0  0  0  0  0  0
    8.8519    0.2037   25.3524 C   0  0  0  0  0  0  0  0  0  0  0  0
   10.3974   -0.8035   22.0659 C   0  0  0  0  0  0  0  0  0  0  0  0
    9.3792   -2.3818   23.9193 C   0  0  2  0  0  0  0  0  0  0  0  0
    8.3426   -2.3186   25.0846 C   0  0  1  0  0  0  0  0  0  0  0  0
    9.4742   -0.9970   23.2700 C   0  0  1  0  0  0  0  0  0  0  0  0
   10.6221    0.7228   22.0079 C   0  0  2  0  0  0  0  0  0  0  0  0
    8.6944    1.8625   21.4717 C   0  0  2  0  0  0  0  0  0  0  0  0
    8.1380   -3.7105   25.7974 C   0  0  2  0  0  0  0  0  0  0  0  0
   10.0177    1.3072   23.2824 C   0  0  1  0  0  0  0  0  0  0  0  0
    9.9236    0.1084   24.2559 C   0  0  1  0  0  0  0  0  0  0  0  0
   12.2376    2.5491   23.5481 C   0  0  0  0  0  0  0  0  0  0  0  0
    8.6218    3.3305   21.0511 C   0  0  0  0  0  0  0  0  0  0  0  0
    9.3737   -4.1204   26.6302 C   0  0  0  0  0  0  0  0  0  0  0  0
   11.3111   -0.1667   24.8969 C   0  0  0  0  0  0  0  0  0  0  0  0
    5.1380   -6.6416   26.0473 O   0  0  0  0  0  0  0  0  0  0  0  0
   10.1833    3.3868   24.4411 O   0  0  0  0  0  0  0  0  0  0  0  0
    9.9030    1.3118   20.9309 O   0  0  0  0  0  0  0  0  0  0  0  0
    8.7369    1.8044   22.9052 O   0  0  0  0  0  0  0  0  0  0  0  0
    4.3655   -0.7880   19.6329 H   0  0  0  0  0  0  0  0  0  0  0  0
    6.4158   -0.6460   18.2431 H   0  0  0  0  0  0  0  0  0  0  0  0
    4.3051    0.2886   21.8678 H   0  0  0  0  0  0  0  0  0  0  0  0
    8.4016    0.5663   19.0807 H   0  0  0  0  0  0  0  0  0  0  0  0
    6.2853    1.5031   22.7143 H   0  0  0  0  0  0  0  0  0  0  0  0
    6.7648   -6.4609   24.0490 H   0  0  0  0  0  0  0  0  0  0  0  0
    9.8186   -5.1554   23.8957 H   0  0  0  0  0  0  0  0  0  0  0  0
    8.5023   -5.5398   22.8012 H   0  0  0  0  0  0  0  0  0  0  0  0
    5.4478   -4.7850   27.7768 H   0  0  0  0  0  0  0  0  0  0  0  0
    7.0814   -5.4714   27.8453 H   0  0  0  0  0  0  0  0  0  0  0  0
    9.6984   -3.5146   22.0943 H   0  0  0  0  0  0  0  0  0  0  0  0
    8.0041   -3.1722   22.4346 H   0  0  0  0  0  0  0  0  0  0  0  0
    6.0949   -3.0692   26.2255 H   0  0  0  0  0  0  0  0  0  0  0  0
    7.1512   -3.0019   27.6296 H   0  0  0  0  0  0  0  0  0  0  0  0
    9.5179   -1.3728   26.6717 H   0  0  0  0  0  0  0  0  0  0  0  0
    7.8040   -1.0237   26.7593 H   0  0  0  0  0  0  0  0  0  0  0  0
    7.8919    0.5204   24.9260 H   0  0  0  0  0  0  0  0  0  0  0  0
    9.1273    0.9651   26.0919 H   0  0  0  0  0  0  0  0  0  0  0  0
   11.3504   -1.3179   22.2332 H   0  0  0  0  0  0  0  0  0  0  0  0
    9.9554   -1.1952   21.1443 H   0  0  0  0  0  0  0  0  0  0  0  0
   10.3619   -2.6666   24.3097 H   0  0  0  0  0  0  0  0  0  0  0  0
    7.3778   -2.0685   24.6130 H   0  0  0  0  0  0  0  0  0  0  0  0
    8.4581   -0.7616   22.9188 H   0  0  0  0  0  0  0  0  0  0  0  0
   11.6875    0.9371   21.8742 H   0  0  0  0  0  0  0  0  0  0  0  0
   12.4229    3.0670   22.6030 H   0  0  0  0  0  0  0  0  0  0  0  0
   12.6333    1.5329   23.4777 H   0  0  0  0  0  0  0  0  0  0  0  0
   12.7367    3.0935   24.3534 H   0  0  0  0  0  0  0  0  0  0  0  0
    9.4946    3.8701   21.4209 H   0  0  0  0  0  0  0  0  0  0  0  0
    7.7226    3.7934   21.4596 H   0  0  0  0  0  0  0  0  0  0  0  0
    8.5948    3.4079   19.9634 H   0  0  0  0  0  0  0  0  0  0  0  0
    9.5586   -3.3621   27.3806 H   0  0  0  0  0  0  0  0  0  0  0  0
   10.2285   -4.2058   25.9711 H   0  0  0  0  0  0  0  0  0  0  0  0
    9.1760   -5.0727   27.1062 H   0  0  0  0  0  0  0  0  0  0  0  0
   12.0473   -0.2296   24.1087 H   0  0  0  0  0  0  0  0  0  0  0  0
   11.2601   -1.0996   25.4393 H   0  0  0  0  0  0  0  0  0  0  0  0
   11.5469    0.6466   25.5680 H   0  0  0  0  0  0  0  0  0  0  0  0
  1  2  1  0  0  0  0
  1  3  2  0  0  0  0
  2  4  2  0  0  0  0
  3  5  1  0  0  0  0
  4  6  1  0  0  0  0
  5  6  2  0  0  0  0
  6 22  1  0  0  0  0
  7  8  2  0  0  0  0
  7  9  1  0  0  0  0
  8 11  1  0  0  0  0
  8 23  1  0  0  0  0
  9 12  1  0  0  0  0
  9 30  2  0  0  0  0
 10 24  1  0  0  0  0
 10 26  1  0  0  0  0
 10 31  2  0  0  0  0
 11 13  1  0  0  0  0
 12 14  1  0  0  0  0
 13 18  1  0  0  0  0
 14 23  1  0  0  0  0
 15 16  1  0  0  0  0
 15 19  1  0  0  0  0
 16 25  1  0  0  0  0
 17 20  1  0  0  0  0
 17 21  1  0  0  0  0
 18 19  1  0  0  0  0
 18 20  1  0  0  0  0
 19 23  1  0  0  0  0
 20 25  1  0  0  0  0
 21 24  1  0  0  0  0
 21 32  1  0  0  0  0
 22 27  1  0  0  0  0
 22 32  1  0  0  0  0
 22 33  1  0  0  0  0
 23 28  1  0  0  0  0
 24 25  1  0  0  0  0
 24 33  1  0  0  0  0
 25 29  1  0  0  0  0
  1 34  1  0  0  0  0
  2 35  1  0  0  0  0
  3 36  1  0  0  0  0
  4 37  1  0  0  0  0
  5 38  1  0  0  0  0
  7 39  1  0  0  0  0
 11 40  1  0  0  0  0
 11 41  1  0  0  0  0
 12 42  1  0  0  0  0
 12 43  1  0  0  0  0
 13 44  1  0  0  0  0
 13 45  1  0  0  0  0
 14 46  1  0  0  0  0
 14 47  1  0  0  0  0
 15 48  1  0  0  0  0
 15 49  1  0  0  0  0
 16 50  1  0  0  0  0
 16 51  1  0  0  0  0
 17 52  1  0  0  0  0
 17 53  1  0  0  0  0
 18 54  1  0  0  0  0
 19 55  1  0  0  0  0
 20 56  1  0  0  0  0
 21 57  1  0  0  0  0
 26 58  1  0  0  0  0
 26 59  1  0  0  0  0
 26 60  1  0  0  0  0
 27 61  1  0  0  0  0
 27 62  1  0  0  0  0
 27 63  1  0  0  0  0
 28 64  1  0  0  0  0
 28 65  1  0  0  0  0
 28 66  1  0  0  0  0
 29 67  1  0  0  0  0
 29 68  1  0  0  0  0
 29 69  1  0  0  0  0
M  END
> <Hybrid2>
-8.335078

> <docked_fragment>
x1077

> <Mpro-_dock>
5.779439

> <site>
active-noncovalent

$$$$
CHEMBL1623765
  -OEChem-04122014263D

 43 44  0     1  0  0  0  0  0999 V2000
   14.7607   -1.8097   23.6913 C   0  0  0  0  0  0  0  0  0  0  0  0
   14.3688   -1.9977   22.3659 C   0  0  0  0  0  0  0  0  0  0  0  0
   13.8601   -1.2824   24.6168 C   0  0  0  0  0  0  0  0  0  0  0  0
   13.0763   -1.6585   21.9660 C   0  0  0  0  0  0  0  0  0  0  0  0
   12.5675   -0.9432   24.2169 C   0  0  0  0  0  0  0  0  0  0  0  0
   12.1756   -1.1312   22.8914 C   0  0  0  0  0  0  0  0  0  0  0  0
   10.6226    0.9634   24.0837 C   0  0  0  0  0  0  0  0  0  0  0  0
   10.8325    0.3189   21.3436 C   0  0  0  0  0  0  0  0  0  0  0  0
    9.4781    0.6642   20.7356 C   0  0  0  0  0  0  0  0  0  0  0  0
    8.5986   -1.6030   21.3294 C   0  0  0  0  0  0  0  0  0  0  0  0
    9.9442   -1.9972   21.9577 C   0  0  1  0  0  0  0  0  0  0  0  0
   10.7528   -0.7573   22.4518 C   0  0  1  0  0  0  0  0  0  0  0  0
    9.6817   -3.0144   23.0774 C   0  0  0  0  0  0  0  0  0  0  0  0
    9.0648    0.3086   25.9439 C   0  0  0  0  0  0  0  0  0  0  0  0
    7.5521   -0.2961   19.4836 C   0  0  0  0  0  0  0  0  0  0  0  0
    9.7800    1.4485   25.2400 C   0  0  0  0  0  0  0  0  0  0  0  0
    8.8235   -0.5948   20.2306 N   0  3  1  0  0  0  0  0  0  0  0  0
   11.6425    1.5041   23.6786 O   0  0  0  0  0  0  0  0  0  0  0  0
   10.0616   -0.1728   23.5661 O   0  0  0  0  0  0  0  0  0  0  0  0
   15.7667   -2.0751   24.0029 H   0  0  0  0  0  0  0  0  0  0  0  0
   15.0696   -2.4093   21.6454 H   0  0  0  0  0  0  0  0  0  0  0  0
   14.1645   -1.1369   25.6490 H   0  0  0  0  0  0  0  0  0  0  0  0
   12.7798   -1.8083   20.9312 H   0  0  0  0  0  0  0  0  0  0  0  0
   11.8726   -0.5328   24.9448 H   0  0  0  0  0  0  0  0  0  0  0  0
   11.5011   -0.0199   20.5403 H   0  0  0  0  0  0  0  0  0  0  0  0
   11.2688    1.2410   21.7495 H   0  0  0  0  0  0  0  0  0  0  0  0
    8.8016    1.1279   21.4614 H   0  0  0  0  0  0  0  0  0  0  0  0
    9.6051    1.3359   19.8799 H   0  0  0  0  0  0  0  0  0  0  0  0
    8.1186   -2.4755   20.8720 H   0  0  0  0  0  0  0  0  0  0  0  0
    7.9109   -1.1553   22.0558 H   0  0  0  0  0  0  0  0  0  0  0  0
   10.5349   -2.5084   21.1832 H   0  0  0  0  0  0  0  0  0  0  0  0
    9.0983   -2.5437   23.8634 H   0  0  0  0  0  0  0  0  0  0  0  0
   10.6289   -3.3565   23.4839 H   0  0  0  0  0  0  0  0  0  0  0  0
    9.1325   -3.8607   22.6750 H   0  0  0  0  0  0  0  0  0  0  0  0
    8.4024   -0.2257   25.2547 H   0  0  0  0  0  0  0  0  0  0  0  0
    9.7896   -0.4062   26.3454 H   0  0  0  0  0  0  0  0  0  0  0  0
    8.4546    0.6802   26.7738 H   0  0  0  0  0  0  0  0  0  0  0  0
    6.8516    0.1597   20.1858 H   0  0  0  0  0  0  0  0  0  0  0  0
    7.7957    0.3905   18.6706 H   0  0  0  0  0  0  0  0  0  0  0  0
    7.1622   -1.2397   19.0971 H   0  0  0  0  0  0  0  0  0  0  0  0
   10.4331    1.9622   25.9535 H   0  0  0  0  0  0  0  0  0  0  0  0
    9.0396    2.1581   24.8557 H   0  0  0  0  0  0  0  0  0  0  0  0
    9.4656   -1.0225   19.5488 H   0  0  0  0  0  0  0  0  0  0  0  0
  1  2  1  0  0  0  0
  1  3  2  0  0  0  0
  2  4  2  0  0  0  0
  3  5  1  0  0  0  0
  4  6  1  0  0  0  0
  5  6  2  0  0  0  0
  6 12  1  0  0  0  0
  7 16  1  0  0  0  0
  7 18  2  0  0  0  0
  7 19  1  0  0  0  0
  8  9  1  0  0  0  0
  8 12  1  0  0  0  0
  9 17  1  0  0  0  0
 10 11  1  0  0  0  0
 10 17  1  0  0  0  0
 11 12  1  0  0  0  0
 11 13  1  0  0  0  0
 12 19  1  0  0  0  0
 14 16  1  0  0  0  0
 15 17  1  0  0  0  0
  1 20  1  0  0  0  0
  2 21  1  0  0  0  0
  3 22  1  0  0  0  0
  4 23  1  0  0  0  0
  5 24  1  0  0  0  0
  8 25  1  0  0  0  0
  8 26  1  0  0  0  0
  9 27  1  0  0  0  0
  9 28  1  0  0  0  0
 10 29  1  0  0  0  0
 10 30  1  0  0  0  0
 11 31  1  0  0  0  0
 13 32  1  0  0  0  0
 13 33  1  0  0  0  0
 13 34  1  0  0  0  0
 14 35  1  0  0  0  0
 14 36  1  0  0  0  0
 14 37  1  0  0  0  0
 15 38  1  0  0  0  0
 15 39  1  0  0  0  0
 15 40  1  0  0  0  0
 16 41  1  0  0  0  0
 16 42  1  0  0  0  0
 17 43  1  0  0  0  0
M  CHG  1  17   1
M  END
> <Hybrid2>
-8.321641

> <docked_fragment>
x0678

> <Mpro-_dock>
0.80855

> <site>
active-noncovalent

$$$$
CHEMBL2104352
  -OEChem-04122014263D

 56 59  0     1  0  0  0  0  0999 V2000
    5.6646   -6.2301   23.9226 C   0  0  0  0  0  0  0  0  0  0  0  0
    5.4795   -4.3449   22.2501 C   0  0  0  0  0  0  0  0  0  0  0  0
    6.9890   -6.2394   23.7430 C   0  0  0  0  0  0  0  0  0  0  0  0
    6.8103   -4.3581   22.0752 C   0  0  0  0  0  0  0  0  0  0  0  0
    4.8147   -5.2864   23.1740 C   0  0  0  0  0  0  0  0  0  0  0  0
   13.6680   -2.5571   25.4651 C   0  0  0  0  0  0  0  0  0  0  0  0
    7.4664   -3.3460   21.1713 C   0  0  0  0  0  0  0  0  0  0  0  0
    8.4871   -2.5240   21.9491 C   0  0  0  0  0  0  0  0  0  0  0  0
   11.2153   -1.4010   22.8740 C   0  0  0  0  0  0  0  0  0  0  0  0
   10.8449   -4.3591   25.1936 C   0  0  0  0  0  0  0  0  0  0  0  0
    9.5159   -3.4088   22.6773 C   0  0  1  0  0  0  0  0  0  0  0  0
   10.4496   -2.5444   23.5391 C   0  0  1  0  0  0  0  0  0  0  0  0
   12.3774   -1.0864   23.8534 C   0  0  2  0  0  0  0  0  0  0  0  0
    9.8241   -5.2620   24.4635 C   0  0  1  0  0  0  0  0  0  0  0  0
    7.7547   -5.3312   22.7913 C   0  0  1  0  0  0  0  0  0  0  0  0
   12.3087   -2.1877   24.9544 C   0  0  1  0  0  0  0  0  0  0  0  0
   11.5498   -3.3557   24.2575 C   0  0  1  0  0  0  0  0  0  0  0  0
    8.8069   -4.4663   23.5917 C   0  0  2  0  0  0  0  0  0  0  0  0
   14.1852   -1.7732   26.6408 C   0  0  0  0  0  0  0  0  0  0  0  0
   12.3149    0.3467   24.3742 C   0  0  0  0  0  0  0  0  0  0  0  0
    8.3813   -6.2586   21.7249 C   0  0  0  0  0  0  0  0  0  0  0  0
   12.5018   -4.0996   23.2800 C   0  0  0  0  0  0  0  0  0  0  0  0
    3.5968   -5.2793   23.3180 O   0  0  0  0  0  0  0  0  0  0  0  0
   14.3279   -3.4582   24.9499 O   0  0  0  0  0  0  0  0  0  0  0  0
   10.5092   -6.2450   23.7032 O   0  0  0  0  0  0  0  0  0  0  0  0
   11.6596   -1.7423   26.1392 O   0  0  0  0  0  0  0  0  0  0  0  0
    8.0664   -3.7335   24.5065 F   0  0  0  0  0  0  0  0  0  0  0  0
    5.1838   -6.9170   24.6093 H   0  0  0  0  0  0  0  0  0  0  0  0
    4.8422   -3.6345   21.7342 H   0  0  0  0  0  0  0  0  0  0  0  0
    7.5603   -6.9748   24.3051 H   0  0  0  0  0  0  0  0  0  0  0  0
    7.9529   -3.8563   20.3321 H   0  0  0  0  0  0  0  0  0  0  0  0
    6.7281   -2.6664   20.7283 H   0  0  0  0  0  0  0  0  0  0  0  0
    8.9983   -1.8510   21.2508 H   0  0  0  0  0  0  0  0  0  0  0  0
    7.9636   -1.8862   22.6737 H   0  0  0  0  0  0  0  0  0  0  0  0
   11.6169   -1.7102   21.9018 H   0  0  0  0  0  0  0  0  0  0  0  0
   10.5694   -0.5338   22.6999 H   0  0  0  0  0  0  0  0  0  0  0  0
   10.3029   -3.8186   25.9794 H   0  0  0  0  0  0  0  0  0  0  0  0
   11.5970   -4.9774   25.6987 H   0  0  0  0  0  0  0  0  0  0  0  0
   10.1029   -3.9231   21.9097 H   0  0  0  0  0  0  0  0  0  0  0  0
    9.8046   -2.0725   24.2963 H   0  0  0  0  0  0  0  0  0  0  0  0
   13.3165   -1.1835   23.2918 H   0  0  0  0  0  0  0  0  0  0  0  0
    9.2728   -5.7953   25.2465 H   0  0  0  0  0  0  0  0  0  0  0  0
   13.8853   -2.2630   27.5714 H   0  0  0  0  0  0  0  0  0  0  0  0
   13.7657   -0.7643   26.6215 H   0  0  0  0  0  0  0  0  0  0  0  0
   15.2763   -1.7290   26.6004 H   0  0  0  0  0  0  0  0  0  0  0  0
   11.3969    0.4950   24.9412 H   0  0  0  0  0  0  0  0  0  0  0  0
   12.3337    1.0454   23.5388 H   0  0  0  0  0  0  0  0  0  0  0  0
   13.1686    0.5430   25.0215 H   0  0  0  0  0  0  0  0  0  0  0  0
    8.9399   -5.6554   21.0205 H   0  0  0  0  0  0  0  0  0  0  0  0
    7.5888   -6.7889   21.2125 H   0  0  0  0  0  0  0  0  0  0  0  0
    9.0414   -6.9620   22.2164 H   0  0  0  0  0  0  0  0  0  0  0  0
   12.9767   -3.3690   22.6420 H   0  0  0  0  0  0  0  0  0  0  0  0
   11.9164   -4.7905   22.6915 H   0  0  0  0  0  0  0  0  0  0  0  0
   13.2415   -4.6310   23.8606 H   0  0  0  0  0  0  0  0  0  0  0  0
   11.0403   -6.7659   24.3281 H   0  0  0  0  0  0  0  0  0  0  0  0
   11.6616   -2.4910   26.7566 H   0  0  0  0  0  0  0  0  0  0  0  0
  1  3  2  0  0  0  0
  1  5  1  0  0  0  0
  2  4  2  0  0  0  0
  2  5  1  0  0  0  0
  3 15  1  0  0  0  0
  4  7  1  0  0  0  0
  4 15  1  0  0  0  0
  5 23  2  0  0  0  0
  6 16  1  0  0  0  0
  6 19  1  0  0  0  0
  6 24  2  0  0  0  0
  7  8  1  0  0  0  0
  8 11  1  0  0  0  0
  9 12  1  0  0  0  0
  9 13  1  0  0  0  0
 10 14  1  0  0  0  0
 10 17  1  0  0  0  0
 11 12  1  0  0  0  0
 11 18  1  0  0  0  0
 12 17  1  0  0  0  0
 13 16  1  0  0  0  0
 13 20  1  0  0  0  0
 14 18  1  0  0  0  0
 14 25  1  0  0  0  0
 15 18  1  0  0  0  0
 15 21  1  0  0  0  0
 16 17  1  0  0  0  0
 16 26  1  0  0  0  0
 17 22  1  0  0  0  0
 18 27  1  0  0  0  0
  1 28  1  0  0  0  0
  2 29  1  0  0  0  0
  3 30  1  0  0  0  0
  7 31  1  0  0  0  0
  7 32  1  0  0  0  0
  8 33  1  0  0  0  0
  8 34  1  0  0  0  0
  9 35  1  0  0  0  0
  9 36  1  0  0  0  0
 10 37  1  0  0  0  0
 10 38  1  0  0  0  0
 11 39  1  0  0  0  0
 12 40  1  0  0  0  0
 13 41  1  0  0  0  0
 14 42  1  0  0  0  0
 19 43  1  0  0  0  0
 19 44  1  0  0  0  0
 19 45  1  0  0  0  0
 20 46  1  0  0  0  0
 20 47  1  0  0  0  0
 20 48  1  0  0  0  0
 21 49  1  0  0  0  0
 21 50  1  0  0  0  0
 21 51  1  0  0  0  0
 22 52  1  0  0  0  0
 22 53  1  0  0  0  0
 22 54  1  0  0  0  0
 25 55  1  0  0  0  0
 26 56  1  0  0  0  0
M  END
> <Hybrid2>
-8.311245

> <docked_fragment>
x0749

> <Mpro-_dock>
2.120185

> <site>
active-covalent

$$$$
CHEMBL210952
  -OEChem-04122014263D

 57 60  0     1  0  0  0  0  0999 V2000
    6.2861   -5.5786   27.5795 C   0  0  0  0  0  0  0  0  0  0  0  0
    6.3350   -5.8174   25.0656 C   0  0  0  0  0  0  0  0  0  0  0  0
    6.7112   -4.8198   23.9553 C   0  0  0  0  0  0  0  0  0  0  0  0
    9.0717   -1.5347   21.8166 C   0  0  0  0  0  0  0  0  0  0  0  0
    8.5702   -2.8355   22.4365 C   0  0  0  0  0  0  0  0  0  0  0  0
    9.2004   -2.0439   26.2413 C   0  0  0  0  0  0  0  0  0  0  0  0
   12.4863   -1.0458   24.5403 C   0  0  0  0  0  0  0  0  0  0  0  0
    8.6855   -3.3765   26.8158 C   0  0  0  0  0  0  0  0  0  0  0  0
   11.2487   -0.1938   24.7916 C   0  0  0  0  0  0  0  0  0  0  0  0
   11.5385   -1.7500   22.3179 C   0  0  0  0  0  0  0  0  0  0  0  0
    7.0882   -5.3625   26.3333 C   0  0  1  0  0  0  0  0  0  0  0  0
   10.2618   -0.9210   22.5729 C   0  0  2  0  0  0  0  0  0  0  0  0
    8.2496   -2.6787   23.9283 C   0  0  1  0  0  0  0  0  0  0  0  0
    7.8599   -4.0198   24.5604 C   0  0  1  0  0  0  0  0  0  0  0  0
    9.4676   -2.0907   24.7122 C   0  0  1  0  0  0  0  0  0  0  0  0
   12.7539   -1.1891   23.0475 C   0  0  2  0  0  0  0  0  0  0  0  0
    7.4620   -3.8912   26.0465 C   0  0  2  0  0  0  0  0  0  0  0  0
    9.9611   -0.7268   24.0977 C   0  0  1  0  0  0  0  0  0  0  0  0
    5.2982   -6.7135   27.5602 C   0  0  0  0  0  0  0  0  0  0  0  0
    6.2505   -2.9548   26.2952 C   0  0  0  0  0  0  0  0  0  0  0  0
    8.8904    0.3817   24.2722 C   0  0  0  0  0  0  0  0  0  0  0  0
    6.4293   -4.8646   28.5709 O   0  0  0  0  0  0  0  0  0  0  0  0
   13.8655   -2.0602   22.8678 O   0  0  0  0  0  0  0  0  0  0  0  0
    5.2480   -5.8395   25.2039 H   0  0  0  0  0  0  0  0  0  0  0  0
    6.6448   -6.8324   24.7909 H   0  0  0  0  0  0  0  0  0  0  0  0
    7.0084   -5.3399   23.0390 H   0  0  0  0  0  0  0  0  0  0  0  0
    5.8585   -4.1773   23.7100 H   0  0  0  0  0  0  0  0  0  0  0  0
    9.3471   -1.7168   20.7705 H   0  0  0  0  0  0  0  0  0  0  0  0
    8.2464   -0.8132   21.7858 H   0  0  0  0  0  0  0  0  0  0  0  0
    7.6722   -3.1553   21.8942 H   0  0  0  0  0  0  0  0  0  0  0  0
    9.3136   -3.6282   22.2920 H   0  0  0  0  0  0  0  0  0  0  0  0
    8.4838   -1.2521   26.4799 H   0  0  0  0  0  0  0  0  0  0  0  0
   10.1244   -1.7956   26.7743 H   0  0  0  0  0  0  0  0  0  0  0  0
   13.3573   -0.5857   25.0232 H   0  0  0  0  0  0  0  0  0  0  0  0
   12.3844   -2.0323   25.0079 H   0  0  0  0  0  0  0  0  0  0  0  0
    9.4982   -4.1130   26.7676 H   0  0  0  0  0  0  0  0  0  0  0  0
    8.4482   -3.2492   27.8787 H   0  0  0  0  0  0  0  0  0  0  0  0
   11.0976   -0.0798   25.8704 H   0  0  0  0  0  0  0  0  0  0  0  0
   11.4609    0.8192   24.4206 H   0  0  0  0  0  0  0  0  0  0  0  0
   11.4015   -2.7988   22.6061 H   0  0  0  0  0  0  0  0  0  0  0  0
   11.7520   -1.7783   21.2412 H   0  0  0  0  0  0  0  0  0  0  0  0
    7.9967   -5.9701   26.4399 H   0  0  0  0  0  0  0  0  0  0  0  0
   10.4442    0.0700   22.1322 H   0  0  0  0  0  0  0  0  0  0  0  0
    7.3988   -1.9941   24.0033 H   0  0  0  0  0  0  0  0  0  0  0  0
    8.7496   -4.6688   24.4941 H   0  0  0  0  0  0  0  0  0  0  0  0
   10.2837   -2.8166   24.5906 H   0  0  0  0  0  0  0  0  0  0  0  0
   13.0244   -0.2128   22.6275 H   0  0  0  0  0  0  0  0  0  0  0  0
    5.7817   -7.6292   27.9119 H   0  0  0  0  0  0  0  0  0  0  0  0
    4.9420   -6.8717   26.5393 H   0  0  0  0  0  0  0  0  0  0  0  0
    4.4596   -6.4805   28.2207 H   0  0  0  0  0  0  0  0  0  0  0  0
    5.4015   -3.3353   25.7450 H   0  0  0  0  0  0  0  0  0  0  0  0
    6.5056   -1.9621   25.9519 H   0  0  0  0  0  0  0  0  0  0  0  0
    6.0360   -2.9419   27.3545 H   0  0  0  0  0  0  0  0  0  0  0  0
    7.9736    0.0534   23.8029 H   0  0  0  0  0  0  0  0  0  0  0  0
    9.2496    1.2860   23.8012 H   0  0  0  0  0  0  0  0  0  0  0  0
    8.7327    0.5464   25.3288 H   0  0  0  0  0  0  0  0  0  0  0  0
   14.6173   -1.6486   23.3225 H   0  0  0  0  0  0  0  0  0  0  0  0
  1 11  1  0  0  0  0
  1 19  1  0  0  0  0
  1 22  2  0  0  0  0
  2  3  1  0  0  0  0
  2 11  1  0  0  0  0
  3 14  1  0  0  0  0
  4  5  1  0  0  0  0
  4 12  1  0  0  0  0
  5 13  1  0  0  0  0
  6  8  1  0  0  0  0
  6 15  1  0  0  0  0
  7  9  1  0  0  0  0
  7 16  1  0  0  0  0
  8 17  1  0  0  0  0
  9 18  1  0  0  0  0
 10 12  1  0  0  0  0
 10 16  1  0  0  0  0
 11 17  1  0  0  0  0
 12 18  1  0  0  0  0
 13 14  1  0  0  0  0
 13 15  1  0  0  0  0
 14 17  1  0  0  0  0
 15 18  1  0  0  0  0
 16 23  1  0  0  0  0
 17 20  1  0  0  0  0
 18 21  1  0  0  0  0
  2 24  1  0  0  0  0
  2 25  1  0  0  0  0
  3 26  1  0  0  0  0
  3 27  1  0  0  0  0
  4 28  1  0  0  0  0
  4 29  1  0  0  0  0
  5 30  1  0  0  0  0
  5 31  1  0  0  0  0
  6 32  1  0  0  0  0
  6 33  1  0  0  0  0
  7 34  1  0  0  0  0
  7 35  1  0  0  0  0
  8 36  1  0  0  0  0
  8 37  1  0  0  0  0
  9 38  1  0  0  0  0
  9 39  1  0  0  0  0
 10 40  1  0  0  0  0
 10 41  1  0  0  0  0
 11 42  1  0  0  0  0
 12 43  1  0  0  0  0
 13 44  1  0  0  0  0
 14 45  1  0  0  0  0
 15 46  1  0  0  0  0
 16 47  1  0  0  0  0
 19 48  1  0  0  0  0
 19 49  1  0  0  0  0
 19 50  1  0  0  0  0
 20 51  1  0  0  0  0
 20 52  1  0  0  0  0
 20 53  1  0  0  0  0
 21 54  1  0  0  0  0
 21 55  1  0  0  0  0
 21 56  1  0  0  0  0
 23 57  1  0  0  0  0
M  END
> <Hybrid2>
-8.310772

> <docked_fragment>
x0072

> <Mpro-_dock>
1.192265

> <site>
active-noncovalent

$$$$
CHEMBL488
  -OEChem-04122014263D

 33 34  0     1  0  0  0  0  0999 V2000
   13.6017    1.7895   22.3214 C   0  0  0  0  0  0  0  0  0  0  0  0
   11.5487    1.5926   23.5798 C   0  0  0  0  0  0  0  0  0  0  0  0
   13.3837    3.1600   22.1801 C   0  0  0  0  0  0  0  0  0  0  0  0
   11.3307    2.9631   23.4386 C   0  0  0  0  0  0  0  0  0  0  0  0
   12.6842    1.0058   23.0212 C   0  0  0  0  0  0  0  0  0  0  0  0
   12.2482    3.7468   22.7387 C   0  0  0  0  0  0  0  0  0  0  0  0
   10.5421   -1.7496   21.9380 C   0  0  0  0  0  0  0  0  0  0  0  0
   13.0002   -1.2394   21.8278 C   0  0  0  0  0  0  0  0  0  0  0  0
   10.4724   -1.1317   23.3106 C   0  0  0  0  0  0  0  0  0  0  0  0
   11.8188   -1.1882   24.0158 C   0  0  0  0  0  0  0  0  0  0  0  0
   12.9236   -0.5064   23.1772 C   0  0  2  0  0  0  0  0  0  0  0  0
   14.5777   -2.1679   24.0760 C   0  0  0  0  0  0  0  0  0  0  0  0
   14.2793   -0.7185   23.8904 C   0  0  0  0  0  0  0  0  0  0  0  0
   11.7962   -1.7455   21.3389 N   0  0  0  0  0  0  0  0  0  0  0  0
   12.0284    5.1327   22.5977 N   0  0  0  0  0  0  0  0  0  0  0  0
    9.5358   -2.1862   21.3797 O   0  0  0  0  0  0  0  0  0  0  0  0
   14.0478   -1.3328   21.1849 O   0  0  0  0  0  0  0  0  0  0  0  0
   14.4884    1.3405   21.8820 H   0  0  0  0  0  0  0  0  0  0  0  0
   10.8276    0.9898   24.1252 H   0  0  0  0  0  0  0  0  0  0  0  0
   14.1042    3.7612   21.6316 H   0  0  0  0  0  0  0  0  0  0  0  0
   10.4422    3.4097   23.8774 H   0  0  0  0  0  0  0  0  0  0  0  0
   10.1110   -0.1031   23.2085 H   0  0  0  0  0  0  0  0  0  0  0  0
    9.7338   -1.6875   23.8991 H   0  0  0  0  0  0  0  0  0  0  0  0
   11.7275   -0.7027   24.9957 H   0  0  0  0  0  0  0  0  0  0  0  0
   12.0865   -2.2375   24.2007 H   0  0  0  0  0  0  0  0  0  0  0  0
   13.7830   -2.6294   24.6738 H   0  0  0  0  0  0  0  0  0  0  0  0
   15.5261   -2.3089   24.6052 H   0  0  0  0  0  0  0  0  0  0  0  0
   14.6222   -2.6859   23.1121 H   0  0  0  0  0  0  0  0  0  0  0  0
   15.0659   -0.2509   23.2960 H   0  0  0  0  0  0  0  0  0  0  0  0
   14.2480   -0.2192   24.8601 H   0  0  0  0  0  0  0  0  0  0  0  0
   11.8449   -2.1802   20.4213 H   0  0  0  0  0  0  0  0  0  0  0  0
   11.1875    5.5329   22.9620 H   0  0  0  0  0  0  0  0  0  0  0  0
   12.6695    5.6754   22.0550 H   0  0  0  0  0  0  0  0  0  0  0  0
  1  3  2  0  0  0  0
  1  5  1  0  0  0  0
  2  4  1  0  0  0  0
  2  5  2  0  0  0  0
  3  6  1  0  0  0  0
  4  6  2  0  0  0  0
  5 11  1  0  0  0  0
  6 15  1  0  0  0  0
  7  9  1  0  0  0  0
  7 14  1  0  0  0  0
  7 16  2  0  0  0  0
  8 11  1  0  0  0  0
  8 14  1  0  0  0  0
  8 17  2  0  0  0  0
  9 10  1  0  0  0  0
 10 11  1  0  0  0  0
 11 13  1  0  0  0  0
 12 13  1  0  0  0  0
  1 18  1  0  0  0  0
  2 19  1  0  0  0  0
  3 20  1  0  0  0  0
  4 21  1  0  0  0  0
  9 22  1  0  0  0  0
  9 23  1  0  0  0  0
 10 24  1  0  0  0  0
 10 25  1  0  0  0  0
 12 26  1  0  0  0  0
 12 27  1  0  0  0  0
 12 28  1  0  0  0  0
 13 29  1  0  0  0  0
 13 30  1  0  0  0  0
 14 31  1  0  0  0  0
 15 32  1  0  0  0  0
 15 33  1  0  0  0  0
M  END
> <Hybrid2>
-8.301993

> <docked_fragment>
x0195

> <Mpro-_dock>
-0.337944

> <site>
active-noncovalent

$$$$
CHEMBL1698011
  -OEChem-04122014263D

 47 50  0     1  0  0  0  0  0999 V2000
   10.1959   -4.3158   24.1885 C   0  0  0  0  0  0  0  0  0  0  0  0
   13.1347   -0.5357   25.5448 C   0  0  0  0  0  0  0  0  0  0  0  0
    9.0555   -4.7701   23.6367 C   0  0  0  0  0  0  0  0  0  0  0  0
   10.5542   -2.8917   24.3058 C   0  0  0  0  0  0  0  0  0  0  0  0
   12.0479   -1.0185   24.9175 C   0  0  0  0  0  0  0  0  0  0  0  0
   11.7124   -2.4539   24.8666 C   0  0  0  0  0  0  0  0  0  0  0  0
   14.0122   -1.4168   26.3469 C   0  0  0  0  0  0  0  0  0  0  0  0
    5.9310   -5.9628   20.9151 C   0  0  0  0  0  0  0  0  0  0  0  0
   11.1256   -0.0334   24.2390 C   0  0  0  0  0  0  0  0  0  0  0  0
   12.7894   -3.3735   25.4199 C   0  0  0  0  0  0  0  0  0  0  0  0
   13.5130   -2.8062   26.6333 C   0  0  0  0  0  0  0  0  0  0  0  0
   10.2928   -0.6659   23.1345 C   0  0  0  0  0  0  0  0  0  0  0  0
    7.6887   -1.8162   21.8088 C   0  0  0  0  0  0  0  0  0  0  0  0
    6.8353   -2.9249   21.1660 C   0  0  0  0  0  0  0  0  0  0  0  0
    9.5584   -1.8957   23.6776 C   0  0  1  0  0  0  0  0  0  0  0  0
    8.7629   -2.5873   22.5663 C   0  0  1  0  0  0  0  0  0  0  0  0
    7.3218   -4.2567   21.7751 C   0  0  1  0  0  0  0  0  0  0  0  0
    8.0156   -3.8350   23.0844 C   0  0  1  0  0  0  0  0  0  0  0  0
    6.0481   -7.3964   21.3358 C   0  0  0  0  0  0  0  0  0  0  0  0
    6.9834   -3.5712   24.2047 C   0  0  0  0  0  0  0  0  0  0  0  0
   15.0599   -0.9846   26.8202 O   0  0  0  0  0  0  0  0  0  0  0  0
    5.6134   -5.6027   19.7896 O   0  0  0  0  0  0  0  0  0  0  0  0
    6.2296   -5.1370   21.9669 O   0  0  0  0  0  0  0  0  0  0  0  0
   10.8881   -5.0640   24.5584 H   0  0  0  0  0  0  0  0  0  0  0  0
   13.4378    0.5024   25.4490 H   0  0  0  0  0  0  0  0  0  0  0  0
    8.8512   -5.8345   23.6309 H   0  0  0  0  0  0  0  0  0  0  0  0
   10.4594    0.4208   25.0019 H   0  0  0  0  0  0  0  0  0  0  0  0
   11.6976    0.8150   23.8102 H   0  0  0  0  0  0  0  0  0  0  0  0
   12.3082   -4.3262   25.6977 H   0  0  0  0  0  0  0  0  0  0  0  0
   13.5561   -3.6284   24.6782 H   0  0  0  0  0  0  0  0  0  0  0  0
   14.3677   -3.4314   26.9136 H   0  0  0  0  0  0  0  0  0  0  0  0
   12.8206   -2.7631   27.4806 H   0  0  0  0  0  0  0  0  0  0  0  0
    9.5683    0.0681   22.7564 H   0  0  0  0  0  0  0  0  0  0  0  0
   10.9366   -0.9417   22.2858 H   0  0  0  0  0  0  0  0  0  0  0  0
    8.1160   -1.1498   21.0514 H   0  0  0  0  0  0  0  0  0  0  0  0
    7.0810   -1.2022   22.4837 H   0  0  0  0  0  0  0  0  0  0  0  0
    5.7690   -2.7498   21.3495 H   0  0  0  0  0  0  0  0  0  0  0  0
    6.9733   -2.9392   20.0786 H   0  0  0  0  0  0  0  0  0  0  0  0
    8.8933   -1.5448   24.4598 H   0  0  0  0  0  0  0  0  0  0  0  0
    9.4956   -2.8947   21.8011 H   0  0  0  0  0  0  0  0  0  0  0  0
    8.0292   -4.7395   21.0879 H   0  0  0  0  0  0  0  0  0  0  0  0
    7.0663   -7.7524   21.1604 H   0  0  0  0  0  0  0  0  0  0  0  0
    5.3267   -8.0049   20.7846 H   0  0  0  0  0  0  0  0  0  0  0  0
    5.8288   -7.4799   22.4042 H   0  0  0  0  0  0  0  0  0  0  0  0
    6.2241   -2.8989   23.8277 H   0  0  0  0  0  0  0  0  0  0  0  0
    7.4916   -3.1236   25.0485 H   0  0  0  0  0  0  0  0  0  0  0  0
    6.5364   -4.5127   24.4954 H   0  0  0  0  0  0  0  0  0  0  0  0
  1  3  2  0  0  0  0
  1  4  1  0  0  0  0
  2  5  2  0  0  0  0
  2  7  1  0  0  0  0
  3 18  1  0  0  0  0
  4  6  2  0  0  0  0
  4 15  1  0  0  0  0
  5  6  1  0  0  0  0
  5  9  1  0  0  0  0
  6 10  1  0  0  0  0
  7 11  1  0  0  0  0
  7 21  2  0  0  0  0
  8 19  1  0  0  0  0
  8 22  2  0  0  0  0
  8 23  1  0  0  0  0
  9 12  1  0  0  0  0
 10 11  1  0  0  0  0
 12 15  1  0  0  0  0
 13 14  1  0  0  0  0
 13 16  1  0  0  0  0
 14 17  1  0  0  0  0
 15 16  1  0  0  0  0
 16 18  1  0  0  0  0
 17 18  1  0  0  0  0
 17 23  1  0  0  0  0
 18 20  1  0  0  0  0
  1 24  1  0  0  0  0
  2 25  1  0  0  0  0
  3 26  1  0  0  0  0
  9 27  1  0  0  0  0
  9 28  1  0  0  0  0
 10 29  1  0  0  0  0
 10 30  1  0  0  0  0
 11 31  1  0  0  0  0
 11 32  1  0  0  0  0
 12 33  1  0  0  0  0
 12 34  1  0  0  0  0
 13 35  1  0  0  0  0
 13 36  1  0  0  0  0
 14 37  1  0  0  0  0
 14 38  1  0  0  0  0
 15 39  1  0  0  0  0
 16 40  1  0  0  0  0
 17 41  1  0  0  0  0
 19 42  1  0  0  0  0
 19 43  1  0  0  0  0
 19 44  1  0  0  0  0
 20 45  1  0  0  0  0
 20 46  1  0  0  0  0
 20 47  1  0  0  0  0
M  END
> <Hybrid2>
-8.294770

> <docked_fragment>
x0749

> <Mpro-_dock>
4.208807

> <site>
active-covalent

$$$$
CHEMBL2104744
  -OEChem-04122014263D

 59 62  0     1  0  0  0  0  0999 V2000
   13.1807   -2.0473   26.2463 C   0  0  0  0  0  0  0  0  0  0  0  0
   12.4344   -2.7176   25.3536 C   0  0  0  0  0  0  0  0  0  0  0  0
   13.6979   -0.6950   25.9354 C   0  0  0  0  0  0  0  0  0  0  0  0
    5.9027   -4.3879   21.2298 C   0  0  0  0  0  0  0  0  0  0  0  0
    4.7995   -3.5985   23.8494 C   0  0  0  0  0  0  0  0  0  0  0  0
   12.0624   -4.1532   25.6157 C   0  0  0  0  0  0  0  0  0  0  0  0
   13.5244   -0.1843   24.5290 C   0  0  0  0  0  0  0  0  0  0  0  0
   10.5751   -4.3974   25.4059 C   0  0  0  0  0  0  0  0  0  0  0  0
   12.1700   -0.6042   23.9854 C   0  0  0  0  0  0  0  0  0  0  0  0
    8.0340   -5.5749   24.0653 C   0  0  0  0  0  0  0  0  0  0  0  0
    6.6520   -5.5198   23.3796 C   0  0  0  0  0  0  0  0  0  0  0  0
    8.4758   -2.3974   22.0797 C   0  0  0  0  0  0  0  0  0  0  0  0
   11.9626   -2.1342   24.0285 C   0  0  2  0  0  0  0  0  0  0  0  0
   10.1432   -3.9855   23.9915 C   0  0  1  0  0  0  0  0  0  0  0  0
    8.6374   -4.2004   23.7924 C   0  0  1  0  0  0  0  0  0  0  0  0
   10.4645   -2.4795   23.7404 C   0  0  2  0  0  0  0  0  0  0  0  0
    9.9509   -1.9886   22.3449 C   0  0  1  0  0  0  0  0  0  0  0  0
    6.6483   -4.2327   22.5213 C   0  0  1  0  0  0  0  0  0  0  0  0
    8.1541   -3.8776   22.3612 C   0  0  1  0  0  0  0  0  0  0  0  0
    5.8876   -5.7626   20.6181 C   0  0  0  0  0  0  0  0  0  0  0  0
    4.9159   -3.3217   25.3177 C   0  0  0  0  0  0  0  0  0  0  0  0
   10.8791   -2.3522   21.1798 C   0  0  0  0  0  0  0  0  0  0  0  0
    8.7788   -4.7950   21.2755 C   0  0  0  0  0  0  0  0  0  0  0  0
   14.3149   -0.0609   26.7882 O   0  0  0  0  0  0  0  0  0  0  0  0
    5.3297   -3.4385   20.6975 O   0  0  0  0  0  0  0  0  0  0  0  0
    3.8166   -4.1022   23.3229 O   0  0  0  0  0  0  0  0  0  0  0  0
    5.9430   -3.2061   23.2131 O   0  0  0  0  0  0  0  0  0  0  0  0
   13.4915   -2.4889   27.1868 H   0  0  0  0  0  0  0  0  0  0  0  0
   12.6385   -4.7936   24.9358 H   0  0  0  0  0  0  0  0  0  0  0  0
   12.3315   -4.4572   26.6346 H   0  0  0  0  0  0  0  0  0  0  0  0
   13.5890    0.9090   24.5415 H   0  0  0  0  0  0  0  0  0  0  0  0
   14.3408   -0.5727   23.9109 H   0  0  0  0  0  0  0  0  0  0  0  0
   10.3700   -5.4620   25.5680 H   0  0  0  0  0  0  0  0  0  0  0  0
    9.9972   -3.8427   26.1565 H   0  0  0  0  0  0  0  0  0  0  0  0
   11.3854   -0.1092   24.5740 H   0  0  0  0  0  0  0  0  0  0  0  0
   12.0767   -0.2313   22.9603 H   0  0  0  0  0  0  0  0  0  0  0  0
    7.9335   -5.7756   25.1368 H   0  0  0  0  0  0  0  0  0  0  0  0
    8.6456   -6.3750   23.6335 H   0  0  0  0  0  0  0  0  0  0  0  0
    6.5090   -6.4234   22.7762 H   0  0  0  0  0  0  0  0  0  0  0  0
    5.8616   -5.5006   24.1386 H   0  0  0  0  0  0  0  0  0  0  0  0
    7.8583   -1.7637   22.7300 H   0  0  0  0  0  0  0  0  0  0  0  0
    8.1857   -2.1318   21.0556 H   0  0  0  0  0  0  0  0  0  0  0  0
   12.5904   -2.5933   23.2535 H   0  0  0  0  0  0  0  0  0  0  0  0
   10.7119   -4.6000   23.2852 H   0  0  0  0  0  0  0  0  0  0  0  0
    8.1380   -3.5109   24.4936 H   0  0  0  0  0  0  0  0  0  0  0  0
    9.8730   -1.9186   24.4827 H   0  0  0  0  0  0  0  0  0  0  0  0
    9.9353   -0.8899   22.3713 H   0  0  0  0  0  0  0  0  0  0  0  0
    5.0253   -6.3226   20.9906 H   0  0  0  0  0  0  0  0  0  0  0  0
    6.8009   -6.2959   20.8931 H   0  0  0  0  0  0  0  0  0  0  0  0
    5.8121   -5.6792   19.5312 H   0  0  0  0  0  0  0  0  0  0  0  0
    5.3464   -4.1883   25.8255 H   0  0  0  0  0  0  0  0  0  0  0  0
    3.9319   -3.0832   25.7293 H   0  0  0  0  0  0  0  0  0  0  0  0
    5.5753   -2.4630   25.4737 H   0  0  0  0  0  0  0  0  0  0  0  0
   10.9443   -3.4333   21.0914 H   0  0  0  0  0  0  0  0  0  0  0  0
   11.8694   -1.9443   21.3638 H   0  0  0  0  0  0  0  0  0  0  0  0
   10.4828   -1.9372   20.2569 H   0  0  0  0  0  0  0  0  0  0  0  0
    8.5312   -5.8207   21.5081 H   0  0  0  0  0  0  0  0  0  0  0  0
    9.8501   -4.6558   21.2828 H   0  0  0  0  0  0  0  0  0  0  0  0
    8.3698   -4.5180   20.3145 H   0  0  0  0  0  0  0  0  0  0  0  0
  1  2  2  0  0  0  0
  1  3  1  0  0  0  0
  2  6  1  0  0  0  0
  2 13  1  0  0  0  0
  3  7  1  0  0  0  0
  3 24  2  0  0  0  0
  4 18  1  0  0  0  0
  4 20  1  0  0  0  0
  4 25  2  0  0  0  0
  5 21  1  0  0  0  0
  5 26  2  0  0  0  0
  5 27  1  0  0  0  0
  6  8  1  0  0  0  0
  7  9  1  0  0  0  0
  8 14  1  0  0  0  0
  9 13  1  0  0  0  0
 10 11  1  0  0  0  0
 10 15  1  0  0  0  0
 11 18  1  0  0  0  0
 12 17  1  0  0  0  0
 12 19  1  0  0  0  0
 13 16  1  0  0  0  0
 14 15  1  0  0  0  0
 14 16  1  0  0  0  0
 15 19  1  0  0  0  0
 16 17  1  0  0  0  0
 17 22  1  0  0  0  0
 18 19  1  0  0  0  0
 18 27  1  0  0  0  0
 19 23  1  0  0  0  0
  1 28  1  0  0  0  0
  6 29  1  0  0  0  0
  6 30  1  0  0  0  0
  7 31  1  0  0  0  0
  7 32  1  0  0  0  0
  8 33  1  0  0  0  0
  8 34  1  0  0  0  0
  9 35  1  0  0  0  0
  9 36  1  0  0  0  0
 10 37  1  0  0  0  0
 10 38  1  0  0  0  0
 11 39  1  0  0  0  0
 11 40  1  0  0  0  0
 12 41  1  0  0  0  0
 12 42  1  0  0  0  0
 13 43  1  0  0  0  0
 14 44  1  0  0  0  0
 15 45  1  0  0  0  0
 16 46  1  0  0  0  0
 17 47  1  0  0  0  0
 20 48  1  0  0  0  0
 20 49  1  0  0  0  0
 20 50  1  0  0  0  0
 21 51  1  0  0  0  0
 21 52  1  0  0  0  0
 21 53  1  0  0  0  0
 22 54  1  0  0  0  0
 22 55  1  0  0  0  0
 22 56  1  0  0  0  0
 23 57  1  0  0  0  0
 23 58  1  0  0  0  0
 23 59  1  0  0  0  0
M  END
> <Hybrid2>
-8.286314

> <docked_fragment>
x0749

> <Mpro-_dock>
3.573144

> <site>
active-covalent

$$$$
CHEMBL2106806
  -OEChem-04122014263D

 63 68  0     1  0  0  0  0  0999 V2000
    3.3964   -4.8144   26.7026 C   0  0  0  0  0  0  0  0  0  0  0  0
    4.4637   -5.3493   26.8282 C   0  0  0  0  0  0  0  0  0  0  0  0
   11.9078    2.8928   22.8878 C   0  0  0  0  0  0  0  0  0  0  0  0
    9.7269    3.8105   23.3764 C   0  0  0  0  0  0  0  0  0  0  0  0
   12.5068    4.0439   23.3994 C   0  0  0  0  0  0  0  0  0  0  0  0
   10.3259    4.9616   23.8881 C   0  0  0  0  0  0  0  0  0  0  0  0
    9.0687    0.3478   20.9099 C   0  0  0  0  0  0  0  0  0  0  0  0
    9.0324   -0.3647   22.1199 C   0  0  0  0  0  0  0  0  0  0  0  0
   10.5178    2.7761   22.8763 C   0  0  0  0  0  0  0  0  0  0  0  0
   11.7159    5.0782   23.8996 C   0  0  0  0  0  0  0  0  0  0  0  0
    9.5902    0.4883   23.0317 C   0  0  0  0  0  0  0  0  0  0  0  0
    9.8162    0.2595   24.3936 C   0  0  0  0  0  0  0  0  0  0  0  0
    9.6013   -0.9999   24.8348 C   0  0  0  0  0  0  0  0  0  0  0  0
    8.5187   -1.6920   22.5248 C   0  0  0  0  0  0  0  0  0  0  0  0
    9.8957   -1.3418   26.2745 C   0  0  0  0  0  0  0  0  0  0  0  0
    8.7502   -2.1057   26.9239 C   0  0  0  0  0  0  0  0  0  0  0  0
    7.3846   -4.5867   28.2338 C   0  0  0  0  0  0  0  0  0  0  0  0
    7.5258   -4.2511   23.8727 C   0  0  0  0  0  0  0  0  0  0  0  0
    6.3532   -5.7226   28.3939 C   0  0  0  0  0  0  0  0  0  0  0  0
    6.4376   -5.0554   24.6072 C   0  0  0  0  0  0  0  0  0  0  0  0
    8.4059   -3.3740   26.1316 C   0  0  2  0  0  0  0  0  0  0  0  0
    8.0141   -3.0069   24.6661 C   0  0  1  0  0  0  0  0  0  0  0  0
    7.2424   -4.1346   26.7821 C   0  0  1  0  0  0  0  0  0  0  0  0
    5.7765   -6.0068   26.9820 C   0  0  2  0  0  0  0  0  0  0  0  0
    9.1227   -2.1742   23.9154 C   0  0  2  0  0  0  0  0  0  0  0  0
    6.8738   -5.4347   26.0343 C   0  0  1  0  0  0  0  0  0  0  0  0
   10.3757   -3.0299   23.6031 C   0  0  0  0  0  0  0  0  0  0  0  0
    8.0505   -6.4504   25.9362 C   0  0  0  0  0  0  0  0  0  0  0  0
    9.6133    1.5645   21.0504 N   0  0  0  0  0  0  0  0  0  0  0  0
    9.9186    1.6241   22.3643 N   0  0  0  0  0  0  0  0  0  0  0  0
    5.5998   -7.4042   26.7904 O   0  0  0  0  0  0  0  0  0  0  0  0
   12.2912    6.1836   24.3909 F   0  0  0  0  0  0  0  0  0  0  0  0
    2.4494   -4.3400   26.5915 H   0  0  0  0  0  0  0  0  0  0  0  0
   12.5365    2.0946   22.5005 H   0  0  0  0  0  0  0  0  0  0  0  0
    8.6424    3.7322   23.3744 H   0  0  0  0  0  0  0  0  0  0  0  0
   13.5889    4.1355   23.4078 H   0  0  0  0  0  0  0  0  0  0  0  0
    9.7108    5.7669   24.2784 H   0  0  0  0  0  0  0  0  0  0  0  0
    8.7195    0.0431   19.9339 H   0  0  0  0  0  0  0  0  0  0  0  0
   10.1786    1.0414   25.0515 H   0  0  0  0  0  0  0  0  0  0  0  0
    7.4279   -1.5952   22.6065 H   0  0  0  0  0  0  0  0  0  0  0  0
    8.7111   -2.4297   21.7367 H   0  0  0  0  0  0  0  0  0  0  0  0
   10.8116   -1.9435   26.3199 H   0  0  0  0  0  0  0  0  0  0  0  0
   10.0924   -0.4379   26.8643 H   0  0  0  0  0  0  0  0  0  0  0  0
    9.0411   -2.3676   27.9480 H   0  0  0  0  0  0  0  0  0  0  0  0
    7.8682   -1.4565   27.0004 H   0  0  0  0  0  0  0  0  0  0  0  0
    7.1838   -3.7703   28.9352 H   0  0  0  0  0  0  0  0  0  0  0  0
    8.3944   -4.9586   28.4407 H   0  0  0  0  0  0  0  0  0  0  0  0
    8.3665   -4.9124   23.6431 H   0  0  0  0  0  0  0  0  0  0  0  0
    7.1133   -3.9416   22.9057 H   0  0  0  0  0  0  0  0  0  0  0  0
    6.8438   -6.6058   28.8204 H   0  0  0  0  0  0  0  0  0  0  0  0
    5.5727   -5.4300   29.1071 H   0  0  0  0  0  0  0  0  0  0  0  0
    5.5294   -4.4411   24.6266 H   0  0  0  0  0  0  0  0  0  0  0  0
    6.1911   -5.9543   24.0292 H   0  0  0  0  0  0  0  0  0  0  0  0
    9.2967   -4.0114   26.1266 H   0  0  0  0  0  0  0  0  0  0  0  0
    7.1372   -2.3439   24.7475 H   0  0  0  0  0  0  0  0  0  0  0  0
    6.3765   -3.4535   26.7560 H   0  0  0  0  0  0  0  0  0  0  0  0
   10.0835   -3.8545   22.9672 H   0  0  0  0  0  0  0  0  0  0  0  0
   10.7829   -3.4019   24.5334 H   0  0  0  0  0  0  0  0  0  0  0  0
   11.1035   -2.4088   23.0985 H   0  0  0  0  0  0  0  0  0  0  0  0
    8.3543   -6.7145   26.9371 H   0  0  0  0  0  0  0  0  0  0  0  0
    8.8621   -5.9780   25.4051 H   0  0  0  0  0  0  0  0  0  0  0  0
    7.7027   -7.3210   25.4024 H   0  0  0  0  0  0  0  0  0  0  0  0
    4.9728   -7.7040   27.4688 H   0  0  0  0  0  0  0  0  0  0  0  0
  1  2  3  0  0  0  0
  2 24  1  0  0  0  0
  3  5  2  0  0  0  0
  3  9  1  0  0  0  0
  4  6  1  0  0  0  0
  4  9  2  0  0  0  0
  5 10  1  0  0  0  0
  6 10  2  0  0  0  0
  7  8  1  0  0  0  0
  7 29  2  0  0  0  0
  8 11  2  0  0  0  0
  8 14  1  0  0  0  0
  9 30  1  0  0  0  0
 10 32  1  0  0  0  0
 11 12  1  0  0  0  0
 11 30  1  0  0  0  0
 12 13  2  0  0  0  0
 13 15  1  0  0  0  0
 13 25  1  0  0  0  0
 14 25  1  0  0  0  0
 15 16  1  0  0  0  0
 16 21  1  0  0  0  0
 17 19  1  0  0  0  0
 17 23  1  0  0  0  0
 18 20  1  0  0  0  0
 18 22  1  0  0  0  0
 19 24  1  0  0  0  0
 20 26  1  0  0  0  0
 21 22  1  0  0  0  0
 21 23  1  0  0  0  0
 22 25  1  0  0  0  0
 23 26  1  0  0  0  0
 24 26  1  0  0  0  0
 24 31  1  0  0  0  0
 25 27  1  0  0  0  0
 26 28  1  0  0  0  0
 29 30  1  0  0  0  0
  1 33  1  0  0  0  0
  3 34  1  0  0  0  0
  4 35  1  0  0  0  0
  5 36  1  0  0  0  0
  6 37  1  0  0  0  0
  7 38  1  0  0  0  0
 12 39  1  0  0  0  0
 14 40  1  0  0  0  0
 14 41  1  0  0  0  0
 15 42  1  0  0  0  0
 15 43  1  0  0  0  0
 16 44  1  0  0  0  0
 16 45  1  0  0  0  0
 17 46  1  0  0  0  0
 17 47  1  0  0  0  0
 18 48  1  0  0  0  0
 18 49  1  0  0  0  0
 19 50  1  0  0  0  0
 19 51  1  0  0  0  0
 20 52  1  0  0  0  0
 20 53  1  0  0  0  0
 21 54  1  0  0  0  0
 22 55  1  0  0  0  0
 23 56  1  0  0  0  0
 27 57  1  0  0  0  0
 27 58  1  0  0  0  0
 27 59  1  0  0  0  0
 28 60  1  0  0  0  0
 28 61  1  0  0  0  0
 28 62  1  0  0  0  0
 31 63  1  0  0  0  0
M  END
> <Hybrid2>
-8.269073

> <docked_fragment>
x1077

> <Mpro-_dock>
5.93897

> <site>
active-noncovalent

$$$$
CHEMBL341812
  -OEChem-04122014263D

 29 29  0     0  0  0  0  0  0999 V2000
   11.1376    1.9621   23.9057 C   0  0  0  0  0  0  0  0  0  0  0  0
   12.9899    2.8212   22.6142 C   0  0  0  0  0  0  0  0  0  0  0  0
   11.7930    0.7372   24.0310 C   0  0  0  0  0  0  0  0  0  0  0  0
   13.6454    1.5963   22.7396 C   0  0  0  0  0  0  0  0  0  0  0  0
   11.7360    3.0040   23.1972 C   0  0  0  0  0  0  0  0  0  0  0  0
   13.0469    0.5543   23.4480 C   0  0  0  0  0  0  0  0  0  0  0  0
   11.4243    5.2261   24.2258 C   0  0  0  0  0  0  0  0  0  0  0  0
   11.9407   -2.1012   22.3931 C   0  0  0  0  0  0  0  0  0  0  0  0
   13.8934   -1.2000   21.1131 C   0  0  0  0  0  0  0  0  0  0  0  0
   11.0359    4.3139   23.0628 C   0  0  0  0  0  0  0  0  0  0  0  0
   13.7562   -0.7708   23.5855 C   0  0  0  0  0  0  0  0  0  0  0  0
   13.4339   -1.7702   22.4573 C   0  0  0  0  0  0  0  0  0  0  0  0
   12.6508    5.5231   24.2898 O   0  5  0  0  0  0  0  0  0  0  0  0
   10.4723    5.5646   24.9846 O   0  0  0  0  0  0  0  0  0  0  0  0
   10.1606    2.0954   24.3627 H   0  0  0  0  0  0  0  0  0  0  0  0
   13.4639    3.6281   22.0615 H   0  0  0  0  0  0  0  0  0  0  0  0
   11.3200   -0.0685   24.5860 H   0  0  0  0  0  0  0  0  0  0  0  0
   14.6220    1.4622   22.2820 H   0  0  0  0  0  0  0  0  0  0  0  0
   11.3409   -1.2006   22.2234 H   0  0  0  0  0  0  0  0  0  0  0  0
   11.5966   -2.5703   23.3201 H   0  0  0  0  0  0  0  0  0  0  0  0
   11.7342   -2.8024   21.5773 H   0  0  0  0  0  0  0  0  0  0  0  0
   13.3751   -0.2612   20.8908 H   0  0  0  0  0  0  0  0  0  0  0  0
   14.9706   -1.0008   21.1130 H   0  0  0  0  0  0  0  0  0  0  0  0
   13.6774   -1.9000   20.2991 H   0  0  0  0  0  0  0  0  0  0  0  0
   11.2880    4.8013   22.1079 H   0  0  0  0  0  0  0  0  0  0  0  0
    9.9433    4.1783   23.0455 H   0  0  0  0  0  0  0  0  0  0  0  0
   14.8408   -0.6095   23.6430 H   0  0  0  0  0  0  0  0  0  0  0  0
   13.4717   -1.2014   24.5552 H   0  0  0  0  0  0  0  0  0  0  0  0
   13.9826   -2.7052   22.6280 H   0  0  0  0  0  0  0  0  0  0  0  0
  1  3  2  0  0  0  0
  1  5  1  0  0  0  0
  2  4  1  0  0  0  0
  2  5  2  0  0  0  0
  3  6  1  0  0  0  0
  4  6  2  0  0  0  0
  5 10  1  0  0  0  0
  6 11  1  0  0  0  0
  7 10  1  0  0  0  0
  7 13  1  0  0  0  0
  7 14  2  0  0  0  0
  8 12  1  0  0  0  0
  9 12  1  0  0  0  0
 11 12  1  0  0  0  0
  1 15  1  0  0  0  0
  2 16  1  0  0  0  0
  3 17  1  0  0  0  0
  4 18  1  0  0  0  0
  8 19  1  0  0  0  0
  8 20  1  0  0  0  0
  8 21  1  0  0  0  0
  9 22  1  0  0  0  0
  9 23  1  0  0  0  0
  9 24  1  0  0  0  0
 10 25  1  0  0  0  0
 10 26  1  0  0  0  0
 11 27  1  0  0  0  0
 11 28  1  0  0  0  0
 12 29  1  0  0  0  0
M  CHG  1  13  -1
M  END
> <Hybrid2>
-8.228345

> <docked_fragment>
x0195

> <Mpro-_dock>
-0.260233

> <site>
active-noncovalent

$$$$
CHEMBL2105540
  -OEChem-04122014263D

 53 56  0     1  0  0  0  0  0999 V2000
   12.1765   -0.2482   24.9081 C   0  0  0  0  0  0  0  0  0  0  0  0
   11.8324   -1.5284   22.7566 C   0  0  0  0  0  0  0  0  0  0  0  0
   10.8727   -0.3742   25.1740 C   0  0  0  0  0  0  0  0  0  0  0  0
   10.5242   -1.6531   23.0305 C   0  0  0  0  0  0  0  0  0  0  0  0
   12.7442   -0.8059   23.6670 C   0  0  0  0  0  0  0  0  0  0  0  0
    5.4770   -5.4285   27.7291 C   0  0  0  0  0  0  0  0  0  0  0  0
    9.6286   -2.4456   22.1133 C   0  0  0  0  0  0  0  0  0  0  0  0
    8.9843   -3.5982   22.8733 C   0  0  0  0  0  0  0  0  0  0  0  0
    6.8645   -5.3759   24.2565 C   0  0  0  0  0  0  0  0  0  0  0  0
    6.2390   -6.1717   25.4214 C   0  0  0  0  0  0  0  0  0  0  0  0
    7.8534   -3.1285   27.1213 C   0  0  0  0  0  0  0  0  0  0  0  0
    8.2452   -3.1283   24.1398 C   0  0  1  0  0  0  0  0  0  0  0  0
    7.7467   -4.3383   24.9456 C   0  0  1  0  0  0  0  0  0  0  0  0
    9.1828   -2.2671   25.0576 C   0  0  2  0  0  0  0  0  0  0  0  0
    8.5049   -1.9153   26.4214 C   0  0  1  0  0  0  0  0  0  0  0  0
    9.8557   -1.0680   24.2794 C   0  0  1  0  0  0  0  0  0  0  0  0
    6.5754   -5.3851   26.7097 C   0  0  1  0  0  0  0  0  0  0  0  0
    6.9342   -3.9592   26.2035 C   0  0  1  0  0  0  0  0  0  0  0  0
    4.0718   -5.5520   27.2051 C   0  0  0  0  0  0  0  0  0  0  0  0
    8.8673    0.0273   23.8216 C   0  0  0  0  0  0  0  0  0  0  0  0
    5.6253   -3.1865   25.8821 C   0  0  0  0  0  0  0  0  0  0  0  0
   13.9347   -0.6789   23.4018 O   0  0  0  0  0  0  0  0  0  0  0  0
    5.7130   -5.3681   28.9348 O   0  0  0  0  0  0  0  0  0  0  0  0
    7.5555   -0.8632   26.3263 O   0  0  0  0  0  0  0  0  0  0  0  0
    7.6839   -5.9986   27.3614 O   0  0  0  0  0  0  0  0  0  0  0  0
   12.8425    0.2728   25.5859 H   0  0  0  0  0  0  0  0  0  0  0  0
   12.2744   -1.9650   21.8672 H   0  0  0  0  0  0  0  0  0  0  0  0
   10.5079    0.0812   26.0920 H   0  0  0  0  0  0  0  0  0  0  0  0
    8.8569   -1.7931   21.6893 H   0  0  0  0  0  0  0  0  0  0  0  0
   10.1867   -2.8514   21.2608 H   0  0  0  0  0  0  0  0  0  0  0  0
    8.2867   -4.1138   22.2027 H   0  0  0  0  0  0  0  0  0  0  0  0
    9.7581   -4.3288   23.1445 H   0  0  0  0  0  0  0  0  0  0  0  0
    7.4411   -6.0329   23.5972 H   0  0  0  0  0  0  0  0  0  0  0  0
    6.0837   -4.9022   23.6511 H   0  0  0  0  0  0  0  0  0  0  0  0
    5.1590   -6.2625   25.2598 H   0  0  0  0  0  0  0  0  0  0  0  0
    6.6564   -7.1846   25.4461 H   0  0  0  0  0  0  0  0  0  0  0  0
    8.6697   -3.7582   27.4964 H   0  0  0  0  0  0  0  0  0  0  0  0
    7.2879   -2.7952   28.0003 H   0  0  0  0  0  0  0  0  0  0  0  0
    7.3925   -2.5225   23.8165 H   0  0  0  0  0  0  0  0  0  0  0  0
    8.6516   -4.8805   25.2677 H   0  0  0  0  0  0  0  0  0  0  0  0
   10.0123   -2.9403   25.3365 H   0  0  0  0  0  0  0  0  0  0  0  0
    9.2926   -1.5491   27.1205 H   0  0  0  0  0  0  0  0  0  0  0  0
    3.8034   -6.6083   27.1149 H   0  0  0  0  0  0  0  0  0  0  0  0
    4.0062   -5.0854   26.2192 H   0  0  0  0  0  0  0  0  0  0  0  0
    3.3786   -5.0691   27.8981 H   0  0  0  0  0  0  0  0  0  0  0  0
    8.1198   -0.4203   23.1786 H   0  0  0  0  0  0  0  0  0  0  0  0
    9.4135    0.7894   23.2797 H   0  0  0  0  0  0  0  0  0  0  0  0
    8.3940    0.4605   24.6941 H   0  0  0  0  0  0  0  0  0  0  0  0
    5.0125   -3.8016   25.2393 H   0  0  0  0  0  0  0  0  0  0  0  0
    5.8850   -2.2637   25.3841 H   0  0  0  0  0  0  0  0  0  0  0  0
    5.1109   -2.9820   26.8098 H   0  0  0  0  0  0  0  0  0  0  0  0
    7.2936   -0.6400   27.2340 H   0  0  0  0  0  0  0  0  0  0  0  0
    7.8723   -5.4648   28.1490 H   0  0  0  0  0  0  0  0  0  0  0  0
  1  3  2  0  0  0  0
  1  5  1  0  0  0  0
  2  4  2  0  0  0  0
  2  5  1  0  0  0  0
  3 16  1  0  0  0  0
  4  7  1  0  0  0  0
  4 16  1  0  0  0  0
  5 22  2  0  0  0  0
  6 17  1  0  0  0  0
  6 19  1  0  0  0  0
  6 23  2  0  0  0  0
  7  8  1  0  0  0  0
  8 12  1  0  0  0  0
  9 10  1  0  0  0  0
  9 13  1  0  0  0  0
 10 17  1  0  0  0  0
 11 15  1  0  0  0  0
 11 18  1  0  0  0  0
 12 13  1  0  0  0  0
 12 14  1  0  0  0  0
 13 18  1  0  0  0  0
 14 15  1  0  0  0  0
 14 16  1  0  0  0  0
 15 24  1  0  0  0  0
 16 20  1  0  0  0  0
 17 18  1  0  0  0  0
 17 25  1  0  0  0  0
 18 21  1  0  0  0  0
  1 26  1  0  0  0  0
  2 27  1  0  0  0  0
  3 28  1  0  0  0  0
  7 29  1  0  0  0  0
  7 30  1  0  0  0  0
  8 31  1  0  0  0  0
  8 32  1  0  0  0  0
  9 33  1  0  0  0  0
  9 34  1  0  0  0  0
 10 35  1  0  0  0  0
 10 36  1  0  0  0  0
 11 37  1  0  0  0  0
 11 38  1  0  0  0  0
 12 39  1  0  0  0  0
 13 40  1  0  0  0  0
 14 41  1  0  0  0  0
 15 42  1  0  0  0  0
 19 43  1  0  0  0  0
 19 44  1  0  0  0  0
 19 45  1  0  0  0  0
 20 46  1  0  0  0  0
 20 47  1  0  0  0  0
 20 48  1  0  0  0  0
 21 49  1  0  0  0  0
 21 50  1  0  0  0  0
 21 51  1  0  0  0  0
 24 52  1  0  0  0  0
 25 53  1  0  0  0  0
M  END
> <Hybrid2>
-8.228074

> <docked_fragment>
x0072

> <Mpro-_dock>
3.329454

> <site>
active-noncovalent

$$$$
CHEMBL2104631
  -OEChem-04122014263D

 55 58  0     1  0  0  0  0  0999 V2000
   10.0271    5.3200   25.5450 C   0  0  0  0  0  0  0  0  0  0  0  0
   12.0083    5.7173   24.0296 C   0  0  0  0  0  0  0  0  0  0  0  0
    9.8119    4.1578   24.9237 C   0  0  0  0  0  0  0  0  0  0  0  0
   11.7998    4.5477   23.3996 C   0  0  0  0  0  0  0  0  0  0  0  0
   11.1418    6.1862   25.1311 C   0  0  0  0  0  0  0  0  0  0  0  0
   12.2797   -3.2174   24.4896 C   0  0  0  0  0  0  0  0  0  0  0  0
   14.0409   -1.7358   23.4439 C   0  0  0  0  0  0  0  0  0  0  0  0
   13.9404   -0.3447   22.7916 C   0  0  0  0  0  0  0  0  0  0  0  0
   13.3160    2.6900   22.7226 C   0  0  0  0  0  0  0  0  0  0  0  0
   10.9440   -0.2074   25.0682 C   0  0  0  0  0  0  0  0  0  0  0  0
   12.7143    4.0339   22.2905 C   0  0  2  0  0  0  0  0  0  0  0  0
   12.8602   -1.8376   24.4342 C   0  0  1  0  0  0  0  0  0  0  0  0
   12.8939    0.3744   23.6367 C   0  0  1  0  0  0  0  0  0  0  0  0
   12.2412    1.6556   23.0993 C   0  0  1  0  0  0  0  0  0  0  0  0
   11.2690    2.2175   24.1925 C   0  0  2  0  0  0  0  0  0  0  0  0
   10.2652    1.1286   24.6922 C   0  0  1  0  0  0  0  0  0  0  0  0
   10.6383    3.6035   23.7716 C   0  0  1  0  0  0  0  0  0  0  0  0
   11.8779   -0.7375   23.9667 C   0  0  2  0  0  0  0  0  0  0  0  0
   13.2130   -4.3287   24.8875 C   0  0  0  0  0  0  0  0  0  0  0  0
   13.8451    4.9739   21.8495 C   0  0  0  0  0  0  0  0  0  0  0  0
    9.6737    3.5170   22.5660 C   0  0  0  0  0  0  0  0  0  0  0  0
   11.0662   -1.2296   22.7396 C   0  0  0  0  0  0  0  0  0  0  0  0
   11.3464    7.2616   25.6842 O   0  0  0  0  0  0  0  0  0  0  0  0
   11.0977   -3.4312   24.2249 O   0  0  0  0  0  0  0  0  0  0  0  0
    9.2488    0.8882   23.7287 O   0  0  0  0  0  0  0  0  0  0  0  0
    9.3876    5.6562   26.3527 H   0  0  0  0  0  0  0  0  0  0  0  0
   12.8296    6.3777   23.7766 H   0  0  0  0  0  0  0  0  0  0  0  0
    8.9572    3.5726   25.2560 H   0  0  0  0  0  0  0  0  0  0  0  0
   14.0206   -2.5186   22.6773 H   0  0  0  0  0  0  0  0  0  0  0  0
   14.9896   -1.8387   23.9834 H   0  0  0  0  0  0  0  0  0  0  0  0
   14.9074    0.1684   22.8047 H   0  0  0  0  0  0  0  0  0  0  0  0
   13.6236   -0.4307   21.7463 H   0  0  0  0  0  0  0  0  0  0  0  0
   13.9279    2.2925   21.9031 H   0  0  0  0  0  0  0  0  0  0  0  0
   13.9942    2.8450   23.5732 H   0  0  0  0  0  0  0  0  0  0  0  0
   11.5192   -0.0493   25.9899 H   0  0  0  0  0  0  0  0  0  0  0  0
   10.1798   -0.9604   25.2976 H   0  0  0  0  0  0  0  0  0  0  0  0
   12.1005    3.8694   21.3958 H   0  0  0  0  0  0  0  0  0  0  0  0
   13.2282   -1.6148   25.4445 H   0  0  0  0  0  0  0  0  0  0  0  0
   13.4082    0.6588   24.5708 H   0  0  0  0  0  0  0  0  0  0  0  0
   11.6776    1.4253   22.1896 H   0  0  0  0  0  0  0  0  0  0  0  0
   11.9030    2.4301   25.0706 H   0  0  0  0  0  0  0  0  0  0  0  0
    9.7688    1.4907   25.6008 H   0  0  0  0  0  0  0  0  0  0  0  0
   13.1925   -4.4566   25.9733 H   0  0  0  0  0  0  0  0  0  0  0  0
   14.2316   -4.0793   24.5802 H   0  0  0  0  0  0  0  0  0  0  0  0
   12.8943   -5.2614   24.4157 H   0  0  0  0  0  0  0  0  0  0  0  0
   14.4949    5.1790   22.6953 H   0  0  0  0  0  0  0  0  0  0  0  0
   13.4198    5.9043   21.4848 H   0  0  0  0  0  0  0  0  0  0  0  0
   14.4188    4.5018   21.0572 H   0  0  0  0  0  0  0  0  0  0  0  0
   10.2138    3.1260   21.7134 H   0  0  0  0  0  0  0  0  0  0  0  0
    9.2993    4.5084   22.3459 H   0  0  0  0  0  0  0  0  0  0  0  0
    8.8538    2.8579   22.8207 H   0  0  0  0  0  0  0  0  0  0  0  0
   11.7572   -1.5923   21.9920 H   0  0  0  0  0  0  0  0  0  0  0  0
   10.4933   -0.4000   22.3500 H   0  0  0  0  0  0  0  0  0  0  0  0
   10.4068   -2.0243   23.0585 H   0  0  0  0  0  0  0  0  0  0  0  0
    8.6111    0.2810   24.1383 H   0  0  0  0  0  0  0  0  0  0  0  0
  1  3  2  0  0  0  0
  1  5  1  0  0  0  0
  2  4  2  0  0  0  0
  2  5  1  0  0  0  0
  3 17  1  0  0  0  0
  4 11  1  0  0  0  0
  4 17  1  0  0  0  0
  5 23  2  0  0  0  0
  6 12  1  0  0  0  0
  6 19  1  0  0  0  0
  6 24  2  0  0  0  0
  7  8  1  0  0  0  0
  7 12  1  0  0  0  0
  8 13  1  0  0  0  0
  9 11  1  0  0  0  0
  9 14  1  0  0  0  0
 10 16  1  0  0  0  0
 10 18  1  0  0  0  0
 11 20  1  0  0  0  0
 12 18  1  0  0  0  0
 13 14  1  0  0  0  0
 13 18  1  0  0  0  0
 14 15  1  0  0  0  0
 15 16  1  0  0  0  0
 15 17  1  0  0  0  0
 16 25  1  0  0  0  0
 17 21  1  0  0  0  0
 18 22  1  0  0  0  0
  1 26  1  0  0  0  0
  2 27  1  0  0  0  0
  3 28  1  0  0  0  0
  7 29  1  0  0  0  0
  7 30  1  0  0  0  0
  8 31  1  0  0  0  0
  8 32  1  0  0  0  0
  9 33  1  0  0  0  0
  9 34  1  0  0  0  0
 10 35  1  0  0  0  0
 10 36  1  0  0  0  0
 11 37  1  0  0  0  0
 12 38  1  0  0  0  0
 13 39  1  0  0  0  0
 14 40  1  0  0  0  0
 15 41  1  0  0  0  0
 16 42  1  0  0  0  0
 19 43  1  0  0  0  0
 19 44  1  0  0  0  0
 19 45  1  0  0  0  0
 20 46  1  0  0  0  0
 20 47  1  0  0  0  0
 20 48  1  0  0  0  0
 21 49  1  0  0  0  0
 21 50  1  0  0  0  0
 21 51  1  0  0  0  0
 22 52  1  0  0  0  0
 22 53  1  0  0  0  0
 22 54  1  0  0  0  0
 25 55  1  0  0  0  0
M  END
> <Hybrid2>
-8.226552

> <docked_fragment>
x0161

> <Mpro-_dock>
2.811748

> <site>
active-noncovalent

$$$$
CHEMBL856
  -OEChem-04122014263D

 30 31  0     0  0  0  0  0  0999 V2000
   14.7174   -2.1234   22.5267 C   0  0  0  0  0  0  0  0  0  0  0  0
   13.9766   -1.6847   21.4293 C   0  0  0  0  0  0  0  0  0  0  0  0
   14.3366   -1.7557   23.8172 C   0  0  0  0  0  0  0  0  0  0  0  0
   12.8551   -0.8782   21.6223 C   0  0  0  0  0  0  0  0  0  0  0  0
   13.2151   -0.9491   24.0103 C   0  0  0  0  0  0  0  0  0  0  0  0
   12.4743   -0.5104   22.9129 C   0  0  0  0  0  0  0  0  0  0  0  0
   10.5717    0.7457   21.7713 C   0  0  0  0  0  0  0  0  0  0  0  0
   10.1984   -0.2794   24.0735 C   0  0  0  0  0  0  0  0  0  0  0  0
    9.4150   -1.4129   22.0315 C   0  0  0  0  0  0  0  0  0  0  0  0
   11.2334    0.3824   23.1273 C   0  0  0  0  0  0  0  0  0  0  0  0
   12.7100    2.4020   22.9404 C   0  0  0  0  0  0  0  0  0  0  0  0
   11.7195    1.6871   23.7957 C   0  0  0  0  0  0  0  0  0  0  0  0
    9.6874   -0.2055   21.2952 N   0  0  0  0  0  0  0  0  0  0  0  0
    9.3310   -1.1567   23.4464 N   0  0  0  0  0  0  0  0  0  0  0  0
   10.8263    1.7778   21.1514 O   0  0  0  0  0  0  0  0  0  0  0  0
   10.1653   -0.0724   25.2862 O   0  0  0  0  0  0  0  0  0  0  0  0
   15.5899   -2.7526   22.3762 H   0  0  0  0  0  0  0  0  0  0  0  0
   14.2723   -1.9718   20.4244 H   0  0  0  0  0  0  0  0  0  0  0  0
   14.9125   -2.0980   24.6719 H   0  0  0  0  0  0  0  0  0  0  0  0
   12.2840   -0.5409   20.7613 H   0  0  0  0  0  0  0  0  0  0  0  0
   12.9260   -0.6675   25.0194 H   0  0  0  0  0  0  0  0  0  0  0  0
    8.4653   -1.8212   21.6938 H   0  0  0  0  0  0  0  0  0  0  0  0
   10.2186   -2.1220   21.8510 H   0  0  0  0  0  0  0  0  0  0  0  0
   13.5725    1.7497   22.7601 H   0  0  0  0  0  0  0  0  0  0  0  0
   13.0695    3.3120   23.4325 H   0  0  0  0  0  0  0  0  0  0  0  0
   12.2741    2.6647   21.9707 H   0  0  0  0  0  0  0  0  0  0  0  0
   10.8568    2.3291   23.9807 H   0  0  0  0  0  0  0  0  0  0  0  0
   12.1695    1.4414   24.7587 H   0  0  0  0  0  0  0  0  0  0  0  0
    9.2247   -0.0495   20.4151 H   0  0  0  0  0  0  0  0  0  0  0  0
    8.6267   -1.6252   23.9917 H   0  0  0  0  0  0  0  0  0  0  0  0
  1  2  1  0  0  0  0
  1  3  2  0  0  0  0
  2  4  2  0  0  0  0
  3  5  1  0  0  0  0
  4  6  1  0  0  0  0
  5  6  2  0  0  0  0
  6 10  1  0  0  0  0
  7 10  1  0  0  0  0
  7 13  1  0  0  0  0
  7 15  2  0  0  0  0
  8 10  1  0  0  0  0
  8 14  1  0  0  0  0
  8 16  2  0  0  0  0
  9 13  1  0  0  0  0
  9 14  1  0  0  0  0
 10 12  1  0  0  0  0
 11 12  1  0  0  0  0
  1 17  1  0  0  0  0
  2 18  1  0  0  0  0
  3 19  1  0  0  0  0
  4 20  1  0  0  0  0
  5 21  1  0  0  0  0
  9 22  1  0  0  0  0
  9 23  1  0  0  0  0
 11 24  1  0  0  0  0
 11 25  1  0  0  0  0
 11 26  1  0  0  0  0
 12 27  1  0  0  0  0
 12 28  1  0  0  0  0
 13 29  1  0  0  0  0
 14 30  1  0  0  0  0
M  END
> <Hybrid2>
-8.191757

> <docked_fragment>
x0678

> <Mpro-_dock>
0.067982

> <site>
active-noncovalent

$$$$
DB07864
  -OEChem-04122014263D

 37 39  0     0  0  0  0  0  0999 V2000
    9.3963    1.5462   22.7205 C   0  0  0  0  0  0  0  0  0  0  0  0
   10.3021    2.0723   23.3071 C   0  0  0  0  0  0  0  0  0  0  0  0
   14.5415   -0.2678   21.8579 C   0  0  0  0  0  0  0  0  0  0  0  0
   13.8252   -1.3912   22.2585 C   0  0  0  0  0  0  0  0  0  0  0  0
   12.1665    0.0426   23.2838 C   0  0  0  0  0  0  0  0  0  0  0  0
   12.8811    1.1887   22.9029 C   0  0  0  0  0  0  0  0  0  0  0  0
   14.0663    1.0097   22.1751 C   0  0  0  0  0  0  0  0  0  0  0  0
   12.6375   -1.2359   22.9669 C   0  0  0  0  0  0  0  0  0  0  0  0
   12.4532    2.5700   23.2039 C   0  0  0  0  0  0  0  0  0  0  0  0
   13.1527    3.6308   22.7606 C   0  0  0  0  0  0  0  0  0  0  0  0
   14.4080    3.4295   21.9651 C   0  0  0  0  0  0  0  0  0  0  0  0
    7.0386    1.6881   21.8147 C   0  0  0  0  0  0  0  0  0  0  0  0
    7.0738    0.5455   22.7855 C   0  0  0  0  0  0  0  0  0  0  0  0
    8.2932    0.9050   22.0060 C   0  0  0  0  0  0  0  0  0  0  0  0
   11.4429    5.3844   22.3607 C   0  0  0  0  0  0  0  0  0  0  0  0
   12.7937    5.3951   24.4805 C   0  0  0  0  0  0  0  0  0  0  0  0
   12.7948    5.0745   22.9906 C   0  0  0  0  0  0  0  0  0  0  0  0
   14.7921    2.1273   21.7355 N   0  0  0  0  0  0  0  0  0  0  0  0
   15.0569    4.3895   21.5509 O   0  0  0  0  0  0  0  0  0  0  0  0
   11.2991    2.6509   23.9536 O   0  0  0  0  0  0  0  0  0  0  0  0
   11.9414   -2.3153   23.3481 F   0  0  0  0  0  0  0  0  0  0  0  0
   15.4630   -0.3957   21.2959 H   0  0  0  0  0  0  0  0  0  0  0  0
   14.1878   -2.3851   22.0142 H   0  0  0  0  0  0  0  0  0  0  0  0
   11.2353    0.1239   23.8393 H   0  0  0  0  0  0  0  0  0  0  0  0
    6.5051    1.5406   20.8832 H   0  0  0  0  0  0  0  0  0  0  0  0
    6.9566    2.6896   22.2201 H   0  0  0  0  0  0  0  0  0  0  0  0
    7.0150    0.7812   23.8415 H   0  0  0  0  0  0  0  0  0  0  0  0
    6.5659   -0.3698   22.5060 H   0  0  0  0  0  0  0  0  0  0  0  0
    8.6081    0.2440   21.2218 H   0  0  0  0  0  0  0  0  0  0  0  0
   10.6396    4.7940   22.8157 H   0  0  0  0  0  0  0  0  0  0  0  0
   11.4491    5.1710   21.2860 H   0  0  0  0  0  0  0  0  0  0  0  0
   11.1954    6.4437   22.4882 H   0  0  0  0  0  0  0  0  0  0  0  0
   12.0394    4.8038   25.0116 H   0  0  0  0  0  0  0  0  0  0  0  0
   12.5830    6.4544   24.6673 H   0  0  0  0  0  0  0  0  0  0  0  0
   13.7693    5.1636   24.9214 H   0  0  0  0  0  0  0  0  0  0  0  0
   13.5607    5.6863   22.5043 H   0  0  0  0  0  0  0  0  0  0  0  0
   15.6514    1.9662   21.2176 H   0  0  0  0  0  0  0  0  0  0  0  0
  1  2  3  0  0  0  0
  1 14  1  0  0  0  0
  2 20  1  0  0  0  0
  3  4  2  0  0  0  0
  3  7  1  0  0  0  0
  4  8  1  0  0  0  0
  5  6  1  0  0  0  0
  5  8  2  0  0  0  0
  6  7  2  0  0  0  0
  6  9  1  0  0  0  0
  7 18  1  0  0  0  0
  8 21  1  0  0  0  0
  9 10  2  0  0  0  0
  9 20  1  0  0  0  0
 10 11  1  0  0  0  0
 10 17  1  0  0  0  0
 11 18  1  0  0  0  0
 11 19  2  0  0  0  0
 12 13  1  0  0  0  0
 12 14  1  0  0  0  0
 13 14  1  0  0  0  0
 15 17  1  0  0  0  0
 16 17  1  0  0  0  0
  3 22  1  0  0  0  0
  4 23  1  0  0  0  0
  5 24  1  0  0  0  0
 12 25  1  0  0  0  0
 12 26  1  0  0  0  0
 13 27  1  0  0  0  0
 13 28  1  0  0  0  0
 14 29  1  0  0  0  0
 15 30  1  0  0  0  0
 15 31  1  0  0  0  0
 15 32  1  0  0  0  0
 16 33  1  0  0  0  0
 16 34  1  0  0  0  0
 16 35  1  0  0  0  0
 17 36  1  0  0  0  0
 18 37  1  0  0  0  0
M  END
> <Hybrid2>
-8.186555

> <docked_fragment>
x0195

> <Mpro-_dock>
-0.512017

> <site>
active-noncovalent

$$$$
CHEMBL1589978
  -OEChem-04122014263D

 31 31  0     1  0  0  0  0  0999 V2000
   13.4371   -1.3242   23.8124 C   0  0  0  0  0  0  0  0  0  0  0  0
   14.0958   -0.6361   22.7935 C   0  0  0  0  0  0  0  0  0  0  0  0
   12.4297   -0.6931   24.5421 C   0  0  0  0  0  0  0  0  0  0  0  0
   13.7472    0.6832   22.5043 C   0  0  0  0  0  0  0  0  0  0  0  0
   12.0810    0.6262   24.2530 C   0  0  0  0  0  0  0  0  0  0  0  0
   12.7398    1.3144   23.2341 C   0  0  0  0  0  0  0  0  0  0  0  0
    9.9026    2.3104   22.3236 C   0  0  0  0  0  0  0  0  0  0  0  0
    9.4204    5.0258   23.6767 C   0  0  0  0  0  0  0  0  0  0  0  0
   11.8653    5.3492   23.3320 C   0  0  0  0  0  0  0  0  0  0  0  0
   12.3611    2.7460   22.9210 C   0  0  2  0  0  0  0  0  0  0  0  0
   10.8834    3.0638   23.2164 C   0  0  1  0  0  0  0  0  0  0  0  0
   10.6568    4.5252   22.9822 N   0  3  0  0  0  0  0  0  0  0  0  0
   12.6355    2.9510   21.5328 O   0  0  0  0  0  0  0  0  0  0  0  0
   13.7078   -2.3519   24.0365 H   0  0  0  0  0  0  0  0  0  0  0  0
   14.8795   -1.1277   22.2245 H   0  0  0  0  0  0  0  0  0  0  0  0
   11.9159   -1.2289   25.3348 H   0  0  0  0  0  0  0  0  0  0  0  0
   14.2660    1.2116   21.7088 H   0  0  0  0  0  0  0  0  0  0  0  0
   11.2950    1.1099   24.8269 H   0  0  0  0  0  0  0  0  0  0  0  0
   10.1314    2.4610   21.2628 H   0  0  0  0  0  0  0  0  0  0  0  0
    8.8753    2.6495   22.4970 H   0  0  0  0  0  0  0  0  0  0  0  0
    9.9265    1.2352   22.5262 H   0  0  0  0  0  0  0  0  0  0  0  0
    9.5683    4.9035   24.7512 H   0  0  0  0  0  0  0  0  0  0  0  0
    9.2932    6.0780   23.4152 H   0  0  0  0  0  0  0  0  0  0  0  0
    8.5758    4.4294   23.3265 H   0  0  0  0  0  0  0  0  0  0  0  0
   12.0513    5.2319   24.4012 H   0  0  0  0  0  0  0  0  0  0  0  0
   12.7059    4.9760   22.7440 H   0  0  0  0  0  0  0  0  0  0  0  0
   11.6438    6.3891   23.0841 H   0  0  0  0  0  0  0  0  0  0  0  0
   13.0142    3.4273   23.4816 H   0  0  0  0  0  0  0  0  0  0  0  0
   10.6423    2.9038   24.2731 H   0  0  0  0  0  0  0  0  0  0  0  0
   10.4980    4.6488   21.9717 H   0  0  0  0  0  0  0  0  0  0  0  0
   12.0887    2.3133   21.0509 H   0  0  0  0  0  0  0  0  0  0  0  0
  1  2  1  0  0  0  0
  1  3  2  0  0  0  0
  2  4  2  0  0  0  0
  3  5  1  0  0  0  0
  4  6  1  0  0  0  0
  5  6  2  0  0  0  0
  6 10  1  0  0  0  0
  7 11  1  0  0  0  0
  8 12  1  0  0  0  0
  9 12  1  0  0  0  0
 10 11  1  0  0  0  0
 10 13  1  0  0  0  0
 11 12  1  0  0  0  0
  1 14  1  0  0  0  0
  2 15  1  0  0  0  0
  3 16  1  0  0  0  0
  4 17  1  0  0  0  0
  5 18  1  0  0  0  0
  7 19  1  0  0  0  0
  7 20  1  0  0  0  0
  7 21  1  0  0  0  0
  8 22  1  0  0  0  0
  8 23  1  0  0  0  0
  8 24  1  0  0  0  0
  9 25  1  0  0  0  0
  9 26  1  0  0  0  0
  9 27  1  0  0  0  0
 10 28  1  0  0  0  0
 11 29  1  0  0  0  0
 12 30  1  0  0  0  0
 13 31  1  0  0  0  0
M  CHG  1  12   1
M  END
> <Hybrid2>
-8.179488

> <docked_fragment>
x0161

> <Mpro-_dock>
-1.002945

> <site>
active-noncovalent

$$$$
CHEMBL2105960
  -OEChem-04122014263D

 62 66  0     1  0  0  0  0  0999 V2000
   12.8877   -2.2424   26.1936 C   0  0  0  0  0  0  0  0  0  0  0  0
   12.2042   -2.9590   25.2854 C   0  0  0  0  0  0  0  0  0  0  0  0
   13.3511   -0.8668   25.9011 C   0  0  0  0  0  0  0  0  0  0  0  0
    5.8871   -4.8704   20.9774 C   0  0  0  0  0  0  0  0  0  0  0  0
   11.8631   -4.3998   25.5848 C   0  0  0  0  0  0  0  0  0  0  0  0
   13.1620   -0.3352   24.5053 C   0  0  0  0  0  0  0  0  0  0  0  0
   10.3892   -4.7018   25.3463 C   0  0  0  0  0  0  0  0  0  0  0  0
   11.8653   -0.8609   23.9098 C   0  0  0  0  0  0  0  0  0  0  0  0
    9.7005   -2.3372   22.2930 C   0  0  0  0  0  0  0  0  0  0  0  0
    8.2359   -2.7437   22.0454 C   0  0  0  0  0  0  0  0  0  0  0  0
    7.9395   -6.0069   23.9090 C   0  0  0  0  0  0  0  0  0  0  0  0
    9.9701   -4.3219   23.9204 C   0  0  2  0  0  0  0  0  0  0  0  0
   10.2511   -2.8075   23.6672 C   0  0  1  0  0  0  0  0  0  0  0  0
    8.4802   -4.5934   23.6834 C   0  0  1  0  0  0  0  0  0  0  0  0
    6.6120   -6.0324   23.1215 C   0  0  2  0  0  0  0  0  0  0  0  0
   11.7569   -2.4137   23.9228 C   0  0  2  0  0  0  0  0  0  0  0  0
    6.5533   -4.7336   22.3148 C   0  0  1  0  0  0  0  0  0  0  0  0
    8.0226   -4.2517   22.2454 C   0  0  1  0  0  0  0  0  0  0  0  0
    4.9653   -4.6784   23.9690 C   0  0  0  0  0  0  0  0  0  0  0  0
    5.9963   -6.2101   20.3009 C   0  0  0  0  0  0  0  0  0  0  0  0
   12.6969   -2.9902   22.8400 C   0  0  0  0  0  0  0  0  0  0  0  0
    8.7911   -5.0423   21.1512 C   0  0  0  0  0  0  0  0  0  0  0  0
    3.5204   -4.7449   23.4824 C   0  0  0  0  0  0  0  0  0  0  0  0
    5.0262   -4.0778   25.3682 C   0  0  0  0  0  0  0  0  0  0  0  0
   13.9359   -0.2201   26.7677 O   0  0  0  0  0  0  0  0  0  0  0  0
    5.2798   -3.9341   20.4604 O   0  0  0  0  0  0  0  0  0  0  0  0
    5.4950   -6.0053   24.0055 O   0  0  0  0  0  0  0  0  0  0  0  0
    5.7264   -3.8577   23.0773 O   0  0  0  0  0  0  0  0  0  0  0  0
   13.1755   -2.6588   27.1533 H   0  0  0  0  0  0  0  0  0  0  0  0
   12.4781   -5.0498   24.9501 H   0  0  0  0  0  0  0  0  0  0  0  0
   12.1107   -4.6608   26.6212 H   0  0  0  0  0  0  0  0  0  0  0  0
   13.1173    0.7585   24.5529 H   0  0  0  0  0  0  0  0  0  0  0  0
   14.0308   -0.6143   23.9011 H   0  0  0  0  0  0  0  0  0  0  0  0
   10.2175   -5.7707   25.5188 H   0  0  0  0  0  0  0  0  0  0  0  0
    9.7770   -4.1591   26.0783 H   0  0  0  0  0  0  0  0  0  0  0  0
   11.0312   -0.4314   24.4825 H   0  0  0  0  0  0  0  0  0  0  0  0
   11.7713   -0.4741   22.8881 H   0  0  0  0  0  0  0  0  0  0  0  0
   10.3212   -2.7267   21.4804 H   0  0  0  0  0  0  0  0  0  0  0  0
    9.7552   -1.2452   22.2231 H   0  0  0  0  0  0  0  0  0  0  0  0
    7.6017   -2.1707   22.7334 H   0  0  0  0  0  0  0  0  0  0  0  0
    7.9396   -2.4460   21.0325 H   0  0  0  0  0  0  0  0  0  0  0  0
    8.6345   -6.7481   23.4986 H   0  0  0  0  0  0  0  0  0  0  0  0
    7.7976   -6.2237   24.9726 H   0  0  0  0  0  0  0  0  0  0  0  0
   10.5628   -4.9310   23.2299 H   0  0  0  0  0  0  0  0  0  0  0  0
    9.6574   -2.2637   24.4204 H   0  0  0  0  0  0  0  0  0  0  0  0
    7.9386   -3.9420   24.3863 H   0  0  0  0  0  0  0  0  0  0  0  0
    6.5544   -6.9422   22.5150 H   0  0  0  0  0  0  0  0  0  0  0  0
    5.1556   -6.8431   20.5984 H   0  0  0  0  0  0  0  0  0  0  0  0
    6.9280   -6.6966   20.5999 H   0  0  0  0  0  0  0  0  0  0  0  0
    5.9715   -6.0761   19.2168 H   0  0  0  0  0  0  0  0  0  0  0  0
   12.3912   -2.6122   21.8725 H   0  0  0  0  0  0  0  0  0  0  0  0
   12.6279   -4.0706   22.8546 H   0  0  0  0  0  0  0  0  0  0  0  0
   13.7118   -2.6803   23.0553 H   0  0  0  0  0  0  0  0  0  0  0  0
    8.6269   -6.0979   21.3115 H   0  0  0  0  0  0  0  0  0  0  0  0
    9.8424   -4.8081   21.2334 H   0  0  0  0  0  0  0  0  0  0  0  0
    8.4133   -4.7449   20.1839 H   0  0  0  0  0  0  0  0  0  0  0  0
    3.4858   -5.1751   22.4824 H   0  0  0  0  0  0  0  0  0  0  0  0
    3.0929   -3.7435   23.4538 H   0  0  0  0  0  0  0  0  0  0  0  0
    2.9307   -5.3645   24.1568 H   0  0  0  0  0  0  0  0  0  0  0  0
    6.0602   -4.0330   25.7100 H   0  0  0  0  0  0  0  0  0  0  0  0
    4.4505   -4.6903   26.0621 H   0  0  0  0  0  0  0  0  0  0  0  0
    4.6125   -3.0693   25.3592 H   0  0  0  0  0  0  0  0  0  0  0  0
  1  2  2  0  0  0  0
  1  3  1  0  0  0  0
  2  5  1  0  0  0  0
  2 16  1  0  0  0  0
  3  6  1  0  0  0  0
  3 25  2  0  0  0  0
  4 17  1  0  0  0  0
  4 20  1  0  0  0  0
  4 26  2  0  0  0  0
  5  7  1  0  0  0  0
  6  8  1  0  0  0  0
  7 12  1  0  0  0  0
  8 16  1  0  0  0  0
  9 10  1  0  0  0  0
  9 13  1  0  0  0  0
 10 18  1  0  0  0  0
 11 14  1  0  0  0  0
 11 15  1  0  0  0  0
 12 13  1  0  0  0  0
 12 14  1  0  0  0  0
 13 16  1  0  0  0  0
 14 18  1  0  0  0  0
 15 17  1  0  0  0  0
 15 27  1  0  0  0  0
 16 21  1  0  0  0  0
 17 18  1  0  0  0  0
 17 28  1  0  0  0  0
 18 22  1  0  0  0  0
 19 23  1  0  0  0  0
 19 24  1  0  0  0  0
 19 27  1  0  0  0  0
 19 28  1  0  0  0  0
  1 29  1  0  0  0  0
  5 30  1  0  0  0  0
  5 31  1  0  0  0  0
  6 32  1  0  0  0  0
  6 33  1  0  0  0  0
  7 34  1  0  0  0  0
  7 35  1  0  0  0  0
  8 36  1  0  0  0  0
  8 37  1  0  0  0  0
  9 38  1  0  0  0  0
  9 39  1  0  0  0  0
 10 40  1  0  0  0  0
 10 41  1  0  0  0  0
 11 42  1  0  0  0  0
 11 43  1  0  0  0  0
 12 44  1  0  0  0  0
 13 45  1  0  0  0  0
 14 46  1  0  0  0  0
 15 47  1  0  0  0  0
 20 48  1  0  0  0  0
 20 49  1  0  0  0  0
 20 50  1  0  0  0  0
 21 51  1  0  0  0  0
 21 52  1  0  0  0  0
 21 53  1  0  0  0  0
 22 54  1  0  0  0  0
 22 55  1  0  0  0  0
 22 56  1  0  0  0  0
 23 57  1  0  0  0  0
 23 58  1  0  0  0  0
 23 59  1  0  0  0  0
 24 60  1  0  0  0  0
 24 61  1  0  0  0  0
 24 62  1  0  0  0  0
M  END
> <Hybrid2>
-8.174376

> <docked_fragment>
x0749

> <Mpro-_dock>
5.038698

> <site>
active-covalent

$$$$
CHEMBL1102
  -OEChem-04122014263D

 31 32  0     1  0  0  0  0  0999 V2000
   12.8265    3.6087   22.9743 C   0  0  0  0  0  0  0  0  0  0  0  0
   13.7932    2.9856   22.1852 C   0  0  0  0  0  0  0  0  0  0  0  0
   11.9436    2.8398   23.7327 C   0  0  0  0  0  0  0  0  0  0  0  0
   13.8770    1.5936   22.1542 C   0  0  0  0  0  0  0  0  0  0  0  0
   12.0274    1.4478   23.7017 C   0  0  0  0  0  0  0  0  0  0  0  0
   12.9941    0.8246   22.9125 C   0  0  0  0  0  0  0  0  0  0  0  0
   10.4228   -1.5762   21.9236 C   0  0  0  0  0  0  0  0  0  0  0  0
   12.8775   -1.2892   21.4692 C   0  0  0  0  0  0  0  0  0  0  0  0
   10.6287   -1.1154   23.3434 C   0  0  0  0  0  0  0  0  0  0  0  0
   12.0512   -1.3779   23.8133 C   0  0  0  0  0  0  0  0  0  0  0  0
   13.0859   -0.7113   22.8786 C   0  0  2  0  0  0  0  0  0  0  0  0
   14.6626   -2.6120   23.3314 C   0  0  0  0  0  0  0  0  0  0  0  0
   14.5016   -1.1294   23.3396 C   0  0  0  0  0  0  0  0  0  0  0  0
   11.5652   -1.6211   21.1335 N   0  0  0  0  0  0  0  0  0  0  0  0
    9.3020   -1.8500   21.4947 O   0  0  0  0  0  0  0  0  0  0  0  0
   13.7998   -1.4062   20.6598 O   0  0  0  0  0  0  0  0  0  0  0  0
   12.7622    4.6926   22.9994 H   0  0  0  0  0  0  0  0  0  0  0  0
   14.4814    3.5841   21.5955 H   0  0  0  0  0  0  0  0  0  0  0  0
   11.1916    3.3246   24.3481 H   0  0  0  0  0  0  0  0  0  0  0  0
   14.6333    1.1167   21.5362 H   0  0  0  0  0  0  0  0  0  0  0  0
   11.3353    0.8568   24.2957 H   0  0  0  0  0  0  0  0  0  0  0  0
   10.3718   -0.0526   23.4024 H   0  0  0  0  0  0  0  0  0  0  0  0
    9.9302   -1.6632   23.9859 H   0  0  0  0  0  0  0  0  0  0  0  0
   12.1623   -1.0011   24.8380 H   0  0  0  0  0  0  0  0  0  0  0  0
   12.2262   -2.4619   23.8488 H   0  0  0  0  0  0  0  0  0  0  0  0
   13.9207   -3.0625   24.0013 H   0  0  0  0  0  0  0  0  0  0  0  0
   15.6583   -2.9008   23.6844 H   0  0  0  0  0  0  0  0  0  0  0  0
   14.5044   -3.0184   22.3269 H   0  0  0  0  0  0  0  0  0  0  0  0
   15.2367   -0.6727   22.6749 H   0  0  0  0  0  0  0  0  0  0  0  0
   14.6717   -0.7434   24.3459 H   0  0  0  0  0  0  0  0  0  0  0  0
   11.4273   -1.9508   20.1819 H   0  0  0  0  0  0  0  0  0  0  0  0
  1  2  1  0  0  0  0
  1  3  2  0  0  0  0
  2  4  2  0  0  0  0
  3  5  1  0  0  0  0
  4  6  1  0  0  0  0
  5  6  2  0  0  0  0
  6 11  1  0  0  0  0
  7  9  1  0  0  0  0
  7 14  1  0  0  0  0
  7 15  2  0  0  0  0
  8 11  1  0  0  0  0
  8 14  1  0  0  0  0
  8 16  2  0  0  0  0
  9 10  1  0  0  0  0
 10 11  1  0  0  0  0
 11 13  1  0  0  0  0
 12 13  1  0  0  0  0
  1 17  1  0  0  0  0
  2 18  1  0  0  0  0
  3 19  1  0  0  0  0
  4 20  1  0  0  0  0
  5 21  1  0  0  0  0
  9 22  1  0  0  0  0
  9 23  1  0  0  0  0
 10 24  1  0  0  0  0
 10 25  1  0  0  0  0
 12 26  1  0  0  0  0
 12 27  1  0  0  0  0
 12 28  1  0  0  0  0
 13 29  1  0  0  0  0
 13 30  1  0  0  0  0
 14 31  1  0  0  0  0
M  END
> <Hybrid2>
-8.159465

> <docked_fragment>
x0195

> <Mpro-_dock>
-0.590185

> <site>
active-noncovalent

$$$$
CHEMBL1201116
  -OEChem-04122014263D

 50 53  0     1  0  0  0  0  0999 V2000
   13.0953    1.0574   22.8961 C   0  0  0  0  0  0  0  0  0  0  0  0
   12.8080    0.9528   24.2571 C   0  0  0  0  0  0  0  0  0  0  0  0
   12.4776    0.2005   21.9851 C   0  0  0  0  0  0  0  0  0  0  0  0
   11.9032   -0.0087   24.7070 C   0  0  0  0  0  0  0  0  0  0  0  0
   11.5728   -0.7610   22.4350 C   0  0  0  0  0  0  0  0  0  0  0  0
   11.2856   -0.8656   23.7959 C   0  0  0  0  0  0  0  0  0  0  0  0
    9.2545   -2.2147   23.2528 C   0  0  0  0  0  0  0  0  0  0  0  0
    6.8680   -3.2599   21.9117 C   0  0  0  0  0  0  0  0  0  0  0  0
    5.8492   -2.1015   18.8327 C   0  0  0  0  0  0  0  0  0  0  0  0
   10.3213   -1.8908   24.2748 C   0  0  2  0  0  0  0  0  0  0  0  0
    6.7473   -2.5161   23.2568 C   0  0  2  0  0  0  0  0  0  0  0  0
    6.7007   -1.6528   20.0021 C   0  0  1  0  0  0  0  0  0  0  0  0
    6.1200   -1.3728   22.4387 C   0  0  2  0  0  0  0  0  0  0  0  0
    6.7413   -0.1222   20.1998 C   0  0  0  0  0  0  0  0  0  0  0  0
    8.1495   -1.9845   25.3466 C   0  0  0  0  0  0  0  0  0  0  0  0
    7.8484    0.5256   19.3659 C   0  0  0  0  0  0  0  0  0  0  0  0
    5.4020    0.5790   19.9312 C   0  0  0  0  0  0  0  0  0  0  0  0
    7.1853   -0.9088   25.8435 C   0  0  0  0  0  0  0  0  0  0  0  0
    8.0390   -3.2699   26.1696 C   0  0  0  0  0  0  0  0  0  0  0  0
    8.0162   -2.2485   23.9177 N   0  0  0  0  0  0  0  0  0  0  0  0
    6.2538   -2.2320   21.2565 N   0  0  0  0  0  0  0  0  0  0  0  0
    9.5570   -1.4575   25.4984 N   0  3  0  0  0  0  0  0  0  0  0  0
    5.8022   -1.2981   17.8604 O   0  5  0  0  0  0  0  0  0  0  0  0
    9.4555   -2.4247   22.0649 O   0  0  0  0  0  0  0  0  0  0  0  0
    7.3949   -4.2789   21.5255 O   0  0  0  0  0  0  0  0  0  0  0  0
    5.2940   -3.2261   18.9825 O   0  0  0  0  0  0  0  0  0  0  0  0
    7.1430    0.0832   22.0048 S   0  0  0  0  0  0  0  0  0  0  0  0
   13.7988    1.8070   22.5458 H   0  0  0  0  0  0  0  0  0  0  0  0
   13.2880    1.6206   24.9665 H   0  0  0  0  0  0  0  0  0  0  0  0
   12.7002    0.2824   20.9253 H   0  0  0  0  0  0  0  0  0  0  0  0
   11.6856   -0.0831   25.7692 H   0  0  0  0  0  0  0  0  0  0  0  0
   11.0965   -1.4244   21.7179 H   0  0  0  0  0  0  0  0  0  0  0  0
   10.8451   -2.8139   24.5425 H   0  0  0  0  0  0  0  0  0  0  0  0
    6.0442   -3.0051   23.9406 H   0  0  0  0  0  0  0  0  0  0  0  0
    7.7126   -2.0341   19.8079 H   0  0  0  0  0  0  0  0  0  0  0  0
    5.0752   -1.1490   22.6758 H   0  0  0  0  0  0  0  0  0  0  0  0
    7.8483    1.6012   19.5290 H   0  0  0  0  0  0  0  0  0  0  0  0
    7.6786    0.3228   18.3107 H   0  0  0  0  0  0  0  0  0  0  0  0
    8.8138    0.1184   19.6589 H   0  0  0  0  0  0  0  0  0  0  0  0
    5.5153    1.6471   20.0917 H   0  0  0  0  0  0  0  0  0  0  0  0
    4.6480    0.1882   20.6081 H   0  0  0  0  0  0  0  0  0  0  0  0
    5.0984    0.3962   18.9046 H   0  0  0  0  0  0  0  0  0  0  0  0
    7.2904   -0.0108   25.2372 H   0  0  0  0  0  0  0  0  0  0  0  0
    7.4064   -0.6665   26.8815 H   0  0  0  0  0  0  0  0  0  0  0  0
    6.1609   -1.2703   25.7715 H   0  0  0  0  0  0  0  0  0  0  0  0
    8.7383   -4.0104   25.7877 H   0  0  0  0  0  0  0  0  0  0  0  0
    7.0270   -3.6627   26.1006 H   0  0  0  0  0  0  0  0  0  0  0  0
    8.2723   -3.0590   27.2109 H   0  0  0  0  0  0  0  0  0  0  0  0
   10.0121   -1.7808   26.3636 H   0  0  0  0  0  0  0  0  0  0  0  0
    9.5424   -0.4292   25.5492 H   0  0  0  0  0  0  0  0  0  0  0  0
  1  2  1  0  0  0  0
  1  3  2  0  0  0  0
  2  4  2  0  0  0  0
  3  5  1  0  0  0  0
  4  6  1  0  0  0  0
  5  6  2  0  0  0  0
  6 10  1  0  0  0  0
  7 10  1  0  0  0  0
  7 20  1  0  0  0  0
  7 24  2  0  0  0  0
  8 11  1  0  0  0  0
  8 21  1  0  0  0  0
  8 25  2  0  0  0  0
  9 12  1  0  0  0  0
  9 23  1  0  0  0  0
  9 26  2  0  0  0  0
 10 22  1  0  0  0  0
 11 13  1  0  0  0  0
 11 20  1  0  0  0  0
 12 14  1  0  0  0  0
 12 21  1  0  0  0  0
 13 21  1  0  0  0  0
 13 27  1  0  0  0  0
 14 16  1  0  0  0  0
 14 17  1  0  0  0  0
 14 27  1  0  0  0  0
 15 18  1  0  0  0  0
 15 19  1  0  0  0  0
 15 20  1  0  0  0  0
 15 22  1  0  0  0  0
  1 28  1  0  0  0  0
  2 29  1  0  0  0  0
  3 30  1  0  0  0  0
  4 31  1  0  0  0  0
  5 32  1  0  0  0  0
 10 33  1  0  0  0  0
 11 34  1  0  0  0  0
 12 35  1  0  0  0  0
 13 36  1  0  0  0  0
 16 37  1  0  0  0  0
 16 38  1  0  0  0  0
 16 39  1  0  0  0  0
 17 40  1  0  0  0  0
 17 41  1  0  0  0  0
 17 42  1  0  0  0  0
 18 43  1  0  0  0  0
 18 44  1  0  0  0  0
 18 45  1  0  0  0  0
 19 46  1  0  0  0  0
 19 47  1  0  0  0  0
 19 48  1  0  0  0  0
 22 49  1  0  0  0  0
 22 50  1  0  0  0  0
M  CHG  2  22   1  23  -1
M  END
> <Hybrid2>
-8.155181

> <docked_fragment>
x0831

> <Mpro-_dock>
2.268863

> <site>
active-covalent

$$$$
CHEMBL6731
  -OEChem-04122014263D

 27 28  0     1  0  0  0  0  0999 V2000
   12.0671    1.9128   23.5152 C   0  0  0  0  0  0  0  0  0  0  0  0
   12.0023    0.5456   23.7947 C   0  0  0  0  0  0  0  0  0  0  0  0
   14.0193    1.5745   22.1000 C   0  0  0  0  0  0  0  0  0  0  0  0
   13.0698    2.4243   22.6727 C   0  0  0  0  0  0  0  0  0  0  0  0
   12.9517   -0.2718   23.2167 C   0  0  0  0  0  0  0  0  0  0  0  0
   13.9331    0.2288   22.3919 C   0  0  0  0  0  0  0  0  0  0  0  0
   14.1967   -1.9127   22.5538 C   0  0  0  0  0  0  0  0  0  0  0  0
   11.0674    4.9014   23.4868 C   0  0  0  0  0  0  0  0  0  0  0  0
   13.1197    3.8886   22.3894 C   0  0  0  0  0  0  0  0  0  0  0  0
   12.5841    4.7686   23.5322 C   0  0  1  0  0  0  0  0  0  0  0  0
   13.1654    6.1376   23.4181 N   0  3  0  0  0  0  0  0  0  0  0  0
   13.0456   -1.6205   23.3723 O   0  0  0  0  0  0  0  0  0  0  0  0
   14.7645   -0.7437   21.9283 O   0  0  0  0  0  0  0  0  0  0  0  0
   11.3315    2.5815   23.9555 H   0  0  0  0  0  0  0  0  0  0  0  0
   11.2303    0.1472   24.4429 H   0  0  0  0  0  0  0  0  0  0  0  0
   14.7972    1.9560   21.4473 H   0  0  0  0  0  0  0  0  0  0  0  0
   14.9633   -2.3812   23.1819 H   0  0  0  0  0  0  0  0  0  0  0  0
   13.9004   -2.6205   21.7715 H   0  0  0  0  0  0  0  0  0  0  0  0
   10.7357    5.2830   22.5150 H   0  0  0  0  0  0  0  0  0  0  0  0
   10.5742    3.9381   23.6573 H   0  0  0  0  0  0  0  0  0  0  0  0
   10.7188    5.5999   24.2548 H   0  0  0  0  0  0  0  0  0  0  0  0
   12.5268    4.0925   21.4830 H   0  0  0  0  0  0  0  0  0  0  0  0
   14.1458    4.2000   22.1346 H   0  0  0  0  0  0  0  0  0  0  0  0
   12.8964    4.3862   24.5101 H   0  0  0  0  0  0  0  0  0  0  0  0
   12.6785    6.6752   22.6971 H   0  0  0  0  0  0  0  0  0  0  0  0
   14.1561    6.0864   23.1686 H   0  0  0  0  0  0  0  0  0  0  0  0
   13.0815    6.6382   24.3060 H   0  0  0  0  0  0  0  0  0  0  0  0
  1  2  2  0  0  0  0
  1  4  1  0  0  0  0
  2  5  1  0  0  0  0
  3  4  2  0  0  0  0
  3  6  1  0  0  0  0
  4  9  1  0  0  0  0
  5  6  2  0  0  0  0
  5 12  1  0  0  0  0
  6 13  1  0  0  0  0
  7 12  1  0  0  0  0
  7 13  1  0  0  0  0
  8 10  1  0  0  0  0
  9 10  1  0  0  0  0
 10 11  1  0  0  0  0
  1 14  1  0  0  0  0
  2 15  1  0  0  0  0
  3 16  1  0  0  0  0
  7 17  1  0  0  0  0
  7 18  1  0  0  0  0
  8 19  1  0  0  0  0
  8 20  1  0  0  0  0
  8 21  1  0  0  0  0
  9 22  1  0  0  0  0
  9 23  1  0  0  0  0
 10 24  1  0  0  0  0
 11 25  1  0  0  0  0
 11 26  1  0  0  0  0
 11 27  1  0  0  0  0
M  CHG  1  11   1
M  END
> <Hybrid2>
-8.143455

> <docked_fragment>
x0195

> <Mpro-_dock>
-0.34226

> <site>
active-noncovalent

$$$$
CHEMBL1201173
  -OEChem-04122014263D

 57 60  0     1  0  0  0  0  0999 V2000
    6.9053   -5.5963   24.9553 C   0  0  0  0  0  0  0  0  0  0  0  0
    7.8681   -4.6654   24.8179 C   0  0  0  0  0  0  0  0  0  0  0  0
    6.0635   -5.6843   26.1721 C   0  0  0  0  0  0  0  0  0  0  0  0
   10.0406    2.8017   23.4931 C   0  0  0  0  0  0  0  0  0  0  0  0
    6.4180   -4.8090   27.3413 C   0  0  0  0  0  0  0  0  0  0  0  0
    6.8918   -3.4569   26.8405 C   0  0  0  0  0  0  0  0  0  0  0  0
    9.9995    0.9377   21.7835 C   0  0  0  0  0  0  0  0  0  0  0  0
   10.0112   -0.5923   21.9595 C   0  0  0  0  0  0  0  0  0  0  0  0
    8.8707   -3.3108   22.9490 C   0  0  0  0  0  0  0  0  0  0  0  0
    8.4952    0.4263   25.2521 C   0  0  0  0  0  0  0  0  0  0  0  0
    8.8491   -4.6761   23.6442 C   0  0  2  0  0  0  0  0  0  0  0  0
    9.3903    1.5185   23.0774 C   0  0  1  0  0  0  0  0  0  0  0  0
    9.1552   -0.8183   23.2018 C   0  0  1  0  0  0  0  0  0  0  0  0
    9.2129   -2.1729   23.9219 C   0  0  1  0  0  0  0  0  0  0  0  0
    8.2009   -2.1506   25.1096 C   0  0  2  0  0  0  0  0  0  0  0  0
    8.3932   -0.9038   26.0313 C   0  0  1  0  0  0  0  0  0  0  0  0
    8.0960   -3.5434   25.8558 C   0  0  2  0  0  0  0  0  0  0  0  0
    9.5236    0.3725   24.1087 C   0  0  2  0  0  0  0  0  0  0  0  0
   11.4928    2.9708   23.1371 C   0  0  0  0  0  0  0  0  0  0  0  0
    8.6344   -5.7696   22.5871 C   0  0  0  0  0  0  0  0  0  0  0  0
    9.3650   -3.9124   26.6588 C   0  0  0  0  0  0  0  0  0  0  0  0
   10.9700    0.3112   24.6652 C   0  0  0  0  0  0  0  0  0  0  0  0
    5.1545   -6.5099   26.2311 O   0  0  0  0  0  0  0  0  0  0  0  0
    9.4176    3.6755   24.0943 O   0  0  0  0  0  0  0  0  0  0  0  0
    9.5371   -1.0493   26.8618 O   0  0  0  0  0  0  0  0  0  0  0  0
    6.7325   -6.3743   24.2212 H   0  0  0  0  0  0  0  0  0  0  0  0
    5.5240   -4.6723   27.9596 H   0  0  0  0  0  0  0  0  0  0  0  0
    7.1782   -5.3133   27.9458 H   0  0  0  0  0  0  0  0  0  0  0  0
    6.0446   -2.9654   26.3416 H   0  0  0  0  0  0  0  0  0  0  0  0
    7.1441   -2.8336   27.7068 H   0  0  0  0  0  0  0  0  0  0  0  0
   11.0117    1.3069   21.5844 H   0  0  0  0  0  0  0  0  0  0  0  0
    9.3812    1.2189   20.9231 H   0  0  0  0  0  0  0  0  0  0  0  0
    9.6015   -1.0940   21.0770 H   0  0  0  0  0  0  0  0  0  0  0  0
   11.0343   -0.9563   22.1044 H   0  0  0  0  0  0  0  0  0  0  0  0
    9.6148   -3.3314   22.1429 H   0  0  0  0  0  0  0  0  0  0  0  0
    7.8985   -3.1194   22.4746 H   0  0  0  0  0  0  0  0  0  0  0  0
    7.5033    0.6550   24.8408 H   0  0  0  0  0  0  0  0  0  0  0  0
    8.7484    1.2453   25.9366 H   0  0  0  0  0  0  0  0  0  0  0  0
    9.8486   -4.8584   24.0619 H   0  0  0  0  0  0  0  0  0  0  0  0
    8.3303    1.7444   22.9001 H   0  0  0  0  0  0  0  0  0  0  0  0
    8.1102   -0.6880   22.8715 H   0  0  0  0  0  0  0  0  0  0  0  0
   10.2257   -2.3484   24.2987 H   0  0  0  0  0  0  0  0  0  0  0  0
    7.2153   -1.9938   24.6390 H   0  0  0  0  0  0  0  0  0  0  0  0
    7.5308   -0.8212   26.7020 H   0  0  0  0  0  0  0  0  0  0  0  0
   11.5791    3.4395   22.1529 H   0  0  0  0  0  0  0  0  0  0  0  0
   11.9787    1.9925   23.1065 H   0  0  0  0  0  0  0  0  0  0  0  0
   11.9794    3.6108   23.8772 H   0  0  0  0  0  0  0  0  0  0  0  0
    7.6561   -5.6445   22.1328 H   0  0  0  0  0  0  0  0  0  0  0  0
    8.6931   -6.7450   23.0606 H   0  0  0  0  0  0  0  0  0  0  0  0
    9.4027   -5.6890   21.8240 H   0  0  0  0  0  0  0  0  0  0  0  0
    9.5494   -3.1413   27.3957 H   0  0  0  0  0  0  0  0  0  0  0  0
   10.2027   -3.9823   25.9768 H   0  0  0  0  0  0  0  0  0  0  0  0
    9.2045   -4.8640   27.1491 H   0  0  0  0  0  0  0  0  0  0  0  0
   11.6590    0.2747   23.8331 H   0  0  0  0  0  0  0  0  0  0  0  0
   11.0688   -0.5774   25.2728 H   0  0  0  0  0  0  0  0  0  0  0  0
   11.1485    1.1950   25.2614 H   0  0  0  0  0  0  0  0  0  0  0  0
    9.5409   -0.2916   27.4690 H   0  0  0  0  0  0  0  0  0  0  0  0
  1  2  2  0  0  0  0
  1  3  1  0  0  0  0
  2 11  1  0  0  0  0
  2 17  1  0  0  0  0
  3  5  1  0  0  0  0
  3 23  2  0  0  0  0
  4 12  1  0  0  0  0
  4 19  1  0  0  0  0
  4 24  2  0  0  0  0
  5  6  1  0  0  0  0
  6 17  1  0  0  0  0
  7  8  1  0  0  0  0
  7 12  1  0  0  0  0
  8 13  1  0  0  0  0
  9 11  1  0  0  0  0
  9 14  1  0  0  0  0
 10 16  1  0  0  0  0
 10 18  1  0  0  0  0
 11 20  1  0  0  0  0
 12 18  1  0  0  0  0
 13 14  1  0  0  0  0
 13 18  1  0  0  0  0
 14 15  1  0  0  0  0
 15 16  1  0  0  0  0
 15 17  1  0  0  0  0
 16 25  1  0  0  0  0
 17 21  1  0  0  0  0
 18 22  1  0  0  0  0
  1 26  1  0  0  0  0
  5 27  1  0  0  0  0
  5 28  1  0  0  0  0
  6 29  1  0  0  0  0
  6 30  1  0  0  0  0
  7 31  1  0  0  0  0
  7 32  1  0  0  0  0
  8 33  1  0  0  0  0
  8 34  1  0  0  0  0
  9 35  1  0  0  0  0
  9 36  1  0  0  0  0
 10 37  1  0  0  0  0
 10 38  1  0  0  0  0
 11 39  1  0  0  0  0
 12 40  1  0  0  0  0
 13 41  1  0  0  0  0
 14 42  1  0  0  0  0
 15 43  1  0  0  0  0
 16 44  1  0  0  0  0
 19 45  1  0  0  0  0
 19 46  1  0  0  0  0
 19 47  1  0  0  0  0
 20 48  1  0  0  0  0
 20 49  1  0  0  0  0
 20 50  1  0  0  0  0
 21 51  1  0  0  0  0
 21 52  1  0  0  0  0
 21 53  1  0  0  0  0
 22 54  1  0  0  0  0
 22 55  1  0  0  0  0
 22 56  1  0  0  0  0
 25 57  1  0  0  0  0
M  END
> <Hybrid2>
-8.141653

> <docked_fragment>
x1077

> <Mpro-_dock>
3.629516

> <site>
active-noncovalent

$$$$
CHEMBL1697833
  -OEChem-04122014263D

 27 27  0     0  0  0  0  0  0999 V2000
   14.1959   -1.8597   22.5080 C   0  0  0  0  0  0  0  0  0  0  0  0
   14.2713   -1.4153   23.8280 C   0  0  0  0  0  0  0  0  0  0  0  0
   13.2457   -1.3174   21.6426 C   0  0  0  0  0  0  0  0  0  0  0  0
   13.3964   -0.4287   24.2827 C   0  0  0  0  0  0  0  0  0  0  0  0
   12.3708   -0.3307   22.0974 C   0  0  0  0  0  0  0  0  0  0  0  0
   12.4462    0.1136   23.4175 C   0  0  0  0  0  0  0  0  0  0  0  0
    9.4805   -0.4961   22.7281 C   0  0  0  0  0  0  0  0  0  0  0  0
    8.8823    0.5012   20.4918 C   0  0  0  0  0  0  0  0  0  0  0  0
   11.3553    0.2290   21.1292 C   0  0  0  0  0  0  0  0  0  0  0  0
    9.9159   -0.3168   21.2710 C   0  0  0  0  0  0  0  0  0  0  0  0
    9.9250   -1.6934   20.6547 N   0  3  0  0  0  0  0  0  0  0  0  0
   11.3808    1.3327   24.0158 Cl  0  0  0  0  0  0  0  0  0  0  0  0
   14.8778   -2.6274   22.1537 H   0  0  0  0  0  0  0  0  0  0  0  0
   15.0120   -1.8370   24.5010 H   0  0  0  0  0  0  0  0  0  0  0  0
   13.1957   -1.6705   20.6159 H   0  0  0  0  0  0  0  0  0  0  0  0
   13.4690   -0.0925   25.3139 H   0  0  0  0  0  0  0  0  0  0  0  0
   10.2151   -1.0811   23.2940 H   0  0  0  0  0  0  0  0  0  0  0  0
    9.3681    0.4702   23.2326 H   0  0  0  0  0  0  0  0  0  0  0  0
    8.5251   -1.0266   22.7976 H   0  0  0  0  0  0  0  0  0  0  0  0
    9.1857    0.6349   19.4468 H   0  0  0  0  0  0  0  0  0  0  0  0
    7.9056    0.0064   20.4817 H   0  0  0  0  0  0  0  0  0  0  0  0
    8.7513    1.4979   20.9280 H   0  0  0  0  0  0  0  0  0  0  0  0
   11.3482    1.3233   21.2346 H   0  0  0  0  0  0  0  0  0  0  0  0
   11.7204    0.0493   20.1080 H   0  0  0  0  0  0  0  0  0  0  0  0
    9.2264   -2.2764   21.1091 H   0  0  0  0  0  0  0  0  0  0  0  0
   10.8431   -2.1149   20.7735 H   0  0  0  0  0  0  0  0  0  0  0  0
    9.7122   -1.6255   19.6625 H   0  0  0  0  0  0  0  0  0  0  0  0
  1  2  1  0  0  0  0
  1  3  2  0  0  0  0
  2  4  2  0  0  0  0
  3  5  1  0  0  0  0
  4  6  1  0  0  0  0
  5  6  2  0  0  0  0
  5  9  1  0  0  0  0
  6 12  1  0  0  0  0
  7 10  1  0  0  0  0
  8 10  1  0  0  0  0
  9 10  1  0  0  0  0
 10 11  1  0  0  0  0
  1 13  1  0  0  0  0
  2 14  1  0  0  0  0
  3 15  1  0  0  0  0
  4 16  1  0  0  0  0
  7 17  1  0  0  0  0
  7 18  1  0  0  0  0
  7 19  1  0  0  0  0
  8 20  1  0  0  0  0
  8 21  1  0  0  0  0
  8 22  1  0  0  0  0
  9 23  1  0  0  0  0
  9 24  1  0  0  0  0
 11 25  1  0  0  0  0
 11 26  1  0  0  0  0
 11 27  1  0  0  0  0
M  CHG  1  11   1
M  END
> <Hybrid2>
-8.131664

> <docked_fragment>
x0678

> <Mpro-_dock>
-0.036167

> <site>
active-noncovalent

$$$$
CHEMBL2104126
  -OEChem-04122014263D

 60 63  0     1  0  0  0  0  0999 V2000
   10.2882   -2.3197   22.8024 C   0  0  0  0  0  0  0  0  0  0  0  0
   12.2545    0.7734   23.2305 C   0  0  0  0  0  0  0  0  0  0  0  0
   10.7129   -1.1614   23.3439 C   0  0  0  0  0  0  0  0  0  0  0  0
   11.9189   -0.4734   22.8570 C   0  0  0  0  0  0  0  0  0  0  0  0
    9.0853   -3.0369   23.2916 C   0  0  0  0  0  0  0  0  0  0  0  0
   10.5224    6.5126   25.0977 C   0  0  0  0  0  0  0  0  0  0  0  0
    8.6499    6.0462   23.4933 C   0  0  0  0  0  0  0  0  0  0  0  0
    8.3078   -2.4533   24.4385 C   0  0  0  0  0  0  0  0  0  0  0  0
    8.4603   -0.9418   24.4882 C   0  0  0  0  0  0  0  0  0  0  0  0
    9.1227    1.9345   25.2271 C   0  0  0  0  0  0  0  0  0  0  0  0
    9.1738    3.4407   24.8989 C   0  0  0  0  0  0  0  0  0  0  0  0
   12.6742    3.8682   23.5301 C   0  0  0  0  0  0  0  0  0  0  0  0
   11.4349    1.6190   24.1663 C   0  0  2  0  0  0  0  0  0  0  0  0
    9.9736    1.0854   24.2496 C   0  0  1  0  0  0  0  0  0  0  0  0
   11.3724    3.1000   23.7639 C   0  0  1  0  0  0  0  0  0  0  0  0
   12.2878    5.3627   23.6895 C   0  0  2  0  0  0  0  0  0  0  0  0
    9.9397   -0.4670   24.4894 C   0  0  2  0  0  0  0  0  0  0  0  0
   10.8088    5.3683   24.1739 C   0  0  1  0  0  0  0  0  0  0  0  0
   10.6176    3.9647   24.8083 C   0  0  1  0  0  0  0  0  0  0  0  0
   10.7342    7.8966   24.5465 C   0  0  0  0  0  0  0  0  0  0  0  0
    7.7946    6.2602   22.2813 C   0  0  0  0  0  0  0  0  0  0  0  0
   12.5500    6.1607   22.4156 C   0  0  0  0  0  0  0  0  0  0  0  0
   10.5911   -0.8542   25.8385 C   0  0  0  0  0  0  0  0  0  0  0  0
   11.2656    3.9223   26.2222 C   0  0  0  0  0  0  0  0  0  0  0  0
    8.7731   -4.1145   22.7870 O   0  0  0  0  0  0  0  0  0  0  0  0
   10.1313    6.3296   26.2495 O   0  0  0  0  0  0  0  0  0  0  0  0
    8.2723    6.2389   24.6411 O   0  0  0  0  0  0  0  0  0  0  0  0
    9.8893    5.6120   23.1149 O   0  0  0  0  0  0  0  0  0  0  0  0
   13.0304   -1.3027   21.8002 Cl  0  0  0  0  0  0  0  0  0  0  0  0
   10.8007   -2.8116   21.9828 H   0  0  0  0  0  0  0  0  0  0  0  0
   13.1912    1.2008   22.8798 H   0  0  0  0  0  0  0  0  0  0  0  0
    7.2492   -2.6999   24.2993 H   0  0  0  0  0  0  0  0  0  0  0  0
    8.6452   -2.9259   25.3660 H   0  0  0  0  0  0  0  0  0  0  0  0
    7.9405   -0.5130   23.6199 H   0  0  0  0  0  0  0  0  0  0  0  0
    7.9352   -0.5779   25.3793 H   0  0  0  0  0  0  0  0  0  0  0  0
    9.4457    1.7673   26.2594 H   0  0  0  0  0  0  0  0  0  0  0  0
    8.0722    1.6283   25.1785 H   0  0  0  0  0  0  0  0  0  0  0  0
    8.6495    3.5955   23.9478 H   0  0  0  0  0  0  0  0  0  0  0  0
    8.6099    3.9987   25.6559 H   0  0  0  0  0  0  0  0  0  0  0  0
   13.4305    3.5952   24.2753 H   0  0  0  0  0  0  0  0  0  0  0  0
   13.0960    3.6499   22.5431 H   0  0  0  0  0  0  0  0  0  0  0  0
   11.9239    1.5424   25.1430 H   0  0  0  0  0  0  0  0  0  0  0  0
    9.5174    1.2484   23.2579 H   0  0  0  0  0  0  0  0  0  0  0  0
   10.8273    3.1355   22.8074 H   0  0  0  0  0  0  0  0  0  0  0  0
   12.9322    5.7845   24.4730 H   0  0  0  0  0  0  0  0  0  0  0  0
    9.8100    8.2552   24.0848 H   0  0  0  0  0  0  0  0  0  0  0  0
   11.5215    7.8727   23.7890 H   0  0  0  0  0  0  0  0  0  0  0  0
   11.0109    8.5753   25.3569 H   0  0  0  0  0  0  0  0  0  0  0  0
    7.9071    7.2869   21.9246 H   0  0  0  0  0  0  0  0  0  0  0  0
    6.7499    6.0482   22.5225 H   0  0  0  0  0  0  0  0  0  0  0  0
    8.1133    5.5784   21.4876 H   0  0  0  0  0  0  0  0  0  0  0  0
   11.9311    5.7784   21.6049 H   0  0  0  0  0  0  0  0  0  0  0  0
   13.5985    6.0742   22.1335 H   0  0  0  0  0  0  0  0  0  0  0  0
   12.3115    7.2107   22.5804 H   0  0  0  0  0  0  0  0  0  0  0  0
   10.0499   -0.3682   26.6397 H   0  0  0  0  0  0  0  0  0  0  0  0
   11.6227   -0.5274   25.8346 H   0  0  0  0  0  0  0  0  0  0  0  0
   10.5415   -1.9291   25.9543 H   0  0  0  0  0  0  0  0  0  0  0  0
   12.2768    4.2920   26.1446 H   0  0  0  0  0  0  0  0  0  0  0  0
   11.2620    2.8998   26.5679 H   0  0  0  0  0  0  0  0  0  0  0  0
   10.6836    4.5473   26.8824 H   0  0  0  0  0  0  0  0  0  0  0  0
  1  3  2  0  0  0  0
  1  5  1  0  0  0  0
  2  4  2  0  0  0  0
  2 13  1  0  0  0  0
  3  4  1  0  0  0  0
  3 17  1  0  0  0  0
  4 29  1  0  0  0  0
  5  8  1  0  0  0  0
  5 25  2  0  0  0  0
  6 18  1  0  0  0  0
  6 20  1  0  0  0  0
  6 26  2  0  0  0  0
  7 21  1  0  0  0  0
  7 27  2  0  0  0  0
  7 28  1  0  0  0  0
  8  9  1  0  0  0  0
  9 17  1  0  0  0  0
 10 11  1  0  0  0  0
 10 14  1  0  0  0  0
 11 19  1  0  0  0  0
 12 15  1  0  0  0  0
 12 16  1  0  0  0  0
 13 14  1  0  0  0  0
 13 15  1  0  0  0  0
 14 17  1  0  0  0  0
 15 19  1  0  0  0  0
 16 18  1  0  0  0  0
 16 22  1  0  0  0  0
 17 23  1  0  0  0  0
 18 19  1  0  0  0  0
 18 28  1  0  0  0  0
 19 24  1  0  0  0  0
  1 30  1  0  0  0  0
  2 31  1  0  0  0  0
  8 32  1  0  0  0  0
  8 33  1  0  0  0  0
  9 34  1  0  0  0  0
  9 35  1  0  0  0  0
 10 36  1  0  0  0  0
 10 37  1  0  0  0  0
 11 38  1  0  0  0  0
 11 39  1  0  0  0  0
 12 40  1  0  0  0  0
 12 41  1  0  0  0  0
 13 42  1  0  0  0  0
 14 43  1  0  0  0  0
 15 44  1  0  0  0  0
 16 45  1  0  0  0  0
 20 46  1  0  0  0  0
 20 47  1  0  0  0  0
 20 48  1  0  0  0  0
 21 49  1  0  0  0  0
 21 50  1  0  0  0  0
 21 51  1  0  0  0  0
 22 52  1  0  0  0  0
 22 53  1  0  0  0  0
 22 54  1  0  0  0  0
 23 55  1  0  0  0  0
 23 56  1  0  0  0  0
 23 57  1  0  0  0  0
 24 58  1  0  0  0  0
 24 59  1  0  0  0  0
 24 60  1  0  0  0  0
M  END
> <Hybrid2>
-8.108401

> <docked_fragment>
x0104

> <Mpro-_dock>
3.091756

> <site>
active-noncovalent

$$$$
CHEMBL1574
  -OEChem-04122014263D

 27 27  0     0  0  0  0  0  0999 V2000
   14.5324   -1.5406   23.8233 C   0  0  0  0  0  0  0  0  0  0  0  0
   13.7264   -0.5289   24.3453 C   0  0  0  0  0  0  0  0  0  0  0  0
   14.3430   -1.9763   22.5118 C   0  0  0  0  0  0  0  0  0  0  0  0
   12.7309    0.0470   23.5560 C   0  0  0  0  0  0  0  0  0  0  0  0
   13.3475   -1.4004   21.7224 C   0  0  0  0  0  0  0  0  0  0  0  0
   12.5415   -0.3888   22.2445 C   0  0  0  0  0  0  0  0  0  0  0  0
    9.4739   -0.4464   22.8641 C   0  0  0  0  0  0  0  0  0  0  0  0
    9.0786    0.1280   20.4418 C   0  0  0  0  0  0  0  0  0  0  0  0
   11.4634    0.2343   21.3892 C   0  0  0  0  0  0  0  0  0  0  0  0
   10.0748   -0.4418   21.4557 C   0  0  0  0  0  0  0  0  0  0  0  0
   10.2910   -1.8859   21.0781 N   0  3  0  0  0  0  0  0  0  0  0  0
   15.3083   -1.9879   24.4376 H   0  0  0  0  0  0  0  0  0  0  0  0
   13.8745   -0.1887   25.3661 H   0  0  0  0  0  0  0  0  0  0  0  0
   14.9710   -2.7631   22.1046 H   0  0  0  0  0  0  0  0  0  0  0  0
   12.1076    0.8345   23.9712 H   0  0  0  0  0  0  0  0  0  0  0  0
   13.2071   -1.7464   20.7018 H   0  0  0  0  0  0  0  0  0  0  0  0
   10.1807   -0.8529   23.5972 H   0  0  0  0  0  0  0  0  0  0  0  0
    9.2081    0.5663   23.1878 H   0  0  0  0  0  0  0  0  0  0  0  0
    8.5709   -1.0640   22.9117 H   0  0  0  0  0  0  0  0  0  0  0  0
    9.5003    0.1352   19.4299 H   0  0  0  0  0  0  0  0  0  0  0  0
    8.1616   -0.4691   20.4032 H   0  0  0  0  0  0  0  0  0  0  0  0
    8.8006    1.1581   20.6914 H   0  0  0  0  0  0  0  0  0  0  0  0
   11.3732    1.2936   21.6693 H   0  0  0  0  0  0  0  0  0  0  0  0
   11.8181    0.2500   20.3487 H   0  0  0  0  0  0  0  0  0  0  0  0
    9.5969   -2.4681   21.5403 H   0  0  0  0  0  0  0  0  0  0  0  0
   11.2213   -2.1789   21.3667 H   0  0  0  0  0  0  0  0  0  0  0  0
   10.2024   -1.9931   20.0705 H   0  0  0  0  0  0  0  0  0  0  0  0
  1  2  1  0  0  0  0
  1  3  2  0  0  0  0
  2  4  2  0  0  0  0
  3  5  1  0  0  0  0
  4  6  1  0  0  0  0
  5  6  2  0  0  0  0
  6  9  1  0  0  0  0
  7 10  1  0  0  0  0
  8 10  1  0  0  0  0
  9 10  1  0  0  0  0
 10 11  1  0  0  0  0
  1 12  1  0  0  0  0
  2 13  1  0  0  0  0
  3 14  1  0  0  0  0
  4 15  1  0  0  0  0
  5 16  1  0  0  0  0
  7 17  1  0  0  0  0
  7 18  1  0  0  0  0
  7 19  1  0  0  0  0
  8 20  1  0  0  0  0
  8 21  1  0  0  0  0
  8 22  1  0  0  0  0
  9 23  1  0  0  0  0
  9 24  1  0  0  0  0
 11 25  1  0  0  0  0
 11 26  1  0  0  0  0
 11 27  1  0  0  0  0
M  CHG  1  11   1
M  END
> <Hybrid2>
-8.102841

> <docked_fragment>
x0678

> <Mpro-_dock>
-0.952081

> <site>
active-noncovalent

$$$$
CHEMBL436559
  -OEChem-04122014263D

 37 37  0     0  0  0  0  0  0999 V2000
   12.4559   -0.0233   23.0542 C   0  0  0  0  0  0  0  0  0  0  0  0
   11.6426   -1.1288   22.8051 C   0  0  0  0  0  0  0  0  0  0  0  0
   10.6536    1.4490   22.4054 C   0  0  0  0  0  0  0  0  0  0  0  0
   11.9614    1.2656   22.8544 C   0  0  0  0  0  0  0  0  0  0  0  0
   10.3347   -0.9454   22.3562 C   0  0  0  0  0  0  0  0  0  0  0  0
    9.8402    0.3435   22.1563 C   0  0  0  0  0  0  0  0  0  0  0  0
   12.8105    2.4178   23.1128 C   0  0  0  0  0  0  0  0  0  0  0  0
   13.1711    4.8689   22.4343 C   0  0  0  0  0  0  0  0  0  0  0  0
    9.2555   -2.9836   23.3732 C   0  0  0  0  0  0  0  0  0  0  0  0
   10.0657   -3.0446   20.9869 C   0  0  0  0  0  0  0  0  0  0  0  0
    7.1852    0.1311   22.9687 C   0  0  0  0  0  0  0  0  0  0  0  0
    9.4899   -2.1506   22.1000 C   0  0  0  0  0  0  0  0  0  0  0  0
   12.7782    5.9440   21.6468 N   0  0  0  0  0  0  0  0  0  0  0  0
   12.5218    3.6296   22.3607 N   0  0  0  0  0  0  0  0  0  0  0  0
   14.2336    5.0267   23.3178 N   0  3  0  0  0  0  0  0  0  0  0  0
   13.7255    2.3779   23.9453 O   0  0  0  0  0  0  0  0  0  0  0  0
    8.0337    2.0377   21.3813 O   0  0  0  0  0  0  0  0  0  0  0  0
    7.9255   -0.3239   20.5113 O   0  0  0  0  0  0  0  0  0  0  0  0
    8.2046    0.6087   21.5930 S   0  0  0  0  0  0  0  0  0  0  0  0
   13.4737   -0.1774   23.4033 H   0  0  0  0  0  0  0  0  0  0  0  0
   12.0381   -2.1285   22.9644 H   0  0  0  0  0  0  0  0  0  0  0  0
   10.2700    2.4549   22.2494 H   0  0  0  0  0  0  0  0  0  0  0  0
   10.1981   -3.3447   23.7988 H   0  0  0  0  0  0  0  0  0  0  0  0
    8.6272   -3.8573   23.1685 H   0  0  0  0  0  0  0  0  0  0  0  0
    8.7530   -2.3812   24.1383 H   0  0  0  0  0  0  0  0  0  0  0  0
   11.0661   -3.3993   21.2591 H   0  0  0  0  0  0  0  0  0  0  0  0
   10.1496   -2.4992   20.0405 H   0  0  0  0  0  0  0  0  0  0  0  0
    9.4366   -3.9236   20.8088 H   0  0  0  0  0  0  0  0  0  0  0  0
    6.1402    0.2711   22.6879 H   0  0  0  0  0  0  0  0  0  0  0  0
    7.3830   -0.9175   23.1961 H   0  0  0  0  0  0  0  0  0  0  0  0
    7.4400    0.7623   23.8214 H   0  0  0  0  0  0  0  0  0  0  0  0
    8.4884   -1.8365   21.7518 H   0  0  0  0  0  0  0  0  0  0  0  0
   13.2553    6.8403   21.7065 H   0  0  0  0  0  0  0  0  0  0  0  0
   12.0058    5.8679   20.9900 H   0  0  0  0  0  0  0  0  0  0  0  0
   11.7505    3.5692   21.6972 H   0  0  0  0  0  0  0  0  0  0  0  0
   14.7264    5.9130   23.3971 H   0  0  0  0  0  0  0  0  0  0  0  0
   14.5459    4.2596   23.9083 H   0  0  0  0  0  0  0  0  0  0  0  0
  1  2  2  0  0  0  0
  1  4  1  0  0  0  0
  2  5  1  0  0  0  0
  3  4  2  0  0  0  0
  3  6  1  0  0  0  0
  4  7  1  0  0  0  0
  5  6  2  0  0  0  0
  5 12  1  0  0  0  0
  6 19  1  0  0  0  0
  7 14  1  0  0  0  0
  7 16  2  0  0  0  0
  8 13  1  0  0  0  0
  8 14  1  0  0  0  0
  8 15  2  0  0  0  0
  9 12  1  0  0  0  0
 10 12  1  0  0  0  0
 11 19  1  0  0  0  0
 17 19  2  0  0  0  0
 18 19  2  0  0  0  0
  1 20  1  0  0  0  0
  2 21  1  0  0  0  0
  3 22  1  0  0  0  0
  9 23  1  0  0  0  0
  9 24  1  0  0  0  0
  9 25  1  0  0  0  0
 10 26  1  0  0  0  0
 10 27  1  0  0  0  0
 10 28  1  0  0  0  0
 11 29  1  0  0  0  0
 11 30  1  0  0  0  0
 11 31  1  0  0  0  0
 12 32  1  0  0  0  0
 13 33  1  0  0  0  0
 13 34  1  0  0  0  0
 14 35  1  0  0  0  0
 15 36  1  0  0  0  0
 15 37  1  0  0  0  0
M  CHG  1  15   1
M  END
> <Hybrid2>
-8.086206

> <docked_fragment>
x0874

> <Mpro-_dock>
-0.508025

> <site>
active-noncovalent

$$$$
CHEMBL1200600
  -OEChem-04122014263D

 56 59  0     1  0  0  0  0  0999 V2000
    5.5834   -4.5289   26.6330 C   0  0  0  0  0  0  0  0  0  0  0  0
    6.7117   -5.8857   24.8321 C   0  0  0  0  0  0  0  0  0  0  0  0
    6.5887   -3.6500   26.5732 C   0  0  0  0  0  0  0  0  0  0  0  0
    7.7070   -4.9839   24.7457 C   0  0  0  0  0  0  0  0  0  0  0  0
    5.6409   -5.7711   25.8429 C   0  0  0  0  0  0  0  0  0  0  0  0
   10.4751    2.1572   23.0524 C   0  0  0  0  0  0  0  0  0  0  0  0
   11.0398   -1.4759   22.3833 C   0  0  0  0  0  0  0  0  0  0  0  0
   11.0958   -0.0080   21.9105 C   0  0  0  0  0  0  0  0  0  0  0  0
    9.8590   -4.0974   23.6293 C   0  0  0  0  0  0  0  0  0  0  0  0
    8.4445    0.0044   24.7042 C   0  0  0  0  0  0  0  0  0  0  0  0
    8.6577   -5.0520   23.5537 C   0  0  2  0  0  0  0  0  0  0  0  0
    9.7924   -1.5402   23.2609 C   0  0  1  0  0  0  0  0  0  0  0  0
    9.6090   -2.7058   24.2448 C   0  0  1  0  0  0  0  0  0  0  0  0
    8.1033   -1.1764   25.6490 C   0  0  1  0  0  0  0  0  0  0  0  0
    7.8633   -3.8365   25.7604 C   0  0  1  0  0  0  0  0  0  0  0  0
   10.0386    0.7566   22.7405 C   0  0  1  0  0  0  0  0  0  0  0  0
    9.7929   -0.1591   23.9717 C   0  0  1  0  0  0  0  0  0  0  0  0
    8.2160   -2.5518   24.9356 C   0  0  2  0  0  0  0  0  0  0  0  0
    9.5231    2.9991   23.8582 C   0  0  0  0  0  0  0  0  0  0  0  0
    7.9306   -4.8545   22.2109 C   0  0  0  0  0  0  0  0  0  0  0  0
    8.9405   -4.2308   26.7990 C   0  0  0  0  0  0  0  0  0  0  0  0
   10.9650    0.0231   24.9804 C   0  0  0  0  0  0  0  0  0  0  0  0
    4.8049   -6.6562   25.9873 O   0  0  0  0  0  0  0  0  0  0  0  0
   11.5589    2.5955   22.6700 O   0  0  0  0  0  0  0  0  0  0  0  0
    8.8999   -1.1317   26.8211 O   0  0  0  0  0  0  0  0  0  0  0  0
    8.8778    0.9133   21.9306 O   0  0  0  0  0  0  0  0  0  0  0  0
    7.2626   -2.4778   23.9368 F   0  0  0  0  0  0  0  0  0  0  0  0
    4.7196   -4.3593   27.2618 H   0  0  0  0  0  0  0  0  0  0  0  0
    6.6313   -6.7328   24.1657 H   0  0  0  0  0  0  0  0  0  0  0  0
    6.4958   -2.7490   27.1667 H   0  0  0  0  0  0  0  0  0  0  0  0
   10.9787   -2.1604   21.5316 H   0  0  0  0  0  0  0  0  0  0  0  0
   11.9428   -1.7299   22.9488 H   0  0  0  0  0  0  0  0  0  0  0  0
   12.1076    0.3844   22.0646 H   0  0  0  0  0  0  0  0  0  0  0  0
   10.8816    0.0447   20.8369 H   0  0  0  0  0  0  0  0  0  0  0  0
   10.6727   -4.6017   24.2042 H   0  0  0  0  0  0  0  0  0  0  0  0
   10.2921   -3.9726   22.6054 H   0  0  0  0  0  0  0  0  0  0  0  0
    7.6302    0.0862   23.9733 H   0  0  0  0  0  0  0  0  0  0  0  0
    8.4509    0.9418   25.2745 H   0  0  0  0  0  0  0  0  0  0  0  0
    9.0322   -6.0983   23.4937 H   0  0  0  0  0  0  0  0  0  0  0  0
    8.9332   -1.5696   22.5734 H   0  0  0  0  0  0  0  0  0  0  0  0
   10.3966   -2.5802   25.0534 H   0  0  0  0  0  0  0  0  0  0  0  0
    7.0607   -1.0218   25.9485 H   0  0  0  0  0  0  0  0  0  0  0  0
    9.7322    2.8742   24.9243 H   0  0  0  0  0  0  0  0  0  0  0  0
    8.4962    2.6824   23.6599 H   0  0  0  0  0  0  0  0  0  0  0  0
    9.6511    4.0516   23.5939 H   0  0  0  0  0  0  0  0  0  0  0  0
    7.5211   -3.8495   22.1661 H   0  0  0  0  0  0  0  0  0  0  0  0
    7.1253   -5.5784   22.1264 H   0  0  0  0  0  0  0  0  0  0  0  0
    8.6335   -4.9967   21.3951 H   0  0  0  0  0  0  0  0  0  0  0  0
    9.8817   -4.3805   26.2862 H   0  0  0  0  0  0  0  0  0  0  0  0
    8.6344   -5.1457   27.2893 H   0  0  0  0  0  0  0  0  0  0  0  0
    9.0346   -3.4332   27.5243 H   0  0  0  0  0  0  0  0  0  0  0  0
   11.8963   -0.0953   24.4469 H   0  0  0  0  0  0  0  0  0  0  0  0
   10.8728   -0.7281   25.7505 H   0  0  0  0  0  0  0  0  0  0  0  0
   10.8974    1.0125   25.4075 H   0  0  0  0  0  0  0  0  0  0  0  0
    8.7087   -0.2866   27.2609 H   0  0  0  0  0  0  0  0  0  0  0  0
    9.1539    1.4090   21.1439 H   0  0  0  0  0  0  0  0  0  0  0  0
  1  3  2  0  0  0  0
  1  5  1  0  0  0  0
  2  4  2  0  0  0  0
  2  5  1  0  0  0  0
  3 15  1  0  0  0  0
  4 11  1  0  0  0  0
  4 15  1  0  0  0  0
  5 23  2  0  0  0  0
  6 16  1  0  0  0  0
  6 19  1  0  0  0  0
  6 24  2  0  0  0  0
  7  8  1  0  0  0  0
  7 12  1  0  0  0  0
  8 16  1  0  0  0  0
  9 11  1  0  0  0  0
  9 13  1  0  0  0  0
 10 14  1  0  0  0  0
 10 17  1  0  0  0  0
 11 20  1  0  0  0  0
 12 13  1  0  0  0  0
 12 17  1  0  0  0  0
 13 18  1  0  0  0  0
 14 18  1  0  0  0  0
 14 25  1  0  0  0  0
 15 18  1  0  0  0  0
 15 21  1  0  0  0  0
 16 17  1  0  0  0  0
 16 26  1  0  0  0  0
 17 22  1  0  0  0  0
 18 27  1  0  0  0  0
  1 28  1  0  0  0  0
  2 29  1  0  0  0  0
  3 30  1  0  0  0  0
  7 31  1  0  0  0  0
  7 32  1  0  0  0  0
  8 33  1  0  0  0  0
  8 34  1  0  0  0  0
  9 35  1  0  0  0  0
  9 36  1  0  0  0  0
 10 37  1  0  0  0  0
 10 38  1  0  0  0  0
 11 39  1  0  0  0  0
 12 40  1  0  0  0  0
 13 41  1  0  0  0  0
 14 42  1  0  0  0  0
 19 43  1  0  0  0  0
 19 44  1  0  0  0  0
 19 45  1  0  0  0  0
 20 46  1  0  0  0  0
 20 47  1  0  0  0  0
 20 48  1  0  0  0  0
 21 49  1  0  0  0  0
 21 50  1  0  0  0  0
 21 51  1  0  0  0  0
 22 52  1  0  0  0  0
 22 53  1  0  0  0  0
 22 54  1  0  0  0  0
 25 55  1  0  0  0  0
 26 56  1  0  0  0  0
M  END
> <Hybrid2>
-8.086151

> <docked_fragment>
x1077

> <Mpro-_dock>
2.430163

> <site>
active-noncovalent

$$$$
CHEMBL2103994
  -OEChem-04122014263D

 36 38  0     0  0  0  0  0  0999 V2000
   12.2016   -0.9185   23.7498 C   0  0  0  0  0  0  0  0  0  0  0  0
   13.0554   -1.8338   24.3476 C   0  0  0  0  0  0  0  0  0  0  0  0
    7.5282   -6.0275   22.0918 C   0  0  0  0  0  0  0  0  0  0  0  0
   10.8404   -1.1923   23.6922 C   0  0  0  0  0  0  0  0  0  0  0  0
    8.3360   -6.1617   23.2231 C   0  0  0  0  0  0  0  0  0  0  0  0
   12.5447   -3.0172   24.8916 C   0  0  0  0  0  0  0  0  0  0  0  0
    7.1482   -4.7620   21.6526 C   0  0  0  0  0  0  0  0  0  0  0  0
    8.7870   -5.0283   23.9172 C   0  0  0  0  0  0  0  0  0  0  0  0
   10.3338   -2.3901   24.2263 C   0  0  0  0  0  0  0  0  0  0  0  0
    8.4077   -3.7730   23.4618 C   0  0  0  0  0  0  0  0  0  0  0  0
   11.1699   -3.3315   24.8413 C   0  0  0  0  0  0  0  0  0  0  0  0
    7.5847   -3.6308   22.3381 C   0  0  0  0  0  0  0  0  0  0  0  0
    8.8817   -2.5613   24.1187 C   0  0  0  0  0  0  0  0  0  0  0  0
    9.5248   -5.2481   25.1769 C   0  0  0  0  0  0  0  0  0  0  0  0
    6.2985   -2.0992   20.8134 C   0  0  0  0  0  0  0  0  0  0  0  0
    6.0660   -0.6170   20.6605 C   0  0  0  0  0  0  0  0  0  0  0  0
   11.5019   -5.0434   26.5962 C   0  0  0  0  0  0  0  0  0  0  0  0
   10.6870   -4.5205   25.4911 N   0  0  0  0  0  0  0  0  0  0  0  0
    7.1451   -2.3800   21.8911 N   0  0  0  0  0  0  0  0  0  0  0  0
    8.1042   -1.6826   24.4626 O   0  0  0  0  0  0  0  0  0  0  0  0
    9.0918   -6.1695   25.8768 O   0  0  0  0  0  0  0  0  0  0  0  0
    5.7712   -2.9000   20.0482 O   0  0  0  0  0  0  0  0  0  0  0  0
   12.5929    0.0029   23.3301 H   0  0  0  0  0  0  0  0  0  0  0  0
   14.1223   -1.6350   24.3907 H   0  0  0  0  0  0  0  0  0  0  0  0
    7.2046   -6.9108   21.5486 H   0  0  0  0  0  0  0  0  0  0  0  0
   10.1765   -0.4620   23.2351 H   0  0  0  0  0  0  0  0  0  0  0  0
    8.6115   -7.1623   23.5487 H   0  0  0  0  0  0  0  0  0  0  0  0
   13.2595   -3.6815   25.3715 H   0  0  0  0  0  0  0  0  0  0  0  0
    6.5073   -4.6718   20.7791 H   0  0  0  0  0  0  0  0  0  0  0  0
    6.8245   -0.1897   19.9987 H   0  0  0  0  0  0  0  0  0  0  0  0
    6.1323   -0.1292   21.6371 H   0  0  0  0  0  0  0  0  0  0  0  0
    5.0713   -0.4364   20.2423 H   0  0  0  0  0  0  0  0  0  0  0  0
   11.1710   -4.5907   27.5426 H   0  0  0  0  0  0  0  0  0  0  0  0
   11.3860   -6.1358   26.6522 H   0  0  0  0  0  0  0  0  0  0  0  0
   12.5592   -4.7954   26.4212 H   0  0  0  0  0  0  0  0  0  0  0  0
    7.4832   -1.5678   22.4168 H   0  0  0  0  0  0  0  0  0  0  0  0
  1  2  1  0  0  0  0
  1  4  2  0  0  0  0
  2  6  2  0  0  0  0
  3  5  1  0  0  0  0
  3  7  2  0  0  0  0
  4  9  1  0  0  0  0
  5  8  2  0  0  0  0
  6 11  1  0  0  0  0
  7 12  1  0  0  0  0
  8 10  1  0  0  0  0
  8 14  1  0  0  0  0
  9 11  2  0  0  0  0
  9 13  1  0  0  0  0
 10 12  2  0  0  0  0
 10 13  1  0  0  0  0
 11 18  1  0  0  0  0
 12 19  1  0  0  0  0
 13 20  2  0  0  0  0
 14 18  1  0  0  0  0
 14 21  2  0  0  0  0
 15 16  1  0  0  0  0
 15 19  1  0  0  0  0
 15 22  2  0  0  0  0
 17 18  1  0  0  0  0
  1 23  1  0  0  0  0
  2 24  1  0  0  0  0
  3 25  1  0  0  0  0
  4 26  1  0  0  0  0
  5 27  1  0  0  0  0
  6 28  1  0  0  0  0
  7 29  1  0  0  0  0
 16 30  1  0  0  0  0
 16 31  1  0  0  0  0
 16 32  1  0  0  0  0
 17 33  1  0  0  0  0
 17 34  1  0  0  0  0
 17 35  1  0  0  0  0
 19 36  1  0  0  0  0
M  END
> <Hybrid2>
-8.079422

> <docked_fragment>
x0749

> <Mpro-_dock>
1.294965

> <site>
active-covalent

$$$$
DB04078
  -OEChem-04122014263D

 24 24  0     0  0  0  0  0  0999 V2000
   11.9423    3.0737   22.8045 C   0  0  0  0  0  0  0  0  0  0  0  0
   13.2422    2.7838   22.3900 C   0  0  0  0  0  0  0  0  0  0  0  0
   11.2202    2.1360   23.5427 C   0  0  0  0  0  0  0  0  0  0  0  0
   13.8200    1.5562   22.7136 C   0  0  0  0  0  0  0  0  0  0  0  0
   11.7979    0.9084   23.8663 C   0  0  0  0  0  0  0  0  0  0  0  0
   13.0978    0.6184   23.4518 C   0  0  0  0  0  0  0  0  0  0  0  0
   11.9841   -2.0908   22.5527 C   0  0  0  0  0  0  0  0  0  0  0  0
   14.1061   -1.4039   21.4173 C   0  0  0  0  0  0  0  0  0  0  0  0
   13.7223   -0.7102   23.8021 C   0  0  0  0  0  0  0  0  0  0  0  0
   13.4759   -1.8108   22.7516 C   0  0  0  0  0  0  0  0  0  0  0  0
   11.4931    4.0302   22.5536 H   0  0  0  0  0  0  0  0  0  0  0  0
   13.8051    3.5143   21.8162 H   0  0  0  0  0  0  0  0  0  0  0  0
   10.2085    2.3618   23.8665 H   0  0  0  0  0  0  0  0  0  0  0  0
   14.8333    1.3389   22.3863 H   0  0  0  0  0  0  0  0  0  0  0  0
   11.2277    0.1838   24.4416 H   0  0  0  0  0  0  0  0  0  0  0  0
   11.4511   -1.1914   22.2260 H   0  0  0  0  0  0  0  0  0  0  0  0
   11.5189   -2.4457   23.4775 H   0  0  0  0  0  0  0  0  0  0  0  0
   11.8334   -2.8662   21.7939 H   0  0  0  0  0  0  0  0  0  0  0  0
   13.6616   -0.4753   21.0439 H   0  0  0  0  0  0  0  0  0  0  0  0
   15.1854   -1.2463   21.5189 H   0  0  0  0  0  0  0  0  0  0  0  0
   13.9458   -2.1777   20.6590 H   0  0  0  0  0  0  0  0  0  0  0  0
   14.8008   -0.5844   23.9653 H   0  0  0  0  0  0  0  0  0  0  0  0
   13.3134   -1.0246   24.7718 H   0  0  0  0  0  0  0  0  0  0  0  0
   13.9564   -2.7424   23.0770 H   0  0  0  0  0  0  0  0  0  0  0  0
  1  2  1  0  0  0  0
  1  3  2  0  0  0  0
  2  4  2  0  0  0  0
  3  5  1  0  0  0  0
  4  6  1  0  0  0  0
  5  6  2  0  0  0  0
  6  9  1  0  0  0  0
  7 10  1  0  0  0  0
  8 10  1  0  0  0  0
  9 10  1  0  0  0  0
  1 11  1  0  0  0  0
  2 12  1  0  0  0  0
  3 13  1  0  0  0  0
  4 14  1  0  0  0  0
  5 15  1  0  0  0  0
  7 16  1  0  0  0  0
  7 17  1  0  0  0  0
  7 18  1  0  0  0  0
  8 19  1  0  0  0  0
  8 20  1  0  0  0  0
  8 21  1  0  0  0  0
  9 22  1  0  0  0  0
  9 23  1  0  0  0  0
 10 24  1  0  0  0  0
M  END
> <Hybrid2>
-8.075057

> <docked_fragment>
x0195

> <Mpro-_dock>
0.545839

> <site>
active-noncovalent

$$$$
CHEMBL2104805
  -OEChem-04122014263D

 41 44  0     1  0  0  0  0  0999 V2000
    6.1657   -1.3005   21.2853 C   0  0  0  0  0  0  0  0  0  0  0  0
    6.5277   -0.4042   22.2908 C   0  0  0  0  0  0  0  0  0  0  0  0
    6.7349   -2.5734   21.2475 C   0  0  0  0  0  0  0  0  0  0  0  0
    7.4591   -0.7806   23.2585 C   0  0  0  0  0  0  0  0  0  0  0  0
    7.6662   -2.9499   22.2152 C   0  0  0  0  0  0  0  0  0  0  0  0
   11.4534    0.6005   24.6106 C   0  0  0  0  0  0  0  0  0  0  0  0
   12.3418    0.3429   23.5716 C   0  0  0  0  0  0  0  0  0  0  0  0
   11.1905   -1.7229   23.1562 C   0  0  0  0  0  0  0  0  0  0  0  0
    8.0283   -2.0535   23.2207 C   0  0  0  0  0  0  0  0  0  0  0  0
   10.2676   -1.4985   24.2144 C   0  0  0  0  0  0  0  0  0  0  0  0
   10.4384   -0.3153   24.9646 C   0  0  0  0  0  0  0  0  0  0  0  0
   12.2170   -0.8291   22.8485 C   0  0  0  0  0  0  0  0  0  0  0  0
    8.9416   -0.6640   26.9500 C   0  0  0  0  0  0  0  0  0  0  0  0
    9.0932   -2.1482   26.8501 C   0  0  0  0  0  0  0  0  0  0  0  0
    8.0487   -4.1063   25.6982 C   0  0  0  0  0  0  0  0  0  0  0  0
    9.1404   -4.7549   24.8763 C   0  0  2  0  0  0  0  0  0  0  0  0
    9.0653   -2.4732   24.2975 C   0  0  1  0  0  0  0  0  0  0  0  0
   10.3341   -5.2373   25.6860 C   0  0  0  0  0  0  0  0  0  0  0  0
    9.6621    0.0966   26.0679 N   0  0  0  0  0  0  0  0  0  0  0  0
    8.3607   -2.6359   25.6513 N   0  3  2  0  0  0  0  0  0  0  0  0
    8.2401   -0.1604   27.8299 O   0  0  0  0  0  0  0  0  0  0  0  0
    9.5838   -3.7817   23.9252 O   0  0  0  0  0  0  0  0  0  0  0  0
   13.2961   -1.1651   21.5525 Cl  0  0  0  0  0  0  0  0  0  0  0  0
    5.4394   -1.0077   20.5326 H   0  0  0  0  0  0  0  0  0  0  0  0
    6.0838    0.5866   22.3210 H   0  0  0  0  0  0  0  0  0  0  0  0
    6.4524   -3.2719   20.4654 H   0  0  0  0  0  0  0  0  0  0  0  0
    7.7353   -0.0756   24.0381 H   0  0  0  0  0  0  0  0  0  0  0  0
    8.1046   -3.9437   22.1778 H   0  0  0  0  0  0  0  0  0  0  0  0
   11.5811    1.5210   25.1875 H   0  0  0  0  0  0  0  0  0  0  0  0
   13.1263    1.0602   23.3520 H   0  0  0  0  0  0  0  0  0  0  0  0
   11.0842   -2.6100   22.5250 H   0  0  0  0  0  0  0  0  0  0  0  0
   10.1360   -2.4396   26.7854 H   0  0  0  0  0  0  0  0  0  0  0  0
    8.6352   -2.6189   27.7149 H   0  0  0  0  0  0  0  0  0  0  0  0
    7.0311   -4.2705   25.2990 H   0  0  0  0  0  0  0  0  0  0  0  0
    8.0824   -4.4199   26.7593 H   0  0  0  0  0  0  0  0  0  0  0  0
    8.7330   -5.6147   24.3000 H   0  0  0  0  0  0  0  0  0  0  0  0
   10.7589   -4.4140   26.2655 H   0  0  0  0  0  0  0  0  0  0  0  0
   11.1087   -5.6319   25.0239 H   0  0  0  0  0  0  0  0  0  0  0  0
   10.0311   -6.0282   26.3766 H   0  0  0  0  0  0  0  0  0  0  0  0
    9.6347    1.1164   26.2318 H   0  0  0  0  0  0  0  0  0  0  0  0
    7.4732   -2.1322   25.6041 H   0  0  0  0  0  0  0  0  0  0  0  0
  1  2  1  0  0  0  0
  1  3  2  0  0  0  0
  2  4  2  0  0  0  0
  3  5  1  0  0  0  0
  4  9  1  0  0  0  0
  5  9  2  0  0  0  0
  6  7  2  0  0  0  0
  6 11  1  0  0  0  0
  7 12  1  0  0  0  0
  8 10  1  0  0  0  0
  8 12  2  0  0  0  0
  9 17  1  0  0  0  0
 10 11  2  0  0  0  0
 10 17  1  0  0  0  0
 11 19  1  0  0  0  0
 12 23  1  0  0  0  0
 13 14  1  0  0  0  0
 13 19  1  0  0  0  0
 13 21  2  0  0  0  0
 14 20  1  0  0  0  0
 15 16  1  0  0  0  0
 15 20  1  0  0  0  0
 16 18  1  0  0  0  0
 16 22  1  0  0  0  0
 17 20  1  0  0  0  0
 17 22  1  0  0  0  0
  1 24  1  0  0  0  0
  2 25  1  0  0  0  0
  3 26  1  0  0  0  0
  4 27  1  0  0  0  0
  5 28  1  0  0  0  0
  6 29  1  0  0  0  0
  7 30  1  0  0  0  0
  8 31  1  0  0  0  0
 14 32  1  0  0  0  0
 14 33  1  0  0  0  0
 15 34  1  0  0  0  0
 15 35  1  0  0  0  0
 16 36  1  0  0  0  0
 18 37  1  0  0  0  0
 18 38  1  0  0  0  0
 18 39  1  0  0  0  0
 19 40  1  0  0  0  0
 20 41  1  0  0  0  0
M  CHG  1  20   1
M  END
> <Hybrid2>
-8.055920

> <docked_fragment>
x0305

> <Mpro-_dock>
0.974799

> <site>
active-noncovalent

$$$$
CHEMBL1568698
  -OEChem-04122014263D

 60 63  0     1  0  0  0  0  0999 V2000
   13.5497   -0.7864   24.9946 C   0  0  0  0  0  0  0  0  0  0  0  0
   13.1607   -3.1372   25.8333 C   0  0  0  0  0  0  0  0  0  0  0  0
   11.8830   -3.9902   25.9274 C   0  0  0  0  0  0  0  0  0  0  0  0
    7.8637   -5.7861   24.6511 C   0  0  0  0  0  0  0  0  0  0  0  0
    9.3329   -5.4157   24.8411 C   0  0  0  0  0  0  0  0  0  0  0  0
    9.3929   -1.9542   22.9626 C   0  0  0  0  0  0  0  0  0  0  0  0
   10.8873   -1.6399   23.1588 C   0  0  0  0  0  0  0  0  0  0  0  0
    7.0242   -3.4451   21.6416 C   0  0  0  0  0  0  0  0  0  0  0  0
    5.6061   -3.9459   21.3359 C   0  0  0  0  0  0  0  0  0  0  0  0
    5.9192   -5.8209   23.0223 C   0  0  0  0  0  0  0  0  0  0  0  0
   12.9195   -2.1135   24.7032 C   0  0  1  0  0  0  0  0  0  0  0  0
    7.3520   -5.3219   23.2821 C   0  0  1  0  0  0  0  0  0  0  0  0
    9.5919   -3.9176   24.6272 C   0  0  1  0  0  0  0  0  0  0  0  0
   11.0885   -3.5923   24.6881 C   0  0  1  0  0  0  0  0  0  0  0  0
    9.0334   -3.4362   23.2484 C   0  0  1  0  0  0  0  0  0  0  0  0
   11.3837   -2.0834   24.5417 C   0  0  2  0  0  0  0  0  0  0  0  0
    7.5064   -3.7809   23.0804 C   0  0  1  0  0  0  0  0  0  0  0  0
    5.4292   -5.4450   21.6145 C   0  0  1  0  0  0  0  0  0  0  0  0
   13.3976    0.2802   23.9441 C   0  0  0  0  0  0  0  0  0  0  0  0
   10.7297   -1.2055   25.6412 C   0  0  0  0  0  0  0  0  0  0  0  0
    6.6468   -2.9726   24.0865 C   0  0  0  0  0  0  0  0  0  0  0  0
    3.9675   -5.8547   21.4236 C   0  0  0  0  0  0  0  0  0  0  0  0
   14.1597   -0.5780   26.0421 O   0  0  0  0  0  0  0  0  0  0  0  0
    6.2083   -6.1585   20.6477 O   0  0  0  0  0  0  0  0  0  0  0  0
   13.3712   -2.6606   26.7975 H   0  0  0  0  0  0  0  0  0  0  0  0
   14.0254   -3.7655   25.5900 H   0  0  0  0  0  0  0  0  0  0  0  0
   12.1196   -5.0590   25.9397 H   0  0  0  0  0  0  0  0  0  0  0  0
   11.3350   -3.7614   26.8481 H   0  0  0  0  0  0  0  0  0  0  0  0
    7.7637   -6.8752   24.7357 H   0  0  0  0  0  0  0  0  0  0  0  0
    7.2606   -5.3569   25.4592 H   0  0  0  0  0  0  0  0  0  0  0  0
    9.6438   -5.7118   25.8498 H   0  0  0  0  0  0  0  0  0  0  0  0
    9.9422   -6.0006   24.1401 H   0  0  0  0  0  0  0  0  0  0  0  0
    8.8017   -1.2875   23.5975 H   0  0  0  0  0  0  0  0  0  0  0  0
    9.1363   -1.7019   21.9278 H   0  0  0  0  0  0  0  0  0  0  0  0
   11.4568   -2.1521   22.3726 H   0  0  0  0  0  0  0  0  0  0  0  0
   11.0578   -0.5666   23.0128 H   0  0  0  0  0  0  0  0  0  0  0  0
    7.7176   -3.8825   20.9114 H   0  0  0  0  0  0  0  0  0  0  0  0
    7.0418   -2.3618   21.4732 H   0  0  0  0  0  0  0  0  0  0  0  0
    4.8797   -3.3651   21.9160 H   0  0  0  0  0  0  0  0  0  0  0  0
    5.3986   -3.7394   20.2779 H   0  0  0  0  0  0  0  0  0  0  0  0
    5.9093   -6.9139   23.1286 H   0  0  0  0  0  0  0  0  0  0  0  0
    5.2350   -5.4284   23.7835 H   0  0  0  0  0  0  0  0  0  0  0  0
   13.3900   -2.4860   23.7834 H   0  0  0  0  0  0  0  0  0  0  0  0
    7.9915   -5.8157   22.5342 H   0  0  0  0  0  0  0  0  0  0  0  0
    9.0829   -3.3859   25.4373 H   0  0  0  0  0  0  0  0  0  0  0  0
   11.5599   -4.1213   23.8424 H   0  0  0  0  0  0  0  0  0  0  0  0
    9.5672   -4.0167   22.4788 H   0  0  0  0  0  0  0  0  0  0  0  0
   12.4883    0.8575   24.1336 H   0  0  0  0  0  0  0  0  0  0  0  0
   13.3218   -0.1849   22.9582 H   0  0  0  0  0  0  0  0  0  0  0  0
   14.2574    0.9536   23.9786 H   0  0  0  0  0  0  0  0  0  0  0  0
   11.0918   -1.5336   26.6052 H   0  0  0  0  0  0  0  0  0  0  0  0
    9.6569   -1.3230   25.5835 H   0  0  0  0  0  0  0  0  0  0  0  0
   11.0043   -0.1746   25.4680 H   0  0  0  0  0  0  0  0  0  0  0  0
    6.9792   -3.2035   25.0890 H   0  0  0  0  0  0  0  0  0  0  0  0
    5.6108   -3.2551   23.9610 H   0  0  0  0  0  0  0  0  0  0  0  0
    6.7753   -1.9188   23.8825 H   0  0  0  0  0  0  0  0  0  0  0  0
    3.8558   -6.9181   21.6238 H   0  0  0  0  0  0  0  0  0  0  0  0
    3.6597   -5.6480   20.4009 H   0  0  0  0  0  0  0  0  0  0  0  0
    3.3369   -5.2923   22.1088 H   0  0  0  0  0  0  0  0  0  0  0  0
    5.8579   -5.9075   19.7811 H   0  0  0  0  0  0  0  0  0  0  0  0
  1 11  1  0  0  0  0
  1 19  1  0  0  0  0
  1 23  2  0  0  0  0
  2  3  1  0  0  0  0
  2 11  1  0  0  0  0
  3 14  1  0  0  0  0
  4  5  1  0  0  0  0
  4 12  1  0  0  0  0
  5 13  1  0  0  0  0
  6  7  1  0  0  0  0
  6 15  1  0  0  0  0
  7 16  1  0  0  0  0
  8  9  1  0  0  0  0
  8 17  1  0  0  0  0
  9 18  1  0  0  0  0
 10 12  1  0  0  0  0
 10 18  1  0  0  0  0
 11 16  1  0  0  0  0
 12 17  1  0  0  0  0
 13 14  1  0  0  0  0
 13 15  1  0  0  0  0
 14 16  1  0  0  0  0
 15 17  1  0  0  0  0
 16 20  1  0  0  0  0
 17 21  1  0  0  0  0
 18 22  1  0  0  0  0
 18 24  1  0  0  0  0
  2 25  1  0  0  0  0
  2 26  1  0  0  0  0
  3 27  1  0  0  0  0
  3 28  1  0  0  0  0
  4 29  1  0  0  0  0
  4 30  1  0  0  0  0
  5 31  1  0  0  0  0
  5 32  1  0  0  0  0
  6 33  1  0  0  0  0
  6 34  1  0  0  0  0
  7 35  1  0  0  0  0
  7 36  1  0  0  0  0
  8 37  1  0  0  0  0
  8 38  1  0  0  0  0
  9 39  1  0  0  0  0
  9 40  1  0  0  0  0
 10 41  1  0  0  0  0
 10 42  1  0  0  0  0
 11 43  1  0  0  0  0
 12 44  1  0  0  0  0
 13 45  1  0  0  0  0
 14 46  1  0  0  0  0
 15 47  1  0  0  0  0
 19 48  1  0  0  0  0
 19 49  1  0  0  0  0
 19 50  1  0  0  0  0
 20 51  1  0  0  0  0
 20 52  1  0  0  0  0
 20 53  1  0  0  0  0
 21 54  1  0  0  0  0
 21 55  1  0  0  0  0
 21 56  1  0  0  0  0
 22 57  1  0  0  0  0
 22 58  1  0  0  0  0
 22 59  1  0  0  0  0
 24 60  1  0  0  0  0
M  END
> <Hybrid2>
-8.054926

> <docked_fragment>
x0749

> <Mpro-_dock>
3.882001

> <site>
active-covalent

$$$$
CHEMBL412873
  -OEChem-04122014263D

 45 48  0     1  0  0  0  0  0999 V2000
   10.4944    5.6058   24.7775 C   0  0  0  0  0  0  0  0  0  0  0  0
   11.4960   -2.1908   22.5498 C   0  0  0  0  0  0  0  0  0  0  0  0
   11.4986    5.9163   23.6804 C   0  0  0  0  0  0  0  0  0  0  0  0
    9.9913   -2.0022   22.6876 C   0  0  0  0  0  0  0  0  0  0  0  0
    9.5415    4.5154   24.3152 C   0  0  0  0  0  0  0  0  0  0  0  0
   12.2178   -0.8477   22.5553 C   0  0  0  0  0  0  0  0  0  0  0  0
   12.1592    2.0300   25.1539 C   0  0  0  0  0  0  0  0  0  0  0  0
   12.3128    4.6913   23.3069 C   0  0  0  0  0  0  0  0  0  0  0  0
    9.6393   -1.2009   23.9307 C   0  0  0  0  0  0  0  0  0  0  0  0
   12.1837    2.2649   22.6087 C   0  0  0  0  0  0  0  0  0  0  0  0
    9.9180    0.9887   25.0893 C   0  0  0  0  0  0  0  0  0  0  0  0
   12.5389    1.3791   23.8254 C   0  0  2  0  0  0  0  0  0  0  0  0
   10.6670    2.3364   25.1163 C   0  0  2  0  0  0  0  0  0  0  0  0
   10.2518    3.2195   23.9104 C   0  0  2  0  0  0  0  0  0  0  0  0
   11.8672   -0.0193   23.7971 C   0  0  1  0  0  0  0  0  0  0  0  0
   11.4135    3.5177   22.9788 N   0  3  1  0  0  0  0  0  0  0  0  0
   10.3527    0.1348   23.9023 N   0  3  1  0  0  0  0  0  0  0  0  0
   11.0181    5.2843   25.6802 H   0  0  0  0  0  0  0  0  0  0  0  0
    9.9298    6.5075   25.0291 H   0  0  0  0  0  0  0  0  0  0  0  0
   11.8638   -2.8061   23.3779 H   0  0  0  0  0  0  0  0  0  0  0  0
   11.7196   -2.7288   21.6237 H   0  0  0  0  0  0  0  0  0  0  0  0
   10.9655    6.2812   22.7931 H   0  0  0  0  0  0  0  0  0  0  0  0
   12.1610    6.7319   23.9984 H   0  0  0  0  0  0  0  0  0  0  0  0
    9.6038   -1.4911   21.7992 H   0  0  0  0  0  0  0  0  0  0  0  0
    9.5021   -2.9801   22.7315 H   0  0  0  0  0  0  0  0  0  0  0  0
    8.8073    4.3329   25.1148 H   0  0  0  0  0  0  0  0  0  0  0  0
    8.9613    4.8953   23.4590 H   0  0  0  0  0  0  0  0  0  0  0  0
   13.3018   -1.0210   22.5197 H   0  0  0  0  0  0  0  0  0  0  0  0
   11.9558   -0.3002   21.6398 H   0  0  0  0  0  0  0  0  0  0  0  0
   12.3918    1.3574   25.9889 H   0  0  0  0  0  0  0  0  0  0  0  0
   12.7524    2.9349   25.3221 H   0  0  0  0  0  0  0  0  0  0  0  0
   12.9119    4.8792   22.4106 H   0  0  0  0  0  0  0  0  0  0  0  0
   12.9835    4.3845   24.1136 H   0  0  0  0  0  0  0  0  0  0  0  0
    8.5605   -0.9978   23.9649 H   0  0  0  0  0  0  0  0  0  0  0  0
    9.9373   -1.7195   24.8526 H   0  0  0  0  0  0  0  0  0  0  0  0
   13.1034    2.5887   22.1009 H   0  0  0  0  0  0  0  0  0  0  0  0
   11.5775    1.7150   21.8761 H   0  0  0  0  0  0  0  0  0  0  0  0
   10.1430    0.4140   25.9859 H   0  0  0  0  0  0  0  0  0  0  0  0
    8.8442    1.1330   25.0008 H   0  0  0  0  0  0  0  0  0  0  0  0
   13.6088    1.2061   23.8024 H   0  0  0  0  0  0  0  0  0  0  0  0
   10.3718    2.8337   26.0258 H   0  0  0  0  0  0  0  0  0  0  0  0
    9.5381    2.6266   23.2777 H   0  0  0  0  0  0  0  0  0  0  0  0
   12.1721   -0.5497   24.6990 H   0  0  0  0  0  0  0  0  0  0  0  0
   10.9914    3.8093   22.0818 H   0  0  0  0  0  0  0  0  0  0  0  0
   10.0114    0.5997   23.0694 H   0  0  0  0  0  0  0  0  0  0  0  0
  1  3  1  0  0  0  0
  1  5  1  0  0  0  0
  2  4  1  0  0  0  0
  2  6  1  0  0  0  0
  3  8  1  0  0  0  0
  4  9  1  0  0  0  0
  5 14  1  0  0  0  0
  6 15  1  0  0  0  0
  7 12  1  0  0  0  0
  7 13  1  0  0  0  0
  8 16  1  0  0  0  0
  9 17  1  0  0  0  0
 10 12  1  0  0  0  0
 10 16  1  0  0  0  0
 11 13  1  0  0  0  0
 11 17  1  0  0  0  0
 12 15  1  0  0  0  0
 13 14  1  0  0  0  0
 14 16  1  0  0  0  0
 15 17  1  0  0  0  0
  1 18  1  0  0  0  0
  1 19  1  0  0  0  0
  2 20  1  0  0  0  0
  2 21  1  0  0  0  0
  3 22  1  0  0  0  0
  3 23  1  0  0  0  0
  4 24  1  0  0  0  0
  4 25  1  0  0  0  0
  5 26  1  0  0  0  0
  5 27  1  0  0  0  0
  6 28  1  0  0  0  0
  6 29  1  0  0  0  0
  7 30  1  0  0  0  0
  7 31  1  0  0  0  0
  8 32  1  0  0  0  0
  8 33  1  0  0  0  0
  9 34  1  0  0  0  0
  9 35  1  0  0  0  0
 10 36  1  0  0  0  0
 10 37  1  0  0  0  0
 11 38  1  0  0  0  0
 11 39  1  0  0  0  0
 12 40  1  0  0  0  0
 13 41  1  0  0  0  0
 14 42  1  0  0  0  0
 15 43  1  0  0  0  0
 16 44  1  0  0  0  0
 17 45  1  0  0  0  0
M  CHG  2  16   1  17   1
M  END
> <Hybrid2>
-8.051592

> <docked_fragment>
x0104

> <Mpro-_dock>
-0.481335

> <site>
active-noncovalent

$$$$
CHEMBL2107251
  -OEChem-04122014263D

 57 60  0     1  0  0  0  0  0999 V2000
    9.1415    4.8149   25.3384 C   0  0  0  0  0  0  0  0  0  0  0  0
    9.1741    6.0155   25.9421 C   0  0  0  0  0  0  0  0  0  0  0  0
   10.1052    7.0705   25.4377 C   0  0  0  0  0  0  0  0  0  0  0  0
   10.0331   -3.0516   23.9265 C   0  0  0  0  0  0  0  0  0  0  0  0
   11.0164    6.7465   24.2739 C   0  0  0  0  0  0  0  0  0  0  0  0
   12.2957    4.9143   23.0926 C   0  0  0  0  0  0  0  0  0  0  0  0
   12.6959    3.4433   23.1459 C   0  0  0  0  0  0  0  0  0  0  0  0
   12.9362    0.4432   22.3659 C   0  0  0  0  0  0  0  0  0  0  0  0
    9.2787    1.8581   24.3094 C   0  0  0  0  0  0  0  0  0  0  0  0
   12.7457   -1.0768   22.5221 C   0  0  0  0  0  0  0  0  0  0  0  0
    9.7410    0.3896   24.3575 C   0  0  0  0  0  0  0  0  0  0  0  0
   11.3135    5.2492   24.2177 C   0  0  2  0  0  0  0  0  0  0  0  0
   11.4792    2.5080   23.1306 C   0  0  2  0  0  0  0  0  0  0  0  0
   10.4519    2.8785   24.2552 C   0  0  1  0  0  0  0  0  0  0  0  0
   11.9008    1.0459   23.3129 C   0  0  1  0  0  0  0  0  0  0  0  0
   11.4777   -1.2633   23.3794 C   0  0  1  0  0  0  0  0  0  0  0  0
   10.0130    4.3901   24.1625 C   0  0  1  0  0  0  0  0  0  0  0  0
   10.7141    0.0670   23.2174 C   0  0  1  0  0  0  0  0  0  0  0  0
    8.2820    6.3775   27.0888 C   0  0  0  0  0  0  0  0  0  0  0  0
   10.5019   -4.4704   24.0420 C   0  0  0  0  0  0  0  0  0  0  0  0
    9.1782    4.6544   22.8869 C   0  0  0  0  0  0  0  0  0  0  0  0
    9.9581    0.0940   21.8653 C   0  0  0  0  0  0  0  0  0  0  0  0
   10.0980    8.1972   25.9335 O   0  0  0  0  0  0  0  0  0  0  0  0
    9.1414   -2.5668   24.6097 O   0  0  0  0  0  0  0  0  0  0  0  0
   10.7450   -2.3967   22.9554 O   0  0  0  0  0  0  0  0  0  0  0  0
    8.4065    4.0987   25.6948 H   0  0  0  0  0  0  0  0  0  0  0  0
   10.5567    7.1146   23.3516 H   0  0  0  0  0  0  0  0  0  0  0  0
   11.9541    7.2952   24.4240 H   0  0  0  0  0  0  0  0  0  0  0  0
   13.1993    5.5281   23.1912 H   0  0  0  0  0  0  0  0  0  0  0  0
   11.8654    5.1522   22.1133 H   0  0  0  0  0  0  0  0  0  0  0  0
   13.3510    3.2251   22.2943 H   0  0  0  0  0  0  0  0  0  0  0  0
   13.2887    3.2657   24.0525 H   0  0  0  0  0  0  0  0  0  0  0  0
   13.9557    0.7451   22.6265 H   0  0  0  0  0  0  0  0  0  0  0  0
   12.7553    0.7462   21.3286 H   0  0  0  0  0  0  0  0  0  0  0  0
    8.6157    1.9930   23.4497 H   0  0  0  0  0  0  0  0  0  0  0  0
    8.6664    2.0330   25.1999 H   0  0  0  0  0  0  0  0  0  0  0  0
   12.6578   -1.5612   21.5431 H   0  0  0  0  0  0  0  0  0  0  0  0
   13.6086   -1.5282   23.0246 H   0  0  0  0  0  0  0  0  0  0  0  0
   10.2233    0.2085   25.3270 H   0  0  0  0  0  0  0  0  0  0  0  0
    8.8674   -0.2721   24.3201 H   0  0  0  0  0  0  0  0  0  0  0  0
   11.8291    5.0042   25.1614 H   0  0  0  0  0  0  0  0  0  0  0  0
   11.0016    2.6186   22.1513 H   0  0  0  0  0  0  0  0  0  0  0  0
   10.9806    2.7642   25.2154 H   0  0  0  0  0  0  0  0  0  0  0  0
   12.3353    0.9678   24.3240 H   0  0  0  0  0  0  0  0  0  0  0  0
   11.7721   -1.4231   24.4245 H   0  0  0  0  0  0  0  0  0  0  0  0
    8.7681    6.1158   28.0269 H   0  0  0  0  0  0  0  0  0  0  0  0
    7.3406    5.8368   27.0050 H   0  0  0  0  0  0  0  0  0  0  0  0
    8.0796    7.4472   27.0711 H   0  0  0  0  0  0  0  0  0  0  0  0
    9.9241   -5.1079   23.3684 H   0  0  0  0  0  0  0  0  0  0  0  0
   10.4018   -4.8111   25.0757 H   0  0  0  0  0  0  0  0  0  0  0  0
   11.5566   -4.5282   23.7576 H   0  0  0  0  0  0  0  0  0  0  0  0
    9.7611    4.3656   22.0221 H   0  0  0  0  0  0  0  0  0  0  0  0
    8.9385    5.7086   22.8388 H   0  0  0  0  0  0  0  0  0  0  0  0
    8.2700    4.0680   22.9363 H   0  0  0  0  0  0  0  0  0  0  0  0
   10.6568   -0.1351   21.0723 H   0  0  0  0  0  0  0  0  0  0  0  0
    9.5400    1.0810   21.7212 H   0  0  0  0  0  0  0  0  0  0  0  0
    9.1695   -0.6455   21.8938 H   0  0  0  0  0  0  0  0  0  0  0  0
  1  2  2  0  0  0  0
  1 17  1  0  0  0  0
  2  3  1  0  0  0  0
  2 19  1  0  0  0  0
  3  5  1  0  0  0  0
  3 23  2  0  0  0  0
  4 20  1  0  0  0  0
  4 24  2  0  0  0  0
  4 25  1  0  0  0  0
  5 12  1  0  0  0  0
  6  7  1  0  0  0  0
  6 12  1  0  0  0  0
  7 13  1  0  0  0  0
  8 10  1  0  0  0  0
  8 15  1  0  0  0  0
  9 11  1  0  0  0  0
  9 14  1  0  0  0  0
 10 16  1  0  0  0  0
 11 18  1  0  0  0  0
 12 17  1  0  0  0  0
 13 14  1  0  0  0  0
 13 15  1  0  0  0  0
 14 17  1  0  0  0  0
 15 18  1  0  0  0  0
 16 18  1  0  0  0  0
 16 25  1  0  0  0  0
 17 21  1  0  0  0  0
 18 22  1  0  0  0  0
  1 26  1  0  0  0  0
  5 27  1  0  0  0  0
  5 28  1  0  0  0  0
  6 29  1  0  0  0  0
  6 30  1  0  0  0  0
  7 31  1  0  0  0  0
  7 32  1  0  0  0  0
  8 33  1  0  0  0  0
  8 34  1  0  0  0  0
  9 35  1  0  0  0  0
  9 36  1  0  0  0  0
 10 37  1  0  0  0  0
 10 38  1  0  0  0  0
 11 39  1  0  0  0  0
 11 40  1  0  0  0  0
 12 41  1  0  0  0  0
 13 42  1  0  0  0  0
 14 43  1  0  0  0  0
 15 44  1  0  0  0  0
 16 45  1  0  0  0  0
 19 46  1  0  0  0  0
 19 47  1  0  0  0  0
 19 48  1  0  0  0  0
 20 49  1  0  0  0  0
 20 50  1  0  0  0  0
 20 51  1  0  0  0  0
 21 52  1  0  0  0  0
 21 53  1  0  0  0  0
 21 54  1  0  0  0  0
 22 55  1  0  0  0  0
 22 56  1  0  0  0  0
 22 57  1  0  0  0  0
M  END
> <Hybrid2>
-8.037608

> <docked_fragment>
x0104

> <Mpro-_dock>
3.676663

> <site>
active-noncovalent

$$$$
CHEMBL1201208
  -OEChem-04122014263D

 29 30  0     1  0  0  0  0  0999 V2000
   13.6918   -1.4188   23.7957 C   0  0  0  0  0  0  0  0  0  0  0  0
   14.0066   -0.9726   22.5122 C   0  0  0  0  0  0  0  0  0  0  0  0
   12.9166   -0.6237   24.6399 C   0  0  0  0  0  0  0  0  0  0  0  0
   13.5463    0.2687   22.0728 C   0  0  0  0  0  0  0  0  0  0  0  0
   12.4562    0.6175   24.2005 C   0  0  0  0  0  0  0  0  0  0  0  0
   12.7711    1.0638   22.9170 C   0  0  0  0  0  0  0  0  0  0  0  0
   11.6951    5.1354   23.0636 C   0  0  0  0  0  0  0  0  0  0  0  0
   12.9692    4.6637   22.3922 C   0  0  0  0  0  0  0  0  0  0  0  0
   12.2784    2.3921   22.4477 C   0  0  1  0  0  0  0  0  0  0  0  0
   10.9381    2.7577   23.1132 C   0  0  2  0  0  0  0  0  0  0  0  0
    9.7785    1.8702   22.6772 C   0  0  0  0  0  0  0  0  0  0  0  0
   10.6063    4.1735   22.7170 N   0  3  0  0  0  0  0  0  0  0  0  0
   13.2931    3.3402   22.8200 O   0  0  0  0  0  0  0  0  0  0  0  0
   14.0492   -2.3859   24.1371 H   0  0  0  0  0  0  0  0  0  0  0  0
   14.6093   -1.5919   21.8543 H   0  0  0  0  0  0  0  0  0  0  0  0
   12.6703   -0.9713   25.6388 H   0  0  0  0  0  0  0  0  0  0  0  0
   13.7967    0.6083   21.0712 H   0  0  0  0  0  0  0  0  0  0  0  0
   11.8529    1.2302   24.8652 H   0  0  0  0  0  0  0  0  0  0  0  0
   11.7803    5.1351   24.1549 H   0  0  0  0  0  0  0  0  0  0  0  0
   11.3834    6.1224   22.7119 H   0  0  0  0  0  0  0  0  0  0  0  0
   12.8887    4.6893   21.2990 H   0  0  0  0  0  0  0  0  0  0  0  0
   13.8007    5.3160   22.6768 H   0  0  0  0  0  0  0  0  0  0  0  0
   12.1958    2.3612   21.3546 H   0  0  0  0  0  0  0  0  0  0  0  0
   11.0226    2.7647   24.2071 H   0  0  0  0  0  0  0  0  0  0  0  0
    9.6999    1.8674   21.5902 H   0  0  0  0  0  0  0  0  0  0  0  0
    8.8452    2.2432   23.0987 H   0  0  0  0  0  0  0  0  0  0  0  0
    9.9404    0.8494   23.0232 H   0  0  0  0  0  0  0  0  0  0  0  0
    9.7354    4.4678   23.1803 H   0  0  0  0  0  0  0  0  0  0  0  0
   10.4173    4.2193   21.7056 H   0  0  0  0  0  0  0  0  0  0  0  0
  1  2  1  0  0  0  0
  1  3  2  0  0  0  0
  2  4  2  0  0  0  0
  3  5  1  0  0  0  0
  4  6  1  0  0  0  0
  5  6  2  0  0  0  0
  6  9  1  0  0  0  0
  7  8  1  0  0  0  0
  7 12  1  0  0  0  0
  8 13  1  0  0  0  0
  9 10  1  0  0  0  0
  9 13  1  0  0  0  0
 10 11  1  0  0  0  0
 10 12  1  0  0  0  0
  1 14  1  0  0  0  0
  2 15  1  0  0  0  0
  3 16  1  0  0  0  0
  4 17  1  0  0  0  0
  5 18  1  0  0  0  0
  7 19  1  0  0  0  0
  7 20  1  0  0  0  0
  8 21  1  0  0  0  0
  8 22  1  0  0  0  0
  9 23  1  0  0  0  0
 10 24  1  0  0  0  0
 11 25  1  0  0  0  0
 11 26  1  0  0  0  0
 11 27  1  0  0  0  0
 12 28  1  0  0  0  0
 12 29  1  0  0  0  0
M  CHG  1  12   1
M  END
> <Hybrid2>
-8.015677

> <docked_fragment>
x0161

> <Mpro-_dock>
-0.185708

> <site>
active-noncovalent

$$$$
DB00185
  -OEChem-04122014263D

 31 33  0     1  0  0  0  0  0999 V2000
   12.1856   -1.4529   23.8919 C   0  0  0  0  0  0  0  0  0  0  0  0
   14.4089   -0.9128   22.9231 C   0  0  0  0  0  0  0  0  0  0  0  0
   11.7206   -1.9686   22.5300 C   0  0  0  0  0  0  0  0  0  0  0  0
   13.9477   -1.4090   21.5539 C   0  0  0  0  0  0  0  0  0  0  0  0
   12.1078    0.2789   21.5153 C   0  0  0  0  0  0  0  0  0  0  0  0
   11.4580    1.5345   23.6613 C   0  0  0  0  0  0  0  0  0  0  0  0
   13.2152   -0.3233   23.7061 C   0  0  0  0  0  0  0  0  0  0  0  0
   13.0188    3.0696   22.2649 C   0  0  1  0  0  0  0  0  0  0  0  0
   12.5834    0.8349   22.8813 C   0  0  1  0  0  0  0  0  0  0  0  0
   13.8732    4.2088   22.7913 C   0  0  0  0  0  0  0  0  0  0  0  0
   12.4532   -1.1995   21.4499 N   0  3  0  0  0  0  0  0  0  0  0  0
   13.6115    1.8299   22.6742 O   0  0  0  0  0  0  0  0  0  0  0  0
   11.3340    3.1663   22.9090 S   0  0  0  0  0  0  0  0  0  0  0  0
   11.3261   -1.1061   24.4758 H   0  0  0  0  0  0  0  0  0  0  0  0
   12.6340   -2.2758   24.4618 H   0  0  0  0  0  0  0  0  0  0  0  0
   14.8489   -1.7444   23.4871 H   0  0  0  0  0  0  0  0  0  0  0  0
   15.2023   -0.1665   22.8028 H   0  0  0  0  0  0  0  0  0  0  0  0
   11.9494   -3.0302   22.3899 H   0  0  0  0  0  0  0  0  0  0  0  0
   10.6479   -1.8143   22.3740 H   0  0  0  0  0  0  0  0  0  0  0  0
   14.4156   -0.8541   20.7341 H   0  0  0  0  0  0  0  0  0  0  0  0
   14.1413   -2.4776   21.4147 H   0  0  0  0  0  0  0  0  0  0  0  0
   11.0230    0.3414   21.3789 H   0  0  0  0  0  0  0  0  0  0  0  0
   12.6008    0.7511   20.6593 H   0  0  0  0  0  0  0  0  0  0  0  0
   10.5037    1.0023   23.6208 H   0  0  0  0  0  0  0  0  0  0  0  0
   11.7355    1.6793   24.7105 H   0  0  0  0  0  0  0  0  0  0  0  0
   13.5730    0.0397   24.6767 H   0  0  0  0  0  0  0  0  0  0  0  0
   12.9905    3.0995   21.1708 H   0  0  0  0  0  0  0  0  0  0  0  0
   13.9054    4.1844   23.8824 H   0  0  0  0  0  0  0  0  0  0  0  0
   13.4598    5.1686   22.4753 H   0  0  0  0  0  0  0  0  0  0  0  0
   14.8927    4.1244   22.4095 H   0  0  0  0  0  0  0  0  0  0  0  0
   12.1429   -1.5580   20.5367 H   0  0  0  0  0  0  0  0  0  0  0  0
  1  3  1  0  0  0  0
  1  7  1  0  0  0  0
  2  4  1  0  0  0  0
  2  7  1  0  0  0  0
  3 11  1  0  0  0  0
  4 11  1  0  0  0  0
  5  9  1  0  0  0  0
  5 11  1  0  0  0  0
  6  9  1  0  0  0  0
  6 13  1  0  0  0  0
  7  9  1  0  0  0  0
  8 10  1  0  0  0  0
  8 12  1  0  0  0  0
  8 13  1  0  0  0  0
  9 12  1  0  0  0  0
  1 14  1  0  0  0  0
  1 15  1  0  0  0  0
  2 16  1  0  0  0  0
  2 17  1  0  0  0  0
  3 18  1  0  0  0  0
  3 19  1  0  0  0  0
  4 20  1  0  0  0  0
  4 21  1  0  0  0  0
  5 22  1  0  0  0  0
  5 23  1  0  0  0  0
  6 24  1  0  0  0  0
  6 25  1  0  0  0  0
  7 26  1  0  0  0  0
  8 27  1  0  0  0  0
 10 28  1  0  0  0  0
 10 29  1  0  0  0  0
 10 30  1  0  0  0  0
 11 31  1  0  0  0  0
M  CHG  1  11   1
M  END
> <Hybrid2>
-8.002839

> <docked_fragment>
x0195

> <Mpro-_dock>
1.445328

> <site>
active-noncovalent

$$$$
CHEMBL278581
  -OEChem-04122014263D

 31 32  0     0  0  0  0  0  0999 V2000
   14.1661   -0.3534   22.0718 C   0  0  0  0  0  0  0  0  0  0  0  0
   13.3881    0.5160   22.8362 C   0  0  0  0  0  0  0  0  0  0  0  0
   13.6512   -1.5895   21.6810 C   0  0  0  0  0  0  0  0  0  0  0  0
   11.5803   -1.0867   22.8191 C   0  0  0  0  0  0  0  0  0  0  0  0
   12.0952    0.1494   23.2099 C   0  0  0  0  0  0  0  0  0  0  0  0
   12.3583   -1.9562   22.0547 C   0  0  0  0  0  0  0  0  0  0  0  0
    9.1474   -1.1878   22.4500 C   0  0  0  0  0  0  0  0  0  0  0  0
    8.5012   -3.8336   23.6344 C   0  0  0  0  0  0  0  0  0  0  0  0
    8.8169   -2.8706   24.5078 C   0  0  0  0  0  0  0  0  0  0  0  0
    7.7952   -0.7888   20.6139 C   0  0  0  0  0  0  0  0  0  0  0  0
    6.9500   -0.7158   21.8950 C   0  0  0  0  0  0  0  0  0  0  0  0
   10.1130   -2.1285   24.4969 C   0  0  0  0  0  0  0  0  0  0  0  0
    9.1564   -1.0879   21.0572 N   0  0  0  0  0  0  0  0  0  0  0  0
    7.8784   -0.9785   22.9941 N   0  3  0  0  0  0  0  0  0  0  0  0
   10.2628   -1.4614   23.2014 N   0  0  0  0  0  0  0  0  0  0  0  0
   11.1606    1.2496   24.1553 Cl  0  0  0  0  0  0  0  0  0  0  0  0
   11.7533   -3.4931   21.5540 Cl  0  0  0  0  0  0  0  0  0  0  0  0
   15.1727   -0.0679   21.7804 H   0  0  0  0  0  0  0  0  0  0  0  0
   13.8041    1.4756   23.1329 H   0  0  0  0  0  0  0  0  0  0  0  0
   14.2705   -2.2558   21.0857 H   0  0  0  0  0  0  0  0  0  0  0  0
    7.5395   -4.3317   23.6906 H   0  0  0  0  0  0  0  0  0  0  0  0
    9.1896   -4.1410   22.8549 H   0  0  0  0  0  0  0  0  0  0  0  0
    8.0870   -2.5970   25.2658 H   0  0  0  0  0  0  0  0  0  0  0  0
    7.4506   -1.5862   19.9497 H   0  0  0  0  0  0  0  0  0  0  0  0
    7.7937    0.1635   20.0764 H   0  0  0  0  0  0  0  0  0  0  0  0
    6.5067    0.2749   22.0286 H   0  0  0  0  0  0  0  0  0  0  0  0
    6.1625   -1.4746   21.9011 H   0  0  0  0  0  0  0  0  0  0  0  0
   10.9423   -2.8296   24.6319 H   0  0  0  0  0  0  0  0  0  0  0  0
   10.1686   -1.3756   25.2896 H   0  0  0  0  0  0  0  0  0  0  0  0
    9.9870   -1.2087   20.4834 H   0  0  0  0  0  0  0  0  0  0  0  0
    7.6737   -1.0108   23.9895 H   0  0  0  0  0  0  0  0  0  0  0  0
  1  2  1  0  0  0  0
  1  3  2  0  0  0  0
  2  5  2  0  0  0  0
  3  6  1  0  0  0  0
  4  5  1  0  0  0  0
  4  6  2  0  0  0  0
  4 15  1  0  0  0  0
  5 16  1  0  0  0  0
  6 17  1  0  0  0  0
  7 13  1  0  0  0  0
  7 14  2  0  0  0  0
  7 15  1  0  0  0  0
  8  9  2  0  0  0  0
  9 12  1  0  0  0  0
 10 11  1  0  0  0  0
 10 13  1  0  0  0  0
 11 14  1  0  0  0  0
 12 15  1  0  0  0  0
  1 18  1  0  0  0  0
  2 19  1  0  0  0  0
  3 20  1  0  0  0  0
  8 21  1  0  0  0  0
  8 22  1  0  0  0  0
  9 23  1  0  0  0  0
 10 24  1  0  0  0  0
 10 25  1  0  0  0  0
 11 26  1  0  0  0  0
 11 27  1  0  0  0  0
 12 28  1  0  0  0  0
 12 29  1  0  0  0  0
 13 30  1  0  0  0  0
 14 31  1  0  0  0  0
M  CHG  1  14   1
M  END
> <Hybrid2>
-7.989653

> <docked_fragment>
x0831

> <Mpro-_dock>
1.147345

> <site>
active-covalent

$$$$
CHEMBL2107685
  -OEChem-04122014263D

 46 47  0     1  0  0  0  0  0999 V2000
   14.6369   -1.7309   23.9884 C   0  0  0  0  0  0  0  0  0  0  0  0
   14.1579   -2.2212   22.7736 C   0  0  0  0  0  0  0  0  0  0  0  0
   13.8755   -0.8212   24.7223 C   0  0  0  0  0  0  0  0  0  0  0  0
   12.9176   -1.8017   22.2926 C   0  0  0  0  0  0  0  0  0  0  0  0
   12.6353   -0.4018   24.2413 C   0  0  0  0  0  0  0  0  0  0  0  0
   12.1562   -0.8920   23.0264 C   0  0  0  0  0  0  0  0  0  0  0  0
    9.4653   -1.3017   24.2453 C   0  0  0  0  0  0  0  0  0  0  0  0
   10.2178   -1.5880   21.6703 C   0  0  0  0  0  0  0  0  0  0  0  0
    9.6400    1.1946   20.9545 C   0  0  0  0  0  0  0  0  0  0  0  0
   10.9707    0.8290   21.6257 C   0  0  2  0  0  0  0  0  0  0  0  0
    8.8898   -1.2089   20.9962 C   0  0  2  0  0  0  0  0  0  0  0  0
   10.8247   -0.4411   22.5105 C   0  0  2  0  0  0  0  0  0  0  0  0
   11.4632    2.0466   22.4210 C   0  0  0  0  0  0  0  0  0  0  0  0
    8.3996   -2.3755   20.1387 C   0  0  0  0  0  0  0  0  0  0  0  0
    8.9229   -2.0518   26.5818 C   0  0  0  0  0  0  0  0  0  0  0  0
    7.9066    0.4570   19.3496 C   0  0  0  0  0  0  0  0  0  0  0  0
    9.9524   -1.4052   25.6715 C   0  0  0  0  0  0  0  0  0  0  0  0
    9.1214    0.0286   20.1379 N   0  3  1  0  0  0  0  0  0  0  0  0
    8.6966   -2.0845   23.7040 O   0  0  0  0  0  0  0  0  0  0  0  0
   10.0210   -0.1957   23.6586 O   0  0  0  0  0  0  0  0  0  0  0  0
   15.6020   -2.0587   24.3634 H   0  0  0  0  0  0  0  0  0  0  0  0
   14.7500   -2.9303   22.2026 H   0  0  0  0  0  0  0  0  0  0  0  0
   14.2477   -0.4402   25.6687 H   0  0  0  0  0  0  0  0  0  0  0  0
   12.5525   -2.1889   21.3449 H   0  0  0  0  0  0  0  0  0  0  0  0
   12.0491    0.3074   24.8198 H   0  0  0  0  0  0  0  0  0  0  0  0
   10.0368   -2.4544   22.3216 H   0  0  0  0  0  0  0  0  0  0  0  0
   10.9366   -1.9141   20.9051 H   0  0  0  0  0  0  0  0  0  0  0  0
    8.8610    1.4669   21.6756 H   0  0  0  0  0  0  0  0  0  0  0  0
    9.7878    2.0299   20.2601 H   0  0  0  0  0  0  0  0  0  0  0  0
   11.7091    0.6308   20.8355 H   0  0  0  0  0  0  0  0  0  0  0  0
    8.1273   -0.9483   21.7392 H   0  0  0  0  0  0  0  0  0  0  0  0
   10.7547    2.2712   23.2128 H   0  0  0  0  0  0  0  0  0  0  0  0
   11.5480    2.9014   21.7565 H   0  0  0  0  0  0  0  0  0  0  0  0
   12.4342    1.8258   22.8544 H   0  0  0  0  0  0  0  0  0  0  0  0
    9.1572   -2.6337   19.4012 H   0  0  0  0  0  0  0  0  0  0  0  0
    7.4820   -2.0945   19.6254 H   0  0  0  0  0  0  0  0  0  0  0  0
    8.2059   -3.2403   20.7704 H   0  0  0  0  0  0  0  0  0  0  0  0
    7.9910   -1.4768   26.5927 H   0  0  0  0  0  0  0  0  0  0  0  0
    8.6953   -3.0661   26.2400 H   0  0  0  0  0  0  0  0  0  0  0  0
    9.2910   -2.1118   27.6114 H   0  0  0  0  0  0  0  0  0  0  0  0
    7.1187    0.7099   20.0615 H   0  0  0  0  0  0  0  0  0  0  0  0
    8.1867    1.3248   18.7494 H   0  0  0  0  0  0  0  0  0  0  0  0
    7.6081   -0.3795   18.7149 H   0  0  0  0  0  0  0  0  0  0  0  0
   10.8708   -2.0017   25.6818 H   0  0  0  0  0  0  0  0  0  0  0  0
   10.1752   -0.3967   26.0359 H   0  0  0  0  0  0  0  0  0  0  0  0
    9.8497   -0.2045   19.4487 H   0  0  0  0  0  0  0  0  0  0  0  0
  1  2  1  0  0  0  0
  1  3  2  0  0  0  0
  2  4  2  0  0  0  0
  3  5  1  0  0  0  0
  4  6  1  0  0  0  0
  5  6  2  0  0  0  0
  6 12  1  0  0  0  0
  7 17  1  0  0  0  0
  7 19  2  0  0  0  0
  7 20  1  0  0  0  0
  8 11  1  0  0  0  0
  8 12  1  0  0  0  0
  9 10  1  0  0  0  0
  9 18  1  0  0  0  0
 10 12  1  0  0  0  0
 10 13  1  0  0  0  0
 11 14  1  0  0  0  0
 11 18  1  0  0  0  0
 12 20  1  0  0  0  0
 15 17  1  0  0  0  0
 16 18  1  0  0  0  0
  1 21  1  0  0  0  0
  2 22  1  0  0  0  0
  3 23  1  0  0  0  0
  4 24  1  0  0  0  0
  5 25  1  0  0  0  0
  8 26  1  0  0  0  0
  8 27  1  0  0  0  0
  9 28  1  0  0  0  0
  9 29  1  0  0  0  0
 10 30  1  0  0  0  0
 11 31  1  0  0  0  0
 13 32  1  0  0  0  0
 13 33  1  0  0  0  0
 13 34  1  0  0  0  0
 14 35  1  0  0  0  0
 14 36  1  0  0  0  0
 14 37  1  0  0  0  0
 15 38  1  0  0  0  0
 15 39  1  0  0  0  0
 15 40  1  0  0  0  0
 16 41  1  0  0  0  0
 16 42  1  0  0  0  0
 16 43  1  0  0  0  0
 17 44  1  0  0  0  0
 17 45  1  0  0  0  0
 18 46  1  0  0  0  0
M  CHG  1  18   1
M  END
> <Hybrid2>
-7.982517

> <docked_fragment>
x0678

> <Mpro-_dock>
0.212019

> <site>
active-noncovalent

$$$$
CHEMBL1282
  -OEChem-04122014263D

 34 36  0     0  0  0  0  0  0999 V2000
    8.9836    1.3674   24.7882 C   0  0  0  0  0  0  0  0  0  0  0  0
    8.9594    2.7441   24.9953 C   0  0  0  0  0  0  0  0  0  0  0  0
   10.0885    0.7835   24.1798 C   0  0  0  0  0  0  0  0  0  0  0  0
   10.0393    3.5406   24.5945 C   0  0  0  0  0  0  0  0  0  0  0  0
   13.9460   -0.0830   22.2213 C   0  0  0  0  0  0  0  0  0  0  0  0
   11.1655    1.6002   23.7831 C   0  0  0  0  0  0  0  0  0  0  0  0
   11.1634    2.9956   23.9821 C   0  0  0  0  0  0  0  0  0  0  0  0
   13.3771    1.8973   22.7728 C   0  0  0  0  0  0  0  0  0  0  0  0
   12.3174    1.0862   23.1621 C   0  0  0  0  0  0  0  0  0  0  0  0
   13.2899    3.2664   23.0084 C   0  0  0  0  0  0  0  0  0  0  0  0
   13.9731   -2.6457   24.0112 C   0  0  0  0  0  0  0  0  0  0  0  0
   11.6495   -3.5438   24.2566 C   0  0  0  0  0  0  0  0  0  0  0  0
   12.0030   -1.4271   22.9555 C   0  0  0  0  0  0  0  0  0  0  0  0
   12.4946   -2.2735   24.1432 C   0  0  0  0  0  0  0  0  0  0  0  0
   14.3790    1.1570   22.1910 N   0  0  0  0  0  0  0  0  0  0  0  0
   12.1881    3.7886   23.6068 N   0  0  0  0  0  0  0  0  0  0  0  0
   12.7096   -0.1775   22.7963 N   0  0  0  0  0  0  0  0  0  0  0  0
   14.3425    4.1194   22.6292 N   0  0  0  0  0  0  0  0  0  0  0  0
    8.1438    0.7543   25.1007 H   0  0  0  0  0  0  0  0  0  0  0  0
    8.0974    3.2040   25.4704 H   0  0  0  0  0  0  0  0  0  0  0  0
   10.0808   -0.2892   24.0312 H   0  0  0  0  0  0  0  0  0  0  0  0
    9.9883    4.6130   24.7739 H   0  0  0  0  0  0  0  0  0  0  0  0
   14.4806   -0.9454   21.8468 H   0  0  0  0  0  0  0  0  0  0  0  0
   14.1480   -3.2187   23.0942 H   0  0  0  0  0  0  0  0  0  0  0  0
   14.6064   -1.7529   23.9770 H   0  0  0  0  0  0  0  0  0  0  0  0
   14.3027   -3.2663   24.8501 H   0  0  0  0  0  0  0  0  0  0  0  0
   11.7375   -4.1524   23.3503 H   0  0  0  0  0  0  0  0  0  0  0  0
   11.9798   -4.1564   25.1021 H   0  0  0  0  0  0  0  0  0  0  0  0
   10.5905   -3.3054   24.4032 H   0  0  0  0  0  0  0  0  0  0  0  0
   12.0824   -1.9871   22.0156 H   0  0  0  0  0  0  0  0  0  0  0  0
   10.9434   -1.1686   23.0791 H   0  0  0  0  0  0  0  0  0  0  0  0
   12.3709   -1.7034   25.0726 H   0  0  0  0  0  0  0  0  0  0  0  0
   14.2463    5.1076   22.7619 H   0  0  0  0  0  0  0  0  0  0  0  0
   15.1333    3.7389   22.1462 H   0  0  0  0  0  0  0  0  0  0  0  0
  1  2  1  0  0  0  0
  1  3  2  0  0  0  0
  2  4  2  0  0  0  0
  3  6  1  0  0  0  0
  4  7  1  0  0  0  0
  5 15  2  0  0  0  0
  5 17  1  0  0  0  0
  6  7  1  0  0  0  0
  6  9  2  0  0  0  0
  7 16  2  0  0  0  0
  8  9  1  0  0  0  0
  8 10  2  0  0  0  0
  8 15  1  0  0  0  0
  9 17  1  0  0  0  0
 10 16  1  0  0  0  0
 10 18  1  0  0  0  0
 11 14  1  0  0  0  0
 12 14  1  0  0  0  0
 13 14  1  0  0  0  0
 13 17  1  0  0  0  0
  1 19  1  0  0  0  0
  2 20  1  0  0  0  0
  3 21  1  0  0  0  0
  4 22  1  0  0  0  0
  5 23  1  0  0  0  0
 11 24  1  0  0  0  0
 11 25  1  0  0  0  0
 11 26  1  0  0  0  0
 12 27  1  0  0  0  0
 12 28  1  0  0  0  0
 12 29  1  0  0  0  0
 13 30  1  0  0  0  0
 13 31  1  0  0  0  0
 14 32  1  0  0  0  0
 18 33  1  0  0  0  0
 18 34  1  0  0  0  0
M  END
> <Hybrid2>
-7.976064

> <docked_fragment>
x0161

> <Mpro-_dock>
0.136519

> <site>
active-noncovalent

$$$$
CHEMBL431928
  -OEChem-04122014263D

 62 65  0     1  0  0  0  0  0999 V2000
    8.8394    3.2837   25.1265 C   0  0  0  0  0  0  0  0  0  0  0  0
   13.9596   -1.3550   24.3303 C   0  0  0  0  0  0  0  0  0  0  0  0
    9.8473    3.1812   24.1677 C   0  0  0  0  0  0  0  0  0  0  0  0
    8.1389    2.1457   25.5264 C   0  0  0  0  0  0  0  0  0  0  0  0
   13.1806   -0.5870   25.1957 C   0  0  0  0  0  0  0  0  0  0  0  0
   13.4003   -1.8726   23.1620 C   0  0  0  0  0  0  0  0  0  0  0  0
   10.1546    1.9407   23.6087 C   0  0  0  0  0  0  0  0  0  0  0  0
    8.4461    0.9053   24.9674 C   0  0  0  0  0  0  0  0  0  0  0  0
   11.8422   -0.3367   24.8929 C   0  0  0  0  0  0  0  0  0  0  0  0
   12.0619   -1.6223   22.8591 C   0  0  0  0  0  0  0  0  0  0  0  0
    9.4540    0.8027   24.0085 C   0  0  0  0  0  0  0  0  0  0  0  0
   11.2829   -0.8543   23.7246 C   0  0  0  0  0  0  0  0  0  0  0  0
    9.5886   -0.5494   21.8941 C   0  0  0  0  0  0  0  0  0  0  0  0
    6.2648   -0.4895   20.3224 C   0  0  0  0  0  0  0  0  0  0  0  0
    6.2138    0.7852   21.1552 C   0  0  0  0  0  0  0  0  0  0  0  0
    7.7562   -0.7725   20.2288 C   0  0  0  0  0  0  0  0  0  0  0  0
    7.3261    0.5730   22.1725 C   0  0  0  0  0  0  0  0  0  0  0  0
    7.1242   -2.7886   26.3351 C   0  0  0  0  0  0  0  0  0  0  0  0
    8.9260   -4.4907   26.5302 C   0  0  0  0  0  0  0  0  0  0  0  0
    6.1415   -3.8770   26.7324 C   0  0  0  0  0  0  0  0  0  0  0  0
    7.8502   -5.4911   26.9180 C   0  0  0  0  0  0  0  0  0  0  0  0
    8.5802   -2.8133   22.7750 C   0  0  0  0  0  0  0  0  0  0  0  0
    9.3045   -2.4302   25.1679 C   0  0  0  0  0  0  0  0  0  0  0  0
    8.8144   -1.7446   23.8681 C   0  0  1  0  0  0  0  0  0  0  0  0
    9.7949   -0.5766   23.3874 C   0  0  0  0  0  0  0  0  0  0  0  0
    8.3037   -0.2564   21.4749 N   0  0  0  0  0  0  0  0  0  0  0  0
    8.2996   -3.4393   25.6445 N   0  3  0  0  0  0  0  0  0  0  0  0
   10.5288   -0.7732   21.1301 O   0  0  0  0  0  0  0  0  0  0  0  0
    6.7717   -4.8339   27.5852 O   0  0  0  0  0  0  0  0  0  0  0  0
    8.6012    4.2495   25.5626 H   0  0  0  0  0  0  0  0  0  0  0  0
   15.0021   -1.5487   24.5656 H   0  0  0  0  0  0  0  0  0  0  0  0
   10.3937    4.0670   23.8570 H   0  0  0  0  0  0  0  0  0  0  0  0
    7.3548    2.2250   26.2736 H   0  0  0  0  0  0  0  0  0  0  0  0
   13.6162   -0.1831   26.1049 H   0  0  0  0  0  0  0  0  0  0  0  0
   14.0068   -2.4696   22.4874 H   0  0  0  0  0  0  0  0  0  0  0  0
   10.9413    1.8704   22.8622 H   0  0  0  0  0  0  0  0  0  0  0  0
    7.8949    0.0241   25.2849 H   0  0  0  0  0  0  0  0  0  0  0  0
   11.2428    0.2625   25.5732 H   0  0  0  0  0  0  0  0  0  0  0  0
   11.6346   -2.0297   21.9467 H   0  0  0  0  0  0  0  0  0  0  0  0
    5.7553   -1.3055   20.8482 H   0  0  0  0  0  0  0  0  0  0  0  0
    5.7998   -0.3642   19.3406 H   0  0  0  0  0  0  0  0  0  0  0  0
    6.4353    1.6560   20.5269 H   0  0  0  0  0  0  0  0  0  0  0  0
    5.2387    0.9356   21.6268 H   0  0  0  0  0  0  0  0  0  0  0  0
    7.9864   -1.8356   20.1116 H   0  0  0  0  0  0  0  0  0  0  0  0
    8.2208   -0.2175   19.4063 H   0  0  0  0  0  0  0  0  0  0  0  0
    7.7733    1.5119   22.5098 H   0  0  0  0  0  0  0  0  0  0  0  0
    6.9705    0.0111   23.0429 H   0  0  0  0  0  0  0  0  0  0  0  0
    6.6742   -2.0829   25.6329 H   0  0  0  0  0  0  0  0  0  0  0  0
    7.5173   -2.2626   27.2100 H   0  0  0  0  0  0  0  0  0  0  0  0
    9.3285   -3.9728   27.4055 H   0  0  0  0  0  0  0  0  0  0  0  0
    9.7287   -4.9683   25.9635 H   0  0  0  0  0  0  0  0  0  0  0  0
    5.3089   -3.4362   27.2898 H   0  0  0  0  0  0  0  0  0  0  0  0
    5.7190   -4.3832   25.8561 H   0  0  0  0  0  0  0  0  0  0  0  0
    7.4690   -6.0366   26.0465 H   0  0  0  0  0  0  0  0  0  0  0  0
    8.2661   -6.2289   27.6112 H   0  0  0  0  0  0  0  0  0  0  0  0
    9.5062   -3.3116   22.4769 H   0  0  0  0  0  0  0  0  0  0  0  0
    8.1681   -2.3586   21.8681 H   0  0  0  0  0  0  0  0  0  0  0  0
    7.8750   -3.5825   23.1064 H   0  0  0  0  0  0  0  0  0  0  0  0
   10.2420   -2.9761   25.0256 H   0  0  0  0  0  0  0  0  0  0  0  0
    9.4255   -1.7268   25.9947 H   0  0  0  0  0  0  0  0  0  0  0  0
    7.8285   -1.3173   24.0845 H   0  0  0  0  0  0  0  0  0  0  0  0
    7.9367   -3.9197   24.8081 H   0  0  0  0  0  0  0  0  0  0  0  0
  1  3  1  0  0  0  0
  1  4  2  0  0  0  0
  2  5  1  0  0  0  0
  2  6  2  0  0  0  0
  3  7  2  0  0  0  0
  4  8  1  0  0  0  0
  5  9  2  0  0  0  0
  6 10  1  0  0  0  0
  7 11  1  0  0  0  0
  8 11  2  0  0  0  0
  9 12  1  0  0  0  0
 10 12  2  0  0  0  0
 11 25  1  0  0  0  0
 12 25  1  0  0  0  0
 13 25  1  0  0  0  0
 13 26  1  0  0  0  0
 13 28  2  0  0  0  0
 14 15  1  0  0  0  0
 14 16  1  0  0  0  0
 15 17  1  0  0  0  0
 16 26  1  0  0  0  0
 17 26  1  0  0  0  0
 18 20  1  0  0  0  0
 18 27  1  0  0  0  0
 19 21  1  0  0  0  0
 19 27  1  0  0  0  0
 20 29  1  0  0  0  0
 21 29  1  0  0  0  0
 22 24  1  0  0  0  0
 23 24  1  0  0  0  0
 23 27  1  0  0  0  0
 24 25  1  0  0  0  0
  1 30  1  0  0  0  0
  2 31  1  0  0  0  0
  3 32  1  0  0  0  0
  4 33  1  0  0  0  0
  5 34  1  0  0  0  0
  6 35  1  0  0  0  0
  7 36  1  0  0  0  0
  8 37  1  0  0  0  0
  9 38  1  0  0  0  0
 10 39  1  0  0  0  0
 14 40  1  0  0  0  0
 14 41  1  0  0  0  0
 15 42  1  0  0  0  0
 15 43  1  0  0  0  0
 16 44  1  0  0  0  0
 16 45  1  0  0  0  0
 17 46  1  0  0  0  0
 17 47  1  0  0  0  0
 18 48  1  0  0  0  0
 18 49  1  0  0  0  0
 19 50  1  0  0  0  0
 19 51  1  0  0  0  0
 20 52  1  0  0  0  0
 20 53  1  0  0  0  0
 21 54  1  0  0  0  0
 21 55  1  0  0  0  0
 22 56  1  0  0  0  0
 22 57  1  0  0  0  0
 22 58  1  0  0  0  0
 23 59  1  0  0  0  0
 23 60  1  0  0  0  0
 24 61  1  0  0  0  0
 27 62  1  0  0  0  0
M  CHG  1  27   1
M  END
> <Hybrid2>
-7.974099

> <docked_fragment>
x0072

> <Mpro-_dock>
3.251007

> <site>
active-noncovalent

$$$$
CHEMBL405
  -OEChem-04122014263D

 24 24  0     1  0  0  0  0  0999 V2000
   13.7622   -1.6949   23.1872 C   0  0  0  0  0  0  0  0  0  0  0  0
   12.8101   -1.5517   24.1965 C   0  0  0  0  0  0  0  0  0  0  0  0
   14.0857   -0.6084   22.3744 C   0  0  0  0  0  0  0  0  0  0  0  0
   12.1813   -0.3222   24.3928 C   0  0  0  0  0  0  0  0  0  0  0  0
   13.4570    0.6211   22.5707 C   0  0  0  0  0  0  0  0  0  0  0  0
   12.5048    0.7643   23.5799 C   0  0  0  0  0  0  0  0  0  0  0  0
   12.9551    3.7079   22.2076 C   0  0  0  0  0  0  0  0  0  0  0  0
   11.8276    2.0890   23.7906 C   0  0  0  0  0  0  0  0  0  0  0  0
   11.6860    2.9217   22.5097 C   0  0  1  0  0  0  0  0  0  0  0  0
   10.5712    3.8997   22.6709 N   0  3  0  0  0  0  0  0  0  0  0  0
   14.2527   -2.6520   23.0354 H   0  0  0  0  0  0  0  0  0  0  0  0
   12.5589   -2.3972   24.8302 H   0  0  0  0  0  0  0  0  0  0  0  0
   14.8278   -0.7193   21.5892 H   0  0  0  0  0  0  0  0  0  0  0  0
   11.4405   -0.2199   25.1814 H   0  0  0  0  0  0  0  0  0  0  0  0
   13.7152    1.4620   21.9324 H   0  0  0  0  0  0  0  0  0  0  0  0
   13.2371    4.3397   23.0569 H   0  0  0  0  0  0  0  0  0  0  0  0
   13.7973    3.0426   21.9876 H   0  0  0  0  0  0  0  0  0  0  0  0
   12.8062    4.3618   21.3419 H   0  0  0  0  0  0  0  0  0  0  0  0
   12.4132    2.6593   24.5251 H   0  0  0  0  0  0  0  0  0  0  0  0
   10.8426    1.9405   24.2536 H   0  0  0  0  0  0  0  0  0  0  0  0
   11.4202    2.2968   21.6500 H   0  0  0  0  0  0  0  0  0  0  0  0
   10.1124    4.0720   21.7734 H   0  0  0  0  0  0  0  0  0  0  0  0
   10.9249    4.7903   23.0288 H   0  0  0  0  0  0  0  0  0  0  0  0
    9.8728    3.5425   23.3273 H   0  0  0  0  0  0  0  0  0  0  0  0
  1  2  1  0  0  0  0
  1  3  2  0  0  0  0
  2  4  2  0  0  0  0
  3  5  1  0  0  0  0
  4  6  1  0  0  0  0
  5  6  2  0  0  0  0
  6  8  1  0  0  0  0
  7  9  1  0  0  0  0
  8  9  1  0  0  0  0
  9 10  1  0  0  0  0
  1 11  1  0  0  0  0
  2 12  1  0  0  0  0
  3 13  1  0  0  0  0
  4 14  1  0  0  0  0
  5 15  1  0  0  0  0
  7 16  1  0  0  0  0
  7 17  1  0  0  0  0
  7 18  1  0  0  0  0
  8 19  1  0  0  0  0
  8 20  1  0  0  0  0
  9 21  1  0  0  0  0
 10 22  1  0  0  0  0
 10 23  1  0  0  0  0
 10 24  1  0  0  0  0
M  CHG  1  10   1
M  END
> <Hybrid2>
-7.967638

> <docked_fragment>
x0161

> <Mpro-_dock>
-0.837161

> <site>
active-noncovalent

$$$$
CHEMBL2105363
  -OEChem-04122014263D

 30 32  0     0  0  0  0  0  0999 V2000
    9.1748   -0.9154   24.1797 C   0  0  0  0  0  0  0  0  0  0  0  0
    9.4068   -2.2494   23.8443 C   0  0  0  0  0  0  0  0  0  0  0  0
   10.1247    0.0601   23.8776 C   0  0  0  0  0  0  0  0  0  0  0  0
   10.5911   -2.6179   23.2038 C   0  0  0  0  0  0  0  0  0  0  0  0
   13.7986    2.2431   22.4447 C   0  0  0  0  0  0  0  0  0  0  0  0
   11.3110   -0.3051   23.2366 C   0  0  0  0  0  0  0  0  0  0  0  0
   11.5555   -1.6545   22.8924 C   0  0  0  0  0  0  0  0  0  0  0  0
   12.5354    2.0044   23.0229 C   0  0  0  0  0  0  0  0  0  0  0  0
   12.3481    0.6490   22.8884 C   0  0  0  0  0  0  0  0  0  0  0  0
   13.6508   -1.1716   21.9478 C   0  0  0  0  0  0  0  0  0  0  0  0
   11.8743    4.3243   23.7336 C   0  0  0  0  0  0  0  0  0  0  0  0
   14.9341   -1.5194   21.2612 C   0  0  0  0  0  0  0  0  0  0  0  0
   10.7059    4.9901   24.4163 C   0  0  0  0  0  0  0  0  0  0  0  0
   14.3758    1.1322   21.9771 N   0  0  0  0  0  0  0  0  0  0  0  0
   12.7500   -2.0619   22.2402 N   0  0  0  0  0  0  0  0  0  0  0  0
   13.4728    0.1743   22.2591 N   0  0  0  0  0  0  0  0  0  0  0  0
   11.6921    2.9288   23.5898 N   0  0  0  0  0  0  0  0  0  0  0  0
   12.8435    4.9799   23.3653 O   0  0  0  0  0  0  0  0  0  0  0  0
    8.2511   -0.6359   24.6785 H   0  0  0  0  0  0  0  0  0  0  0  0
    8.6629   -3.0042   24.0822 H   0  0  0  0  0  0  0  0  0  0  0  0
    9.9136    1.0883   24.1524 H   0  0  0  0  0  0  0  0  0  0  0  0
   10.7562   -3.6618   22.9493 H   0  0  0  0  0  0  0  0  0  0  0  0
   14.3257    3.1814   22.3435 H   0  0  0  0  0  0  0  0  0  0  0  0
   14.8023   -1.4524   20.1825 H   0  0  0  0  0  0  0  0  0  0  0  0
   15.2297   -2.5333   21.5275 H   0  0  0  0  0  0  0  0  0  0  0  0
   15.7161   -0.8289   21.5740 H   0  0  0  0  0  0  0  0  0  0  0  0
   10.8664    5.0010   25.4981 H   0  0  0  0  0  0  0  0  0  0  0  0
    9.7870    4.4380   24.1999 H   0  0  0  0  0  0  0  0  0  0  0  0
   10.5958    6.0158   24.0520 H   0  0  0  0  0  0  0  0  0  0  0  0
   10.7926    2.5835   23.9713 H   0  0  0  0  0  0  0  0  0  0  0  0
  1  2  1  0  0  0  0
  1  3  2  0  0  0  0
  2  4  2  0  0  0  0
  3  6  1  0  0  0  0
  4  7  1  0  0  0  0
  5  8  1  0  0  0  0
  5 14  2  0  0  0  0
  6  7  2  0  0  0  0
  6  9  1  0  0  0  0
  7 15  1  0  0  0  0
  8  9  2  0  0  0  0
  8 17  1  0  0  0  0
  9 16  1  0  0  0  0
 10 12  1  0  0  0  0
 10 15  2  0  0  0  0
 10 16  1  0  0  0  0
 11 13  1  0  0  0  0
 11 17  1  0  0  0  0
 11 18  2  0  0  0  0
 14 16  1  0  0  0  0
  1 19  1  0  0  0  0
  2 20  1  0  0  0  0
  3 21  1  0  0  0  0
  4 22  1  0  0  0  0
  5 23  1  0  0  0  0
 12 24  1  0  0  0  0
 12 25  1  0  0  0  0
 12 26  1  0  0  0  0
 13 27  1  0  0  0  0
 13 28  1  0  0  0  0
 13 29  1  0  0  0  0
 17 30  1  0  0  0  0
M  END
> <Hybrid2>
-7.921958

> <docked_fragment>
x0195

> <Mpro-_dock>
0.655649

> <site>
active-noncovalent

$$$$
CHEMBL2104218
  -OEChem-04122014263D

 32 32  0     0  0  0  0  0  0999 V2000
   11.5551    2.2686   23.7237 C   0  0  0  0  0  0  0  0  0  0  0  0
   13.4980    2.7094   22.3570 C   0  0  0  0  0  0  0  0  0  0  0  0
   11.9988    0.9630   23.9334 C   0  0  0  0  0  0  0  0  0  0  0  0
   13.9417    1.4037   22.5667 C   0  0  0  0  0  0  0  0  0  0  0  0
   12.3047    3.1419   22.9355 C   0  0  0  0  0  0  0  0  0  0  0  0
   13.1921    0.5305   23.3549 C   0  0  0  0  0  0  0  0  0  0  0  0
   10.6994    5.0568   23.2192 C   0  0  0  0  0  0  0  0  0  0  0  0
   10.5809    6.4888   22.7612 C   0  0  0  0  0  0  0  0  0  0  0  0
   13.6798   -1.3277   21.2310 C   0  0  0  0  0  0  0  0  0  0  0  0
   13.7952   -3.0698   23.0368 C   0  0  0  0  0  0  0  0  0  0  0  0
   11.6628   -1.7970   22.6614 C   0  0  0  0  0  0  0  0  0  0  0  0
   13.1889   -1.7315   22.6205 C   0  0  0  0  0  0  0  0  0  0  0  0
   11.8610    4.4479   22.7257 N   0  0  0  0  0  0  0  0  0  0  0  0
    9.8428    4.5549   23.9398 O   0  0  0  0  0  0  0  0  0  0  0  0
   13.6271   -0.7496   23.5603 O   0  0  0  0  0  0  0  0  0  0  0  0
   10.6237    2.5950   24.1795 H   0  0  0  0  0  0  0  0  0  0  0  0
   14.0904    3.3812   21.7408 H   0  0  0  0  0  0  0  0  0  0  0  0
   11.4105    0.2874   24.5484 H   0  0  0  0  0  0  0  0  0  0  0  0
   14.8721    1.0727   22.1133 H   0  0  0  0  0  0  0  0  0  0  0  0
   10.0351    6.5307   21.8144 H   0  0  0  0  0  0  0  0  0  0  0  0
   11.5778    6.9142   22.6147 H   0  0  0  0  0  0  0  0  0  0  0  0
   10.0523    7.0793   23.5152 H   0  0  0  0  0  0  0  0  0  0  0  0
   13.2468   -0.3675   20.9285 H   0  0  0  0  0  0  0  0  0  0  0  0
   14.7709   -1.2431   21.1975 H   0  0  0  0  0  0  0  0  0  0  0  0
   13.3661   -2.0593   20.4776 H   0  0  0  0  0  0  0  0  0  0  0  0
   13.4457   -3.3634   24.0333 H   0  0  0  0  0  0  0  0  0  0  0  0
   14.8872   -3.0005   23.1008 H   0  0  0  0  0  0  0  0  0  0  0  0
   13.5391   -3.8665   22.3309 H   0  0  0  0  0  0  0  0  0  0  0  0
   11.3104   -2.0866   23.6580 H   0  0  0  0  0  0  0  0  0  0  0  0
   11.2107   -0.8345   22.4011 H   0  0  0  0  0  0  0  0  0  0  0  0
   11.2867   -2.5574   21.9674 H   0  0  0  0  0  0  0  0  0  0  0  0
   12.4562    5.0425   22.1375 H   0  0  0  0  0  0  0  0  0  0  0  0
  1  3  2  0  0  0  0
  1  5  1  0  0  0  0
  2  4  1  0  0  0  0
  2  5  2  0  0  0  0
  3  6  1  0  0  0  0
  4  6  2  0  0  0  0
  5 13  1  0  0  0  0
  6 15  1  0  0  0  0
  7  8  1  0  0  0  0
  7 13  1  0  0  0  0
  7 14  2  0  0  0  0
  9 12  1  0  0  0  0
 10 12  1  0  0  0  0
 11 12  1  0  0  0  0
 12 15  1  0  0  0  0
  1 16  1  0  0  0  0
  2 17  1  0  0  0  0
  3 18  1  0  0  0  0
  4 19  1  0  0  0  0
  8 20  1  0  0  0  0
  8 21  1  0  0  0  0
  8 22  1  0  0  0  0
  9 23  1  0  0  0  0
  9 24  1  0  0  0  0
  9 25  1  0  0  0  0
 10 26  1  0  0  0  0
 10 27  1  0  0  0  0
 10 28  1  0  0  0  0
 11 29  1  0  0  0  0
 11 30  1  0  0  0  0
 11 31  1  0  0  0  0
 13 32  1  0  0  0  0
M  END
> <Hybrid2>
-7.920095

> <docked_fragment>
x0195

> <Mpro-_dock>
-0.585746

> <site>
active-noncovalent

$$$$
CHEMBL61006
  -OEChem-04122014263D

 25 25  0     1  0  0  0  0  0999 V2000
   12.5080   -1.2205   22.0957 C   0  0  0  0  0  0  0  0  0  0  0  0
   11.1608   -0.8713   22.0028 C   0  0  0  0  0  0  0  0  0  0  0  0
   13.4244   -0.3243   22.6459 C   0  0  0  0  0  0  0  0  0  0  0  0
   10.7300    0.3741   22.4599 C   0  0  0  0  0  0  0  0  0  0  0  0
   12.9936    0.9211   23.1031 C   0  0  0  0  0  0  0  0  0  0  0  0
   11.6464    1.2703   23.0100 C   0  0  0  0  0  0  0  0  0  0  0  0
   11.7554    5.1115   23.7546 C   0  0  0  0  0  0  0  0  0  0  0  0
   11.1796    2.6220   23.5060 C   0  0  1  0  0  0  0  0  0  0  0  0
   12.2559    3.7175   23.3900 C   0  0  1  0  0  0  0  0  0  0  0  0
   12.7213    3.7761   21.9680 N   0  3  0  0  0  0  0  0  0  0  0  0
   10.0359    2.9757   22.7243 O   0  0  0  0  0  0  0  0  0  0  0  0
   12.8430   -2.1908   21.7410 H   0  0  0  0  0  0  0  0  0  0  0  0
   10.4469   -1.5694   21.5754 H   0  0  0  0  0  0  0  0  0  0  0  0
   14.4732   -0.5963   22.7195 H   0  0  0  0  0  0  0  0  0  0  0  0
    9.6783    0.6377   22.3832 H   0  0  0  0  0  0  0  0  0  0  0  0
   13.7148    1.6130   23.5301 H   0  0  0  0  0  0  0  0  0  0  0  0
   10.8615    5.3779   23.1799 H   0  0  0  0  0  0  0  0  0  0  0  0
   12.5220    5.8680   23.5530 H   0  0  0  0  0  0  0  0  0  0  0  0
   11.5071    5.1787   24.8183 H   0  0  0  0  0  0  0  0  0  0  0  0
   10.8422    2.5324   24.5467 H   0  0  0  0  0  0  0  0  0  0  0  0
   13.1491    3.4653   23.9720 H   0  0  0  0  0  0  0  0  0  0  0  0
   11.9208    3.7978   21.3350 H   0  0  0  0  0  0  0  0  0  0  0  0
   13.2895    2.9567   21.7490 H   0  0  0  0  0  0  0  0  0  0  0  0
   13.2829    4.6146   21.8146 H   0  0  0  0  0  0  0  0  0  0  0  0
   10.3351    3.0062   21.8037 H   0  0  0  0  0  0  0  0  0  0  0  0
  1  2  1  0  0  0  0
  1  3  2  0  0  0  0
  2  4  2  0  0  0  0
  3  5  1  0  0  0  0
  4  6  1  0  0  0  0
  5  6  2  0  0  0  0
  6  8  1  0  0  0  0
  7  9  1  0  0  0  0
  8  9  1  0  0  0  0
  8 11  1  0  0  0  0
  9 10  1  0  0  0  0
  1 12  1  0  0  0  0
  2 13  1  0  0  0  0
  3 14  1  0  0  0  0
  4 15  1  0  0  0  0
  5 16  1  0  0  0  0
  7 17  1  0  0  0  0
  7 18  1  0  0  0  0
  7 19  1  0  0  0  0
  8 20  1  0  0  0  0
  9 21  1  0  0  0  0
 10 22  1  0  0  0  0
 10 23  1  0  0  0  0
 10 24  1  0  0  0  0
 11 25  1  0  0  0  0
M  CHG  1  10   1
M  END
> <Hybrid2>
-7.916599

> <docked_fragment>
x0104

> <Mpro-_dock>
-0.75574

> <site>
active-noncovalent

$$$$
CHEMBL844
  -OEChem-04122014263D

 28 30  0     0  0  0  0  0  0999 V2000
    6.3625   -2.9899   21.2262 C   0  0  0  0  0  0  0  0  0  0  0  0
    7.5820   -2.3304   21.0836 C   0  0  0  0  0  0  0  0  0  0  0  0
    4.7597   -5.2855   23.4697 C   0  0  0  0  0  0  0  0  0  0  0  0
    5.7454   -5.4794   24.4005 C   0  0  0  0  0  0  0  0  0  0  0  0
    6.1225   -3.8456   22.2988 C   0  0  0  0  0  0  0  0  0  0  0  0
    7.1351   -4.0447   23.2551 C   0  0  0  0  0  0  0  0  0  0  0  0
    8.5802   -2.5266   22.0264 C   0  0  0  0  0  0  0  0  0  0  0  0
    8.3503   -3.3808   23.1034 C   0  0  0  0  0  0  0  0  0  0  0  0
   10.3974   -0.9627   22.6937 C   0  0  0  0  0  0  0  0  0  0  0  0
   10.7641    0.3935   24.5336 C   0  0  0  0  0  0  0  0  0  0  0  0
   11.9358    0.5401   23.5505 C   0  0  0  0  0  0  0  0  0  0  0  0
    4.9376   -4.4704   22.4145 N   0  0  0  0  0  0  0  0  0  0  0  0
    6.9374   -4.8638   24.3028 N   0  0  0  0  0  0  0  0  0  0  0  0
    9.8495   -0.5658   23.9153 N   0  0  0  0  0  0  0  0  0  0  0  0
   11.6215   -0.3447   22.4293 N   0  3  0  0  0  0  0  0  0  0  0  0
    9.8094   -1.8449   21.8614 N   0  0  0  0  0  0  0  0  0  0  0  0
    9.7381   -3.6316   24.3926 Br  0  0  0  0  0  0  0  0  0  0  0  0
    5.5876   -2.8260   20.4798 H   0  0  0  0  0  0  0  0  0  0  0  0
    7.7398   -1.6675   20.2375 H   0  0  0  0  0  0  0  0  0  0  0  0
    3.7974   -5.7768   23.5379 H   0  0  0  0  0  0  0  0  0  0  0  0
    5.6124   -6.1317   25.2541 H   0  0  0  0  0  0  0  0  0  0  0  0
   11.0960    0.0019   25.4992 H   0  0  0  0  0  0  0  0  0  0  0  0
   10.2422    1.3429   24.6818 H   0  0  0  0  0  0  0  0  0  0  0  0
   12.0268    1.5662   23.1834 H   0  0  0  0  0  0  0  0  0  0  0  0
   12.8811    0.2260   24.0017 H   0  0  0  0  0  0  0  0  0  0  0  0
    8.9637   -0.9071   24.2793 H   0  0  0  0  0  0  0  0  0  0  0  0
   12.1712   -0.5071   21.5895 H   0  0  0  0  0  0  0  0  0  0  0  0
   10.3086   -2.0485   21.0061 H   0  0  0  0  0  0  0  0  0  0  0  0
  1  2  1  0  0  0  0
  1  5  2  0  0  0  0
  2  7  2  0  0  0  0
  3  4  1  0  0  0  0
  3 12  2  0  0  0  0
  4 13  2  0  0  0  0
  5  6  1  0  0  0  0
  5 12  1  0  0  0  0
  6  8  2  0  0  0  0
  6 13  1  0  0  0  0
  7  8  1  0  0  0  0
  7 16  1  0  0  0  0
  8 17  1  0  0  0  0
  9 14  1  0  0  0  0
  9 15  2  0  0  0  0
  9 16  1  0  0  0  0
 10 11  1  0  0  0  0
 10 14  1  0  0  0  0
 11 15  1  0  0  0  0
  1 18  1  0  0  0  0
  2 19  1  0  0  0  0
  3 20  1  0  0  0  0
  4 21  1  0  0  0  0
 10 22  1  0  0  0  0
 10 23  1  0  0  0  0
 11 24  1  0  0  0  0
 11 25  1  0  0  0  0
 14 26  1  0  0  0  0
 15 27  1  0  0  0  0
 16 28  1  0  0  0  0
M  CHG  1  15   1
M  END
> <Hybrid2>
-7.909169

> <docked_fragment>
x1392

> <Mpro-_dock>
-1.414444

> <site>
active-covalent

$$$$
DB04657
  -OEChem-04122014263D

 29 30  0     0  0  0  0  0  0999 V2000
   13.6677   -1.6395   25.6279 C   0  0  0  0  0  0  0  0  0  0  0  0
   13.1273   -2.7707   26.2393 C   0  0  0  0  0  0  0  0  0  0  0  0
   13.0837   -1.1266   24.4696 C   0  0  0  0  0  0  0  0  0  0  0  0
   12.0029   -3.3891   25.6925 C   0  0  0  0  0  0  0  0  0  0  0  0
   11.9593   -1.7449   23.9228 C   0  0  0  0  0  0  0  0  0  0  0  0
   11.4189   -2.8762   24.5342 C   0  0  0  0  0  0  0  0  0  0  0  0
    8.2331   -3.8817   22.8401 C   0  0  0  0  0  0  0  0  0  0  0  0
    7.1525   -3.5042   22.1254 C   0  0  0  0  0  0  0  0  0  0  0  0
    9.2544   -2.9084   23.2563 C   0  0  0  0  0  0  0  0  0  0  0  0
    6.0233   -5.5910   22.4336 C   0  0  0  0  0  0  0  0  0  0  0  0
    7.3145   -6.3802   22.3733 C   0  0  0  0  0  0  0  0  0  0  0  0
    6.9259   -2.1051   21.6223 C   0  0  0  0  0  0  0  0  0  0  0  0
   10.2772   -3.5041   23.9792 N   0  0  0  0  0  0  0  0  0  0  0  0
    9.1271   -1.7260   22.9490 O   0  0  0  0  0  0  0  0  0  0  0  0
    6.1295   -4.3511   21.7345 O   0  0  0  0  0  0  0  0  0  0  0  0
    8.5554   -5.5026   23.3519 S   0  0  0  0  0  0  0  0  0  0  0  0
   14.5428   -1.1573   26.0538 H   0  0  0  0  0  0  0  0  0  0  0  0
   13.5812   -3.1699   27.1416 H   0  0  0  0  0  0  0  0  0  0  0  0
   13.5042   -0.2451   23.9943 H   0  0  0  0  0  0  0  0  0  0  0  0
   11.5904   -4.2701   26.1778 H   0  0  0  0  0  0  0  0  0  0  0  0
   11.5126   -1.3362   23.0198 H   0  0  0  0  0  0  0  0  0  0  0  0
    5.2325   -6.1630   21.9357 H   0  0  0  0  0  0  0  0  0  0  0  0
    5.6808   -5.4105   23.4610 H   0  0  0  0  0  0  0  0  0  0  0  0
    7.1792   -7.3831   22.7880 H   0  0  0  0  0  0  0  0  0  0  0  0
    7.6750   -6.4693   21.3433 H   0  0  0  0  0  0  0  0  0  0  0  0
    7.3650   -2.0038   20.6338 H   0  0  0  0  0  0  0  0  0  0  0  0
    7.3895   -1.3982   22.3049 H   0  0  0  0  0  0  0  0  0  0  0  0
    5.8582   -1.9101   21.5724 H   0  0  0  0  0  0  0  0  0  0  0  0
   10.2181   -4.5078   24.1395 H   0  0  0  0  0  0  0  0  0  0  0  0
  1  2  1  0  0  0  0
  1  3  2  0  0  0  0
  2  4  2  0  0  0  0
  3  5  1  0  0  0  0
  4  6  1  0  0  0  0
  5  6  2  0  0  0  0
  6 13  1  0  0  0  0
  7  8  2  0  0  0  0
  7  9  1  0  0  0  0
  7 16  1  0  0  0  0
  8 12  1  0  0  0  0
  8 15  1  0  0  0  0
  9 13  1  0  0  0  0
  9 14  2  0  0  0  0
 10 11  1  0  0  0  0
 10 15  1  0  0  0  0
 11 16  1  0  0  0  0
  1 17  1  0  0  0  0
  2 18  1  0  0  0  0
  3 19  1  0  0  0  0
  4 20  1  0  0  0  0
  5 21  1  0  0  0  0
 10 22  1  0  0  0  0
 10 23  1  0  0  0  0
 11 24  1  0  0  0  0
 11 25  1  0  0  0  0
 12 26  1  0  0  0  0
 12 27  1  0  0  0  0
 12 28  1  0  0  0  0
 13 29  1  0  0  0  0
M  END
> <Hybrid2>
-7.906460

> <docked_fragment>
x0749

> <Mpro-_dock>
-0.246605

> <site>
active-covalent

$$$$
CHEMBL168815
  -OEChem-04122014263D

 31 33  0     1  0  0  0  0  0999 V2000
   14.2702   -0.8536   22.6520 C   0  0  0  0  0  0  0  0  0  0  0  0
   12.2037   -1.3499   23.9346 C   0  0  0  0  0  0  0  0  0  0  0  0
   13.5904   -1.2929   21.3566 C   0  0  0  0  0  0  0  0  0  0  0  0
   11.5189   -1.8115   22.6482 C   0  0  0  0  0  0  0  0  0  0  0  0
   11.8274    0.4525   21.6427 C   0  0  0  0  0  0  0  0  0  0  0  0
   11.5589    1.6642   23.8931 C   0  0  0  0  0  0  0  0  0  0  0  0
   13.2332   -0.2498   23.6226 C   0  0  0  0  0  0  0  0  0  0  0  0
   12.9442    3.1890   22.3124 C   0  0  1  0  0  0  0  0  0  0  0  0
   12.5260    0.9520   22.9328 C   0  0  1  0  0  0  0  0  0  0  0  0
   13.9098    4.2831   22.7320 C   0  0  0  0  0  0  0  0  0  0  0  0
   12.1056   -1.0336   21.4879 N   0  3  0  0  0  0  0  0  0  0  0  0
   13.5463    1.9187   22.5946 O   0  0  0  0  0  0  0  0  0  0  0  0
   11.3808    3.3203   23.2080 S   0  0  0  0  0  0  0  0  0  0  0  0
   14.7615   -1.7151   23.1209 H   0  0  0  0  0  0  0  0  0  0  0  0
   15.0628   -0.1297   22.4302 H   0  0  0  0  0  0  0  0  0  0  0  0
   11.4558   -0.9934   24.6511 H   0  0  0  0  0  0  0  0  0  0  0  0
   12.7033   -2.2031   24.4094 H   0  0  0  0  0  0  0  0  0  0  0  0
   13.9476   -0.7278   20.4894 H   0  0  0  0  0  0  0  0  0  0  0  0
   13.7225   -2.3622   21.1620 H   0  0  0  0  0  0  0  0  0  0  0  0
   11.6874   -2.8750   22.4491 H   0  0  0  0  0  0  0  0  0  0  0  0
   10.4411   -1.6200   22.6618 H   0  0  0  0  0  0  0  0  0  0  0  0
   10.7373    0.5521   21.6780 H   0  0  0  0  0  0  0  0  0  0  0  0
   12.1983    0.9349   20.7324 H   0  0  0  0  0  0  0  0  0  0  0  0
   10.5908    1.1646   23.9871 H   0  0  0  0  0  0  0  0  0  0  0  0
   11.9984    1.7688   24.8905 H   0  0  0  0  0  0  0  0  0  0  0  0
   13.7475    0.0723   24.5357 H   0  0  0  0  0  0  0  0  0  0  0  0
   12.7521    3.2538   21.2366 H   0  0  0  0  0  0  0  0  0  0  0  0
   14.1054    4.2238   23.8045 H   0  0  0  0  0  0  0  0  0  0  0  0
   13.4890    5.2652   22.5073 H   0  0  0  0  0  0  0  0  0  0  0  0
   14.8560    4.1775   22.1976 H   0  0  0  0  0  0  0  0  0  0  0  0
   11.6473   -1.3544   20.6244 H   0  0  0  0  0  0  0  0  0  0  0  0
  1  3  1  0  0  0  0
  1  7  1  0  0  0  0
  2  4  1  0  0  0  0
  2  7  1  0  0  0  0
  3 11  1  0  0  0  0
  4 11  1  0  0  0  0
  5  9  1  0  0  0  0
  5 11  1  0  0  0  0
  6  9  1  0  0  0  0
  6 13  1  0  0  0  0
  7  9  1  0  0  0  0
  8 10  1  0  0  0  0
  8 12  1  0  0  0  0
  8 13  1  0  0  0  0
  9 12  1  0  0  0  0
  1 14  1  0  0  0  0
  1 15  1  0  0  0  0
  2 16  1  0  0  0  0
  2 17  1  0  0  0  0
  3 18  1  0  0  0  0
  3 19  1  0  0  0  0
  4 20  1  0  0  0  0
  4 21  1  0  0  0  0
  5 22  1  0  0  0  0
  5 23  1  0  0  0  0
  6 24  1  0  0  0  0
  6 25  1  0  0  0  0
  7 26  1  0  0  0  0
  8 27  1  0  0  0  0
 10 28  1  0  0  0  0
 10 29  1  0  0  0  0
 10 30  1  0  0  0  0
 11 31  1  0  0  0  0
M  CHG  1  11   1
M  END
> <Hybrid2>
-7.902207

> <docked_fragment>
x0195

> <Mpro-_dock>
1.513839

> <site>
active-noncovalent

$$$$
CHEMBL290916
  -OEChem-04122014263D

 23 24  0     0  0  0  0  0  0999 V2000
   13.4384   -1.5786   22.5818 C   0  0  0  0  0  0  0  0  0  0  0  0
   12.2334   -1.5002   23.2801 C   0  0  0  0  0  0  0  0  0  0  0  0
   14.1191   -0.4124   22.2323 C   0  0  0  0  0  0  0  0  0  0  0  0
   11.7092   -0.2555   23.6287 C   0  0  0  0  0  0  0  0  0  0  0  0
   13.5949    0.8323   22.5810 C   0  0  0  0  0  0  0  0  0  0  0  0
   12.3899    0.9108   23.2792 C   0  0  0  0  0  0  0  0  0  0  0  0
   10.5541    3.8508   24.4735 C   0  0  0  0  0  0  0  0  0  0  0  0
   11.6458    4.3541   23.8838 C   0  0  0  0  0  0  0  0  0  0  0  0
   10.6824    2.3724   24.3190 C   0  0  0  0  0  0  0  0  0  0  0  0
   12.0457    5.7819   23.8095 C   0  0  0  0  0  0  0  0  0  0  0  0
   12.4300    3.3667   23.3473 N   0  0  0  0  0  0  0  0  0  0  0  0
   11.8710    2.1423   23.6244 N   0  0  0  0  0  0  0  0  0  0  0  0
    9.8650    1.5687   24.7359 O   0  0  0  0  0  0  0  0  0  0  0  0
   13.8473   -2.5477   22.3109 H   0  0  0  0  0  0  0  0  0  0  0  0
   11.7036   -2.4080   23.5531 H   0  0  0  0  0  0  0  0  0  0  0  0
   15.0579   -0.4739   21.6894 H   0  0  0  0  0  0  0  0  0  0  0  0
   10.7694   -0.2067   24.1730 H   0  0  0  0  0  0  0  0  0  0  0  0
   14.1343    1.7345   22.3033 H   0  0  0  0  0  0  0  0  0  0  0  0
    9.7587    4.3600   24.9881 H   0  0  0  0  0  0  0  0  0  0  0  0
   12.6679    6.0456   24.6683 H   0  0  0  0  0  0  0  0  0  0  0  0
   11.1606    6.4234   23.8051 H   0  0  0  0  0  0  0  0  0  0  0  0
   12.6117    5.9691   22.8932 H   0  0  0  0  0  0  0  0  0  0  0  0
   13.4161    3.4851   23.1598 H   0  0  0  0  0  0  0  0  0  0  0  0
  1  2  1  0  0  0  0
  1  3  2  0  0  0  0
  2  4  2  0  0  0  0
  3  5  1  0  0  0  0
  4  6  1  0  0  0  0
  5  6  2  0  0  0  0
  6 12  1  0  0  0  0
  7  8  2  0  0  0  0
  7  9  1  0  0  0  0
  8 10  1  0  0  0  0
  8 11  1  0  0  0  0
  9 12  1  0  0  0  0
  9 13  2  0  0  0  0
 11 12  1  0  0  0  0
  1 14  1  0  0  0  0
  2 15  1  0  0  0  0
  3 16  1  0  0  0  0
  4 17  1  0  0  0  0
  5 18  1  0  0  0  0
  7 19  1  0  0  0  0
 10 20  1  0  0  0  0
 10 21  1  0  0  0  0
 10 22  1  0  0  0  0
 11 23  1  0  0  0  0
M  END
> <Hybrid2>
-7.889587

> <docked_fragment>
x0195

> <Mpro-_dock>
-2.068452

> <site>
active-noncovalent

$$$$
CHEMBL1201269
  -OEChem-04122014263D

 27 27  0     0  0  0  0  0  0999 V2000
   13.1841    1.3538   22.7882 C   0  0  0  0  0  0  0  0  0  0  0  0
   11.4308    0.8252   24.3642 C   0  0  0  0  0  0  0  0  0  0  0  0
   13.7241    0.0794   22.9614 C   0  0  0  0  0  0  0  0  0  0  0  0
   11.9707   -0.4493   24.5374 C   0  0  0  0  0  0  0  0  0  0  0  0
   12.0375    1.7267   23.4897 C   0  0  0  0  0  0  0  0  0  0  0  0
   13.1174   -0.8221   23.8360 C   0  0  0  0  0  0  0  0  0  0  0  0
    9.1542    2.0368   22.8819 C   0  0  0  0  0  0  0  0  0  0  0  0
    9.5016    3.4564   24.9356 C   0  0  0  0  0  0  0  0  0  0  0  0
   11.4514    3.1062   23.3012 C   0  0  0  0  0  0  0  0  0  0  0  0
    9.9203    3.2191   23.4819 C   0  0  0  0  0  0  0  0  0  0  0  0
    9.4940    4.4418   22.7087 N   0  3  0  0  0  0  0  0  0  0  0  0
   13.7835   -2.3942   24.0493 Cl  0  0  0  0  0  0  0  0  0  0  0  0
   13.6627    2.0506   22.1052 H   0  0  0  0  0  0  0  0  0  0  0  0
   10.5371    1.1078   24.9142 H   0  0  0  0  0  0  0  0  0  0  0  0
   14.6177   -0.1972   22.4079 H   0  0  0  0  0  0  0  0  0  0  0  0
   11.4873   -1.1411   25.2222 H   0  0  0  0  0  0  0  0  0  0  0  0
    9.4478    1.8593   21.8406 H   0  0  0  0  0  0  0  0  0  0  0  0
    9.3442    1.1134   23.4408 H   0  0  0  0  0  0  0  0  0  0  0  0
    8.0741    2.2171   22.8849 H   0  0  0  0  0  0  0  0  0  0  0  0
   10.0452    4.3016   25.3738 H   0  0  0  0  0  0  0  0  0  0  0  0
    8.4340    3.6873   25.0117 H   0  0  0  0  0  0  0  0  0  0  0  0
    9.7019    2.5765   25.5572 H   0  0  0  0  0  0  0  0  0  0  0  0
   11.9578    3.7915   23.9959 H   0  0  0  0  0  0  0  0  0  0  0  0
   11.7335    3.4644   22.3007 H   0  0  0  0  0  0  0  0  0  0  0  0
    8.5396    4.3223   22.3783 H   0  0  0  0  0  0  0  0  0  0  0  0
   10.1114    4.5742   21.9112 H   0  0  0  0  0  0  0  0  0  0  0  0
    9.5414    5.2607   23.3100 H   0  0  0  0  0  0  0  0  0  0  0  0
  1  3  2  0  0  0  0
  1  5  1  0  0  0  0
  2  4  1  0  0  0  0
  2  5  2  0  0  0  0
  3  6  1  0  0  0  0
  4  6  2  0  0  0  0
  5  9  1  0  0  0  0
  6 12  1  0  0  0  0
  7 10  1  0  0  0  0
  8 10  1  0  0  0  0
  9 10  1  0  0  0  0
 10 11  1  0  0  0  0
  1 13  1  0  0  0  0
  2 14  1  0  0  0  0
  3 15  1  0  0  0  0
  4 16  1  0  0  0  0
  7 17  1  0  0  0  0
  7 18  1  0  0  0  0
  7 19  1  0  0  0  0
  8 20  1  0  0  0  0
  8 21  1  0  0  0  0
  8 22  1  0  0  0  0
  9 23  1  0  0  0  0
  9 24  1  0  0  0  0
 11 25  1  0  0  0  0
 11 26  1  0  0  0  0
 11 27  1  0  0  0  0
M  CHG  1  11   1
M  END
> <Hybrid2>
-7.885717

> <docked_fragment>
x0161

> <Mpro-_dock>
-0.698082

> <site>
active-noncovalent

$$$$
CHEMBL2105389
  -OEChem-04122014263D

 30 30  0     1  0  0  0  0  0999 V2000
   14.6845   -0.6978   22.2014 C   0  0  0  0  0  0  0  0  0  0  0  0
   14.1698   -1.4292   21.1310 C   0  0  0  0  0  0  0  0  0  0  0  0
   13.8809   -0.4210   23.3075 C   0  0  0  0  0  0  0  0  0  0  0  0
   12.8516   -1.8838   21.1665 C   0  0  0  0  0  0  0  0  0  0  0  0
   12.5626   -0.8756   23.3430 C   0  0  0  0  0  0  0  0  0  0  0  0
   12.0480   -1.6070   22.2726 C   0  0  0  0  0  0  0  0  0  0  0  0
   10.1636   -2.3705   23.7635 C   0  0  0  0  0  0  0  0  0  0  0  0
    8.1567   -1.2524   21.9698 C   0  0  0  0  0  0  0  0  0  0  0  0
   10.0887    0.2368   21.3722 C   0  0  0  0  0  0  0  0  0  0  0  0
   10.6050   -2.1040   22.3121 C   0  0  1  0  0  0  0  0  0  0  0  0
    9.6111   -1.2203   21.4848 C   0  0  0  0  0  0  0  0  0  0  0  0
    9.5926   -1.7526   20.0706 N   0  3  0  0  0  0  0  0  0  0  0  0
   15.7113   -0.3451   22.1741 H   0  0  0  0  0  0  0  0  0  0  0  0
   14.7957   -1.6458   20.2701 H   0  0  0  0  0  0  0  0  0  0  0  0
   14.2816    0.1475   24.1415 H   0  0  0  0  0  0  0  0  0  0  0  0
   12.4590   -2.4528   20.3279 H   0  0  0  0  0  0  0  0  0  0  0  0
   11.9439   -0.6551   24.2089 H   0  0  0  0  0  0  0  0  0  0  0  0
   10.1130   -1.4568   24.3628 H   0  0  0  0  0  0  0  0  0  0  0  0
    9.1802   -2.8491   23.8000 H   0  0  0  0  0  0  0  0  0  0  0  0
   10.8661   -3.0492   24.2619 H   0  0  0  0  0  0  0  0  0  0  0  0
    7.7855   -2.2776   22.0608 H   0  0  0  0  0  0  0  0  0  0  0  0
    7.4868   -0.7052   21.2992 H   0  0  0  0  0  0  0  0  0  0  0  0
    8.0625   -0.7932   22.9614 H   0  0  0  0  0  0  0  0  0  0  0  0
   11.1265    0.2936   21.0272 H   0  0  0  0  0  0  0  0  0  0  0  0
   10.0460    0.7473   22.3418 H   0  0  0  0  0  0  0  0  0  0  0  0
    9.4669    0.8071   20.6728 H   0  0  0  0  0  0  0  0  0  0  0  0
   10.6096   -3.0985   21.8395 H   0  0  0  0  0  0  0  0  0  0  0  0
   10.1299   -1.1352   19.4686 H   0  0  0  0  0  0  0  0  0  0  0  0
    8.6333   -1.7983   19.7384 H   0  0  0  0  0  0  0  0  0  0  0  0
   10.0015   -2.6826   20.0529 H   0  0  0  0  0  0  0  0  0  0  0  0
  1  2  1  0  0  0  0
  1  3  2  0  0  0  0
  2  4  2  0  0  0  0
  3  5  1  0  0  0  0
  4  6  1  0  0  0  0
  5  6  2  0  0  0  0
  6 10  1  0  0  0  0
  7 10  1  0  0  0  0
  8 11  1  0  0  0  0
  9 11  1  0  0  0  0
 10 11  1  0  0  0  0
 11 12  1  0  0  0  0
  1 13  1  0  0  0  0
  2 14  1  0  0  0  0
  3 15  1  0  0  0  0
  4 16  1  0  0  0  0
  5 17  1  0  0  0  0
  7 18  1  0  0  0  0
  7 19  1  0  0  0  0
  7 20  1  0  0  0  0
  8 21  1  0  0  0  0
  8 22  1  0  0  0  0
  8 23  1  0  0  0  0
  9 24  1  0  0  0  0
  9 25  1  0  0  0  0
  9 26  1  0  0  0  0
 10 27  1  0  0  0  0
 12 28  1  0  0  0  0
 12 29  1  0  0  0  0
 12 30  1  0  0  0  0
M  CHG  1  12   1
M  END
> <Hybrid2>
-7.879765

> <docked_fragment>
x1382

> <Mpro-_dock>
-0.063223

> <site>
active-covalent

$$$$
DB06727
  -OEChem-04122014263D

 45 48  0     1  0  0  0  0  0999 V2000
   13.1841    0.9279   22.7607 C   0  0  0  0  0  0  0  0  0  0  0  0
    8.1463    7.5917   23.4813 C   0  0  0  0  0  0  0  0  0  0  0  0
   13.2781    1.7485   21.4764 C   0  0  0  0  0  0  0  0  0  0  0  0
    7.8992    6.9417   22.1219 C   0  0  0  0  0  0  0  0  0  0  0  0
   12.3006    1.5826   23.8252 C   0  0  0  0  0  0  0  0  0  0  0  0
    9.1382    6.8102   24.3461 C   0  0  0  0  0  0  0  0  0  0  0  0
   10.7791    4.1279   25.1360 C   0  0  0  0  0  0  0  0  0  0  0  0
   13.3149    3.2365   21.7708 C   0  0  0  0  0  0  0  0  0  0  0  0
    7.8840    5.4281   22.2256 C   0  0  0  0  0  0  0  0  0  0  0  0
   12.3987    4.8654   23.4126 C   0  0  0  0  0  0  0  0  0  0  0  0
    8.9694    3.6070   23.5266 C   0  0  0  0  0  0  0  0  0  0  0  0
   11.2236    5.3097   24.2902 C   0  0  1  0  0  0  0  0  0  0  0  0
   10.2332    3.0618   24.2003 C   0  0  1  0  0  0  0  0  0  0  0  0
   11.2935    2.5511   23.1997 C   0  0  1  0  0  0  0  0  0  0  0  0
   10.0605    5.9376   23.4907 C   0  0  1  0  0  0  0  0  0  0  0  0
   12.0659    3.6844   22.5275 N   0  3  2  0  0  0  0  0  0  0  0  0
    9.2080    4.8952   22.7700 N   0  3  2  0  0  0  0  0  0  0  0  0
   12.7911   -0.0783   22.5277 H   0  0  0  0  0  0  0  0  0  0  0  0
   14.1966    0.7684   23.1710 H   0  0  0  0  0  0  0  0  0  0  0  0
    8.5205    8.6213   23.3356 H   0  0  0  0  0  0  0  0  0  0  0  0
    7.1886    7.6926   24.0210 H   0  0  0  0  0  0  0  0  0  0  0  0
   14.1663    1.4481   20.9075 H   0  0  0  0  0  0  0  0  0  0  0  0
   12.4123    1.5241   20.8419 H   0  0  0  0  0  0  0  0  0  0  0  0
    6.9543    7.3068   21.7014 H   0  0  0  0  0  0  0  0  0  0  0  0
    8.6886    7.2512   21.4264 H   0  0  0  0  0  0  0  0  0  0  0  0
   11.7688    0.7969   24.3664 H   0  0  0  0  0  0  0  0  0  0  0  0
   12.9485    2.0848   24.5447 H   0  0  0  0  0  0  0  0  0  0  0  0
    9.7339    7.5223   24.9212 H   0  0  0  0  0  0  0  0  0  0  0  0
    8.5708    6.2148   25.0624 H   0  0  0  0  0  0  0  0  0  0  0  0
   11.6162    3.7489   25.7335 H   0  0  0  0  0  0  0  0  0  0  0  0
   10.0161    4.4208   25.8665 H   0  0  0  0  0  0  0  0  0  0  0  0
   14.1827    3.5154   22.3725 H   0  0  0  0  0  0  0  0  0  0  0  0
   13.3310    3.8193   20.8454 H   0  0  0  0  0  0  0  0  0  0  0  0
    7.0889    5.0689   22.8827 H   0  0  0  0  0  0  0  0  0  0  0  0
    7.7566    4.9685   21.2414 H   0  0  0  0  0  0  0  0  0  0  0  0
   12.7235    5.6795   22.7507 H   0  0  0  0  0  0  0  0  0  0  0  0
   13.2514    4.5687   24.0376 H   0  0  0  0  0  0  0  0  0  0  0  0
    8.5657    2.8830   22.8060 H   0  0  0  0  0  0  0  0  0  0  0  0
    8.1953    3.8137   24.2774 H   0  0  0  0  0  0  0  0  0  0  0  0
   11.6222    6.0839   24.9606 H   0  0  0  0  0  0  0  0  0  0  0  0
    9.9075    2.2047   24.8059 H   0  0  0  0  0  0  0  0  0  0  0  0
   10.7866    2.0287   22.3638 H   0  0  0  0  0  0  0  0  0  0  0  0
   10.4731    6.5672   22.6771 H   0  0  0  0  0  0  0  0  0  0  0  0
   11.4998    4.0501   21.7886 H   0  0  0  0  0  0  0  0  0  0  0  0
    9.6830    4.6326   21.9301 H   0  0  0  0  0  0  0  0  0  0  0  0
  1  3  1  0  0  0  0
  1  5  1  0  0  0  0
  2  4  1  0  0  0  0
  2  6  1  0  0  0  0
  3  8  1  0  0  0  0
  4  9  1  0  0  0  0
  5 14  1  0  0  0  0
  6 15  1  0  0  0  0
  7 12  1  0  0  0  0
  7 13  1  0  0  0  0
  8 16  1  0  0  0  0
  9 17  1  0  0  0  0
 10 12  1  0  0  0  0
 10 16  1  0  0  0  0
 11 13  1  0  0  0  0
 11 17  1  0  0  0  0
 12 15  1  0  0  0  0
 13 14  1  0  0  0  0
 14 16  1  0  0  0  0
 15 17  1  0  0  0  0
  1 18  1  0  0  0  0
  1 19  1  0  0  0  0
  2 20  1  0  0  0  0
  2 21  1  0  0  0  0
  3 22  1  0  0  0  0
  3 23  1  0  0  0  0
  4 24  1  0  0  0  0
  4 25  1  0  0  0  0
  5 26  1  0  0  0  0
  5 27  1  0  0  0  0
  6 28  1  0  0  0  0
  6 29  1  0  0  0  0
  7 30  1  0  0  0  0
  7 31  1  0  0  0  0
  8 32  1  0  0  0  0
  8 33  1  0  0  0  0
  9 34  1  0  0  0  0
  9 35  1  0  0  0  0
 10 36  1  0  0  0  0
 10 37  1  0  0  0  0
 11 38  1  0  0  0  0
 11 39  1  0  0  0  0
 12 40  1  0  0  0  0
 13 41  1  0  0  0  0
 14 42  1  0  0  0  0
 15 43  1  0  0  0  0
 16 44  1  0  0  0  0
 17 45  1  0  0  0  0
M  CHG  2  16   1  17   1
M  END
> <Hybrid2>
-7.861896

> <docked_fragment>
x0104

> <Mpro-_dock>
-0.257877

> <site>
active-noncovalent

$$$$
DB04734
  -OEChem-04122014263D

 13 12  0     0  0  0  0  0  0999 V2000
    7.4735   -0.2992   19.9478 C   0  0  0  0  0  0  0  0  0  0  0  0
    7.3911   -1.6379   19.9834 C   0  0  0  0  0  0  0  0  0  0  0  0
    6.6680    0.5510   18.9649 C   0  0  0  0  0  0  0  0  0  0  0  0
    6.4297   -2.2817   18.9688 C   0  0  0  0  0  0  0  0  0  0  0  0
    8.1462   -2.5694   20.8814 C   0  0  0  0  0  0  0  0  0  0  0  0
    6.8987    0.3009   17.7467 O   0  5  0  0  0  0  0  0  0  0  0  0
    6.7031   -2.0464   17.7560 O   0  5  0  0  0  0  0  0  0  0  0  0
    5.8512    1.3667   19.4786 O   0  0  0  0  0  0  0  0  0  0  0  0
    5.4768   -2.9509   19.4618 O   0  0  0  0  0  0  0  0  0  0  0  0
    8.1282    0.2254   20.6439 H   0  0  0  0  0  0  0  0  0  0  0  0
    7.5879   -2.7411   21.8069 H   0  0  0  0  0  0  0  0  0  0  0  0
    9.1399   -2.1947   21.1415 H   0  0  0  0  0  0  0  0  0  0  0  0
    8.2931   -3.5348   20.3851 H   0  0  0  0  0  0  0  0  0  0  0  0
  1  2  2  0  0  0  0
  1  3  1  0  0  0  0
  2  4  1  0  0  0  0
  2  5  1  0  0  0  0
  3  6  1  0  0  0  0
  3  8  2  0  0  0  0
  4  7  1  0  0  0  0
  4  9  2  0  0  0  0
  1 10  1  0  0  0  0
  5 11  1  0  0  0  0
  5 12  1  0  0  0  0
  5 13  1  0  0  0  0
M  CHG  2   6  -1   7  -1
M  END
> <Hybrid2>
-7.826240

> <docked_fragment>
x0397

> <Mpro-_dock>
0.42193

> <site>
active-noncovalent

$$$$
CHEMBL2104153
  -OEChem-04122014263D

 45 47  0     1  0  0  0  0  0999 V2000
   13.7504   -2.1893   24.6445 C   0  0  0  0  0  0  0  0  0  0  0  0
    9.6646    5.2956   25.0969 C   0  0  0  0  0  0  0  0  0  0  0  0
   10.3466    5.9903   24.1095 C   0  0  0  0  0  0  0  0  0  0  0  0
   14.2094   -0.3985   23.0542 C   0  0  0  0  0  0  0  0  0  0  0  0
    9.8260    3.9125   25.2160 C   0  0  0  0  0  0  0  0  0  0  0  0
   11.1934    5.3015   23.2476 C   0  0  0  0  0  0  0  0  0  0  0  0
   13.8901    0.8414   22.5110 C   0  0  0  0  0  0  0  0  0  0  0  0
   12.3172   -0.2068   24.5361 C   0  0  0  0  0  0  0  0  0  0  0  0
   13.4240   -0.9217   24.0701 C   0  0  0  0  0  0  0  0  0  0  0  0
   10.6680    3.1804   24.3504 C   0  0  0  0  0  0  0  0  0  0  0  0
   11.9575    1.0485   23.9987 C   0  0  0  0  0  0  0  0  0  0  0  0
   11.3633    3.9106   23.3662 C   0  0  0  0  0  0  0  0  0  0  0  0
   12.7805    1.5673   22.9796 C   0  0  0  0  0  0  0  0  0  0  0  0
    7.6527    1.9391   24.2845 C   0  0  0  0  0  0  0  0  0  0  0  0
    8.4542   -2.0932   23.6937 C   0  0  0  0  0  0  0  0  0  0  0  0
    9.7420   -1.6860   21.6017 C   0  0  0  0  0  0  0  0  0  0  0  0
    9.8204    1.0378   25.2308 C   0  0  0  0  0  0  0  0  0  0  0  0
    8.9164    0.2380   22.9496 C   0  0  0  0  0  0  0  0  0  0  0  0
    8.5870    0.7267   24.3659 C   0  0  2  0  0  0  0  0  0  0  0  0
   14.0155   -3.2183   25.1109 N   0  0  0  0  0  0  0  0  0  0  0  0
   10.8417    1.7792   24.4796 N   0  0  0  0  0  0  0  0  0  0  0  0
    9.4016   -1.1626   22.9761 N   0  3  0  0  0  0  0  0  0  0  0  0
   12.4551    3.1324   22.1927 S   0  0  0  0  0  0  0  0  0  0  0  0
    9.0095    5.8252   25.7823 H   0  0  0  0  0  0  0  0  0  0  0  0
   10.2236    7.0645   24.0116 H   0  0  0  0  0  0  0  0  0  0  0  0
   15.0737   -0.9389   22.6766 H   0  0  0  0  0  0  0  0  0  0  0  0
    9.2883    3.4238   26.0253 H   0  0  0  0  0  0  0  0  0  0  0  0
   11.7217    5.8644   22.4807 H   0  0  0  0  0  0  0  0  0  0  0  0
   14.5197    1.2362   21.7158 H   0  0  0  0  0  0  0  0  0  0  0  0
   11.7434   -0.6395   25.3542 H   0  0  0  0  0  0  0  0  0  0  0  0
    8.1494    2.7756   23.7806 H   0  0  0  0  0  0  0  0  0  0  0  0
    6.7495    1.6976   23.7145 H   0  0  0  0  0  0  0  0  0  0  0  0
    7.3471    2.2817   25.2787 H   0  0  0  0  0  0  0  0  0  0  0  0
    7.5094   -2.0944   23.1471 H   0  0  0  0  0  0  0  0  0  0  0  0
    8.9045   -3.0876   23.7016 H   0  0  0  0  0  0  0  0  0  0  0  0
    8.3197   -1.7152   24.7090 H   0  0  0  0  0  0  0  0  0  0  0  0
    8.8279   -1.6775   21.0053 H   0  0  0  0  0  0  0  0  0  0  0  0
   10.4980   -1.0268   21.1709 H   0  0  0  0  0  0  0  0  0  0  0  0
   10.1261   -2.7014   21.7166 H   0  0  0  0  0  0  0  0  0  0  0  0
    9.5234    1.6305   26.1035 H   0  0  0  0  0  0  0  0  0  0  0  0
   10.2623    0.1141   25.6186 H   0  0  0  0  0  0  0  0  0  0  0  0
    9.6950    0.8358   22.4660 H   0  0  0  0  0  0  0  0  0  0  0  0
    8.0242    0.2407   22.3151 H   0  0  0  0  0  0  0  0  0  0  0  0
    8.0314   -0.0706   24.8785 H   0  0  0  0  0  0  0  0  0  0  0  0
   10.2844   -1.1827   23.5156 H   0  0  0  0  0  0  0  0  0  0  0  0
  1  9  1  0  0  0  0
  1 20  3  0  0  0  0
  2  3  1  0  0  0  0
  2  5  2  0  0  0  0
  3  6  2  0  0  0  0
  4  7  1  0  0  0  0
  4  9  2  0  0  0  0
  5 10  1  0  0  0  0
  6 12  1  0  0  0  0
  7 13  2  0  0  0  0
  8  9  1  0  0  0  0
  8 11  2  0  0  0  0
 10 12  2  0  0  0  0
 10 21  1  0  0  0  0
 11 13  1  0  0  0  0
 11 21  1  0  0  0  0
 12 23  1  0  0  0  0
 13 23  1  0  0  0  0
 14 19  1  0  0  0  0
 15 22  1  0  0  0  0
 16 22  1  0  0  0  0
 17 19  1  0  0  0  0
 17 21  1  0  0  0  0
 18 19  1  0  0  0  0
 18 22  1  0  0  0  0
  2 24  1  0  0  0  0
  3 25  1  0  0  0  0
  4 26  1  0  0  0  0
  5 27  1  0  0  0  0
  6 28  1  0  0  0  0
  7 29  1  0  0  0  0
  8 30  1  0  0  0  0
 14 31  1  0  0  0  0
 14 32  1  0  0  0  0
 14 33  1  0  0  0  0
 15 34  1  0  0  0  0
 15 35  1  0  0  0  0
 15 36  1  0  0  0  0
 16 37  1  0  0  0  0
 16 38  1  0  0  0  0
 16 39  1  0  0  0  0
 17 40  1  0  0  0  0
 17 41  1  0  0  0  0
 18 42  1  0  0  0  0
 18 43  1  0  0  0  0
 19 44  1  0  0  0  0
 22 45  1  0  0  0  0
M  CHG  1  22   1
M  END
> <Hybrid2>
-7.819659

> <docked_fragment>
x0161

> <Mpro-_dock>
1.361696

> <site>
active-noncovalent

$$$$
CHEMBL343803
  -OEChem-04122014263D

 21 21  0     1  0  0  0  0  0999 V2000
    8.7697   -3.1981   24.1196 C   0  0  0  0  0  0  0  0  0  0  0  0
    8.5700   -2.3274   23.1244 C   0  0  0  0  0  0  0  0  0  0  0  0
    7.3573   -4.9369   26.3706 C   0  0  0  0  0  0  0  0  0  0  0  0
    8.4996   -2.9072   25.5750 C   0  0  0  0  0  0  0  0  0  0  0  0
    9.3128   -4.5891   23.9403 C   0  0  0  0  0  0  0  0  0  0  0  0
    8.7157   -4.2563   26.2646 C   0  0  2  0  0  0  0  0  0  0  0  0
    9.7266   -4.9483   25.3609 C   0  0  1  0  0  0  0  0  0  0  0  0
    9.7501   -6.4107   25.5536 N   0  3  0  0  0  0  0  0  0  0  0  0
    7.3833   -6.1986   26.3473 O   0  5  0  0  0  0  0  0  0  0  0  0
    6.3759   -4.1481   26.4685 O   0  0  0  0  0  0  0  0  0  0  0  0
    8.7854   -2.6025   22.0998 H   0  0  0  0  0  0  0  0  0  0  0  0
    8.1900   -1.3345   23.3285 H   0  0  0  0  0  0  0  0  0  0  0  0
    9.2344   -2.1812   25.9425 H   0  0  0  0  0  0  0  0  0  0  0  0
    7.4931   -2.5038   25.7289 H   0  0  0  0  0  0  0  0  0  0  0  0
    8.5194   -5.2471   23.5672 H   0  0  0  0  0  0  0  0  0  0  0  0
   10.1636   -4.6244   23.2528 H   0  0  0  0  0  0  0  0  0  0  0  0
    9.0999   -4.1261   27.2821 H   0  0  0  0  0  0  0  0  0  0  0  0
   10.7412   -4.5878   25.5725 H   0  0  0  0  0  0  0  0  0  0  0  0
    9.3804   -6.6736   26.4767 H   0  0  0  0  0  0  0  0  0  0  0  0
   10.7071   -6.7821   25.4867 H   0  0  0  0  0  0  0  0  0  0  0  0
    9.1813   -6.8918   24.8442 H   0  0  0  0  0  0  0  0  0  0  0  0
  1  2  2  0  0  0  0
  1  4  1  0  0  0  0
  1  5  1  0  0  0  0
  3  6  1  0  0  0  0
  3  9  1  0  0  0  0
  3 10  2  0  0  0  0
  4  6  1  0  0  0  0
  5  7  1  0  0  0  0
  6  7  1  0  0  0  0
  7  8  1  0  0  0  0
  2 11  1  0  0  0  0
  2 12  1  0  0  0  0
  4 13  1  0  0  0  0
  4 14  1  0  0  0  0
  5 15  1  0  0  0  0
  5 16  1  0  0  0  0
  6 17  1  0  0  0  0
  7 18  1  0  0  0  0
  8 19  1  0  0  0  0
  8 20  1  0  0  0  0
  8 21  1  0  0  0  0
M  CHG  2   8   1   9  -1
M  END
> <Hybrid2>
-7.806792

> <docked_fragment>
x1077

> <Mpro-_dock>
-0.115929

> <site>
active-noncovalent

$$$$
CHEMBL2111168
  -OEChem-04122014263D

 34 33  0     0  0  0  0  0  0999 V2000
    8.8353   -0.5159   20.5030 C   0  0  0  0  0  0  0  0  0  0  0  0
   14.1116   -2.1082   22.7321 C   0  0  0  0  0  0  0  0  0  0  0  0
   13.1321   -0.3236   21.2964 C   0  0  0  0  0  0  0  0  0  0  0  0
   13.0665   -0.1273   23.7994 C   0  0  0  0  0  0  0  0  0  0  0  0
    9.1372   -2.1964   22.9187 C   0  0  0  0  0  0  0  0  0  0  0  0
   10.0643    0.1095   23.1348 C   0  0  0  0  0  0  0  0  0  0  0  0
   11.6183   -1.9142   22.6539 C   0  0  0  0  0  0  0  0  0  0  0  0
   12.9463   -1.0965   22.6093 C   0  0  0  0  0  0  0  0  0  0  0  0
   10.2416   -1.2385   22.4442 C   0  0  0  0  0  0  0  0  0  0  0  0
    8.6943   -0.3647   19.1276 N   0  0  0  0  0  0  0  0  0  0  0  0
    7.7914   -0.1309   21.3380 N   0  0  0  0  0  0  0  0  0  0  0  0
   10.0189   -1.0481   21.0014 N   0  3  0  0  0  0  0  0  0  0  0  0
   14.0334   -2.6934   23.6554 H   0  0  0  0  0  0  0  0  0  0  0  0
   14.1168   -2.8153   21.8946 H   0  0  0  0  0  0  0  0  0  0  0  0
   15.0805   -1.5959   22.7407 H   0  0  0  0  0  0  0  0  0  0  0  0
   12.3402    0.4146   21.1407 H   0  0  0  0  0  0  0  0  0  0  0  0
   14.0816    0.2246   21.2943 H   0  0  0  0  0  0  0  0  0  0  0  0
   13.1443   -1.0017   20.4361 H   0  0  0  0  0  0  0  0  0  0  0  0
   12.2830    0.6323   23.8039 H   0  0  0  0  0  0  0  0  0  0  0  0
   13.0230   -0.6637   24.7538 H   0  0  0  0  0  0  0  0  0  0  0  0
   14.0209    0.4120   23.7701 H   0  0  0  0  0  0  0  0  0  0  0  0
    9.2318   -3.1784   22.4427 H   0  0  0  0  0  0  0  0  0  0  0  0
    9.1773   -2.3398   24.0046 H   0  0  0  0  0  0  0  0  0  0  0  0
    8.1426   -1.7991   22.6858 H   0  0  0  0  0  0  0  0  0  0  0  0
   10.8394    0.8169   22.8162 H   0  0  0  0  0  0  0  0  0  0  0  0
   10.1644    0.0275   24.2204 H   0  0  0  0  0  0  0  0  0  0  0  0
    9.0921    0.5538   22.8981 H   0  0  0  0  0  0  0  0  0  0  0  0
   11.5916   -2.4462   23.6161 H   0  0  0  0  0  0  0  0  0  0  0  0
   11.6973   -2.7042   21.8918 H   0  0  0  0  0  0  0  0  0  0  0  0
    7.8438    0.0211   18.7244 H   0  0  0  0  0  0  0  0  0  0  0  0
    9.4377   -0.6360   18.4886 H   0  0  0  0  0  0  0  0  0  0  0  0
    7.8500   -0.2226   22.3488 H   0  0  0  0  0  0  0  0  0  0  0  0
    6.9325    0.2576   20.9556 H   0  0  0  0  0  0  0  0  0  0  0  0
   10.7495   -1.3129   20.3516 H   0  0  0  0  0  0  0  0  0  0  0  0
  1 10  1  0  0  0  0
  1 11  1  0  0  0  0
  1 12  2  0  0  0  0
  2  8  1  0  0  0  0
  3  8  1  0  0  0  0
  4  8  1  0  0  0  0
  5  9  1  0  0  0  0
  6  9  1  0  0  0  0
  7  8  1  0  0  0  0
  7  9  1  0  0  0  0
  9 12  1  0  0  0  0
  2 13  1  0  0  0  0
  2 14  1  0  0  0  0
  2 15  1  0  0  0  0
  3 16  1  0  0  0  0
  3 17  1  0  0  0  0
  3 18  1  0  0  0  0
  4 19  1  0  0  0  0
  4 20  1  0  0  0  0
  4 21  1  0  0  0  0
  5 22  1  0  0  0  0
  5 23  1  0  0  0  0
  5 24  1  0  0  0  0
  6 25  1  0  0  0  0
  6 26  1  0  0  0  0
  6 27  1  0  0  0  0
  7 28  1  0  0  0  0
  7 29  1  0  0  0  0
 10 30  1  0  0  0  0
 10 31  1  0  0  0  0
 11 32  1  0  0  0  0
 11 33  1  0  0  0  0
 12 34  1  0  0  0  0
M  CHG  1  12   1
M  END
> <Hybrid2>
-7.803427

> <docked_fragment>
x0678

> <Mpro-_dock>
-0.775995

> <site>
active-noncovalent

$$$$
CHEMBL1201064
  -OEChem-04122014263D

 61 64  0     1  0  0  0  0  0999 V2000
   11.2802    2.9387   24.1833 C   0  0  0  0  0  0  0  0  0  0  0  0
   13.0206    1.3577   23.2600 C   0  0  0  0  0  0  0  0  0  0  0  0
   10.3274    2.1549   23.6724 C   0  0  0  0  0  0  0  0  0  0  0  0
   12.0677    0.5614   22.7440 C   0  0  0  0  0  0  0  0  0  0  0  0
   12.6990    2.5946   24.0021 C   0  0  0  0  0  0  0  0  0  0  0  0
    6.3734   -4.5294   24.7103 C   0  0  0  0  0  0  0  0  0  0  0  0
    8.0935   -5.1525   26.7656 C   0  0  0  0  0  0  0  0  0  0  0  0
    9.8013   -4.2858   23.2530 C   0  0  0  0  0  0  0  0  0  0  0  0
    8.7298   -5.1007   24.0045 C   0  0  0  0  0  0  0  0  0  0  0  0
   11.7130   -1.9085   22.7408 C   0  0  0  0  0  0  0  0  0  0  0  0
    7.7775   -1.4375   24.6647 C   0  0  0  0  0  0  0  0  0  0  0  0
   12.3867   -0.7388   22.0099 C   0  0  2  0  0  0  0  0  0  0  0  0
    9.5953   -2.8531   23.7386 C   0  0  1  0  0  0  0  0  0  0  0  0
   10.1971   -1.7023   22.9166 C   0  0  1  0  0  0  0  0  0  0  0  0
    8.3785   -0.1899   23.9789 C   0  0  1  0  0  0  0  0  0  0  0  0
   10.5627    0.8758   22.8813 C   0  0  1  0  0  0  0  0  0  0  0  0
    7.8010   -4.0701   24.6859 C   0  0  1  0  0  0  0  0  0  0  0  0
    8.0637   -2.7495   23.9091 C   0  0  1  0  0  0  0  0  0  0  0  0
    9.8898   -0.3426   23.6273 C   0  0  2  0  0  0  0  0  0  0  0  0
    5.3755   -3.6035   25.3516 C   0  0  0  0  0  0  0  0  0  0  0  0
    9.4438   -5.5128   27.3067 C   0  0  0  0  0  0  0  0  0  0  0  0
   13.8744   -1.0601   21.8094 C   0  0  0  0  0  0  0  0  0  0  0  0
    9.9985    1.1447   21.4659 C   0  0  0  0  0  0  0  0  0  0  0  0
    7.2917   -2.7830   22.5603 C   0  0  0  0  0  0  0  0  0  0  0  0
   13.5862    3.3111   24.4536 O   0  0  0  0  0  0  0  0  0  0  0  0
    6.0347   -5.6090   24.2278 O   0  0  0  0  0  0  0  0  0  0  0  0
    7.0833   -5.8193   26.9445 O   0  0  0  0  0  0  0  0  0  0  0  0
    7.5868    0.1339   22.8472 O   0  0  0  0  0  0  0  0  0  0  0  0
    8.1752   -3.9868   26.0575 O   0  0  0  0  0  0  0  0  0  0  0  0
   10.5206   -0.4162   24.8605 F   0  0  0  0  0  0  0  0  0  0  0  0
   11.0364    3.8431   24.7282 H   0  0  0  0  0  0  0  0  0  0  0  0
   14.0775    1.1342   23.1727 H   0  0  0  0  0  0  0  0  0  0  0  0
    9.2974    2.4734   23.8175 H   0  0  0  0  0  0  0  0  0  0  0  0
   10.8068   -4.6553   23.4793 H   0  0  0  0  0  0  0  0  0  0  0  0
    9.6551   -4.3679   22.1701 H   0  0  0  0  0  0  0  0  0  0  0  0
    8.1919   -5.7372   23.2925 H   0  0  0  0  0  0  0  0  0  0  0  0
    9.2097   -5.7587   24.7380 H   0  0  0  0  0  0  0  0  0  0  0  0
   11.8889   -2.8306   22.1727 H   0  0  0  0  0  0  0  0  0  0  0  0
   12.1842   -2.0519   23.7230 H   0  0  0  0  0  0  0  0  0  0  0  0
    8.1955   -1.4913   25.6776 H   0  0  0  0  0  0  0  0  0  0  0  0
    6.6935   -1.3111   24.7775 H   0  0  0  0  0  0  0  0  0  0  0  0
   11.9608   -0.6685   21.0011 H   0  0  0  0  0  0  0  0  0  0  0  0
   10.0632   -2.8018   24.7354 H   0  0  0  0  0  0  0  0  0  0  0  0
    9.7524   -1.7027   21.9166 H   0  0  0  0  0  0  0  0  0  0  0  0
    8.2608    0.6256   24.7031 H   0  0  0  0  0  0  0  0  0  0  0  0
    4.9690   -2.9215   24.5996 H   0  0  0  0  0  0  0  0  0  0  0  0
    5.8682   -3.0171   26.1310 H   0  0  0  0  0  0  0  0  0  0  0  0
    4.5565   -4.1870   25.7791 H   0  0  0  0  0  0  0  0  0  0  0  0
    9.9785   -6.1353   26.5851 H   0  0  0  0  0  0  0  0  0  0  0  0
    9.3338   -6.0357   28.2601 H   0  0  0  0  0  0  0  0  0  0  0  0
   10.0222   -4.5999   27.4757 H   0  0  0  0  0  0  0  0  0  0  0  0
   14.3596   -1.1439   22.7775 H   0  0  0  0  0  0  0  0  0  0  0  0
   14.3419   -0.2642   21.2370 H   0  0  0  0  0  0  0  0  0  0  0  0
   13.9719   -1.9991   21.2721 H   0  0  0  0  0  0  0  0  0  0  0  0
   10.1418    0.2602   20.8591 H   0  0  0  0  0  0  0  0  0  0  0  0
   10.5281    1.9829   21.0324 H   0  0  0  0  0  0  0  0  0  0  0  0
    8.9439    1.3729   21.5480 H   0  0  0  0  0  0  0  0  0  0  0  0
    7.5163   -3.7137   22.0611 H   0  0  0  0  0  0  0  0  0  0  0  0
    7.6151   -1.9452   21.9608 H   0  0  0  0  0  0  0  0  0  0  0  0
    6.2348   -2.7121   22.7698 H   0  0  0  0  0  0  0  0  0  0  0  0
    6.6887    0.3125   23.1721 H   0  0  0  0  0  0  0  0  0  0  0  0
  1  3  2  0  0  0  0
  1  5  1  0  0  0  0
  2  4  2  0  0  0  0
  2  5  1  0  0  0  0
  3 16  1  0  0  0  0
  4 12  1  0  0  0  0
  4 16  1  0  0  0  0
  5 25  2  0  0  0  0
  6 17  1  0  0  0  0
  6 20  1  0  0  0  0
  6 26  2  0  0  0  0
  7 21  1  0  0  0  0
  7 27  2  0  0  0  0
  7 29  1  0  0  0  0
  8  9  1  0  0  0  0
  8 13  1  0  0  0  0
  9 17  1  0  0  0  0
 10 12  1  0  0  0  0
 10 14  1  0  0  0  0
 11 15  1  0  0  0  0
 11 18  1  0  0  0  0
 12 22  1  0  0  0  0
 13 14  1  0  0  0  0
 13 18  1  0  0  0  0
 14 19  1  0  0  0  0
 15 19  1  0  0  0  0
 15 28  1  0  0  0  0
 16 19  1  0  0  0  0
 16 23  1  0  0  0  0
 17 18  1  0  0  0  0
 17 29  1  0  0  0  0
 18 24  1  0  0  0  0
 19 30  1  0  0  0  0
  1 31  1  0  0  0  0
  2 32  1  0  0  0  0
  3 33  1  0  0  0  0
  8 34  1  0  0  0  0
  8 35  1  0  0  0  0
  9 36  1  0  0  0  0
  9 37  1  0  0  0  0
 10 38  1  0  0  0  0
 10 39  1  0  0  0  0
 11 40  1  0  0  0  0
 11 41  1  0  0  0  0
 12 42  1  0  0  0  0
 13 43  1  0  0  0  0
 14 44  1  0  0  0  0
 15 45  1  0  0  0  0
 20 46  1  0  0  0  0
 20 47  1  0  0  0  0
 20 48  1  0  0  0  0
 21 49  1  0  0  0  0
 21 50  1  0  0  0  0
 21 51  1  0  0  0  0
 22 52  1  0  0  0  0
 22 53  1  0  0  0  0
 22 54  1  0  0  0  0
 23 55  1  0  0  0  0
 23 56  1  0  0  0  0
 23 57  1  0  0  0  0
 24 58  1  0  0  0  0
 24 59  1  0  0  0  0
 24 60  1  0  0  0  0
 28 61  1  0  0  0  0
M  END
> <Hybrid2>
-7.794777

> <docked_fragment>
x0874

> <Mpro-_dock>
4.819222

> <site>
active-noncovalent

$$$$
DB03056
  -OEChem-04122014263D

 34 35  0     0  0  0  0  0  0999 V2000
   13.4138   -2.0903   22.7416 C   0  0  0  0  0  0  0  0  0  0  0  0
   14.2391   -1.1306   21.8911 C   0  0  0  0  0  0  0  0  0  0  0  0
   12.0109   -1.5449   22.9859 C   0  0  0  0  0  0  0  0  0  0  0  0
   11.3649    2.6491   23.2425 C   0  0  0  0  0  0  0  0  0  0  0  0
   13.6271    3.0527   22.1841 C   0  0  0  0  0  0  0  0  0  0  0  0
   14.2664    0.2696   22.4871 C   0  0  0  0  0  0  0  0  0  0  0  0
   12.0460   -0.1432   23.5776 C   0  0  0  0  0  0  0  0  0  0  0  0
   11.2823    4.1255   23.6028 C   0  0  0  0  0  0  0  0  0  0  0  0
   13.5247    4.5257   22.5533 C   0  0  0  0  0  0  0  0  0  0  0  0
   12.8188    2.1889   23.1507 C   0  0  0  0  0  0  0  0  0  0  0  0
   12.0839    4.9172   22.6206 N   0  3  0  0  0  0  0  0  0  0  0  0
   12.8511    0.7623   22.6759 N   0  3  0  0  0  0  0  0  0  0  0  0
   13.3518   -3.0658   22.2466 H   0  0  0  0  0  0  0  0  0  0  0  0
   13.9161   -2.2498   23.7036 H   0  0  0  0  0  0  0  0  0  0  0  0
   15.2632   -1.5099   21.8010 H   0  0  0  0  0  0  0  0  0  0  0  0
   13.8259   -1.0903   20.8755 H   0  0  0  0  0  0  0  0  0  0  0  0
   11.4515   -1.5320   22.0421 H   0  0  0  0  0  0  0  0  0  0  0  0
   11.4708   -2.2149   23.6643 H   0  0  0  0  0  0  0  0  0  0  0  0
   10.8613    2.0676   24.0140 H   0  0  0  0  0  0  0  0  0  0  0  0
   10.8425    2.4655   22.3065 H   0  0  0  0  0  0  0  0  0  0  0  0
   13.2923    2.9024   21.1603 H   0  0  0  0  0  0  0  0  0  0  0  0
   14.6720    2.7476   22.2311 H   0  0  0  0  0  0  0  0  0  0  0  0
   14.7572    0.2863   23.4651 H   0  0  0  0  0  0  0  0  0  0  0  0
   14.7679    0.9664   21.8097 H   0  0  0  0  0  0  0  0  0  0  0  0
   11.0366    0.2728   23.6422 H   0  0  0  0  0  0  0  0  0  0  0  0
   12.5156   -0.1303   24.5660 H   0  0  0  0  0  0  0  0  0  0  0  0
   10.2586    4.5112   23.5764 H   0  0  0  0  0  0  0  0  0  0  0  0
   11.7108    4.3192   24.5905 H   0  0  0  0  0  0  0  0  0  0  0  0
   13.9518    4.7190   23.5417 H   0  0  0  0  0  0  0  0  0  0  0  0
   14.0082    5.1804   21.8219 H   0  0  0  0  0  0  0  0  0  0  0  0
   13.2821    2.1839   24.1391 H   0  0  0  0  0  0  0  0  0  0  0  0
   11.6648    4.8159   21.6865 H   0  0  0  0  0  0  0  0  0  0  0  0
   12.0123    5.9182   22.8491 H   0  0  0  0  0  0  0  0  0  0  0  0
   12.3988    0.7509   21.7506 H   0  0  0  0  0  0  0  0  0  0  0  0
  1  2  1  0  0  0  0
  1  3  1  0  0  0  0
  2  6  1  0  0  0  0
  3  7  1  0  0  0  0
  4  8  1  0  0  0  0
  4 10  1  0  0  0  0
  5  9  1  0  0  0  0
  5 10  1  0  0  0  0
  6 12  1  0  0  0  0
  7 12  1  0  0  0  0
  8 11  1  0  0  0  0
  9 11  1  0  0  0  0
 10 12  1  0  0  0  0
  1 13  1  0  0  0  0
  1 14  1  0  0  0  0
  2 15  1  0  0  0  0
  2 16  1  0  0  0  0
  3 17  1  0  0  0  0
  3 18  1  0  0  0  0
  4 19  1  0  0  0  0
  4 20  1  0  0  0  0
  5 21  1  0  0  0  0
  5 22  1  0  0  0  0
  6 23  1  0  0  0  0
  6 24  1  0  0  0  0
  7 25  1  0  0  0  0
  7 26  1  0  0  0  0
  8 27  1  0  0  0  0
  8 28  1  0  0  0  0
  9 29  1  0  0  0  0
  9 30  1  0  0  0  0
 10 31  1  0  0  0  0
 11 32  1  0  0  0  0
 11 33  1  0  0  0  0
 12 34  1  0  0  0  0
M  CHG  2  11   1  12   1
M  END
> <Hybrid2>
-7.741867

> <docked_fragment>
x0195

> <Mpro-_dock>
-1.50231

> <site>
active-noncovalent

$$$$
CHEMBL334786
  -OEChem-04122014263D

 25 25  0     0  0  0  0  0  0999 V2000
   13.7375    2.2471   22.3857 C   0  0  0  0  0  0  0  0  0  0  0  0
   12.6018    2.3981   23.1301 C   0  0  0  0  0  0  0  0  0  0  0  0
   13.0851    0.2393   23.0517 C   0  0  0  0  0  0  0  0  0  0  0  0
   14.2372   -1.9562   22.5979 C   0  0  0  0  0  0  0  0  0  0  0  0
   11.7225   -1.8593   22.7458 C   0  0  0  0  0  0  0  0  0  0  0  0
   11.0580    0.8350   24.3408 C   0  0  0  0  0  0  0  0  0  0  0  0
   13.0388   -1.2641   23.2520 C   0  0  0  0  0  0  0  0  0  0  0  0
   12.2198    1.1399   23.5288 N   0  0  0  0  0  0  0  0  0  0  0  0
   14.0137    0.9015   22.3540 N   0  3  0  0  0  0  0  0  0  0  0  0
   11.9369    3.6448   23.4329 N   0  0  0  0  0  0  0  0  0  0  0  0
   12.7673    4.4830   24.1276 O   0  5  0  0  0  0  0  0  0  0  0  0
   10.8325    3.4303   24.2131 O   0  0  0  0  0  0  0  0  0  0  0  0
   14.4059    2.9018   21.8622 H   0  0  0  0  0  0  0  0  0  0  0  0
   14.2615   -1.7971   21.5144 H   0  0  0  0  0  0  0  0  0  0  0  0
   14.2008   -3.0368   22.7743 H   0  0  0  0  0  0  0  0  0  0  0  0
   15.1798   -1.5807   23.0116 H   0  0  0  0  0  0  0  0  0  0  0  0
   11.6015   -1.6843   21.6709 H   0  0  0  0  0  0  0  0  0  0  0  0
   10.8704   -1.3995   23.2582 H   0  0  0  0  0  0  0  0  0  0  0  0
   11.6688   -2.9400   22.9165 H   0  0  0  0  0  0  0  0  0  0  0  0
   10.2120    0.6662   23.6693 H   0  0  0  0  0  0  0  0  0  0  0  0
   11.2560   -0.0591   24.9385 H   0  0  0  0  0  0  0  0  0  0  0  0
   10.8543    1.6754   25.0103 H   0  0  0  0  0  0  0  0  0  0  0  0
   13.0938   -1.4748   24.3283 H   0  0  0  0  0  0  0  0  0  0  0  0
   14.8024    0.4755   21.8747 H   0  0  0  0  0  0  0  0  0  0  0  0
   11.6404    4.1182   22.5479 H   0  0  0  0  0  0  0  0  0  0  0  0
  1  2  2  0  0  0  0
  1  9  1  0  0  0  0
  2  8  1  0  0  0  0
  2 10  1  0  0  0  0
  3  7  1  0  0  0  0
  3  8  1  0  0  0  0
  3  9  2  0  0  0  0
  4  7  1  0  0  0  0
  5  7  1  0  0  0  0
  6  8  1  0  0  0  0
 10 11  1  0  0  0  0
 10 12  2  0  0  0  0
  1 13  1  0  0  0  0
  4 14  1  0  0  0  0
  4 15  1  0  0  0  0
  4 16  1  0  0  0  0
  5 17  1  0  0  0  0
  5 18  1  0  0  0  0
  5 19  1  0  0  0  0
  6 20  1  0  0  0  0
  6 21  1  0  0  0  0
  6 22  1  0  0  0  0
  7 23  1  0  0  0  0
  9 24  1  0  0  0  0
 10 25  1  0  0  0  0
M  CHG  2   9   1  11  -1
M  END
> <Hybrid2>
-7.720927

> <docked_fragment>
x0195

> <Mpro-_dock>
1.611397

> <site>
active-noncovalent

$$$$
CHEMBL278488
  -OEChem-04122014263D

 25 26  0     1  0  0  0  0  0999 V2000
   11.7421   -2.9550   25.1489 C   0  0  0  0  0  0  0  0  0  0  0  0
   11.4531   -4.3186   25.2007 C   0  0  0  0  0  0  0  0  0  0  0  0
   10.7933   -2.0591   24.6561 C   0  0  0  0  0  0  0  0  0  0  0  0
   10.2154   -4.7864   24.7594 C   0  0  0  0  0  0  0  0  0  0  0  0
    9.5555   -2.5269   24.2148 C   0  0  0  0  0  0  0  0  0  0  0  0
    9.2665   -3.8906   24.2664 C   0  0  0  0  0  0  0  0  0  0  0  0
    7.4815   -4.8502   21.4331 C   0  0  0  0  0  0  0  0  0  0  0  0
    7.0292   -3.6757   21.8469 C   0  0  0  0  0  0  0  0  0  0  0  0
    8.0827   -5.3747   22.6524 C   0  0  0  0  0  0  0  0  0  0  0  0
    6.3047   -2.7232   20.9329 C   0  0  0  0  0  0  0  0  0  0  0  0
    7.9437   -4.3898   23.7945 C   0  0  1  0  0  0  0  0  0  0  0  0
    7.1106   -4.9566   24.9324 C   0  0  0  0  0  0  0  0  0  0  0  0
    5.2369   -3.1694   20.4183 O   0  5  0  0  0  0  0  0  0  0  0  0
    8.6278   -6.4666   22.7130 O   0  0  0  0  0  0  0  0  0  0  0  0
    6.8492   -1.5889   20.7874 O   0  0  0  0  0  0  0  0  0  0  0  0
    7.2231   -3.3017   23.1635 O   0  0  0  0  0  0  0  0  0  0  0  0
   12.7055   -2.5908   25.4938 H   0  0  0  0  0  0  0  0  0  0  0  0
   12.1914   -5.0161   25.5854 H   0  0  0  0  0  0  0  0  0  0  0  0
   11.0176   -0.9973   24.6167 H   0  0  0  0  0  0  0  0  0  0  0  0
    9.9990   -5.8506   24.8032 H   0  0  0  0  0  0  0  0  0  0  0  0
    8.8225   -1.8217   23.8322 H   0  0  0  0  0  0  0  0  0  0  0  0
    7.4336   -5.3203   20.4689 H   0  0  0  0  0  0  0  0  0  0  0  0
    6.1506   -5.3128   24.5551 H   0  0  0  0  0  0  0  0  0  0  0  0
    6.9282   -4.1875   25.6848 H   0  0  0  0  0  0  0  0  0  0  0  0
    7.6340   -5.7907   25.4029 H   0  0  0  0  0  0  0  0  0  0  0  0
  1  2  1  0  0  0  0
  1  3  2  0  0  0  0
  2  4  2  0  0  0  0
  3  5  1  0  0  0  0
  4  6  1  0  0  0  0
  5  6  2  0  0  0  0
  6 11  1  0  0  0  0
  7  8  2  0  0  0  0
  7  9  1  0  0  0  0
  8 10  1  0  0  0  0
  8 16  1  0  0  0  0
  9 11  1  0  0  0  0
  9 14  2  0  0  0  0
 10 13  1  0  0  0  0
 10 15  2  0  0  0  0
 11 12  1  0  0  0  0
 11 16  1  0  0  0  0
  1 17  1  0  0  0  0
  2 18  1  0  0  0  0
  3 19  1  0  0  0  0
  4 20  1  0  0  0  0
  5 21  1  0  0  0  0
  7 22  1  0  0  0  0
 12 23  1  0  0  0  0
 12 24  1  0  0  0  0
 12 25  1  0  0  0  0
M  CHG  1  13  -1
M  END
> <Hybrid2>
-7.713561

> <docked_fragment>
x0749

> <Mpro-_dock>
0.403537

> <site>
active-covalent

$$$$
CHEMBL94127
  -OEChem-04122014263D

 30 31  0     1  0  0  0  0  0999 V2000
   14.5639   -1.7685   23.1563 C   0  0  0  0  0  0  0  0  0  0  0  0
   13.8509   -1.8347   21.9593 C   0  0  0  0  0  0  0  0  0  0  0  0
   13.9667   -1.2274   24.2948 C   0  0  0  0  0  0  0  0  0  0  0  0
   12.5407   -1.3596   21.9007 C   0  0  0  0  0  0  0  0  0  0  0  0
   12.6565   -0.7523   24.2362 C   0  0  0  0  0  0  0  0  0  0  0  0
   11.9435   -0.8184   23.0392 C   0  0  0  0  0  0  0  0  0  0  0  0
   10.2301    0.2109   21.5627 C   0  0  0  0  0  0  0  0  0  0  0  0
    8.7472   -1.4849   21.9098 C   0  0  0  0  0  0  0  0  0  0  0  0
   10.5409   -0.3094   22.9771 C   0  0  2  0  0  0  0  0  0  0  0  0
   11.1928    1.9624   23.7909 C   0  0  0  0  0  0  0  0  0  0  0  0
    9.3998   -2.2406   24.2253 C   0  0  0  0  0  0  0  0  0  0  0  0
   10.2913    0.7892   24.0033 C   0  0  0  0  0  0  0  0  0  0  0  0
    9.1832   -0.5088   21.0410 N   0  0  0  0  0  0  0  0  0  0  0  0
    9.5514   -1.3954   23.0537 N   0  0  0  0  0  0  0  0  0  0  0  0
   10.8242    1.1267   21.0081 O   0  0  0  0  0  0  0  0  0  0  0  0
    7.8329   -2.2724   21.7041 O   0  0  0  0  0  0  0  0  0  0  0  0
   15.5835   -2.1397   23.2021 H   0  0  0  0  0  0  0  0  0  0  0  0
   14.3154   -2.2570   21.0730 H   0  0  0  0  0  0  0  0  0  0  0  0
   14.5211   -1.1767   25.2272 H   0  0  0  0  0  0  0  0  0  0  0  0
   11.9929   -1.4151   20.9637 H   0  0  0  0  0  0  0  0  0  0  0  0
   12.1994   -0.3322   25.1283 H   0  0  0  0  0  0  0  0  0  0  0  0
   12.2391    1.6415   23.8561 H   0  0  0  0  0  0  0  0  0  0  0  0
   11.0240    2.7274   24.5562 H   0  0  0  0  0  0  0  0  0  0  0  0
   11.0334    2.4019   22.8005 H   0  0  0  0  0  0  0  0  0  0  0  0
   10.0212   -3.1411   24.1114 H   0  0  0  0  0  0  0  0  0  0  0  0
    9.7180   -1.6865   25.1206 H   0  0  0  0  0  0  0  0  0  0  0  0
    8.3450   -2.5342   24.3314 H   0  0  0  0  0  0  0  0  0  0  0  0
    9.2485    1.1141   23.9373 H   0  0  0  0  0  0  0  0  0  0  0  0
   10.4483    0.3862   25.0084 H   0  0  0  0  0  0  0  0  0  0  0  0
    8.7798   -0.3418   20.1263 H   0  0  0  0  0  0  0  0  0  0  0  0
  1  2  1  0  0  0  0
  1  3  2  0  0  0  0
  2  4  2  0  0  0  0
  3  5  1  0  0  0  0
  4  6  1  0  0  0  0
  5  6  2  0  0  0  0
  6  9  1  0  0  0  0
  7  9  1  0  0  0  0
  7 13  1  0  0  0  0
  7 15  2  0  0  0  0
  8 13  1  0  0  0  0
  8 14  1  0  0  0  0
  8 16  2  0  0  0  0
  9 12  1  0  0  0  0
  9 14  1  0  0  0  0
 10 12  1  0  0  0  0
 11 14  1  0  0  0  0
  1 17  1  0  0  0  0
  2 18  1  0  0  0  0
  3 19  1  0  0  0  0
  4 20  1  0  0  0  0
  5 21  1  0  0  0  0
 10 22  1  0  0  0  0
 10 23  1  0  0  0  0
 10 24  1  0  0  0  0
 11 25  1  0  0  0  0
 11 26  1  0  0  0  0
 11 27  1  0  0  0  0
 12 28  1  0  0  0  0
 12 29  1  0  0  0  0
 13 30  1  0  0  0  0
M  END
> <Hybrid2>
-7.711483

> <docked_fragment>
x0678

> <Mpro-_dock>
-0.115025

> <site>
active-noncovalent

$$$$
CHEMBL2104338
  -OEChem-04122014263D

 69 73  0     1  0  0  0  0  0999 V2000
   10.0177   -1.4699   24.2001 C   0  0  0  0  0  0  0  0  0  0  0  0
   11.0364   -1.0263   23.4234 C   0  0  0  0  0  0  0  0  0  0  0  0
   10.5805    6.3400   25.2339 C   0  0  0  0  0  0  0  0  0  0  0  0
    8.6626    6.0553   23.5491 C   0  0  0  0  0  0  0  0  0  0  0  0
    9.6655   -2.9480   24.3222 C   0  0  0  0  0  0  0  0  0  0  0  0
   11.3931    0.4374   23.2981 C   0  0  0  0  0  0  0  0  0  0  0  0
   12.3201    3.3854   23.7332 C   0  0  0  0  0  0  0  0  0  0  0  0
    8.5501    2.0201   25.4671 C   0  0  0  0  0  0  0  0  0  0  0  0
    7.6268   -0.8877   24.8500 C   0  0  0  0  0  0  0  0  0  0  0  0
   12.1361    4.9140   23.8233 C   0  0  0  0  0  0  0  0  0  0  0  0
    8.8024    3.4843   25.0684 C   0  0  0  0  0  0  0  0  0  0  0  0
    7.3175   -2.3689   25.0426 C   0  0  0  0  0  0  0  0  0  0  0  0
    7.0985   -4.1691   22.3603 C   0  0  0  0  0  0  0  0  0  0  0  0
    7.7024   -5.2579   23.2022 C   0  0  0  0  0  0  0  0  0  0  0  0
   10.7885    1.3474   24.3725 C   0  0  2  0  0  0  0  0  0  0  0  0
    9.2967    0.9894   24.5745 C   0  0  1  0  0  0  0  0  0  0  0  0
   10.9215    2.8218   23.9694 C   0  0  1  0  0  0  0  0  0  0  0  0
    9.1284   -0.5128   25.0332 C   0  0  2  0  0  0  0  0  0  0  0  0
   10.6971    5.1461   24.3353 C   0  0  1  0  0  0  0  0  0  0  0  0
   10.3050    3.7987   24.9943 C   0  0  1  0  0  0  0  0  0  0  0  0
    8.1744   -3.2394   24.1320 C   0  0  0  0  0  0  0  0  0  0  0  0
   11.9418   -1.9050   22.5926 C   0  0  0  0  0  0  0  0  0  0  0  0
   10.9657    7.6702   24.6453 C   0  0  0  0  0  0  0  0  0  0  0  0
    7.8743    6.3090   22.3000 C   0  0  0  0  0  0  0  0  0  0  0  0
    9.5180   -0.6880   26.5228 C   0  0  0  0  0  0  0  0  0  0  0  0
   10.9400    3.6850   26.4074 C   0  0  0  0  0  0  0  0  0  0  0  0
   10.1872    6.2377   26.3949 O   0  0  0  0  0  0  0  0  0  0  0  0
    8.2832    6.3582   24.6722 O   0  0  0  0  0  0  0  0  0  0  0  0
    7.8269   -3.0078   22.7543 O   0  0  0  0  0  0  0  0  0  0  0  0
    7.9194   -4.6183   24.4588 O   0  0  0  0  0  0  0  0  0  0  0  0
    9.8443    5.4461   23.2342 O   0  0  0  0  0  0  0  0  0  0  0  0
   10.2044   -3.5605   23.5949 H   0  0  0  0  0  0  0  0  0  0  0  0
    9.9929   -3.3135   25.3036 H   0  0  0  0  0  0  0  0  0  0  0  0
   12.4841    0.5496   23.3419 H   0  0  0  0  0  0  0  0  0  0  0  0
   11.0828    0.7709   22.2989 H   0  0  0  0  0  0  0  0  0  0  0  0
   12.7197    3.0918   22.7570 H   0  0  0  0  0  0  0  0  0  0  0  0
   13.0269    3.0401   24.4961 H   0  0  0  0  0  0  0  0  0  0  0  0
    8.8279    1.8961   26.5174 H   0  0  0  0  0  0  0  0  0  0  0  0
    7.4702    1.8425   25.4141 H   0  0  0  0  0  0  0  0  0  0  0  0
    7.2942   -0.5946   23.8450 H   0  0  0  0  0  0  0  0  0  0  0  0
    7.0042   -0.3238   25.5546 H   0  0  0  0  0  0  0  0  0  0  0  0
   12.8892    5.3300   24.5025 H   0  0  0  0  0  0  0  0  0  0  0  0
   12.2935    5.3669   22.8378 H   0  0  0  0  0  0  0  0  0  0  0  0
    8.3197    3.6602   24.0991 H   0  0  0  0  0  0  0  0  0  0  0  0
    8.3071    4.1497   25.7857 H   0  0  0  0  0  0  0  0  0  0  0  0
    7.4592   -2.6592   26.0906 H   0  0  0  0  0  0  0  0  0  0  0  0
    6.2547   -2.5378   24.8272 H   0  0  0  0  0  0  0  0  0  0  0  0
    7.1994   -4.3439   21.2864 H   0  0  0  0  0  0  0  0  0  0  0  0
    6.0428   -4.0087   22.6040 H   0  0  0  0  0  0  0  0  0  0  0  0
    7.0525   -6.1286   23.3178 H   0  0  0  0  0  0  0  0  0  0  0  0
    8.6735   -5.5796   22.8107 H   0  0  0  0  0  0  0  0  0  0  0  0
   11.3416    1.1768   25.3026 H   0  0  0  0  0  0  0  0  0  0  0  0
    8.8278    1.0745   23.5805 H   0  0  0  0  0  0  0  0  0  0  0  0
   10.3805    2.9334   23.0150 H   0  0  0  0  0  0  0  0  0  0  0  0
   11.5096   -2.0222   21.6053 H   0  0  0  0  0  0  0  0  0  0  0  0
   12.0357   -2.8713   23.0757 H   0  0  0  0  0  0  0  0  0  0  0  0
   12.9172   -1.4369   22.5197 H   0  0  0  0  0  0  0  0  0  0  0  0
   10.0901    8.1381   24.1867 H   0  0  0  0  0  0  0  0  0  0  0  0
   11.7304    7.5238   23.8785 H   0  0  0  0  0  0  0  0  0  0  0  0
   11.3433    8.3246   25.4347 H   0  0  0  0  0  0  0  0  0  0  0  0
    8.1281    7.2915   21.8944 H   0  0  0  0  0  0  0  0  0  0  0  0
    6.8050    6.2459   22.5170 H   0  0  0  0  0  0  0  0  0  0  0  0
    8.1229    5.5489   21.5536 H   0  0  0  0  0  0  0  0  0  0  0  0
    8.9065   -0.0266   27.1212 H   0  0  0  0  0  0  0  0  0  0  0  0
   10.5636   -0.4380   26.6393 H   0  0  0  0  0  0  0  0  0  0  0  0
    9.3453   -1.7168   26.8077 H   0  0  0  0  0  0  0  0  0  0  0  0
   11.9936    3.9099   26.3290 H   0  0  0  0  0  0  0  0  0  0  0  0
   10.7958    2.6771   26.7681 H   0  0  0  0  0  0  0  0  0  0  0  0
   10.4512    4.3927   27.0609 H   0  0  0  0  0  0  0  0  0  0  0  0
  1  2  2  0  0  0  0
  1  5  1  0  0  0  0
  1 18  1  0  0  0  0
  2  6  1  0  0  0  0
  2 22  1  0  0  0  0
  3 19  1  0  0  0  0
  3 23  1  0  0  0  0
  3 27  2  0  0  0  0
  4 24  1  0  0  0  0
  4 28  2  0  0  0  0
  4 31  1  0  0  0  0
  5 21  1  0  0  0  0
  6 15  1  0  0  0  0
  7 10  1  0  0  0  0
  7 17  1  0  0  0  0
  8 11  1  0  0  0  0
  8 16  1  0  0  0  0
  9 12  1  0  0  0  0
  9 18  1  0  0  0  0
 10 19  1  0  0  0  0
 11 20  1  0  0  0  0
 12 21  1  0  0  0  0
 13 14  1  0  0  0  0
 13 29  1  0  0  0  0
 14 30  1  0  0  0  0
 15 16  1  0  0  0  0
 15 17  1  0  0  0  0
 16 18  1  0  0  0  0
 17 20  1  0  0  0  0
 18 25  1  0  0  0  0
 19 20  1  0  0  0  0
 19 31  1  0  0  0  0
 20 26  1  0  0  0  0
 21 29  1  0  0  0  0
 21 30  1  0  0  0  0
  5 32  1  0  0  0  0
  5 33  1  0  0  0  0
  6 34  1  0  0  0  0
  6 35  1  0  0  0  0
  7 36  1  0  0  0  0
  7 37  1  0  0  0  0
  8 38  1  0  0  0  0
  8 39  1  0  0  0  0
  9 40  1  0  0  0  0
  9 41  1  0  0  0  0
 10 42  1  0  0  0  0
 10 43  1  0  0  0  0
 11 44  1  0  0  0  0
 11 45  1  0  0  0  0
 12 46  1  0  0  0  0
 12 47  1  0  0  0  0
 13 48  1  0  0  0  0
 13 49  1  0  0  0  0
 14 50  1  0  0  0  0
 14 51  1  0  0  0  0
 15 52  1  0  0  0  0
 16 53  1  0  0  0  0
 17 54  1  0  0  0  0
 22 55  1  0  0  0  0
 22 56  1  0  0  0  0
 22 57  1  0  0  0  0
 23 58  1  0  0  0  0
 23 59  1  0  0  0  0
 23 60  1  0  0  0  0
 24 61  1  0  0  0  0
 24 62  1  0  0  0  0
 24 63  1  0  0  0  0
 25 64  1  0  0  0  0
 25 65  1  0  0  0  0
 25 66  1  0  0  0  0
 26 67  1  0  0  0  0
 26 68  1  0  0  0  0
 26 69  1  0  0  0  0
M  END
> <Hybrid2>
-7.710769

> <docked_fragment>
x0104

> <Mpro-_dock>
6.801493

> <site>
active-noncovalent

$$$$
CHEMBL2106282
  -OEChem-04122014263D

 27 28  0     1  0  0  0  0  0999 V2000
    4.9488    1.1228   18.4414 C   0  0  0  0  0  0  0  0  0  0  0  0
    4.6248    1.4623   19.7549 C   0  0  0  0  0  0  0  0  0  0  0  0
    6.1727    0.5160   18.1595 C   0  0  0  0  0  0  0  0  0  0  0  0
    5.5247    1.1950   20.7866 C   0  0  0  0  0  0  0  0  0  0  0  0
    7.0726    0.2487   19.1911 C   0  0  0  0  0  0  0  0  0  0  0  0
    6.7487    0.5882   20.5047 C   0  0  0  0  0  0  0  0  0  0  0  0
   10.6200    0.4270   21.7295 C   0  0  0  0  0  0  0  0  0  0  0  0
    9.6864    1.2545   22.5747 C   0  0  0  0  0  0  0  0  0  0  0  0
    7.7273    0.2976   21.6253 C   0  0  1  0  0  0  0  0  0  0  0  0
    8.5928   -0.9497   21.3115 C   0  0  2  0  0  0  0  0  0  0  0  0
    8.4931   -1.9855   22.4347 C   0  0  0  0  0  0  0  0  0  0  0  0
    9.9872   -0.6087   21.0747 N   0  0  0  0  0  0  0  0  0  0  0  0
   11.8240    0.6568   21.6569 O   0  0  0  0  0  0  0  0  0  0  0  0
    8.5019    1.4856   21.8342 O   0  0  0  0  0  0  0  0  0  0  0  0
    4.2474    1.3298   17.6384 H   0  0  0  0  0  0  0  0  0  0  0  0
    3.6714    1.9339   19.9747 H   0  0  0  0  0  0  0  0  0  0  0  0
    6.4248    0.2505   17.1371 H   0  0  0  0  0  0  0  0  0  0  0  0
    5.2639    1.4632   21.8070 H   0  0  0  0  0  0  0  0  0  0  0  0
    8.0239   -0.2243   18.9621 H   0  0  0  0  0  0  0  0  0  0  0  0
    9.4585    0.7243   23.4737 H   0  0  0  0  0  0  0  0  0  0  0  0
   10.1443    2.1999   22.7713 H   0  0  0  0  0  0  0  0  0  0  0  0
    7.0879    0.1142   22.5410 H   0  0  0  0  0  0  0  0  0  0  0  0
    8.2405   -1.4142   20.3778 H   0  0  0  0  0  0  0  0  0  0  0  0
    8.8367   -1.5492   23.3713 H   0  0  0  0  0  0  0  0  0  0  0  0
    9.1111   -2.8497   22.1964 H   0  0  0  0  0  0  0  0  0  0  0  0
    7.4592   -2.3075   22.5497 H   0  0  0  0  0  0  0  0  0  0  0  0
   10.5126   -1.1485   20.4072 H   0  0  0  0  0  0  0  0  0  0  0  0
  1  2  1  0  0  0  0
  1  3  2  0  0  0  0
  2  4  2  0  0  0  0
  3  5  1  0  0  0  0
  4  6  1  0  0  0  0
  5  6  2  0  0  0  0
  6  9  1  0  0  0  0
  7  8  1  0  0  0  0
  7 12  1  0  0  0  0
  7 13  2  0  0  0  0
  8 14  1  0  0  0  0
  9 10  1  0  0  0  0
  9 14  1  0  0  0  0
 10 11  1  0  0  0  0
 10 12  1  0  0  0  0
  1 15  1  0  0  0  0
  2 16  1  0  0  0  0
  3 17  1  0  0  0  0
  4 18  1  0  0  0  0
  5 19  1  0  0  0  0
  8 20  1  0  0  0  0
  8 21  1  0  0  0  0
  9 22  1  0  0  0  0
 10 23  1  0  0  0  0
 11 24  1  0  0  0  0
 11 25  1  0  0  0  0
 11 26  1  0  0  0  0
 12 27  1  0  0  0  0
M  END
> <Hybrid2>
-7.700275

> <docked_fragment>
x0434

> <Mpro-_dock>
-1.16407

> <site>
active-noncovalent

$$$$
CHEMBL2103807
  -OEChem-04122014263D

 33 35  0     0  0  0  0  0  0999 V2000
    8.6618    4.9616   24.8850 C   0  0  0  0  0  0  0  0  0  0  0  0
    9.8959    5.4441   24.4475 C   0  0  0  0  0  0  0  0  0  0  0  0
    8.4491    3.5940   24.8634 C   0  0  0  0  0  0  0  0  0  0  0  0
   12.8136    0.6530   22.9655 C   0  0  0  0  0  0  0  0  0  0  0  0
   10.8882    4.5796   24.0012 C   0  0  0  0  0  0  0  0  0  0  0  0
   10.5445    3.2225   24.0306 C   0  0  0  0  0  0  0  0  0  0  0  0
   12.7700    2.7787   23.1430 C   0  0  0  0  0  0  0  0  0  0  0  0
   11.5271    2.3422   23.5869 C   0  0  0  0  0  0  0  0  0  0  0  0
   13.0350    4.1465   23.1446 C   0  0  0  0  0  0  0  0  0  0  0  0
   10.9737   -1.4473   21.7551 C   0  0  0  0  0  0  0  0  0  0  0  0
    9.7028   -2.3382   23.7190 C   0  0  0  0  0  0  0  0  0  0  0  0
   10.5460    0.0245   23.7876 C   0  0  0  0  0  0  0  0  0  0  0  0
   10.8279   -1.3999   23.2777 C   0  0  0  0  0  0  0  0  0  0  0  0
    9.3671    2.7006   24.4433 N   0  0  0  0  0  0  0  0  0  0  0  0
   13.5565    1.7177   22.7609 N   0  0  0  0  0  0  0  0  0  0  0  0
   12.0901    5.0237   23.5734 N   0  0  0  0  0  0  0  0  0  0  0  0
   11.5821    0.9773   23.4628 N   0  0  0  0  0  0  0  0  0  0  0  0
   14.2805    4.6284   22.7028 N   0  0  0  0  0  0  0  0  0  0  0  0
    7.8915    5.6413   25.2320 H   0  0  0  0  0  0  0  0  0  0  0  0
   10.0754    6.5171   24.4587 H   0  0  0  0  0  0  0  0  0  0  0  0
    7.5063    3.1710   25.1933 H   0  0  0  0  0  0  0  0  0  0  0  0
   13.1111   -0.3689   22.7736 H   0  0  0  0  0  0  0  0  0  0  0  0
   10.0607   -1.0895   21.2671 H   0  0  0  0  0  0  0  0  0  0  0  0
   11.8054   -0.8208   21.4156 H   0  0  0  0  0  0  0  0  0  0  0  0
   11.1506   -2.4689   21.4048 H   0  0  0  0  0  0  0  0  0  0  0  0
    8.7418   -2.0162   23.3041 H   0  0  0  0  0  0  0  0  0  0  0  0
    9.8897   -3.3597   23.3716 H   0  0  0  0  0  0  0  0  0  0  0  0
    9.6099   -2.3623   24.8102 H   0  0  0  0  0  0  0  0  0  0  0  0
    9.5964    0.4028   23.3895 H   0  0  0  0  0  0  0  0  0  0  0  0
   10.4533    0.0309   24.8813 H   0  0  0  0  0  0  0  0  0  0  0  0
   11.7635   -1.7662   23.7188 H   0  0  0  0  0  0  0  0  0  0  0  0
   14.4400    5.6167   22.6651 H   0  0  0  0  0  0  0  0  0  0  0  0
   14.9574    3.9834   22.3431 H   0  0  0  0  0  0  0  0  0  0  0  0
  1  2  2  0  0  0  0
  1  3  1  0  0  0  0
  2  5  1  0  0  0  0
  3 14  2  0  0  0  0
  4 15  2  0  0  0  0
  4 17  1  0  0  0  0
  5  6  1  0  0  0  0
  5 16  2  0  0  0  0
  6  8  2  0  0  0  0
  6 14  1  0  0  0  0
  7  8  1  0  0  0  0
  7  9  2  0  0  0  0
  7 15  1  0  0  0  0
  8 17  1  0  0  0  0
  9 16  1  0  0  0  0
  9 18  1  0  0  0  0
 10 13  1  0  0  0  0
 11 13  1  0  0  0  0
 12 13  1  0  0  0  0
 12 17  1  0  0  0  0
  1 19  1  0  0  0  0
  2 20  1  0  0  0  0
  3 21  1  0  0  0  0
  4 22  1  0  0  0  0
 10 23  1  0  0  0  0
 10 24  1  0  0  0  0
 10 25  1  0  0  0  0
 11 26  1  0  0  0  0
 11 27  1  0  0  0  0
 11 28  1  0  0  0  0
 12 29  1  0  0  0  0
 12 30  1  0  0  0  0
 13 31  1  0  0  0  0
 18 32  1  0  0  0  0
 18 33  1  0  0  0  0
M  END
> <Hybrid2>
-7.695462

> <docked_fragment>
x0104

> <Mpro-_dock>
-0.288501

> <site>
active-noncovalent

$$$$
CHEMBL1546
  -OEChem-04122014263D

 25 25  0     0  0  0  0  0  0999 V2000
   12.2111   -0.2376   24.4034 C   0  0  0  0  0  0  0  0  0  0  0  0
   13.5190    0.6356   22.5694 C   0  0  0  0  0  0  0  0  0  0  0  0
   12.8108   -1.4859   24.2368 C   0  0  0  0  0  0  0  0  0  0  0  0
   14.1188   -0.6126   22.4028 C   0  0  0  0  0  0  0  0  0  0  0  0
   12.5651    0.8231   23.5697 C   0  0  0  0  0  0  0  0  0  0  0  0
   13.7647   -1.6734   23.2366 C   0  0  0  0  0  0  0  0  0  0  0  0
   13.0950    3.7262   22.1404 C   0  0  0  0  0  0  0  0  0  0  0  0
   11.9196    2.1681   23.7494 C   0  0  0  0  0  0  0  0  0  0  0  0
   11.8053    2.9775   22.4509 C   0  0  1  0  0  0  0  0  0  0  0  0
   10.7140    3.9855   22.5856 N   0  3  0  0  0  0  0  0  0  0  0  0
   14.3508   -2.8912   23.0750 O   0  0  0  0  0  0  0  0  0  0  0  0
   11.4688   -0.1006   25.1852 H   0  0  0  0  0  0  0  0  0  0  0  0
   13.8010    1.4565   21.9150 H   0  0  0  0  0  0  0  0  0  0  0  0
   12.5309   -2.3084   24.8897 H   0  0  0  0  0  0  0  0  0  0  0  0
   14.8613   -0.7522   21.6221 H   0  0  0  0  0  0  0  0  0  0  0  0
   13.3877    4.3681   22.9783 H   0  0  0  0  0  0  0  0  0  0  0  0
   13.9217    3.0362   21.9390 H   0  0  0  0  0  0  0  0  0  0  0  0
   12.9669    4.3656   21.2606 H   0  0  0  0  0  0  0  0  0  0  0  0
   12.5150    2.7388   24.4755 H   0  0  0  0  0  0  0  0  0  0  0  0
   10.9287    2.0532   24.2094 H   0  0  0  0  0  0  0  0  0  0  0  0
   11.5290    2.3418   21.6026 H   0  0  0  0  0  0  0  0  0  0  0  0
   10.2644    4.1505   21.6820 H   0  0  0  0  0  0  0  0  0  0  0  0
   11.0875    4.8743   22.9273 H   0  0  0  0  0  0  0  0  0  0  0  0
   10.0035    3.6590   23.2449 H   0  0  0  0  0  0  0  0  0  0  0  0
   14.0030   -3.5209   23.7265 H   0  0  0  0  0  0  0  0  0  0  0  0
  1  3  2  0  0  0  0
  1  5  1  0  0  0  0
  2  4  1  0  0  0  0
  2  5  2  0  0  0  0
  3  6  1  0  0  0  0
  4  6  2  0  0  0  0
  5  8  1  0  0  0  0
  6 11  1  0  0  0  0
  7  9  1  0  0  0  0
  8  9  1  0  0  0  0
  9 10  1  0  0  0  0
  1 12  1  0  0  0  0
  2 13  1  0  0  0  0
  3 14  1  0  0  0  0
  4 15  1  0  0  0  0
  7 16  1  0  0  0  0
  7 17  1  0  0  0  0
  7 18  1  0  0  0  0
  8 19  1  0  0  0  0
  8 20  1  0  0  0  0
  9 21  1  0  0  0  0
 10 22  1  0  0  0  0
 10 23  1  0  0  0  0
 10 24  1  0  0  0  0
 11 25  1  0  0  0  0
M  CHG  1  10   1
M  END
> <Hybrid2>
-7.693278

> <docked_fragment>
x0161

> <Mpro-_dock>
-0.396264

> <site>
active-noncovalent

$$$$
CHEMBL2106168
  -OEChem-04122014263D

 24 25  0     0  0  0  0  0  0999 V2000
   11.0435    1.7495   22.9776 C   0  0  0  0  0  0  0  0  0  0  0  0
   11.8773    2.8604   22.8737 C   0  0  0  0  0  0  0  0  0  0  0  0
   13.7926    1.3971   22.7210 C   0  0  0  0  0  0  0  0  0  0  0  0
   12.9660    0.2675   22.8332 C   0  0  0  0  0  0  0  0  0  0  0  0
   11.5917    0.4626   22.9590 C   0  0  0  0  0  0  0  0  0  0  0  0
   13.2521    2.6844   22.7453 C   0  0  0  0  0  0  0  0  0  0  0  0
   11.1723   -1.9486   23.1244 C   0  0  0  0  0  0  0  0  0  0  0  0
   13.5135   -1.1402   22.7727 C   0  0  0  0  0  0  0  0  0  0  0  0
   14.6343   -1.3590   23.7981 C   0  0  0  0  0  0  0  0  0  0  0  0
   14.0205   -1.4567   21.3595 C   0  0  0  0  0  0  0  0  0  0  0  0
   10.7412   -0.6404   23.0638 N   0  0  0  0  0  0  0  0  0  0  0  0
   10.3919   -2.8926   23.2408 O   0  0  0  0  0  0  0  0  0  0  0  0
   12.5189   -2.1636   23.0793 O   0  0  0  0  0  0  0  0  0  0  0  0
   14.3873    4.1880   22.5936 Br  0  0  0  0  0  0  0  0  0  0  0  0
    9.9709    1.8962   23.0749 H   0  0  0  0  0  0  0  0  0  0  0  0
   11.4398    3.8551   22.8916 H   0  0  0  0  0  0  0  0  0  0  0  0
   14.8662    1.2689   22.6033 H   0  0  0  0  0  0  0  0  0  0  0  0
   14.9994   -2.3792   23.7226 H   0  0  0  0  0  0  0  0  0  0  0  0
   14.2481   -1.1853   24.7984 H   0  0  0  0  0  0  0  0  0  0  0  0
   15.4475   -0.6671   23.5981 H   0  0  0  0  0  0  0  0  0  0  0  0
   14.4101   -2.4705   21.3332 H   0  0  0  0  0  0  0  0  0  0  0  0
   14.8092   -0.7587   21.0931 H   0  0  0  0  0  0  0  0  0  0  0  0
   13.2012   -1.3650   20.6520 H   0  0  0  0  0  0  0  0  0  0  0  0
    9.7422   -0.4644   23.1252 H   0  0  0  0  0  0  0  0  0  0  0  0
  1  2  2  0  0  0  0
  1  5  1  0  0  0  0
  2  6  1  0  0  0  0
  3  4  1  0  0  0  0
  3  6  2  0  0  0  0
  4  5  2  0  0  0  0
  4  8  1  0  0  0  0
  5 11  1  0  0  0  0
  6 14  1  0  0  0  0
  7 11  1  0  0  0  0
  7 12  2  0  0  0  0
  7 13  1  0  0  0  0
  8  9  1  0  0  0  0
  8 10  1  0  0  0  0
  8 13  1  0  0  0  0
  1 15  1  0  0  0  0
  2 16  1  0  0  0  0
  3 17  1  0  0  0  0
  9 18  1  0  0  0  0
  9 19  1  0  0  0  0
  9 20  1  0  0  0  0
 10 21  1  0  0  0  0
 10 22  1  0  0  0  0
 10 23  1  0  0  0  0
 11 24  1  0  0  0  0
M  END
> <Hybrid2>
-7.682992

> <docked_fragment>
x0195

> <Mpro-_dock>
-1.406132

> <site>
active-noncovalent

$$$$
DB02114
  -OEChem-04122014263D

 23 23  0     0  0  0  0  0  0999 V2000
   13.2013   -1.4842   21.8024 C   0  0  0  0  0  0  0  0  0  0  0  0
   11.9886   -0.4625   23.6252 C   0  0  0  0  0  0  0  0  0  0  0  0
   14.2464   -1.7955   22.6721 C   0  0  0  0  0  0  0  0  0  0  0  0
   13.0337   -0.7738   24.4950 C   0  0  0  0  0  0  0  0  0  0  0  0
   12.0724   -0.8176   22.2789 C   0  0  0  0  0  0  0  0  0  0  0  0
   14.1626   -1.4403   24.0184 C   0  0  0  0  0  0  0  0  0  0  0  0
   10.7264    1.0343   21.2243 C   0  0  0  0  0  0  0  0  0  0  0  0
    9.6368   -1.1798   21.7397 C   0  0  0  0  0  0  0  0  0  0  0  0
   10.9547   -0.4840   21.3497 C   0  0  0  0  0  0  0  0  0  0  0  0
   15.2183   -1.7566   24.8985 N   0  0  0  0  0  0  0  0  0  0  0  0
   13.2754   -1.7637   20.7549 H   0  0  0  0  0  0  0  0  0  0  0  0
   11.1139    0.0584   24.0050 H   0  0  0  0  0  0  0  0  0  0  0  0
   15.1222   -2.3137   22.2901 H   0  0  0  0  0  0  0  0  0  0  0  0
   12.9581   -0.4917   25.5419 H   0  0  0  0  0  0  0  0  0  0  0  0
   10.4792    1.4860   22.1912 H   0  0  0  0  0  0  0  0  0  0  0  0
    9.9075    1.2606   20.5328 H   0  0  0  0  0  0  0  0  0  0  0  0
   11.6296    1.5268   20.8470 H   0  0  0  0  0  0  0  0  0  0  0  0
    9.3278   -0.8768   22.7463 H   0  0  0  0  0  0  0  0  0  0  0  0
    9.7431   -2.2701   21.7357 H   0  0  0  0  0  0  0  0  0  0  0  0
    8.8257   -0.9228   21.0497 H   0  0  0  0  0  0  0  0  0  0  0  0
   11.1955   -0.8401   20.3299 H   0  0  0  0  0  0  0  0  0  0  0  0
   15.1668   -1.4550   25.8505 H   0  0  0  0  0  0  0  0  0  0  0  0
   16.0415   -2.1934   24.5357 H   0  0  0  0  0  0  0  0  0  0  0  0
  1  3  2  0  0  0  0
  1  5  1  0  0  0  0
  2  4  1  0  0  0  0
  2  5  2  0  0  0  0
  3  6  1  0  0  0  0
  4  6  2  0  0  0  0
  5  9  1  0  0  0  0
  6 10  1  0  0  0  0
  7  9  1  0  0  0  0
  8  9  1  0  0  0  0
  1 11  1  0  0  0  0
  2 12  1  0  0  0  0
  3 13  1  0  0  0  0
  4 14  1  0  0  0  0
  7 15  1  0  0  0  0
  7 16  1  0  0  0  0
  7 17  1  0  0  0  0
  8 18  1  0  0  0  0
  8 19  1  0  0  0  0
  8 20  1  0  0  0  0
  9 21  1  0  0  0  0
 10 22  1  0  0  0  0
 10 23  1  0  0  0  0
M  END
> <Hybrid2>
-7.667021

> <docked_fragment>
x0678

> <Mpro-_dock>
0.933344

> <site>
active-noncovalent

$$$$
CHEMBL2104354
  -OEChem-04122014263D

 37 38  0     0  0  0  0  0  0999 V2000
   12.4065    0.3210   22.7190 C   0  0  0  0  0  0  0  0  0  0  0  0
   12.1038    0.5386   24.1983 C   0  0  0  0  0  0  0  0  0  0  0  0
   12.7557    1.6308   22.0193 C   0  0  0  0  0  0  0  0  0  0  0  0
   10.9559    7.3966   25.1466 C   0  0  0  0  0  0  0  0  0  0  0  0
    9.5775    6.9096   24.7124 C   0  0  0  0  0  0  0  0  0  0  0  0
   12.0049    6.2973   25.0174 C   0  0  0  0  0  0  0  0  0  0  0  0
   11.0150    1.5897   24.4018 C   0  0  0  0  0  0  0  0  0  0  0  0
   11.6682    2.6839   22.2193 C   0  0  0  0  0  0  0  0  0  0  0  0
    9.6065    6.3061   23.3154 C   0  0  0  0  0  0  0  0  0  0  0  0
   12.0231    5.6962   23.6190 C   0  0  0  0  0  0  0  0  0  0  0  0
   11.3669    2.9119   23.7067 C   0  0  0  0  0  0  0  0  0  0  0  0
   10.2400    3.9286   23.8792 C   0  0  0  0  0  0  0  0  0  0  0  0
   10.6483    5.2179   23.2191 N   0  3  0  0  0  0  0  0  0  0  0  0
   13.2367   -0.3864   22.6128 H   0  0  0  0  0  0  0  0  0  0  0  0
   11.5345   -0.1316   22.2312 H   0  0  0  0  0  0  0  0  0  0  0  0
   11.7918   -0.4085   24.6531 H   0  0  0  0  0  0  0  0  0  0  0  0
   13.0177    0.8554   24.7156 H   0  0  0  0  0  0  0  0  0  0  0  0
   13.7077    2.0112   22.4098 H   0  0  0  0  0  0  0  0  0  0  0  0
   12.9003    1.4486   20.9483 H   0  0  0  0  0  0  0  0  0  0  0  0
   11.2506    8.2635   24.5422 H   0  0  0  0  0  0  0  0  0  0  0  0
   10.9108    7.7371   26.1898 H   0  0  0  0  0  0  0  0  0  0  0  0
    9.2120    6.1625   25.4261 H   0  0  0  0  0  0  0  0  0  0  0  0
    8.8670    7.7454   24.7377 H   0  0  0  0  0  0  0  0  0  0  0  0
   12.9956    6.7040   25.2559 H   0  0  0  0  0  0  0  0  0  0  0  0
   11.8015    5.5094   25.7514 H   0  0  0  0  0  0  0  0  0  0  0  0
   10.0646    1.2038   24.0111 H   0  0  0  0  0  0  0  0  0  0  0  0
   10.8709    1.7581   25.4758 H   0  0  0  0  0  0  0  0  0  0  0  0
   11.9852    3.6244   21.7531 H   0  0  0  0  0  0  0  0  0  0  0  0
   10.7567    2.3633   21.6985 H   0  0  0  0  0  0  0  0  0  0  0  0
    8.6381    5.8608   23.0461 H   0  0  0  0  0  0  0  0  0  0  0  0
    9.8677    7.0718   22.5726 H   0  0  0  0  0  0  0  0  0  0  0  0
   12.3313    6.4501   22.8820 H   0  0  0  0  0  0  0  0  0  0  0  0
   12.7033    4.8348   23.5572 H   0  0  0  0  0  0  0  0  0  0  0  0
   12.2676    3.3229   24.1821 H   0  0  0  0  0  0  0  0  0  0  0  0
   10.0613    4.1380   24.9320 H   0  0  0  0  0  0  0  0  0  0  0  0
    9.3272    3.5845   23.3968 H   0  0  0  0  0  0  0  0  0  0  0  0
   10.7226    4.9955   22.1814 H   0  0  0  0  0  0  0  0  0  0  0  0
  1  2  1  0  0  0  0
  1  3  1  0  0  0  0
  2  7  1  0  0  0  0
  3  8  1  0  0  0  0
  4  5  1  0  0  0  0
  4  6  1  0  0  0  0
  5  9  1  0  0  0  0
  6 10  1  0  0  0  0
  7 11  1  0  0  0  0
  8 11  1  0  0  0  0
  9 13  1  0  0  0  0
 10 13  1  0  0  0  0
 11 12  1  0  0  0  0
 12 13  1  0  0  0  0
  1 14  1  0  0  0  0
  1 15  1  0  0  0  0
  2 16  1  0  0  0  0
  2 17  1  0  0  0  0
  3 18  1  0  0  0  0
  3 19  1  0  0  0  0
  4 20  1  0  0  0  0
  4 21  1  0  0  0  0
  5 22  1  0  0  0  0
  5 23  1  0  0  0  0
  6 24  1  0  0  0  0
  6 25  1  0  0  0  0
  7 26  1  0  0  0  0
  7 27  1  0  0  0  0
  8 28  1  0  0  0  0
  8 29  1  0  0  0  0
  9 30  1  0  0  0  0
  9 31  1  0  0  0  0
 10 32  1  0  0  0  0
 10 33  1  0  0  0  0
 11 34  1  0  0  0  0
 12 35  1  0  0  0  0
 12 36  1  0  0  0  0
 13 37  1  0  0  0  0
M  CHG  1  13   1
M  END
> <Hybrid2>
-7.660265

> <docked_fragment>
x0104

> <Mpro-_dock>
-1.556394

> <site>
active-noncovalent

$$$$
CHEMBL1709559
  -OEChem-04122014263D

 22 22  0     0  0  0  0  0  0999 V2000
   13.6110   -1.8519   22.6563 C   0  0  0  0  0  0  0  0  0  0  0  0
   12.2686   -1.9169   23.0294 C   0  0  0  0  0  0  0  0  0  0  0  0
   14.2191   -0.6131   22.4525 C   0  0  0  0  0  0  0  0  0  0  0  0
   11.5341   -0.7432   23.1986 C   0  0  0  0  0  0  0  0  0  0  0  0
   13.4846    0.5606   22.6216 C   0  0  0  0  0  0  0  0  0  0  0  0
   12.1421    0.4956   22.9947 C   0  0  0  0  0  0  0  0  0  0  0  0
   14.1387    1.8433   22.4037 C   0  0  0  0  0  0  0  0  0  0  0  0
   13.7807    4.3073   22.4012 C   0  0  0  0  0  0  0  0  0  0  0  0
   12.6922    5.3029   22.7010 C   0  0  0  0  0  0  0  0  0  0  0  0
   13.3516    2.9942   22.5881 N   0  0  0  0  0  0  0  0  0  0  0  0
   15.3276    1.8879   22.0458 O   0  0  0  0  0  0  0  0  0  0  0  0
   14.9037    4.6580   22.0494 O   0  0  0  0  0  0  0  0  0  0  0  0
   11.4084    1.6313   23.1668 O   0  0  0  0  0  0  0  0  0  0  0  0
   14.1827   -2.7662   22.5246 H   0  0  0  0  0  0  0  0  0  0  0  0
   11.7956   -2.8816   23.1874 H   0  0  0  0  0  0  0  0  0  0  0  0
   15.2660   -0.5746   22.1623 H   0  0  0  0  0  0  0  0  0  0  0  0
   10.4887   -0.8008   23.4894 H   0  0  0  0  0  0  0  0  0  0  0  0
   12.7333    5.5855   23.7566 H   0  0  0  0  0  0  0  0  0  0  0  0
   11.7137    4.8684   22.4765 H   0  0  0  0  0  0  0  0  0  0  0  0
   12.8298    6.1965   22.0857 H   0  0  0  0  0  0  0  0  0  0  0  0
   12.3844    2.8619   22.8715 H   0  0  0  0  0  0  0  0  0  0  0  0
   10.5010    1.4072   23.4254 H   0  0  0  0  0  0  0  0  0  0  0  0
  1  2  1  0  0  0  0
  1  3  2  0  0  0  0
  2  4  2  0  0  0  0
  3  5  1  0  0  0  0
  4  6  1  0  0  0  0
  5  6  2  0  0  0  0
  5  7  1  0  0  0  0
  6 13  1  0  0  0  0
  7 10  1  0  0  0  0
  7 11  2  0  0  0  0
  8  9  1  0  0  0  0
  8 10  1  0  0  0  0
  8 12  2  0  0  0  0
  1 14  1  0  0  0  0
  2 15  1  0  0  0  0
  3 16  1  0  0  0  0
  4 17  1  0  0  0  0
  9 18  1  0  0  0  0
  9 19  1  0  0  0  0
  9 20  1  0  0  0  0
 10 21  1  0  0  0  0
 13 22  1  0  0  0  0
M  END
> <Hybrid2>
-7.656331

> <docked_fragment>
x0195

> <Mpro-_dock>
0.545316

> <site>
active-noncovalent

$$$$
CHEMBL2106301
  -OEChem-04122014263D

 31 32  0     1  0  0  0  0  0999 V2000
   13.0659    4.4713   22.6331 C   0  0  0  0  0  0  0  0  0  0  0  0
   13.7444    3.3948   22.0618 C   0  0  0  0  0  0  0  0  0  0  0  0
   11.9885    4.2418   23.4888 C   0  0  0  0  0  0  0  0  0  0  0  0
   13.3454    2.0888   22.3461 C   0  0  0  0  0  0  0  0  0  0  0  0
   11.5895    2.9358   23.7731 C   0  0  0  0  0  0  0  0  0  0  0  0
   12.2679    1.8593   23.2017 C   0  0  0  0  0  0  0  0  0  0  0  0
   13.7059   -1.3498   22.0966 C   0  0  0  0  0  0  0  0  0  0  0  0
   11.4038   -0.3693   22.2718 C   0  0  0  0  0  0  0  0  0  0  0  0
   14.0970   -0.6622   23.3712 C   0  0  0  0  0  0  0  0  0  0  0  0
   11.8281    0.4224   23.5148 C   0  0  2  0  0  0  0  0  0  0  0  0
   10.1611   -0.9325   24.8146 C   0  0  0  0  0  0  0  0  0  0  0  0
   10.6242    0.4463   24.4812 C   0  0  0  0  0  0  0  0  0  0  0  0
   12.3969   -1.1460   21.6782 N   0  0  0  0  0  0  0  0  0  0  0  0
   12.9096   -0.3757   24.2208 N   0  3  0  0  0  0  0  0  0  0  0  0
   14.5188   -2.0114   21.4513 O   0  0  0  0  0  0  0  0  0  0  0  0
   10.2715   -0.2864   21.7921 O   0  0  0  0  0  0  0  0  0  0  0  0
   13.3776    5.4881   22.4128 H   0  0  0  0  0  0  0  0  0  0  0  0
   14.5840    3.5732   21.3964 H   0  0  0  0  0  0  0  0  0  0  0  0
   11.4607    5.0796   23.9347 H   0  0  0  0  0  0  0  0  0  0  0  0
   13.8798    1.2561   21.8962 H   0  0  0  0  0  0  0  0  0  0  0  0
   10.7488    2.7666   24.4408 H   0  0  0  0  0  0  0  0  0  0  0  0
   14.7503   -1.3128   23.9593 H   0  0  0  0  0  0  0  0  0  0  0  0
   14.6062    0.2813   23.1567 H   0  0  0  0  0  0  0  0  0  0  0  0
    9.8712   -1.4532   23.8944 H   0  0  0  0  0  0  0  0  0  0  0  0
    9.2897   -0.9039   25.4774 H   0  0  0  0  0  0  0  0  0  0  0  0
   10.9597   -1.5088   25.2938 H   0  0  0  0  0  0  0  0  0  0  0  0
   10.9142    0.9694   25.3948 H   0  0  0  0  0  0  0  0  0  0  0  0
    9.8099    1.0074   24.0181 H   0  0  0  0  0  0  0  0  0  0  0  0
   12.1270   -1.6277   20.8247 H   0  0  0  0  0  0  0  0  0  0  0  0
   12.5135   -1.2672   24.5513 H   0  0  0  0  0  0  0  0  0  0  0  0
   13.2128    0.1243   25.0685 H   0  0  0  0  0  0  0  0  0  0  0  0
  1  2  1  0  0  0  0
  1  3  2  0  0  0  0
  2  4  2  0  0  0  0
  3  5  1  0  0  0  0
  4  6  1  0  0  0  0
  5  6  2  0  0  0  0
  6 10  1  0  0  0  0
  7  9  1  0  0  0  0
  7 13  1  0  0  0  0
  7 15  2  0  0  0  0
  8 10  1  0  0  0  0
  8 13  1  0  0  0  0
  8 16  2  0  0  0  0
  9 14  1  0  0  0  0
 10 12  1  0  0  0  0
 10 14  1  0  0  0  0
 11 12  1  0  0  0  0
  1 17  1  0  0  0  0
  2 18  1  0  0  0  0
  3 19  1  0  0  0  0
  4 20  1  0  0  0  0
  5 21  1  0  0  0  0
  9 22  1  0  0  0  0
  9 23  1  0  0  0  0
 11 24  1  0  0  0  0
 11 25  1  0  0  0  0
 11 26  1  0  0  0  0
 12 27  1  0  0  0  0
 12 28  1  0  0  0  0
 13 29  1  0  0  0  0
 14 30  1  0  0  0  0
 14 31  1  0  0  0  0
M  CHG  1  14   1
M  END
> <Hybrid2>
-7.648673

> <docked_fragment>
x0195

> <Mpro-_dock>
-0.62314

> <site>
active-noncovalent

$$$$
CHEMBL2107651
  -OEChem-04122014263D

 36 35  0     0  0  0  0  0  0999 V2000
   10.7399    1.8544   22.0758 C   0  0  0  0  0  0  0  0  0  0  0  0
    8.1027    2.8740   25.5795 C   0  0  0  0  0  0  0  0  0  0  0  0
   13.0397   -0.5912   21.9071 C   0  0  0  0  0  0  0  0  0  0  0  0
    9.4592   -2.4942   24.2585 C   0  0  0  0  0  0  0  0  0  0  0  0
    8.6895    2.1306   24.3877 C   0  0  0  0  0  0  0  0  0  0  0  0
   13.3386    0.7366   22.5889 C   0  0  0  0  0  0  0  0  0  0  0  0
   10.2034   -1.1906   24.5128 C   0  0  0  0  0  0  0  0  0  0  0  0
   10.1996    1.9184   24.5550 C   0  0  0  0  0  0  0  0  0  0  0  0
   12.4008    0.9724   23.7798 C   0  0  0  0  0  0  0  0  0  0  0  0
   10.2242   -0.3119   23.2570 C   0  0  0  0  0  0  0  0  0  0  0  0
   10.8856    1.0926   23.4203 C   0  0  0  0  0  0  0  0  0  0  0  0
   11.3048    3.1102   22.0406 N   0  0  0  0  0  0  0  0  0  0  0  0
   10.1619    1.3777   21.0985 O   0  0  0  0  0  0  0  0  0  0  0  0
    8.5872    3.8465   25.7125 H   0  0  0  0  0  0  0  0  0  0  0  0
    8.2476    2.2939   26.4962 H   0  0  0  0  0  0  0  0  0  0  0  0
    7.0284    3.0392   25.4488 H   0  0  0  0  0  0  0  0  0  0  0  0
   13.1388   -1.4246   22.6100 H   0  0  0  0  0  0  0  0  0  0  0  0
   13.7387   -0.7586   21.0816 H   0  0  0  0  0  0  0  0  0  0  0  0
   12.0236   -0.6029   21.4999 H   0  0  0  0  0  0  0  0  0  0  0  0
    8.4335   -2.2878   23.9372 H   0  0  0  0  0  0  0  0  0  0  0  0
    9.9494   -3.0792   23.4738 H   0  0  0  0  0  0  0  0  0  0  0  0
    9.4145   -3.1043   25.1664 H   0  0  0  0  0  0  0  0  0  0  0  0
    8.1753    1.1687   24.2960 H   0  0  0  0  0  0  0  0  0  0  0  0
    8.4809    2.7036   23.4781 H   0  0  0  0  0  0  0  0  0  0  0  0
   13.2268    1.5357   21.8490 H   0  0  0  0  0  0  0  0  0  0  0  0
   14.3834    0.7365   22.9174 H   0  0  0  0  0  0  0  0  0  0  0  0
   11.2227   -1.4305   24.8315 H   0  0  0  0  0  0  0  0  0  0  0  0
    9.7134   -0.6682   25.3404 H   0  0  0  0  0  0  0  0  0  0  0  0
   10.6779    2.9028   24.6383 H   0  0  0  0  0  0  0  0  0  0  0  0
   10.3789    1.4313   25.5221 H   0  0  0  0  0  0  0  0  0  0  0  0
   12.5423    0.1584   24.5023 H   0  0  0  0  0  0  0  0  0  0  0  0
   12.7308    1.8793   24.3028 H   0  0  0  0  0  0  0  0  0  0  0  0
   10.7296   -0.8638   22.4535 H   0  0  0  0  0  0  0  0  0  0  0  0
    9.1937   -0.1915   22.8977 H   0  0  0  0  0  0  0  0  0  0  0  0
   11.2470    3.6640   21.1933 H   0  0  0  0  0  0  0  0  0  0  0  0
   11.7783    3.4855   22.8558 H   0  0  0  0  0  0  0  0  0  0  0  0
  1 11  1  0  0  0  0
  1 12  1  0  0  0  0
  1 13  2  0  0  0  0
  2  5  1  0  0  0  0
  3  6  1  0  0  0  0
  4  7  1  0  0  0  0
  5  8  1  0  0  0  0
  6  9  1  0  0  0  0
  7 10  1  0  0  0  0
  8 11  1  0  0  0  0
  9 11  1  0  0  0  0
 10 11  1  0  0  0  0
  2 14  1  0  0  0  0
  2 15  1  0  0  0  0
  2 16  1  0  0  0  0
  3 17  1  0  0  0  0
  3 18  1  0  0  0  0
  3 19  1  0  0  0  0
  4 20  1  0  0  0  0
  4 21  1  0  0  0  0
  4 22  1  0  0  0  0
  5 23  1  0  0  0  0
  5 24  1  0  0  0  0
  6 25  1  0  0  0  0
  6 26  1  0  0  0  0
  7 27  1  0  0  0  0
  7 28  1  0  0  0  0
  8 29  1  0  0  0  0
  8 30  1  0  0  0  0
  9 31  1  0  0  0  0
  9 32  1  0  0  0  0
 10 33  1  0  0  0  0
 10 34  1  0  0  0  0
 12 35  1  0  0  0  0
 12 36  1  0  0  0  0
M  END
> <Hybrid2>
-7.637971

> <docked_fragment>
x0874

> <Mpro-_dock>
1.193148

> <site>
active-noncovalent

$$$$
CHEMBL1419
  -OEChem-04122014263D

 46 47  0     1  0  0  0  0  0999 V2000
   10.9210   -1.0764   24.3072 C   0  0  0  0  0  0  0  0  0  0  0  0
   10.4717   -1.4030   21.9559 C   0  0  0  0  0  0  0  0  0  0  0  0
    9.7575   -1.7762   24.6268 C   0  0  0  0  0  0  0  0  0  0  0  0
    9.3082   -2.1029   22.2755 C   0  0  0  0  0  0  0  0  0  0  0  0
   11.2781   -0.8897   22.9718 C   0  0  0  0  0  0  0  0  0  0  0  0
    8.9511   -2.2895   23.6109 C   0  0  0  0  0  0  0  0  0  0  0  0
   14.3759   -1.3233   22.8062 C   0  0  0  0  0  0  0  0  0  0  0  0
   13.8129   -0.1496   23.6269 C   0  0  0  0  0  0  0  0  0  0  0  0
   13.6196   -0.7544   21.5927 C   0  0  0  0  0  0  0  0  0  0  0  0
   12.6225   -0.0806   22.6033 C   0  0  0  0  0  0  0  0  0  0  0  0
   13.0552    3.9931   20.7368 C   0  0  0  0  0  0  0  0  0  0  0  0
   14.3247    4.6361   22.7952 C   0  0  0  0  0  0  0  0  0  0  0  0
   11.1512    2.0545   24.3332 C   0  0  0  0  0  0  0  0  0  0  0  0
   10.2551    2.8386   22.1462 C   0  0  0  0  0  0  0  0  0  0  0  0
   13.3642    2.3193   22.6399 C   0  0  0  0  0  0  0  0  0  0  0  0
   12.2517    1.3520   22.2126 C   0  0  2  0  0  0  0  0  0  0  0  0
   13.1646    3.7980   22.2492 C   0  0  0  0  0  0  0  0  0  0  0  0
   10.9714    1.7294   22.8727 N   0  3  0  0  0  0  0  0  0  0  0  0
    7.5158   -3.1525   24.0051 Cl  0  0  0  0  0  0  0  0  0  0  0  0
   11.5440   -0.6798   25.1043 H   0  0  0  0  0  0  0  0  0  0  0  0
   10.7437   -1.2613   20.9135 H   0  0  0  0  0  0  0  0  0  0  0  0
    9.4920   -1.9137   25.6718 H   0  0  0  0  0  0  0  0  0  0  0  0
    8.6892   -2.4975   21.4737 H   0  0  0  0  0  0  0  0  0  0  0  0
   15.4650   -1.3077   22.6981 H   0  0  0  0  0  0  0  0  0  0  0  0
   14.0666   -2.3186   23.1317 H   0  0  0  0  0  0  0  0  0  0  0  0
   13.5148   -0.4345   24.6405 H   0  0  0  0  0  0  0  0  0  0  0  0
   14.4532    0.7317   23.6829 H   0  0  0  0  0  0  0  0  0  0  0  0
   14.1943   -0.0785   20.9582 H   0  0  0  0  0  0  0  0  0  0  0  0
   13.1658   -1.5275   20.9655 H   0  0  0  0  0  0  0  0  0  0  0  0
   13.9508    3.6320   20.2226 H   0  0  0  0  0  0  0  0  0  0  0  0
   12.2039    3.4339   20.3336 H   0  0  0  0  0  0  0  0  0  0  0  0
   12.9160    5.0491   20.4817 H   0  0  0  0  0  0  0  0  0  0  0  0
   15.2775    4.3069   22.3672 H   0  0  0  0  0  0  0  0  0  0  0  0
   14.1948    5.6977   22.5588 H   0  0  0  0  0  0  0  0  0  0  0  0
   14.3976    4.5377   23.8835 H   0  0  0  0  0  0  0  0  0  0  0  0
   11.8091    2.9226   24.4036 H   0  0  0  0  0  0  0  0  0  0  0  0
   10.1664    2.2733   24.7505 H   0  0  0  0  0  0  0  0  0  0  0  0
   11.5977    1.1836   24.8169 H   0  0  0  0  0  0  0  0  0  0  0  0
   10.8950    3.7226   22.1724 H   0  0  0  0  0  0  0  0  0  0  0  0
   10.0827    2.5090   21.1199 H   0  0  0  0  0  0  0  0  0  0  0  0
    9.3114    3.0219   22.6635 H   0  0  0  0  0  0  0  0  0  0  0  0
   13.4907    2.2587   23.7300 H   0  0  0  0  0  0  0  0  0  0  0  0
   14.3128    1.9650   22.2134 H   0  0  0  0  0  0  0  0  0  0  0  0
   12.0692    1.4026   21.1349 H   0  0  0  0  0  0  0  0  0  0  0  0
   12.2454    4.1747   22.7131 H   0  0  0  0  0  0  0  0  0  0  0  0
   10.3473    0.9075   22.8338 H   0  0  0  0  0  0  0  0  0  0  0  0
  1  3  2  0  0  0  0
  1  5  1  0  0  0  0
  2  4  1  0  0  0  0
  2  5  2  0  0  0  0
  3  6  1  0  0  0  0
  4  6  2  0  0  0  0
  5 10  1  0  0  0  0
  6 19  1  0  0  0  0
  7  8  1  0  0  0  0
  7  9  1  0  0  0  0
  8 10  1  0  0  0  0
  9 10  1  0  0  0  0
 10 16  1  0  0  0  0
 11 17  1  0  0  0  0
 12 17  1  0  0  0  0
 13 18  1  0  0  0  0
 14 18  1  0  0  0  0
 15 16  1  0  0  0  0
 15 17  1  0  0  0  0
 16 18  1  0  0  0  0
  1 20  1  0  0  0  0
  2 21  1  0  0  0  0
  3 22  1  0  0  0  0
  4 23  1  0  0  0  0
  7 24  1  0  0  0  0
  7 25  1  0  0  0  0
  8 26  1  0  0  0  0
  8 27  1  0  0  0  0
  9 28  1  0  0  0  0
  9 29  1  0  0  0  0
 11 30  1  0  0  0  0
 11 31  1  0  0  0  0
 11 32  1  0  0  0  0
 12 33  1  0  0  0  0
 12 34  1  0  0  0  0
 12 35  1  0  0  0  0
 13 36  1  0  0  0  0
 13 37  1  0  0  0  0
 13 38  1  0  0  0  0
 14 39  1  0  0  0  0
 14 40  1  0  0  0  0
 14 41  1  0  0  0  0
 15 42  1  0  0  0  0
 15 43  1  0  0  0  0
 16 44  1  0  0  0  0
 17 45  1  0  0  0  0
 18 46  1  0  0  0  0
M  CHG  1  18   1
M  END
> <Hybrid2>
-7.627319

> <docked_fragment>
x0195

> <Mpro-_dock>
0.809616

> <site>
active-noncovalent

$$$$
EDRUG364
  -OEChem-04122014263D

 46 47  0     1  0  0  0  0  0999 V2000
   10.9210   -1.0764   24.3072 C   0  0  0  0  0  0  0  0  0  0  0  0
   10.4717   -1.4030   21.9559 C   0  0  0  0  0  0  0  0  0  0  0  0
    9.7575   -1.7762   24.6268 C   0  0  0  0  0  0  0  0  0  0  0  0
    9.3082   -2.1029   22.2755 C   0  0  0  0  0  0  0  0  0  0  0  0
   11.2781   -0.8897   22.9718 C   0  0  0  0  0  0  0  0  0  0  0  0
    8.9511   -2.2895   23.6109 C   0  0  0  0  0  0  0  0  0  0  0  0
   14.3759   -1.3233   22.8062 C   0  0  0  0  0  0  0  0  0  0  0  0
   13.8129   -0.1496   23.6269 C   0  0  0  0  0  0  0  0  0  0  0  0
   13.6196   -0.7544   21.5927 C   0  0  0  0  0  0  0  0  0  0  0  0
   12.6225   -0.0806   22.6033 C   0  0  0  0  0  0  0  0  0  0  0  0
   13.0552    3.9931   20.7368 C   0  0  0  0  0  0  0  0  0  0  0  0
   14.3247    4.6361   22.7952 C   0  0  0  0  0  0  0  0  0  0  0  0
   11.1512    2.0545   24.3332 C   0  0  0  0  0  0  0  0  0  0  0  0
   10.2551    2.8386   22.1462 C   0  0  0  0  0  0  0  0  0  0  0  0
   13.3642    2.3193   22.6399 C   0  0  0  0  0  0  0  0  0  0  0  0
   12.2517    1.3520   22.2126 C   0  0  2  0  0  0  0  0  0  0  0  0
   13.1646    3.7980   22.2492 C   0  0  0  0  0  0  0  0  0  0  0  0
   10.9714    1.7294   22.8727 N   0  3  0  0  0  0  0  0  0  0  0  0
    7.5158   -3.1525   24.0051 Cl  0  0  0  0  0  0  0  0  0  0  0  0
   11.5440   -0.6798   25.1043 H   0  0  0  0  0  0  0  0  0  0  0  0
   10.7437   -1.2613   20.9135 H   0  0  0  0  0  0  0  0  0  0  0  0
    9.4920   -1.9137   25.6718 H   0  0  0  0  0  0  0  0  0  0  0  0
    8.6892   -2.4975   21.4737 H   0  0  0  0  0  0  0  0  0  0  0  0
   15.4650   -1.3077   22.6981 H   0  0  0  0  0  0  0  0  0  0  0  0
   14.0666   -2.3186   23.1317 H   0  0  0  0  0  0  0  0  0  0  0  0
   13.5148   -0.4345   24.6405 H   0  0  0  0  0  0  0  0  0  0  0  0
   14.4532    0.7317   23.6829 H   0  0  0  0  0  0  0  0  0  0  0  0
   14.1943   -0.0785   20.9582 H   0  0  0  0  0  0  0  0  0  0  0  0
   13.1658   -1.5275   20.9655 H   0  0  0  0  0  0  0  0  0  0  0  0
   13.9508    3.6320   20.2226 H   0  0  0  0  0  0  0  0  0  0  0  0
   12.2039    3.4339   20.3336 H   0  0  0  0  0  0  0  0  0  0  0  0
   12.9160    5.0491   20.4817 H   0  0  0  0  0  0  0  0  0  0  0  0
   15.2775    4.3069   22.3672 H   0  0  0  0  0  0  0  0  0  0  0  0
   14.1948    5.6977   22.5588 H   0  0  0  0  0  0  0  0  0  0  0  0
   14.3976    4.5377   23.8835 H   0  0  0  0  0  0  0  0  0  0  0  0
   11.8091    2.9226   24.4036 H   0  0  0  0  0  0  0  0  0  0  0  0
   10.1664    2.2733   24.7505 H   0  0  0  0  0  0  0  0  0  0  0  0
   11.5977    1.1836   24.8169 H   0  0  0  0  0  0  0  0  0  0  0  0
   10.8950    3.7226   22.1724 H   0  0  0  0  0  0  0  0  0  0  0  0
   10.0827    2.5090   21.1199 H   0  0  0  0  0  0  0  0  0  0  0  0
    9.3114    3.0219   22.6635 H   0  0  0  0  0  0  0  0  0  0  0  0
   13.4907    2.2587   23.7300 H   0  0  0  0  0  0  0  0  0  0  0  0
   14.3128    1.9650   22.2134 H   0  0  0  0  0  0  0  0  0  0  0  0
   12.0692    1.4026   21.1349 H   0  0  0  0  0  0  0  0  0  0  0  0
   12.2454    4.1747   22.7131 H   0  0  0  0  0  0  0  0  0  0  0  0
   10.3473    0.9075   22.8338 H   0  0  0  0  0  0  0  0  0  0  0  0
  1  3  2  0  0  0  0
  1  5  1  0  0  0  0
  2  4  1  0  0  0  0
  2  5  2  0  0  0  0
  3  6  1  0  0  0  0
  4  6  2  0  0  0  0
  5 10  1  0  0  0  0
  6 19  1  0  0  0  0
  7  8  1  0  0  0  0
  7  9  1  0  0  0  0
  8 10  1  0  0  0  0
  9 10  1  0  0  0  0
 10 16  1  0  0  0  0
 11 17  1  0  0  0  0
 12 17  1  0  0  0  0
 13 18  1  0  0  0  0
 14 18  1  0  0  0  0
 15 16  1  0  0  0  0
 15 17  1  0  0  0  0
 16 18  1  0  0  0  0
  1 20  1  0  0  0  0
  2 21  1  0  0  0  0
  3 22  1  0  0  0  0
  4 23  1  0  0  0  0
  7 24  1  0  0  0  0
  7 25  1  0  0  0  0
  8 26  1  0  0  0  0
  8 27  1  0  0  0  0
  9 28  1  0  0  0  0
  9 29  1  0  0  0  0
 11 30  1  0  0  0  0
 11 31  1  0  0  0  0
 11 32  1  0  0  0  0
 12 33  1  0  0  0  0
 12 34  1  0  0  0  0
 12 35  1  0  0  0  0
 13 36  1  0  0  0  0
 13 37  1  0  0  0  0
 13 38  1  0  0  0  0
 14 39  1  0  0  0  0
 14 40  1  0  0  0  0
 14 41  1  0  0  0  0
 15 42  1  0  0  0  0
 15 43  1  0  0  0  0
 16 44  1  0  0  0  0
 17 45  1  0  0  0  0
 18 46  1  0  0  0  0
M  CHG  1  18   1
M  END
> <Hybrid2>
-7.627319

> <docked_fragment>
x0195

> <Mpro-_dock>
0.809616

> <site>
active-noncovalent

$$$$
CHEMBL2106773
  -OEChem-04122014263D

 60 63  0     1  0  0  0  0  0999 V2000
    7.0846   -5.9176   25.3473 C   0  0  0  0  0  0  0  0  0  0  0  0
    8.1335   -5.0830   25.4330 C   0  0  0  0  0  0  0  0  0  0  0  0
    5.8166   -5.6195   26.0527 C   0  0  0  0  0  0  0  0  0  0  0  0
    9.8067    2.1845   23.0405 C   0  0  0  0  0  0  0  0  0  0  0  0
    7.9357    1.5940   21.1194 C   0  0  0  0  0  0  0  0  0  0  0  0
    9.3105   -5.2580   24.5065 C   0  0  0  0  0  0  0  0  0  0  0  0
    5.6614   -4.2555   26.6742 C   0  0  0  0  0  0  0  0  0  0  0  0
    9.4043   -4.0480   23.5771 C   0  0  0  0  0  0  0  0  0  0  0  0
    6.9743   -3.8296   27.3056 C   0  0  0  0  0  0  0  0  0  0  0  0
   10.3735   -1.4257   22.2404 C   0  0  0  0  0  0  0  0  0  0  0  0
   10.2763    0.0388   21.7649 C   0  0  0  0  0  0  0  0  0  0  0  0
    8.2193   -0.0353   25.0085 C   0  0  0  0  0  0  0  0  0  0  0  0
    9.4171   -2.7052   24.3378 C   0  0  1  0  0  0  0  0  0  0  0  0
    9.3373   -1.5268   23.3566 C   0  0  1  0  0  0  0  0  0  0  0  0
    8.1353   -1.2016   26.0209 C   0  0  1  0  0  0  0  0  0  0  0  0
    8.1887   -3.8401   26.3322 C   0  0  2  0  0  0  0  0  0  0  0  0
    9.3829    0.7677   22.7946 C   0  0  1  0  0  0  0  0  0  0  0  0
    9.4211   -0.1474   24.0491 C   0  0  1  0  0  0  0  0  0  0  0  0
    8.2227   -2.6027   25.3529 C   0  0  2  0  0  0  0  0  0  0  0  0
   11.2723    2.4889   22.8864 C   0  0  0  0  0  0  0  0  0  0  0  0
    6.4984    1.6271   20.6962 C   0  0  0  0  0  0  0  0  0  0  0  0
    9.4412   -3.9295   27.2441 C   0  0  0  0  0  0  0  0  0  0  0  0
   10.7540    0.0761   24.8163 C   0  0  0  0  0  0  0  0  0  0  0  0
    4.9021   -6.4405   26.0461 O   0  0  0  0  0  0  0  0  0  0  0  0
    8.9959    3.0558   23.3509 O   0  0  0  0  0  0  0  0  0  0  0  0
    8.8442    2.1336   20.5025 O   0  0  0  0  0  0  0  0  0  0  0  0
    9.1207   -1.0391   27.0283 O   0  0  0  0  0  0  0  0  0  0  0  0
    8.0602    0.8798   22.2774 O   0  0  0  0  0  0  0  0  0  0  0  0
    7.0742   -2.6877   24.5856 F   0  0  0  0  0  0  0  0  0  0  0  0
    7.1416   -6.8625   24.8227 H   0  0  0  0  0  0  0  0  0  0  0  0
   10.2201   -5.3383   25.0912 H   0  0  0  0  0  0  0  0  0  0  0  0
    9.2189   -6.1547   23.9046 H   0  0  0  0  0  0  0  0  0  0  0  0
    5.3911   -3.5443   25.8881 H   0  0  0  0  0  0  0  0  0  0  0  0
    4.8476   -4.2899   27.4027 H   0  0  0  0  0  0  0  0  0  0  0  0
   10.3185   -4.1451   22.9736 H   0  0  0  0  0  0  0  0  0  0  0  0
    8.5634   -4.0706   22.8664 H   0  0  0  0  0  0  0  0  0  0  0  0
    6.8343   -2.8153   27.7144 H   0  0  0  0  0  0  0  0  0  0  0  0
    7.1725   -4.4762   28.1744 H   0  0  0  0  0  0  0  0  0  0  0  0
   10.1632   -2.1199   21.4204 H   0  0  0  0  0  0  0  0  0  0  0  0
   11.3826   -1.6434   22.6077 H   0  0  0  0  0  0  0  0  0  0  0  0
   11.2823    0.4701   21.7089 H   0  0  0  0  0  0  0  0  0  0  0  0
    9.8447    0.0749   20.7581 H   0  0  0  0  0  0  0  0  0  0  0  0
    7.2820   -0.0278   24.4371 H   0  0  0  0  0  0  0  0  0  0  0  0
    8.2671    0.9218   25.5439 H   0  0  0  0  0  0  0  0  0  0  0  0
   10.3703   -2.6486   24.8901 H   0  0  0  0  0  0  0  0  0  0  0  0
    8.3600   -1.6058   22.8544 H   0  0  0  0  0  0  0  0  0  0  0  0
    7.1598   -1.1132   26.5167 H   0  0  0  0  0  0  0  0  0  0  0  0
   11.4817    2.7810   21.8536 H   0  0  0  0  0  0  0  0  0  0  0  0
   11.8586    1.5988   23.1277 H   0  0  0  0  0  0  0  0  0  0  0  0
   11.5470    3.3129   23.5494 H   0  0  0  0  0  0  0  0  0  0  0  0
    6.2833    0.7753   20.0464 H   0  0  0  0  0  0  0  0  0  0  0  0
    6.2846    2.5677   20.1823 H   0  0  0  0  0  0  0  0  0  0  0  0
    5.8583    1.5611   21.5808 H   0  0  0  0  0  0  0  0  0  0  0  0
    9.4768   -3.0518   27.8764 H   0  0  0  0  0  0  0  0  0  0  0  0
   10.3250   -3.9746   26.6209 H   0  0  0  0  0  0  0  0  0  0  0  0
    9.3686   -4.8225   27.8514 H   0  0  0  0  0  0  0  0  0  0  0  0
   11.5711   -0.0093   24.1153 H   0  0  0  0  0  0  0  0  0  0  0  0
   10.8368   -0.6774   25.5856 H   0  0  0  0  0  0  0  0  0  0  0  0
   10.7351    1.0629   25.2551 H   0  0  0  0  0  0  0  0  0  0  0  0
    8.9380   -0.1923   27.4681 H   0  0  0  0  0  0  0  0  0  0  0  0
  1  2  2  0  0  0  0
  1  3  1  0  0  0  0
  2  6  1  0  0  0  0
  2 16  1  0  0  0  0
  3  7  1  0  0  0  0
  3 24  2  0  0  0  0
  4 17  1  0  0  0  0
  4 20  1  0  0  0  0
  4 25  2  0  0  0  0
  5 21  1  0  0  0  0
  5 26  2  0  0  0  0
  5 28  1  0  0  0  0
  6  8  1  0  0  0  0
  7  9  1  0  0  0  0
  8 13  1  0  0  0  0
  9 16  1  0  0  0  0
 10 11  1  0  0  0  0
 10 14  1  0  0  0  0
 11 17  1  0  0  0  0
 12 15  1  0  0  0  0
 12 18  1  0  0  0  0
 13 14  1  0  0  0  0
 13 19  1  0  0  0  0
 14 18  1  0  0  0  0
 15 19  1  0  0  0  0
 15 27  1  0  0  0  0
 16 19  1  0  0  0  0
 16 22  1  0  0  0  0
 17 18  1  0  0  0  0
 17 28  1  0  0  0  0
 18 23  1  0  0  0  0
 19 29  1  0  0  0  0
  1 30  1  0  0  0  0
  6 31  1  0  0  0  0
  6 32  1  0  0  0  0
  7 33  1  0  0  0  0
  7 34  1  0  0  0  0
  8 35  1  0  0  0  0
  8 36  1  0  0  0  0
  9 37  1  0  0  0  0
  9 38  1  0  0  0  0
 10 39  1  0  0  0  0
 10 40  1  0  0  0  0
 11 41  1  0  0  0  0
 11 42  1  0  0  0  0
 12 43  1  0  0  0  0
 12 44  1  0  0  0  0
 13 45  1  0  0  0  0
 14 46  1  0  0  0  0
 15 47  1  0  0  0  0
 20 48  1  0  0  0  0
 20 49  1  0  0  0  0
 20 50  1  0  0  0  0
 21 51  1  0  0  0  0
 21 52  1  0  0  0  0
 21 53  1  0  0  0  0
 22 54  1  0  0  0  0
 22 55  1  0  0  0  0
 22 56  1  0  0  0  0
 23 57  1  0  0  0  0
 23 58  1  0  0  0  0
 23 59  1  0  0  0  0
 27 60  1  0  0  0  0
M  END
> <Hybrid2>
-7.624941

> <docked_fragment>
x1077

> <Mpro-_dock>
4.417883

> <site>
active-noncovalent

$$$$
CHEMBL505851
  -OEChem-04122014263D

 37 39  0     1  0  0  0  0  0999 V2000
   12.7153    1.2148   24.1752 C   0  0  0  0  0  0  0  0  0  0  0  0
   13.0382    1.8720   23.0454 C   0  0  0  0  0  0  0  0  0  0  0  0
   11.3260    3.6190   23.5095 C   0  0  0  0  0  0  0  0  0  0  0  0
   13.8113    4.2386   23.1179 C   0  0  0  0  0  0  0  0  0  0  0  0
   12.2688    5.7696   24.3240 C   0  0  0  0  0  0  0  0  0  0  0  0
   13.8265    1.1753   21.9536 C   0  0  0  0  0  0  0  0  0  0  0  0
   12.2032   -1.1462   23.5973 C   0  0  0  0  0  0  0  0  0  0  0  0
   12.7765   -1.1470   22.1690 C   0  0  0  0  0  0  0  0  0  0  0  0
   14.4837   -0.4829   23.7099 C   0  0  0  0  0  0  0  0  0  0  0  0
   13.1357   -0.2218   24.3901 C   0  0  1  0  0  0  0  0  0  0  0  0
   14.0792   -0.3238   22.2433 C   0  0  2  0  0  0  0  0  0  0  0  0
   12.6353    3.3299   22.7884 C   0  0  0  0  0  0  0  0  0  0  0  0
   11.9647    4.9253   21.0208 C   0  0  0  0  0  0  0  0  0  0  0  0
   12.3610    3.5206   21.3204 C   0  0  0  0  0  0  0  0  0  0  0  0
   11.2520    4.8414   24.1553 N   0  0  0  0  0  0  0  0  0  0  0  0
   13.4996    5.4021   23.8007 N   0  0  0  0  0  0  0  0  0  0  0  0
   10.3721    2.8389   23.4858 O   0  0  0  0  0  0  0  0  0  0  0  0
   14.9638    3.9837   22.7631 O   0  0  0  0  0  0  0  0  0  0  0  0
   12.0961    6.8364   24.9163 O   0  0  0  0  0  0  0  0  0  0  0  0
   12.1289    1.6954   24.9522 H   0  0  0  0  0  0  0  0  0  0  0  0
   13.3049    1.2793   20.9947 H   0  0  0  0  0  0  0  0  0  0  0  0
   14.7945    1.6825   21.8543 H   0  0  0  0  0  0  0  0  0  0  0  0
   11.1559   -0.8254   23.6151 H   0  0  0  0  0  0  0  0  0  0  0  0
   12.2436   -2.1630   24.0065 H   0  0  0  0  0  0  0  0  0  0  0  0
   12.9966   -2.1780   21.8679 H   0  0  0  0  0  0  0  0  0  0  0  0
   12.0643   -0.7391   21.4442 H   0  0  0  0  0  0  0  0  0  0  0  0
   15.2675    0.2185   24.0163 H   0  0  0  0  0  0  0  0  0  0  0  0
   14.8347   -1.5021   23.9125 H   0  0  0  0  0  0  0  0  0  0  0  0
   13.1607   -0.4586   25.4576 H   0  0  0  0  0  0  0  0  0  0  0  0
   14.8347   -0.7135   21.5537 H   0  0  0  0  0  0  0  0  0  0  0  0
   11.0605    5.1748   21.5885 H   0  0  0  0  0  0  0  0  0  0  0  0
   11.7432    5.0535   19.9560 H   0  0  0  0  0  0  0  0  0  0  0  0
   12.7532    5.6273   21.3121 H   0  0  0  0  0  0  0  0  0  0  0  0
   13.2597    3.2588   20.7619 H   0  0  0  0  0  0  0  0  0  0  0  0
   11.5656    2.8368   21.0237 H   0  0  0  0  0  0  0  0  0  0  0  0
   10.3485    5.0898   24.5461 H   0  0  0  0  0  0  0  0  0  0  0  0
   14.2596    6.0620   23.9337 H   0  0  0  0  0  0  0  0  0  0  0  0
  1  2  2  0  0  0  0
  1 10  1  0  0  0  0
  2  6  1  0  0  0  0
  2 12  1  0  0  0  0
  3 12  1  0  0  0  0
  3 15  1  0  0  0  0
  3 17  2  0  0  0  0
  4 12  1  0  0  0  0
  4 16  1  0  0  0  0
  4 18  2  0  0  0  0
  5 15  1  0  0  0  0
  5 16  1  0  0  0  0
  5 19  2  0  0  0  0
  6 11  1  0  0  0  0
  7  8  1  0  0  0  0
  7 10  1  0  0  0  0
  8 11  1  0  0  0  0
  9 10  1  0  0  0  0
  9 11  1  0  0  0  0
 12 14  1  0  0  0  0
 13 14  1  0  0  0  0
  1 20  1  0  0  0  0
  6 21  1  0  0  0  0
  6 22  1  0  0  0  0
  7 23  1  0  0  0  0
  7 24  1  0  0  0  0
  8 25  1  0  0  0  0
  8 26  1  0  0  0  0
  9 27  1  0  0  0  0
  9 28  1  0  0  0  0
 10 29  1  0  0  0  0
 11 30  1  0  0  0  0
 13 31  1  0  0  0  0
 13 32  1  0  0  0  0
 13 33  1  0  0  0  0
 14 34  1  0  0  0  0
 14 35  1  0  0  0  0
 15 36  1  0  0  0  0
 16 37  1  0  0  0  0
M  END
> <Hybrid2>
-7.623587

> <docked_fragment>
x0195

> <Mpro-_dock>
0.992434

> <site>
active-noncovalent

$$$$
DB07726
  -OEChem-04122014263D

 26 26  0     0  0  0  0  0  0999 V2000
   12.2478    3.4142   23.1111 C   0  0  0  0  0  0  0  0  0  0  0  0
   11.2969    2.4776   23.5160 C   0  0  0  0  0  0  0  0  0  0  0  0
   13.7719    1.6251   22.5516 C   0  0  0  0  0  0  0  0  0  0  0  0
   12.8210    0.6884   22.9566 C   0  0  0  0  0  0  0  0  0  0  0  0
   13.4853    2.9880   22.6289 C   0  0  0  0  0  0  0  0  0  0  0  0
   11.5835    1.1147   23.4388 C   0  0  0  0  0  0  0  0  0  0  0  0
   14.3902   -1.1214   23.7362 C   0  0  0  0  0  0  0  0  0  0  0  0
   13.4598   -1.1851   21.3982 C   0  0  0  0  0  0  0  0  0  0  0  0
   12.0130   -1.7350   23.3438 C   0  0  0  0  0  0  0  0  0  0  0  0
   13.1545   -0.8098   22.8645 C   0  0  0  0  0  0  0  0  0  0  0  0
   14.4127    3.9024   22.2335 O   0  0  0  0  0  0  0  0  0  0  0  0
   10.6437    0.2132   23.8397 O   0  0  0  0  0  0  0  0  0  0  0  0
   12.0188    4.4745   23.1730 H   0  0  0  0  0  0  0  0  0  0  0  0
   10.3338    2.8165   23.8886 H   0  0  0  0  0  0  0  0  0  0  0  0
   14.7379    1.2963   22.1759 H   0  0  0  0  0  0  0  0  0  0  0  0
   14.6498   -2.1855   23.6881 H   0  0  0  0  0  0  0  0  0  0  0  0
   15.2756   -0.5615   23.4158 H   0  0  0  0  0  0  0  0  0  0  0  0
   14.2049   -0.8703   24.7873 H   0  0  0  0  0  0  0  0  0  0  0  0
   13.7037   -2.2470   21.2841 H   0  0  0  0  0  0  0  0  0  0  0  0
   12.5984   -0.9831   20.7508 H   0  0  0  0  0  0  0  0  0  0  0  0
   14.3093   -0.6092   21.0123 H   0  0  0  0  0  0  0  0  0  0  0  0
   12.2980   -2.7906   23.2590 H   0  0  0  0  0  0  0  0  0  0  0  0
   11.7607   -1.5535   24.3952 H   0  0  0  0  0  0  0  0  0  0  0  0
   11.1044   -1.5980   22.7459 H   0  0  0  0  0  0  0  0  0  0  0  0
   14.0674    4.8023   22.3466 H   0  0  0  0  0  0  0  0  0  0  0  0
    9.8469    0.6739   24.1460 H   0  0  0  0  0  0  0  0  0  0  0  0
  1  2  2  0  0  0  0
  1  5  1  0  0  0  0
  2  6  1  0  0  0  0
  3  4  1  0  0  0  0
  3  5  2  0  0  0  0
  4  6  2  0  0  0  0
  4 10  1  0  0  0  0
  5 11  1  0  0  0  0
  6 12  1  0  0  0  0
  7 10  1  0  0  0  0
  8 10  1  0  0  0  0
  9 10  1  0  0  0  0
  1 13  1  0  0  0  0
  2 14  1  0  0  0  0
  3 15  1  0  0  0  0
  7 16  1  0  0  0  0
  7 17  1  0  0  0  0
  7 18  1  0  0  0  0
  8 19  1  0  0  0  0
  8 20  1  0  0  0  0
  8 21  1  0  0  0  0
  9 22  1  0  0  0  0
  9 23  1  0  0  0  0
  9 24  1  0  0  0  0
 11 25  1  0  0  0  0
 12 26  1  0  0  0  0
M  END
> <Hybrid2>
-7.620463

> <docked_fragment>
x0195

> <Mpro-_dock>
1.300411

> <site>
active-noncovalent

$$$$
EDRUG65
  -OEChem-04122014263D

 30 30  0     1  0  0  0  0  0999 V2000
   11.9869   -0.4747   23.7111 C   0  0  0  0  0  0  0  0  0  0  0  0
   10.9466    0.2562   21.4571 C   0  0  0  0  0  0  0  0  0  0  0  0
   11.7377   -2.0696   21.8243 C   0  0  0  0  0  0  0  0  0  0  0  0
   12.6630   -1.5861   22.9303 C   0  0  1  0  0  0  0  0  0  0  0  0
   10.9668    0.4118   22.9840 C   0  0  0  0  0  0  0  0  0  0  0  0
   14.0103   -1.0976   22.4078 C   0  0  0  0  0  0  0  0  0  0  0  0
   12.6529    2.2566   22.8896 C   0  0  0  0  0  0  0  0  0  0  0  0
    9.4688    0.2802   24.9793 C   0  0  0  0  0  0  0  0  0  0  0  0
   11.2782    1.8788   23.3236 C   0  0  0  0  0  0  0  0  0  0  0  0
    9.5705    0.0498   23.5109 C   0  0  0  0  0  0  0  0  0  0  0  0
   11.3152   -0.9806   20.9745 N   0  0  0  0  0  0  0  0  0  0  0  0
   12.2695   -0.2947   24.8984 O   0  0  0  0  0  0  0  0  0  0  0  0
   10.5728    1.1604   20.7083 O   0  0  0  0  0  0  0  0  0  0  0  0
   12.2248   -2.8203   21.1827 H   0  0  0  0  0  0  0  0  0  0  0  0
   10.8291   -2.5288   22.2414 H   0  0  0  0  0  0  0  0  0  0  0  0
   12.8537   -2.4054   23.6538 H   0  0  0  0  0  0  0  0  0  0  0  0
   13.8603   -0.2899   21.6922 H   0  0  0  0  0  0  0  0  0  0  0  0
   14.5360   -1.9150   21.9153 H   0  0  0  0  0  0  0  0  0  0  0  0
   14.6184   -0.7313   23.2344 H   0  0  0  0  0  0  0  0  0  0  0  0
   13.3819    1.6108   23.3932 H   0  0  0  0  0  0  0  0  0  0  0  0
   12.8783    3.2948   23.1557 H   0  0  0  0  0  0  0  0  0  0  0  0
   12.7738    2.1270   21.8089 H   0  0  0  0  0  0  0  0  0  0  0  0
   10.2155   -0.3355   25.4944 H   0  0  0  0  0  0  0  0  0  0  0  0
    8.4792   -0.0015   25.3547 H   0  0  0  0  0  0  0  0  0  0  0  0
    9.6634    1.3289   25.2277 H   0  0  0  0  0  0  0  0  0  0  0  0
   10.5431    2.5145   22.8292 H   0  0  0  0  0  0  0  0  0  0  0  0
   11.1759    2.0165   24.4002 H   0  0  0  0  0  0  0  0  0  0  0  0
    8.8329    0.6563   22.9854 H   0  0  0  0  0  0  0  0  0  0  0  0
    9.3739   -0.9977   23.2826 H   0  0  0  0  0  0  0  0  0  0  0  0
   11.2884   -1.1341   19.9708 H   0  0  0  0  0  0  0  0  0  0  0  0
  1  4  1  0  0  0  0
  1  5  1  0  0  0  0
  1 12  2  0  0  0  0
  2  5  1  0  0  0  0
  2 11  1  0  0  0  0
  2 13  2  0  0  0  0
  3  4  1  0  0  0  0
  3 11  1  0  0  0  0
  4  6  1  0  0  0  0
  5  9  1  0  0  0  0
  5 10  1  0  0  0  0
  7  9  1  0  0  0  0
  8 10  1  0  0  0  0
  3 14  1  0  0  0  0
  3 15  1  0  0  0  0
  4 16  1  0  0  0  0
  6 17  1  0  0  0  0
  6 18  1  0  0  0  0
  6 19  1  0  0  0  0
  7 20  1  0  0  0  0
  7 21  1  0  0  0  0
  7 22  1  0  0  0  0
  8 23  1  0  0  0  0
  8 24  1  0  0  0  0
  8 25  1  0  0  0  0
  9 26  1  0  0  0  0
  9 27  1  0  0  0  0
 10 28  1  0  0  0  0
 10 29  1  0  0  0  0
 11 30  1  0  0  0  0
M  END
> <Hybrid2>
-7.618734

> <docked_fragment>
x0678

> <Mpro-_dock>
2.683651

> <site>
active-noncovalent

$$$$
EDRUG60
  -OEChem-04122014263D

 38 38  0     1  0  0  0  0  0999 V2000
   10.8587    0.8611   21.6686 C   0  0  0  0  0  0  0  0  0  0  0  0
   11.0414    0.3990   24.1562 C   0  0  0  0  0  0  0  0  0  0  0  0
    9.2511   -0.6964   22.7905 C   0  0  0  0  0  0  0  0  0  0  0  0
   11.8696    4.2108   22.5610 C   0  0  0  0  0  0  0  0  0  0  0  0
   11.8763    3.1120   23.3240 C   0  0  0  0  0  0  0  0  0  0  0  0
   11.7882    0.6636   22.8570 C   0  0  0  0  0  0  0  0  0  0  0  0
   14.5630   -2.0451   23.4515 C   0  0  0  0  0  0  0  0  0  0  0  0
   11.7913   -1.7794   22.3083 C   0  0  0  0  0  0  0  0  0  0  0  0
    8.9669   -0.0885   20.4386 C   0  0  0  0  0  0  0  0  0  0  0  0
    9.3156   -0.9756   25.2189 C   0  0  0  0  0  0  0  0  0  0  0  0
   12.6905    1.8989   23.0203 C   0  0  0  0  0  0  0  0  0  0  0  0
   13.6554   -0.8510   23.7101 C   0  0  0  0  0  0  0  0  0  0  0  0
   12.6755   -0.5606   22.5646 C   0  0  2  0  0  0  0  0  0  0  0  0
    9.7493    0.0031   21.6668 N   0  0  0  0  0  0  0  0  0  0  0  0
    9.9203   -0.4305   24.0079 N   0  0  0  0  0  0  0  0  0  0  0  0
   11.1093    1.6702   20.7745 O   0  0  0  0  0  0  0  0  0  0  0  0
   11.4384    0.8402   25.2355 O   0  0  0  0  0  0  0  0  0  0  0  0
    8.2682   -1.4427   22.7243 O   0  0  0  0  0  0  0  0  0  0  0  0
   11.2641    5.0740   22.8141 H   0  0  0  0  0  0  0  0  0  0  0  0
   12.4775    4.2602   21.6642 H   0  0  0  0  0  0  0  0  0  0  0  0
   11.2739    3.1025   24.2288 H   0  0  0  0  0  0  0  0  0  0  0  0
   15.1177   -1.8991   22.5188 H   0  0  0  0  0  0  0  0  0  0  0  0
   13.9822   -2.9683   23.3588 H   0  0  0  0  0  0  0  0  0  0  0  0
   15.2956   -2.1744   24.2533 H   0  0  0  0  0  0  0  0  0  0  0  0
   11.1978   -2.0365   23.1923 H   0  0  0  0  0  0  0  0  0  0  0  0
   12.3951   -2.6528   22.0396 H   0  0  0  0  0  0  0  0  0  0  0  0
   11.1009   -1.5854   21.4807 H   0  0  0  0  0  0  0  0  0  0  0  0
    9.3726   -0.8900   19.8037 H   0  0  0  0  0  0  0  0  0  0  0  0
    7.9191   -0.3127   20.6873 H   0  0  0  0  0  0  0  0  0  0  0  0
    9.0189    0.8685   19.8987 H   0  0  0  0  0  0  0  0  0  0  0  0
    8.5425   -0.2847   25.5862 H   0  0  0  0  0  0  0  0  0  0  0  0
    8.8588   -1.9505   24.9936 H   0  0  0  0  0  0  0  0  0  0  0  0
   10.0898   -1.1027   25.9899 H   0  0  0  0  0  0  0  0  0  0  0  0
   13.2741    2.0189   22.1072 H   0  0  0  0  0  0  0  0  0  0  0  0
   13.3861    1.7121   23.8382 H   0  0  0  0  0  0  0  0  0  0  0  0
   13.1081   -1.0134   24.6466 H   0  0  0  0  0  0  0  0  0  0  0  0
   14.2889    0.0314   23.8645 H   0  0  0  0  0  0  0  0  0  0  0  0
   13.2424   -0.3514   21.6519 H   0  0  0  0  0  0  0  0  0  0  0  0
  1  6  1  0  0  0  0
  1 14  1  0  0  0  0
  1 16  2  0  0  0  0
  2  6  1  0  0  0  0
  2 15  1  0  0  0  0
  2 17  2  0  0  0  0
  3 14  1  0  0  0  0
  3 15  1  0  0  0  0
  3 18  2  0  0  0  0
  4  5  2  0  0  0  0
  5 11  1  0  0  0  0
  6 11  1  0  0  0  0
  6 13  1  0  0  0  0
  7 12  1  0  0  0  0
  8 13  1  0  0  0  0
  9 14  1  0  0  0  0
 10 15  1  0  0  0  0
 12 13  1  0  0  0  0
  4 19  1  0  0  0  0
  4 20  1  0  0  0  0
  5 21  1  0  0  0  0
  7 22  1  0  0  0  0
  7 23  1  0  0  0  0
  7 24  1  0  0  0  0
  8 25  1  0  0  0  0
  8 26  1  0  0  0  0
  8 27  1  0  0  0  0
  9 28  1  0  0  0  0
  9 29  1  0  0  0  0
  9 30  1  0  0  0  0
 10 31  1  0  0  0  0
 10 32  1  0  0  0  0
 10 33  1  0  0  0  0
 11 34  1  0  0  0  0
 11 35  1  0  0  0  0
 12 36  1  0  0  0  0
 12 37  1  0  0  0  0
 13 38  1  0  0  0  0
M  END
> <Hybrid2>
-7.610025

> <docked_fragment>
x0678

> <Mpro-_dock>
1.049557

> <site>
active-noncovalent

$$$$
CHEMBL959
  -OEChem-04122014263D

 35 37  0     1  0  0  0  0  0999 V2000
   14.1370   -0.9574   23.6418 C   0  0  0  0  0  0  0  0  0  0  0  0
   13.4716   -1.2228   21.2387 C   0  0  0  0  0  0  0  0  0  0  0  0
   11.8347   -1.7625   23.0599 C   0  0  0  0  0  0  0  0  0  0  0  0
   13.7947    1.0691   22.2043 C   0  0  0  0  0  0  0  0  0  0  0  0
   12.1540    0.5282   24.0297 C   0  0  0  0  0  0  0  0  0  0  0  0
   11.4870    0.2621   21.6214 C   0  0  0  0  0  0  0  0  0  0  0  0
   14.3013   -0.3836   22.2246 C   0  0  0  0  0  0  0  0  0  0  0  0
   12.6561   -0.9260   24.0548 C   0  0  0  0  0  0  0  0  0  0  0  0
   11.9875   -1.1929   21.6398 C   0  0  0  0  0  0  0  0  0  0  0  0
   12.3031    1.1271   22.6110 C   0  0  0  0  0  0  0  0  0  0  0  0
   11.2163    2.9888   23.9251 C   0  0  0  0  0  0  0  0  0  0  0  0
   11.8025    2.5737   22.5899 C   0  0  2  0  0  0  0  0  0  0  0  0
   10.7496    2.6822   21.5481 N   0  3  0  0  0  0  0  0  0  0  0  0
   14.5131   -1.9873   23.6746 H   0  0  0  0  0  0  0  0  0  0  0  0
   14.7369   -0.3767   24.3532 H   0  0  0  0  0  0  0  0  0  0  0  0
   13.5928   -0.8330   20.2205 H   0  0  0  0  0  0  0  0  0  0  0  0
   13.8360   -2.2574   21.2289 H   0  0  0  0  0  0  0  0  0  0  0  0
   12.1700   -2.8068   23.0825 H   0  0  0  0  0  0  0  0  0  0  0  0
   10.7774   -1.7614   23.3523 H   0  0  0  0  0  0  0  0  0  0  0  0
   14.3985    1.6793   22.8884 H   0  0  0  0  0  0  0  0  0  0  0  0
   13.9312    1.4928   21.2010 H   0  0  0  0  0  0  0  0  0  0  0  0
   11.1036    0.5607   24.3468 H   0  0  0  0  0  0  0  0  0  0  0  0
   12.7204    1.1260   24.7554 H   0  0  0  0  0  0  0  0  0  0  0  0
   11.5707    0.6675   20.6047 H   0  0  0  0  0  0  0  0  0  0  0  0
   10.4216    0.2883   21.8839 H   0  0  0  0  0  0  0  0  0  0  0  0
   15.3578   -0.4104   21.9351 H   0  0  0  0  0  0  0  0  0  0  0  0
   12.5449   -1.3377   25.0642 H   0  0  0  0  0  0  0  0  0  0  0  0
   11.4019   -1.7939   20.9352 H   0  0  0  0  0  0  0  0  0  0  0  0
   10.4058    2.3139   24.2198 H   0  0  0  0  0  0  0  0  0  0  0  0
   10.8121    4.0065   23.8924 H   0  0  0  0  0  0  0  0  0  0  0  0
   11.9806    2.9548   24.7090 H   0  0  0  0  0  0  0  0  0  0  0  0
   12.6107    3.2436   22.2921 H   0  0  0  0  0  0  0  0  0  0  0  0
    9.9780    2.0353   21.7398 H   0  0  0  0  0  0  0  0  0  0  0  0
   11.1284    2.4588   20.6220 H   0  0  0  0  0  0  0  0  0  0  0  0
   10.3664    3.6323   21.5136 H   0  0  0  0  0  0  0  0  0  0  0  0
  1  7  1  0  0  0  0
  1  8  1  0  0  0  0
  2  7  1  0  0  0  0
  2  9  1  0  0  0  0
  3  8  1  0  0  0  0
  3  9  1  0  0  0  0
  4  7  1  0  0  0  0
  4 10  1  0  0  0  0
  5  8  1  0  0  0  0
  5 10  1  0  0  0  0
  6  9  1  0  0  0  0
  6 10  1  0  0  0  0
 10 12  1  0  0  0  0
 11 12  1  0  0  0  0
 12 13  1  0  0  0  0
  1 14  1  0  0  0  0
  1 15  1  0  0  0  0
  2 16  1  0  0  0  0
  2 17  1  0  0  0  0
  3 18  1  0  0  0  0
  3 19  1  0  0  0  0
  4 20  1  0  0  0  0
  4 21  1  0  0  0  0
  5 22  1  0  0  0  0
  5 23  1  0  0  0  0
  6 24  1  0  0  0  0
  6 25  1  0  0  0  0
  7 26  1  0  0  0  0
  8 27  1  0  0  0  0
  9 28  1  0  0  0  0
 11 29  1  0  0  0  0
 11 30  1  0  0  0  0
 11 31  1  0  0  0  0
 12 32  1  0  0  0  0
 13 33  1  0  0  0  0
 13 34  1  0  0  0  0
 13 35  1  0  0  0  0
M  CHG  1  13   1
M  END
> <Hybrid2>
-7.592239

> <docked_fragment>
x0195

> <Mpro-_dock>
1.50049

> <site>
active-noncovalent

$$$$
CHEMBL25
  -OEChem-04122014263D

 20 20  0     0  0  0  0  0  0999 V2000
   13.9907   -1.7365   22.7922 C   0  0  0  0  0  0  0  0  0  0  0  0
   14.1901   -1.1122   24.0236 C   0  0  0  0  0  0  0  0  0  0  0  0
   12.8807   -1.4065   22.0146 C   0  0  0  0  0  0  0  0  0  0  0  0
   13.2794   -0.1581   24.4773 C   0  0  0  0  0  0  0  0  0  0  0  0
   11.9700   -0.4524   22.4684 C   0  0  0  0  0  0  0  0  0  0  0  0
   12.1694    0.1718   23.6998 C   0  0  0  0  0  0  0  0  0  0  0  0
   10.8023   -0.1162   21.6342 C   0  0  0  0  0  0  0  0  0  0  0  0
    9.9811    0.6291   24.3242 C   0  0  0  0  0  0  0  0  0  0  0  0
    9.9675   -0.5030   25.3082 C   0  0  0  0  0  0  0  0  0  0  0  0
    9.7160   -0.7877   21.7928 O   0  5  0  0  0  0  0  0  0  0  0  0
   10.9100    0.8369   20.7762 O   0  0  0  0  0  0  0  0  0  0  0  0
    8.9855    1.0610   23.7585 O   0  0  0  0  0  0  0  0  0  0  0  0
   11.2911    1.1064   24.1606 O   0  0  0  0  0  0  0  0  0  0  0  0
   14.6995   -2.4801   22.4392 H   0  0  0  0  0  0  0  0  0  0  0  0
   15.0542   -1.3696   24.6288 H   0  0  0  0  0  0  0  0  0  0  0  0
   12.7350   -1.9000   21.0571 H   0  0  0  0  0  0  0  0  0  0  0  0
   13.4411    0.3237   25.4376 H   0  0  0  0  0  0  0  0  0  0  0  0
   10.1100   -1.4515   24.7843 H   0  0  0  0  0  0  0  0  0  0  0  0
    8.9997   -0.5285   25.8172 H   0  0  0  0  0  0  0  0  0  0  0  0
   10.7507   -0.3535   26.0557 H   0  0  0  0  0  0  0  0  0  0  0  0
  1  2  1  0  0  0  0
  1  3  2  0  0  0  0
  2  4  2  0  0  0  0
  3  5  1  0  0  0  0
  4  6  1  0  0  0  0
  5  6  2  0  0  0  0
  5  7  1  0  0  0  0
  6 13  1  0  0  0  0
  7 10  1  0  0  0  0
  7 11  2  0  0  0  0
  8  9  1  0  0  0  0
  8 12  2  0  0  0  0
  8 13  1  0  0  0  0
  1 14  1  0  0  0  0
  2 15  1  0  0  0  0
  3 16  1  0  0  0  0
  4 17  1  0  0  0  0
  9 18  1  0  0  0  0
  9 19  1  0  0  0  0
  9 20  1  0  0  0  0
M  CHG  1  10  -1
M  END
> <Hybrid2>
-7.586169

> <docked_fragment>
x0678

> <Mpro-_dock>
0.857162

> <site>
active-noncovalent

$$$$
CHEMBL2106185
  -OEChem-04122014263D

 25 25  0     0  0  0  0  0  0999 V2000
   11.2022    2.0174   23.9136 C   0  0  0  0  0  0  0  0  0  0  0  0
   13.0633    2.2787   22.3954 C   0  0  0  0  0  0  0  0  0  0  0  0
   11.5297    0.6723   24.0837 C   0  0  0  0  0  0  0  0  0  0  0  0
   13.3909    0.9335   22.5655 C   0  0  0  0  0  0  0  0  0  0  0  0
   11.9690    2.8206   23.0694 C   0  0  0  0  0  0  0  0  0  0  0  0
   12.6241    0.1303   23.4097 C   0  0  0  0  0  0  0  0  0  0  0  0
   10.5891    4.8813   23.4863 C   0  0  0  0  0  0  0  0  0  0  0  0
   13.5538   -1.7704   22.4555 C   0  0  0  0  0  0  0  0  0  0  0  0
   10.5767    6.3227   23.0427 C   0  0  0  0  0  0  0  0  0  0  0  0
   12.6361   -1.6944   21.2715 C   0  0  0  0  0  0  0  0  0  0  0  0
   11.6414    4.1660   22.8992 N   0  0  0  0  0  0  0  0  0  0  0  0
    9.7476    4.4589   24.2727 O   0  0  0  0  0  0  0  0  0  0  0  0
   14.6693   -2.2733   22.4303 O   0  0  0  0  0  0  0  0  0  0  0  0
   12.9438   -1.1823   23.5756 O   0  0  0  0  0  0  0  0  0  0  0  0
   10.3473    2.4292   24.4440 H   0  0  0  0  0  0  0  0  0  0  0  0
   13.6680    2.8950   21.7350 H   0  0  0  0  0  0  0  0  0  0  0  0
   10.9287    0.0516   24.7427 H   0  0  0  0  0  0  0  0  0  0  0  0
   14.2445    0.5171   22.0377 H   0  0  0  0  0  0  0  0  0  0  0  0
    9.9636    6.4279   22.1433 H   0  0  0  0  0  0  0  0  0  0  0  0
   11.5959    6.6493   22.8171 H   0  0  0  0  0  0  0  0  0  0  0  0
   10.1714    6.9546   23.8384 H   0  0  0  0  0  0  0  0  0  0  0  0
   12.0046   -2.5856   21.2339 H   0  0  0  0  0  0  0  0  0  0  0  0
   13.2310   -1.6505   20.3547 H   0  0  0  0  0  0  0  0  0  0  0  0
   12.0248   -0.7905   21.3340 H   0  0  0  0  0  0  0  0  0  0  0  0
   12.2435    4.7052   22.2662 H   0  0  0  0  0  0  0  0  0  0  0  0
  1  3  2  0  0  0  0
  1  5  1  0  0  0  0
  2  4  1  0  0  0  0
  2  5  2  0  0  0  0
  3  6  1  0  0  0  0
  4  6  2  0  0  0  0
  5 11  1  0  0  0  0
  6 14  1  0  0  0  0
  7  9  1  0  0  0  0
  7 11  1  0  0  0  0
  7 12  2  0  0  0  0
  8 10  1  0  0  0  0
  8 13  2  0  0  0  0
  8 14  1  0  0  0  0
  1 15  1  0  0  0  0
  2 16  1  0  0  0  0
  3 17  1  0  0  0  0
  4 18  1  0  0  0  0
  9 19  1  0  0  0  0
  9 20  1  0  0  0  0
  9 21  1  0  0  0  0
 10 22  1  0  0  0  0
 10 23  1  0  0  0  0
 10 24  1  0  0  0  0
 11 25  1  0  0  0  0
M  END
> <Hybrid2>
-7.558010

> <docked_fragment>
x0195

> <Mpro-_dock>
-1.035548

> <site>
active-noncovalent

$$$$
CHEMBL452630
  -OEChem-04122014263D

 23 23  0     0  0  0  0  0  0999 V2000
    9.8241   -2.9891   23.5090 C   0  0  0  0  0  0  0  0  0  0  0  0
    9.8202   -5.3037   24.2016 C   0  0  0  0  0  0  0  0  0  0  0  0
    8.7373   -3.2380   22.6710 C   0  0  0  0  0  0  0  0  0  0  0  0
    8.7333   -5.5526   23.3635 C   0  0  0  0  0  0  0  0  0  0  0  0
   10.3657   -4.0219   24.2743 C   0  0  0  0  0  0  0  0  0  0  0  0
    8.1918   -4.5197   22.5982 C   0  0  0  0  0  0  0  0  0  0  0  0
   11.4990   -3.7624   25.1481 C   0  0  0  0  0  0  0  0  0  0  0  0
   12.3532   -2.7185   25.0494 C   0  0  0  0  0  0  0  0  0  0  0  0
   13.5121   -2.4964   25.9661 C   0  0  0  0  0  0  0  0  0  0  0  0
    6.6232   -6.0956   21.7546 C   0  0  0  0  0  0  0  0  0  0  0  0
    7.1312   -4.7626   21.7805 O   0  0  0  0  0  0  0  0  0  0  0  0
   10.2383   -1.9847   23.5550 H   0  0  0  0  0  0  0  0  0  0  0  0
   10.2314   -6.1191   24.7919 H   0  0  0  0  0  0  0  0  0  0  0  0
    8.3197   -2.4294   22.0772 H   0  0  0  0  0  0  0  0  0  0  0  0
    8.3127   -6.5531   23.3111 H   0  0  0  0  0  0  0  0  0  0  0  0
   11.6806   -4.4933   25.9440 H   0  0  0  0  0  0  0  0  0  0  0  0
   12.2271   -1.9811   24.2616 H   0  0  0  0  0  0  0  0  0  0  0  0
   13.2019   -1.8800   26.8154 H   0  0  0  0  0  0  0  0  0  0  0  0
   13.8712   -3.4559   26.3508 H   0  0  0  0  0  0  0  0  0  0  0  0
   14.3474   -1.9948   25.4674 H   0  0  0  0  0  0  0  0  0  0  0  0
    5.7793   -6.1513   21.0625 H   0  0  0  0  0  0  0  0  0  0  0  0
    6.3041   -6.3844   22.7591 H   0  0  0  0  0  0  0  0  0  0  0  0
    7.4133   -6.7706   21.4172 H   0  0  0  0  0  0  0  0  0  0  0  0
  1  3  2  0  0  0  0
  1  5  1  0  0  0  0
  2  4  1  0  0  0  0
  2  5  2  0  0  0  0
  3  6  1  0  0  0  0
  4  6  2  0  0  0  0
  5  7  1  0  0  0  0
  6 11  1  0  0  0  0
  7  8  2  0  0  0  0
  8  9  1  0  0  0  0
 10 11  1  0  0  0  0
  1 12  1  0  0  0  0
  2 13  1  0  0  0  0
  3 14  1  0  0  0  0
  4 15  1  0  0  0  0
  7 16  1  0  0  0  0
  8 17  1  0  0  0  0
  9 18  1  0  0  0  0
  9 19  1  0  0  0  0
  9 20  1  0  0  0  0
 10 21  1  0  0  0  0
 10 22  1  0  0  0  0
 10 23  1  0  0  0  0
M  END
> <Hybrid2>
-7.557606

> <docked_fragment>
x0749

> <Mpro-_dock>
-1.496922

> <site>
active-covalent

$$$$
DB01804
  -OEChem-04122014263D

 14 13  0     1  0  0  0  0  0999 V2000
    6.7085    0.3108   19.4196 C   0  0  0  0  0  0  0  0  0  0  0  0
    6.9735   -0.7195   18.6080 C   0  0  0  0  0  0  0  0  0  0  0  0
    5.9114   -2.5693   19.7839 C   0  0  0  0  0  0  0  0  0  0  0  0
    7.2017   -2.1247   19.0869 C   0  0  2  0  0  0  0  0  0  0  0  0
    8.4129   -2.2290   19.9579 N   0  3  0  0  0  0  0  0  0  0  0  0
    5.5537   -1.8733   20.7759 O   0  5  0  0  0  0  0  0  0  0  0  0
    5.3558   -3.5848   19.2741 O   0  0  0  0  0  0  0  0  0  0  0  0
    6.5568    1.3051   19.0137 H   0  0  0  0  0  0  0  0  0  0  0  0
    6.6379    0.1830   20.4941 H   0  0  0  0  0  0  0  0  0  0  0  0
    7.0366   -0.5317   17.5385 H   0  0  0  0  0  0  0  0  0  0  0  0
    7.4014   -2.8008   18.2469 H   0  0  0  0  0  0  0  0  0  0  0  0
    9.2590   -2.2628   19.3868 H   0  0  0  0  0  0  0  0  0  0  0  0
    8.3691   -3.0771   20.5257 H   0  0  0  0  0  0  0  0  0  0  0  0
    8.4724   -1.4220   20.5813 H   0  0  0  0  0  0  0  0  0  0  0  0
  1  2  2  0  0  0  0
  2  4  1  0  0  0  0
  3  4  1  0  0  0  0
  3  6  1  0  0  0  0
  3  7  2  0  0  0  0
  4  5  1  0  0  0  0
  1  8  1  0  0  0  0
  1  9  1  0  0  0  0
  2 10  1  0  0  0  0
  4 11  1  0  0  0  0
  5 12  1  0  0  0  0
  5 13  1  0  0  0  0
  5 14  1  0  0  0  0
M  CHG  2   5   1   6  -1
M  END
> <Hybrid2>
-7.556477

> <docked_fragment>
x0397

> <Mpro-_dock>
-0.693697

> <site>
active-noncovalent

$$$$
CHEMBL2105310
  -OEChem-04122014263D

 22 23  0     1  0  0  0  0  0999 V2000
   10.8469    0.3420   23.7405 C   0  0  0  0  0  0  0  0  0  0  0  0
   12.0373   -0.7528   21.9324 C   0  0  0  0  0  0  0  0  0  0  0  0
    9.6272    0.2929   22.8502 C   0  0  0  0  0  0  0  0  0  0  0  0
   13.1739   -0.6745   24.0034 C   0  0  0  0  0  0  0  0  0  0  0  0
   14.3029   -1.0318   23.0388 C   0  0  0  0  0  0  0  0  0  0  0  0
    9.9877    0.4126   21.3703 C   0  0  2  0  0  0  0  0  0  0  0  0
    8.8031    0.0863   20.4744 C   0  0  0  0  0  0  0  0  0  0  0  0
   11.9966   -0.3203   23.1910 N   0  0  0  0  0  0  0  0  0  0  0  0
   11.0937   -0.5050   21.0345 N   0  3  0  0  0  0  0  0  0  0  0  0
   10.8569    0.7903   24.8783 O   0  0  0  0  0  0  0  0  0  0  0  0
   13.4674   -1.6520   21.5451 S   0  0  0  0  0  0  0  0  0  0  0  0
    9.0794   -0.6311   23.0429 H   0  0  0  0  0  0  0  0  0  0  0  0
    8.9966    1.1367   23.1423 H   0  0  0  0  0  0  0  0  0  0  0  0
   12.9083   -1.5288   24.6389 H   0  0  0  0  0  0  0  0  0  0  0  0
   13.4633    0.1643   24.6472 H   0  0  0  0  0  0  0  0  0  0  0  0
   14.8689   -0.1351   22.7658 H   0  0  0  0  0  0  0  0  0  0  0  0
   14.9891   -1.7715   23.4603 H   0  0  0  0  0  0  0  0  0  0  0  0
   10.3244    1.4317   21.1650 H   0  0  0  0  0  0  0  0  0  0  0  0
    8.4573   -0.9287   20.6694 H   0  0  0  0  0  0  0  0  0  0  0  0
    9.0952    0.1658   19.4274 H   0  0  0  0  0  0  0  0  0  0  0  0
    7.9869    0.7820   20.6683 H   0  0  0  0  0  0  0  0  0  0  0  0
   11.1251   -1.0157   20.1641 H   0  0  0  0  0  0  0  0  0  0  0  0
  1  3  1  0  0  0  0
  1  8  1  0  0  0  0
  1 10  2  0  0  0  0
  2  8  1  0  0  0  0
  2  9  2  0  0  0  0
  2 11  1  0  0  0  0
  3  6  1  0  0  0  0
  4  5  1  0  0  0  0
  4  8  1  0  0  0  0
  5 11  1  0  0  0  0
  6  7  1  0  0  0  0
  6  9  1  0  0  0  0
  3 12  1  0  0  0  0
  3 13  1  0  0  0  0
  4 14  1  0  0  0  0
  4 15  1  0  0  0  0
  5 16  1  0  0  0  0
  5 17  1  0  0  0  0
  6 18  1  0  0  0  0
  7 19  1  0  0  0  0
  7 20  1  0  0  0  0
  7 21  1  0  0  0  0
  9 22  1  0  0  0  0
M  CHG  1   9   1
M  END
> <Hybrid2>
-7.552146

> <docked_fragment>
x0678

> <Mpro-_dock>
-1.411382

> <site>
active-noncovalent

$$$$
CHEMBL2105514
  -OEChem-04122014263D

 62 66  0     1  0  0  0  0  0999 V2000
   11.6716    1.3731   23.1981 C   0  0  0  0  0  0  0  0  0  0  0  0
   10.7187    0.4268   23.1556 C   0  0  0  0  0  0  0  0  0  0  0  0
   11.4272    2.6856   23.8381 C   0  0  0  0  0  0  0  0  0  0  0  0
   13.3889   -1.8104   23.5029 C   0  0  0  0  0  0  0  0  0  0  0  0
   10.9749   -0.8468   22.3809 C   0  0  0  0  0  0  0  0  0  0  0  0
   10.0348    2.9919   24.3212 C   0  0  0  0  0  0  0  0  0  0  0  0
    9.3688    1.7316   24.8509 C   0  0  0  0  0  0  0  0  0  0  0  0
    7.1483   -6.0520   27.6772 C   0  0  0  0  0  0  0  0  0  0  0  0
    7.5681   -0.7528   25.2337 C   0  0  0  0  0  0  0  0  0  0  0  0
    9.0084   -4.6718   23.9364 C   0  0  0  0  0  0  0  0  0  0  0  0
    7.2088   -2.0564   25.9672 C   0  0  0  0  0  0  0  0  0  0  0  0
    7.8500   -4.8129   27.1711 C   0  0  0  0  0  0  0  0  0  0  0  0
    8.0971   -5.5985   24.7601 C   0  0  0  0  0  0  0  0  0  0  0  0
    5.7824   -5.9162   27.0429 C   0  0  0  0  0  0  0  0  0  0  0  0
    8.9914   -0.7688   24.6073 C   0  0  1  0  0  0  0  0  0  0  0  0
    8.8594   -3.3019   24.5917 C   0  0  1  0  0  0  0  0  0  0  0  0
    9.2431   -2.0619   23.7635 C   0  0  2  0  0  0  0  0  0  0  0  0
   10.6808   -2.1138   23.1895 C   0  0  2  0  0  0  0  0  0  0  0  0
    9.3465    0.5588   23.8267 C   0  0  2  0  0  0  0  0  0  0  0  0
    7.3906   -3.2894   25.0668 C   0  0  1  0  0  0  0  0  0  0  0  0
    7.3019   -4.6896   25.7453 C   0  0  2  0  0  0  0  0  0  0  0  0
   14.0866   -0.6557   24.1639 C   0  0  0  0  0  0  0  0  0  0  0  0
    8.3089    0.8770   22.7253 C   0  0  0  0  0  0  0  0  0  0  0  0
    6.3538   -3.2174   23.9077 C   0  0  0  0  0  0  0  0  0  0  0  0
   12.3321    3.5155   23.8987 O   0  0  0  0  0  0  0  0  0  0  0  0
   13.7530   -2.2886   22.4355 O   0  0  0  0  0  0  0  0  0  0  0  0
    5.9479   -5.1668   25.8315 O   0  0  0  0  0  0  0  0  0  0  0  0
   12.0112   -2.3877   24.4290 S   0  0  0  0  0  0  0  0  0  0  0  0
   12.6356    1.2373   22.7193 H   0  0  0  0  0  0  0  0  0  0  0  0
   10.3256   -0.8381   21.4952 H   0  0  0  0  0  0  0  0  0  0  0  0
   11.9982   -0.8794   21.9833 H   0  0  0  0  0  0  0  0  0  0  0  0
   10.1015    3.7289   25.1291 H   0  0  0  0  0  0  0  0  0  0  0  0
    9.4667    3.4384   23.4991 H   0  0  0  0  0  0  0  0  0  0  0  0
    9.9101    1.4173   25.7543 H   0  0  0  0  0  0  0  0  0  0  0  0
    8.3519    1.9864   25.1720 H   0  0  0  0  0  0  0  0  0  0  0  0
    7.6489   -6.9544   27.3088 H   0  0  0  0  0  0  0  0  0  0  0  0
    7.1043   -6.1150   28.7680 H   0  0  0  0  0  0  0  0  0  0  0  0
    6.8121   -0.5510   24.4695 H   0  0  0  0  0  0  0  0  0  0  0  0
    7.4923    0.0647   25.9594 H   0  0  0  0  0  0  0  0  0  0  0  0
   10.0437   -5.0259   23.9501 H   0  0  0  0  0  0  0  0  0  0  0  0
    8.6827   -4.6530   22.8902 H   0  0  0  0  0  0  0  0  0  0  0  0
    7.8597   -2.1161   26.8468 H   0  0  0  0  0  0  0  0  0  0  0  0
    6.1794   -2.0008   26.3404 H   0  0  0  0  0  0  0  0  0  0  0  0
    7.5302   -3.9766   27.8006 H   0  0  0  0  0  0  0  0  0  0  0  0
    8.9396   -4.8867   27.2288 H   0  0  0  0  0  0  0  0  0  0  0  0
    7.4267   -6.1562   24.0954 H   0  0  0  0  0  0  0  0  0  0  0  0
    8.7040   -6.3443   25.2853 H   0  0  0  0  0  0  0  0  0  0  0  0
    5.3273   -6.8847   26.8174 H   0  0  0  0  0  0  0  0  0  0  0  0
    5.1003   -5.3540   27.6892 H   0  0  0  0  0  0  0  0  0  0  0  0
    9.6808   -0.8242   25.4636 H   0  0  0  0  0  0  0  0  0  0  0  0
    9.4975   -3.3071   25.4877 H   0  0  0  0  0  0  0  0  0  0  0  0
    8.5805   -2.0286   22.8904 H   0  0  0  0  0  0  0  0  0  0  0  0
   10.7438   -2.9715   22.4934 H   0  0  0  0  0  0  0  0  0  0  0  0
   13.6534    0.2911   23.8293 H   0  0  0  0  0  0  0  0  0  0  0  0
   15.1570   -0.6824   23.9414 H   0  0  0  0  0  0  0  0  0  0  0  0
   13.9583   -0.7290   25.2480 H   0  0  0  0  0  0  0  0  0  0  0  0
    7.3323    0.9738   23.1819 H   0  0  0  0  0  0  0  0  0  0  0  0
    8.3037    0.0687   22.0053 H   0  0  0  0  0  0  0  0  0  0  0  0
    8.5861    1.8044   22.2408 H   0  0  0  0  0  0  0  0  0  0  0  0
    6.4860   -4.0848   23.2794 H   0  0  0  0  0  0  0  0  0  0  0  0
    6.5329   -2.3127   23.3475 H   0  0  0  0  0  0  0  0  0  0  0  0
    5.3640   -3.2078   24.3376 H   0  0  0  0  0  0  0  0  0  0  0  0
  1  2  2  0  0  0  0
  1  3  1  0  0  0  0
  2  5  1  0  0  0  0
  2 19  1  0  0  0  0
  3  6  1  0  0  0  0
  3 25  2  0  0  0  0
  4 22  1  0  0  0  0
  4 26  2  0  0  0  0
  4 28  1  0  0  0  0
  5 18  1  0  0  0  0
  6  7  1  0  0  0  0
  7 19  1  0  0  0  0
  8 12  1  0  0  0  0
  8 14  1  0  0  0  0
  9 11  1  0  0  0  0
  9 15  1  0  0  0  0
 10 13  1  0  0  0  0
 10 16  1  0  0  0  0
 11 20  1  0  0  0  0
 12 21  1  0  0  0  0
 13 21  1  0  0  0  0
 14 27  1  0  0  0  0
 15 17  1  0  0  0  0
 15 19  1  0  0  0  0
 16 17  1  0  0  0  0
 16 20  1  0  0  0  0
 17 18  1  0  0  0  0
 18 28  1  0  0  0  0
 19 23  1  0  0  0  0
 20 21  1  0  0  0  0
 20 24  1  0  0  0  0
 21 27  1  0  0  0  0
  1 29  1  0  0  0  0
  5 30  1  0  0  0  0
  5 31  1  0  0  0  0
  6 32  1  0  0  0  0
  6 33  1  0  0  0  0
  7 34  1  0  0  0  0
  7 35  1  0  0  0  0
  8 36  1  0  0  0  0
  8 37  1  0  0  0  0
  9 38  1  0  0  0  0
  9 39  1  0  0  0  0
 10 40  1  0  0  0  0
 10 41  1  0  0  0  0
 11 42  1  0  0  0  0
 11 43  1  0  0  0  0
 12 44  1  0  0  0  0
 12 45  1  0  0  0  0
 13 46  1  0  0  0  0
 13 47  1  0  0  0  0
 14 48  1  0  0  0  0
 14 49  1  0  0  0  0
 15 50  1  0  0  0  0
 16 51  1  0  0  0  0
 17 52  1  0  0  0  0
 18 53  1  0  0  0  0
 22 54  1  0  0  0  0
 22 55  1  0  0  0  0
 22 56  1  0  0  0  0
 23 57  1  0  0  0  0
 23 58  1  0  0  0  0
 23 59  1  0  0  0  0
 24 60  1  0  0  0  0
 24 61  1  0  0  0  0
 24 62  1  0  0  0  0
M  END
> <Hybrid2>
-7.550798

> <docked_fragment>
x0072

> <Mpro-_dock>
1.940438

> <site>
active-noncovalent

$$$$
DB08433
  -OEChem-04122014263D

 20 20  0     0  0  0  0  0  0999 V2000
   12.5114    3.5313   22.3088 C   0  0  0  0  0  0  0  0  0  0  0  0
   11.7778    2.6571   23.1108 C   0  0  0  0  0  0  0  0  0  0  0  0
   13.7719    3.1583   21.8422 C   0  0  0  0  0  0  0  0  0  0  0  0
   12.3048    1.4100   23.4464 C   0  0  0  0  0  0  0  0  0  0  0  0
   14.2989    1.9112   22.1779 C   0  0  0  0  0  0  0  0  0  0  0  0
   13.5654    1.0370   22.9799 C   0  0  0  0  0  0  0  0  0  0  0  0
   11.2260   -1.5438   22.2119 C   0  0  0  0  0  0  0  0  0  0  0  0
   12.2590   -1.9384   22.9587 C   0  0  0  0  0  0  0  0  0  0  0  0
   14.7708   -2.5549   22.8601 O   0  0  0  0  0  0  0  0  0  0  0  0
   13.7670   -1.1524   21.0111 O   0  0  0  0  0  0  0  0  0  0  0  0
   14.0807   -0.1790   23.3085 O   0  0  0  0  0  0  0  0  0  0  0  0
   13.8478   -1.5301   22.4096 S   0  0  0  0  0  0  0  0  0  0  0  0
   12.1011    4.5021   22.0468 H   0  0  0  0  0  0  0  0  0  0  0  0
   10.7963    2.9474   23.4743 H   0  0  0  0  0  0  0  0  0  0  0  0
   14.3425    3.8395   21.2176 H   0  0  0  0  0  0  0  0  0  0  0  0
   11.7289    0.7342   24.0728 H   0  0  0  0  0  0  0  0  0  0  0  0
   15.2822    1.6267   21.8131 H   0  0  0  0  0  0  0  0  0  0  0  0
   10.2122   -1.7784   22.5183 H   0  0  0  0  0  0  0  0  0  0  0  0
   11.3566   -0.9860   21.2908 H   0  0  0  0  0  0  0  0  0  0  0  0
   12.1261   -2.4953   23.8776 H   0  0  0  0  0  0  0  0  0  0  0  0
  1  2  1  0  0  0  0
  1  3  2  0  0  0  0
  2  4  2  0  0  0  0
  3  5  1  0  0  0  0
  4  6  1  0  0  0  0
  5  6  2  0  0  0  0
  6 11  1  0  0  0  0
  7  8  2  0  0  0  0
  8 12  1  0  0  0  0
  9 12  2  0  0  0  0
 10 12  2  0  0  0  0
 11 12  1  0  0  0  0
  1 13  1  0  0  0  0
  2 14  1  0  0  0  0
  3 15  1  0  0  0  0
  4 16  1  0  0  0  0
  5 17  1  0  0  0  0
  7 18  1  0  0  0  0
  7 19  1  0  0  0  0
  8 20  1  0  0  0  0
M  END
> <Hybrid2>
-7.548808

> <docked_fragment>
x0195

> <Mpro-_dock>
0.007019

> <site>
active-noncovalent

$$$$
CHEMBL2111051
  -OEChem-04122014263D

 28 29  0     1  0  0  0  0  0999 V2000
   11.8505    4.5463   23.9857 C   0  0  0  0  0  0  0  0  0  0  0  0
   12.3870    3.9038   23.1253 C   0  0  0  0  0  0  0  0  0  0  0  0
   11.7183   -1.1829   23.7906 C   0  0  0  0  0  0  0  0  0  0  0  0
   14.1298   -0.8876   23.2430 C   0  0  0  0  0  0  0  0  0  0  0  0
   11.5075   -1.8248   22.4176 C   0  0  0  0  0  0  0  0  0  0  0  0
   13.9068   -1.4639   21.8444 C   0  0  0  0  0  0  0  0  0  0  0  0
   12.2233    0.3057   21.3340 C   0  0  0  0  0  0  0  0  0  0  0  0
   12.8630   -0.1589   23.7311 C   0  0  0  0  0  0  0  0  0  0  0  0
   12.4791    0.9304   22.7089 C   0  0  1  0  0  0  0  0  0  0  0  0
   13.0407    3.1225   22.0748 C   0  0  0  0  0  0  0  0  0  0  0  0
   12.4742   -1.1880   21.4383 N   0  3  0  0  0  0  0  0  0  0  0  0
   13.5226    1.8925   22.5965 O   0  0  0  0  0  0  0  0  0  0  0  0
   11.3746    5.1165   24.7491 H   0  0  0  0  0  0  0  0  0  0  0  0
   10.7930   -0.6941   24.1176 H   0  0  0  0  0  0  0  0  0  0  0  0
   11.9450   -1.9600   24.5303 H   0  0  0  0  0  0  0  0  0  0  0  0
   14.3853   -1.6960   23.9387 H   0  0  0  0  0  0  0  0  0  0  0  0
   14.9864   -0.2039   23.2302 H   0  0  0  0  0  0  0  0  0  0  0  0
   11.7125   -2.9004   22.4280 H   0  0  0  0  0  0  0  0  0  0  0  0
   10.4948   -1.6601   22.0354 H   0  0  0  0  0  0  0  0  0  0  0  0
   14.5556   -0.9970   21.0961 H   0  0  0  0  0  0  0  0  0  0  0  0
   14.0552   -2.5484   21.8156 H   0  0  0  0  0  0  0  0  0  0  0  0
   11.1802    0.4250   21.0223 H   0  0  0  0  0  0  0  0  0  0  0  0
   12.8775    0.6948   20.5468 H   0  0  0  0  0  0  0  0  0  0  0  0
   13.0492    0.2810   24.7169 H   0  0  0  0  0  0  0  0  0  0  0  0
   11.5798    1.4619   23.0414 H   0  0  0  0  0  0  0  0  0  0  0  0
   13.8830    3.6682   21.6384 H   0  0  0  0  0  0  0  0  0  0  0  0
   12.3355    2.8924   21.2706 H   0  0  0  0  0  0  0  0  0  0  0  0
   12.3157   -1.6059   20.5115 H   0  0  0  0  0  0  0  0  0  0  0  0
  1  2  3  0  0  0  0
  2 10  1  0  0  0  0
  3  5  1  0  0  0  0
  3  8  1  0  0  0  0
  4  6  1  0  0  0  0
  4  8  1  0  0  0  0
  5 11  1  0  0  0  0
  6 11  1  0  0  0  0
  7  9  1  0  0  0  0
  7 11  1  0  0  0  0
  8  9  1  0  0  0  0
  9 12  1  0  0  0  0
 10 12  1  0  0  0  0
  1 13  1  0  0  0  0
  3 14  1  0  0  0  0
  3 15  1  0  0  0  0
  4 16  1  0  0  0  0
  4 17  1  0  0  0  0
  5 18  1  0  0  0  0
  5 19  1  0  0  0  0
  6 20  1  0  0  0  0
  6 21  1  0  0  0  0
  7 22  1  0  0  0  0
  7 23  1  0  0  0  0
  8 24  1  0  0  0  0
  9 25  1  0  0  0  0
 10 26  1  0  0  0  0
 10 27  1  0  0  0  0
 11 28  1  0  0  0  0
M  CHG  1  11   1
M  END
> <Hybrid2>
-7.511095

> <docked_fragment>
x0195

> <Mpro-_dock>
1.404114

> <site>
active-noncovalent

$$$$
CHEMBL2104734
  -OEChem-04122014263D

 46 48  0     1  0  0  0  0  0999 V2000
    7.5023   -1.3111   26.2445 C   0  0  0  0  0  0  0  0  0  0  0  0
   13.5821    0.9351   22.7354 C   0  0  0  0  0  0  0  0  0  0  0  0
    7.4722   -2.5464   25.6092 C   0  0  0  0  0  0  0  0  0  0  0  0
   13.7151   -0.2401   22.0063 C   0  0  0  0  0  0  0  0  0  0  0  0
    8.3961   -0.3198   25.8189 C   0  0  0  0  0  0  0  0  0  0  0  0
   12.4268    1.1695   23.4925 C   0  0  0  0  0  0  0  0  0  0  0  0
    8.3411   -2.7932   24.5550 C   0  0  0  0  0  0  0  0  0  0  0  0
   12.6976   -1.1839   22.0409 C   0  0  0  0  0  0  0  0  0  0  0  0
    9.2828   -0.5246   24.7422 C   0  0  0  0  0  0  0  0  0  0  0  0
   11.3641    0.2443   23.5411 C   0  0  0  0  0  0  0  0  0  0  0  0
    9.2270   -1.7905   24.1444 C   0  0  0  0  0  0  0  0  0  0  0  0
   11.5512   -0.9319   22.8032 C   0  0  0  0  0  0  0  0  0  0  0  0
    9.0966    4.0963   23.8811 C   0  0  0  0  0  0  0  0  0  0  0  0
    7.2567    0.7050   22.3432 C   0  0  0  0  0  0  0  0  0  0  0  0
    8.9297    0.4404   20.5179 C   0  0  0  0  0  0  0  0  0  0  0  0
    9.9185    1.8527   24.7160 C   0  0  0  0  0  0  0  0  0  0  0  0
    9.2446    2.2021   22.2493 C   0  0  0  0  0  0  0  0  0  0  0  0
    8.9991    2.5754   23.7168 C   0  0  2  0  0  0  0  0  0  0  0  0
   10.1926    0.4684   24.3044 N   0  0  0  0  0  0  0  0  0  0  0  0
    8.7074    0.8524   21.9530 N   0  3  0  0  0  0  0  0  0  0  0  0
    9.5528   -2.0268   21.5986 O   0  0  0  0  0  0  0  0  0  0  0  0
   10.9778   -3.4106   23.1821 O   0  0  0  0  0  0  0  0  0  0  0  0
   10.3133   -2.1726   22.8231 S   0  0  0  0  0  0  0  0  0  0  0  0
    6.8263   -1.1094   27.0706 H   0  0  0  0  0  0  0  0  0  0  0  0
   14.3736    1.6790   22.7147 H   0  0  0  0  0  0  0  0  0  0  0  0
    6.7700   -3.3095   25.9300 H   0  0  0  0  0  0  0  0  0  0  0  0
   14.6044   -0.4153   21.4088 H   0  0  0  0  0  0  0  0  0  0  0  0
    8.3593    0.6303   26.3470 H   0  0  0  0  0  0  0  0  0  0  0  0
   12.3773    2.1148   24.0279 H   0  0  0  0  0  0  0  0  0  0  0  0
    8.3219   -3.7619   24.0638 H   0  0  0  0  0  0  0  0  0  0  0  0
   12.8059   -2.1055   21.4762 H   0  0  0  0  0  0  0  0  0  0  0  0
   10.1068    4.4461   23.6418 H   0  0  0  0  0  0  0  0  0  0  0  0
    8.4006    4.6065   23.2069 H   0  0  0  0  0  0  0  0  0  0  0  0
    8.8689    4.4079   24.9059 H   0  0  0  0  0  0  0  0  0  0  0  0
    6.6775    1.4149   21.7498 H   0  0  0  0  0  0  0  0  0  0  0  0
    6.9560   -0.3225   22.1297 H   0  0  0  0  0  0  0  0  0  0  0  0
    7.1735    0.9249   23.4093 H   0  0  0  0  0  0  0  0  0  0  0  0
    8.3904    1.1440   19.8811 H   0  0  0  0  0  0  0  0  0  0  0  0
   10.0031    0.4769   20.3222 H   0  0  0  0  0  0  0  0  0  0  0  0
    8.5431   -0.5734   20.3977 H   0  0  0  0  0  0  0  0  0  0  0  0
   10.8693    2.3906   24.8034 H   0  0  0  0  0  0  0  0  0  0  0  0
    9.4722    1.8466   25.7158 H   0  0  0  0  0  0  0  0  0  0  0  0
   10.3072    2.1863   21.9886 H   0  0  0  0  0  0  0  0  0  0  0  0
    8.7262    2.8923   21.5757 H   0  0  0  0  0  0  0  0  0  0  0  0
    7.9682    2.2924   23.9702 H   0  0  0  0  0  0  0  0  0  0  0  0
    9.2287    0.1696   22.5298 H   0  0  0  0  0  0  0  0  0  0  0  0
  1  3  1  0  0  0  0
  1  5  2  0  0  0  0
  2  4  2  0  0  0  0
  2  6  1  0  0  0  0
  3  7  2  0  0  0  0
  4  8  1  0  0  0  0
  5  9  1  0  0  0  0
  6 10  2  0  0  0  0
  7 11  1  0  0  0  0
  8 12  2  0  0  0  0
  9 11  2  0  0  0  0
  9 19  1  0  0  0  0
 10 12  1  0  0  0  0
 10 19  1  0  0  0  0
 11 23  1  0  0  0  0
 12 23  1  0  0  0  0
 13 18  1  0  0  0  0
 14 20  1  0  0  0  0
 15 20  1  0  0  0  0
 16 18  1  0  0  0  0
 16 19  1  0  0  0  0
 17 18  1  0  0  0  0
 17 20  1  0  0  0  0
 21 23  2  0  0  0  0
 22 23  2  0  0  0  0
  1 24  1  0  0  0  0
  2 25  1  0  0  0  0
  3 26  1  0  0  0  0
  4 27  1  0  0  0  0
  5 28  1  0  0  0  0
  6 29  1  0  0  0  0
  7 30  1  0  0  0  0
  8 31  1  0  0  0  0
 13 32  1  0  0  0  0
 13 33  1  0  0  0  0
 13 34  1  0  0  0  0
 14 35  1  0  0  0  0
 14 36  1  0  0  0  0
 14 37  1  0  0  0  0
 15 38  1  0  0  0  0
 15 39  1  0  0  0  0
 15 40  1  0  0  0  0
 16 41  1  0  0  0  0
 16 42  1  0  0  0  0
 17 43  1  0  0  0  0
 17 44  1  0  0  0  0
 18 45  1  0  0  0  0
 20 46  1  0  0  0  0
M  CHG  1  20   1
M  END
> <Hybrid2>
-7.506965

> <docked_fragment>
x0874

> <Mpro-_dock>
1.462379

> <site>
active-noncovalent

$$$$
CHEMBL2105802
  -OEChem-04122014263D

 27 27  0     0  0  0  0  0  0999 V2000
    8.8667   -1.1704   21.5219 C   0  0  0  0  0  0  0  0  0  0  0  0
    9.8786   -1.4742   22.3528 C   0  0  0  0  0  0  0  0  0  0  0  0
    9.0007   -0.1645   20.3799 C   0  0  0  0  0  0  0  0  0  0  0  0
   13.9927   -0.6571   23.3835 C   0  0  0  0  0  0  0  0  0  0  0  0
   12.9548    0.4274   23.6568 C   0  0  0  0  0  0  0  0  0  0  0  0
   13.7118   -1.3847   22.0722 C   0  0  0  0  0  0  0  0  0  0  0  0
   11.5345   -0.1305   23.6210 C   0  0  0  0  0  0  0  0  0  0  0  0
   12.2932   -1.9467   22.0325 C   0  0  0  0  0  0  0  0  0  0  0  0
   11.2479   -0.8637   22.3087 C   0  0  0  0  0  0  0  0  0  0  0  0
    9.6840   -2.4878   23.4488 C   0  0  0  0  0  0  0  0  0  0  0  0
    9.8347    0.7620   20.5916 O   0  5  0  0  0  0  0  0  0  0  0  0
    8.2443   -0.3591   19.3866 O   0  0  0  0  0  0  0  0  0  0  0  0
    7.8954   -1.6435   21.6659 H   0  0  0  0  0  0  0  0  0  0  0  0
   14.9923   -0.2067   23.3463 H   0  0  0  0  0  0  0  0  0  0  0  0
   13.9980   -1.3772   24.2100 H   0  0  0  0  0  0  0  0  0  0  0  0
   13.1503    0.8800   24.6355 H   0  0  0  0  0  0  0  0  0  0  0  0
   13.0546    1.2248   22.9132 H   0  0  0  0  0  0  0  0  0  0  0  0
   13.8552   -0.6938   21.2335 H   0  0  0  0  0  0  0  0  0  0  0  0
   14.4381   -2.1958   21.9405 H   0  0  0  0  0  0  0  0  0  0  0  0
   11.3688   -0.7774   24.4812 H   0  0  0  0  0  0  0  0  0  0  0  0
   10.8370    0.7043   23.7071 H   0  0  0  0  0  0  0  0  0  0  0  0
   12.1122   -2.3562   21.0361 H   0  0  0  0  0  0  0  0  0  0  0  0
   12.2024   -2.7731   22.7384 H   0  0  0  0  0  0  0  0  0  0  0  0
   11.2573   -0.1502   21.4971 H   0  0  0  0  0  0  0  0  0  0  0  0
    9.9348   -3.4899   23.0858 H   0  0  0  0  0  0  0  0  0  0  0  0
    8.6514   -2.5158   23.8130 H   0  0  0  0  0  0  0  0  0  0  0  0
   10.3304   -2.2543   24.3012 H   0  0  0  0  0  0  0  0  0  0  0  0
  1  2  2  0  0  0  0
  1  3  1  0  0  0  0
  2  9  1  0  0  0  0
  2 10  1  0  0  0  0
  3 11  1  0  0  0  0
  3 12  2  0  0  0  0
  4  5  1  0  0  0  0
  4  6  1  0  0  0  0
  5  7  1  0  0  0  0
  6  8  1  0  0  0  0
  7  9  1  0  0  0  0
  8  9  1  0  0  0  0
  1 13  1  0  0  0  0
  4 14  1  0  0  0  0
  4 15  1  0  0  0  0
  5 16  1  0  0  0  0
  5 17  1  0  0  0  0
  6 18  1  0  0  0  0
  6 19  1  0  0  0  0
  7 20  1  0  0  0  0
  7 21  1  0  0  0  0
  8 22  1  0  0  0  0
  8 23  1  0  0  0  0
  9 24  1  0  0  0  0
 10 25  1  0  0  0  0
 10 26  1  0  0  0  0
 10 27  1  0  0  0  0
M  CHG  1  11  -1
M  END
> <Hybrid2>
-7.496460

> <docked_fragment>
x0678

> <Mpro-_dock>
-1.146682

> <site>
active-noncovalent

$$$$
DB03627
  -OEChem-04122014263D

 26 28  0     0  0  0  0  0  0999 V2000
   13.7092   -1.8911   23.1113 C   0  0  0  0  0  0  0  0  0  0  0  0
   13.4263   -1.1831   25.5009 C   0  0  0  0  0  0  0  0  0  0  0  0
   12.0552   -3.0715   24.5817 C   0  0  0  0  0  0  0  0  0  0  0  0
   12.6204    0.3035   23.6489 C   0  0  0  0  0  0  0  0  0  0  0  0
   11.2493   -1.5847   22.7295 C   0  0  0  0  0  0  0  0  0  0  0  0
   10.9664   -0.8768   25.1190 C   0  0  0  0  0  0  0  0  0  0  0  0
   13.4326   -2.3866   24.5418 C   0  0  0  0  0  0  0  0  0  0  0  0
   12.6221   -0.8913   22.6791 C   0  0  0  0  0  0  0  0  0  0  0  0
   12.3376   -0.1794   25.0822 C   0  0  0  0  0  0  0  0  0  0  0  0
   10.9588   -2.0785   24.1578 C   0  0  0  0  0  0  0  0  0  0  0  0
   14.6960   -1.4142   23.0648 H   0  0  0  0  0  0  0  0  0  0  0  0
   13.7333   -2.7412   22.4185 H   0  0  0  0  0  0  0  0  0  0  0  0
   13.2462   -1.5238   26.5280 H   0  0  0  0  0  0  0  0  0  0  0  0
   14.4083   -0.6943   25.4950 H   0  0  0  0  0  0  0  0  0  0  0  0
   12.0504   -3.9420   23.9143 H   0  0  0  0  0  0  0  0  0  0  0  0
   11.8518   -3.4443   25.5931 H   0  0  0  0  0  0  0  0  0  0  0  0
   13.5886    0.8178   23.6112 H   0  0  0  0  0  0  0  0  0  0  0  0
   11.8602    1.0328   23.3429 H   0  0  0  0  0  0  0  0  0  0  0  0
   10.4658   -0.8876   22.4079 H   0  0  0  0  0  0  0  0  0  0  0  0
   11.2306   -2.4297   22.0301 H   0  0  0  0  0  0  0  0  0  0  0  0
   10.7446   -1.2124   26.1396 H   0  0  0  0  0  0  0  0  0  0  0  0
   10.1779   -0.1676   24.8386 H   0  0  0  0  0  0  0  0  0  0  0  0
   14.2092   -3.0977   24.8446 H   0  0  0  0  0  0  0  0  0  0  0  0
   12.8237   -0.5416   21.6605 H   0  0  0  0  0  0  0  0  0  0  0  0
   12.3376    0.6750   25.7681 H   0  0  0  0  0  0  0  0  0  0  0  0
    9.9807   -2.5713   24.1880 H   0  0  0  0  0  0  0  0  0  0  0  0
  1  7  1  0  0  0  0
  1  8  1  0  0  0  0
  2  7  1  0  0  0  0
  2  9  1  0  0  0  0
  3  7  1  0  0  0  0
  3 10  1  0  0  0  0
  4  8  1  0  0  0  0
  4  9  1  0  0  0  0
  5  8  1  0  0  0  0
  5 10  1  0  0  0  0
  6  9  1  0  0  0  0
  6 10  1  0  0  0  0
  1 11  1  0  0  0  0
  1 12  1  0  0  0  0
  2 13  1  0  0  0  0
  2 14  1  0  0  0  0
  3 15  1  0  0  0  0
  3 16  1  0  0  0  0
  4 17  1  0  0  0  0
  4 18  1  0  0  0  0
  5 19  1  0  0  0  0
  5 20  1  0  0  0  0
  6 21  1  0  0  0  0
  6 22  1  0  0  0  0
  7 23  1  0  0  0  0
  8 24  1  0  0  0  0
  9 25  1  0  0  0  0
 10 26  1  0  0  0  0
M  END
> <Hybrid2>
-7.495760

> <docked_fragment>
x0354

> <Mpro-_dock>
3.302954

> <site>
active-noncovalent

$$$$
CHEMBL20835
  -OEChem-04122014263D

 28 29  0     1  0  0  0  0  0999 V2000
   12.1995    2.9247   23.1352 C   0  0  0  0  0  0  0  0  0  0  0  0
   11.6844   -1.7928   23.9302 C   0  0  0  0  0  0  0  0  0  0  0  0
   13.9081   -1.0016   23.1353 C   0  0  0  0  0  0  0  0  0  0  0  0
   11.3454   -2.2103   22.4976 C   0  0  0  0  0  0  0  0  0  0  0  0
   13.5435   -1.3525   21.6924 C   0  0  0  0  0  0  0  0  0  0  0  0
   11.5662    0.1673   21.7741 C   0  0  0  0  0  0  0  0  0  0  0  0
   12.6479   -0.5952   23.9233 C   0  0  0  0  0  0  0  0  0  0  0  0
   11.9524    0.5755   23.1989 C   0  0  1  0  0  0  0  0  0  0  0  0
   13.2271    4.0139   23.0739 C   0  0  0  0  0  0  0  0  0  0  0  0
   12.0394   -1.2569   21.5444 N   0  3  0  0  0  0  0  0  0  0  0  0
   10.9927    3.1226   23.1734 O   0  0  0  0  0  0  0  0  0  0  0  0
   12.8167    1.7053   23.1418 O   0  0  0  0  0  0  0  0  0  0  0  0
   10.7652   -1.5328   24.4684 H   0  0  0  0  0  0  0  0  0  0  0  0
   12.1359   -2.6377   24.4638 H   0  0  0  0  0  0  0  0  0  0  0  0
   14.3849   -1.8645   23.6156 H   0  0  0  0  0  0  0  0  0  0  0  0
   14.6462   -0.1912   23.1448 H   0  0  0  0  0  0  0  0  0  0  0  0
   11.6993   -3.2204   22.2663 H   0  0  0  0  0  0  0  0  0  0  0  0
   10.2710   -2.1555   22.2945 H   0  0  0  0  0  0  0  0  0  0  0  0
   13.9886   -0.6581   20.9722 H   0  0  0  0  0  0  0  0  0  0  0  0
   13.8370   -2.3739   21.4286 H   0  0  0  0  0  0  0  0  0  0  0  0
   10.4800    0.1607   21.6346 H   0  0  0  0  0  0  0  0  0  0  0  0
   12.0213    0.7938   20.9997 H   0  0  0  0  0  0  0  0  0  0  0  0
   12.9284   -0.3099   24.9431 H   0  0  0  0  0  0  0  0  0  0  0  0
   11.0534    0.8800   23.7475 H   0  0  0  0  0  0  0  0  0  0  0  0
   13.5178    4.3069   24.0857 H   0  0  0  0  0  0  0  0  0  0  0  0
   12.8279    4.8700   22.5242 H   0  0  0  0  0  0  0  0  0  0  0  0
   14.1139    3.6467   22.5490 H   0  0  0  0  0  0  0  0  0  0  0  0
   11.7923   -1.5264   20.5827 H   0  0  0  0  0  0  0  0  0  0  0  0
  1  9  1  0  0  0  0
  1 11  2  0  0  0  0
  1 12  1  0  0  0  0
  2  4  1  0  0  0  0
  2  7  1  0  0  0  0
  3  5  1  0  0  0  0
  3  7  1  0  0  0  0
  4 10  1  0  0  0  0
  5 10  1  0  0  0  0
  6  8  1  0  0  0  0
  6 10  1  0  0  0  0
  7  8  1  0  0  0  0
  8 12  1  0  0  0  0
  2 13  1  0  0  0  0
  2 14  1  0  0  0  0
  3 15  1  0  0  0  0
  3 16  1  0  0  0  0
  4 17  1  0  0  0  0
  4 18  1  0  0  0  0
  5 19  1  0  0  0  0
  5 20  1  0  0  0  0
  6 21  1  0  0  0  0
  6 22  1  0  0  0  0
  7 23  1  0  0  0  0
  8 24  1  0  0  0  0
  9 25  1  0  0  0  0
  9 26  1  0  0  0  0
  9 27  1  0  0  0  0
 10 28  1  0  0  0  0
M  CHG  1  10   1
M  END
> <Hybrid2>
-7.486718

> <docked_fragment>
x0195

> <Mpro-_dock>
2.070042

> <site>
active-noncovalent

$$$$
EDRUG108
  -OEChem-04122014263D

 37 37  0     1  0  0  0  0  0999 V2000
    7.9712   -0.4975   21.6926 C   0  0  0  0  0  0  0  0  0  0  0  0
    8.9567   -0.8151   22.3015 C   0  0  0  0  0  0  0  0  0  0  0  0
   11.5057    0.2525   21.5614 C   0  0  0  0  0  0  0  0  0  0  0  0
   12.4023   -0.4996   23.8280 C   0  0  0  0  0  0  0  0  0  0  0  0
   13.4069   -1.3529   21.7126 C   0  0  0  0  0  0  0  0  0  0  0  0
   12.4854    2.7292   23.2883 C   0  0  0  0  0  0  0  0  0  0  0  0
   11.1864    2.4407   23.1507 C   0  0  0  0  0  0  0  0  0  0  0  0
   11.1889   -0.0487   23.0170 C   0  0  1  0  0  0  0  0  0  0  0  0
    6.4235    1.3525   21.1809 C   0  0  0  0  0  0  0  0  0  0  0  0
    9.8309   -1.5804   24.4740 C   0  0  0  0  0  0  0  0  0  0  0  0
   14.3288   -2.0115   23.8802 C   0  0  0  0  0  0  0  0  0  0  0  0
    6.7671   -0.1090   20.9485 C   0  0  0  0  0  0  0  0  0  0  0  0
   10.5569    1.1909   23.6694 C   0  0  0  0  0  0  0  0  0  0  0  0
   10.1691   -1.2018   23.0379 C   0  0  1  0  0  0  0  0  0  0  0  0
   12.5163   -0.5297   21.0271 N   0  0  0  0  0  0  0  0  0  0  0  0
   13.3098   -1.3010   23.1166 N   0  0  0  0  0  0  0  0  0  0  0  0
   10.8764    1.0686   20.8898 O   0  0  0  0  0  0  0  0  0  0  0  0
   12.5232   -0.2182   25.0216 O   0  0  0  0  0  0  0  0  0  0  0  0
   14.2419   -2.0259   21.1023 O   0  0  0  0  0  0  0  0  0  0  0  0
   12.9072    3.6485   22.8976 H   0  0  0  0  0  0  0  0  0  0  0  0
   13.1494    2.0413   23.8002 H   0  0  0  0  0  0  0  0  0  0  0  0
   10.5427    3.1615   22.6529 H   0  0  0  0  0  0  0  0  0  0  0  0
    6.2627    1.5569   22.2451 H   0  0  0  0  0  0  0  0  0  0  0  0
    7.2371    1.9950   20.8302 H   0  0  0  0  0  0  0  0  0  0  0  0
    5.5111    1.6346   20.6439 H   0  0  0  0  0  0  0  0  0  0  0  0
    9.3665   -0.7469   25.0136 H   0  0  0  0  0  0  0  0  0  0  0  0
    9.1407   -2.4303   24.5041 H   0  0  0  0  0  0  0  0  0  0  0  0
   10.7369   -1.8641   25.0213 H   0  0  0  0  0  0  0  0  0  0  0  0
   13.9464   -3.0012   24.1708 H   0  0  0  0  0  0  0  0  0  0  0  0
   15.2308   -2.1339   23.2626 H   0  0  0  0  0  0  0  0  0  0  0  0
   14.5782   -1.4353   24.7834 H   0  0  0  0  0  0  0  0  0  0  0  0
    6.9215   -0.2807   19.8774 H   0  0  0  0  0  0  0  0  0  0  0  0
    5.9224   -0.7347   21.2571 H   0  0  0  0  0  0  0  0  0  0  0  0
   10.6639    1.1004   24.7507 H   0  0  0  0  0  0  0  0  0  0  0  0
    9.4916    1.1966   23.4394 H   0  0  0  0  0  0  0  0  0  0  0  0
   10.6279   -2.0640   22.5456 H   0  0  0  0  0  0  0  0  0  0  0  0
   12.5811   -0.5493   20.0130 H   0  0  0  0  0  0  0  0  0  0  0  0
  1  2  3  0  0  0  0
  1 12  1  0  0  0  0
  2 14  1  0  0  0  0
  3  8  1  0  0  0  0
  3 15  1  0  0  0  0
  3 17  2  0  0  0  0
  4  8  1  0  0  0  0
  4 16  1  0  0  0  0
  4 18  2  0  0  0  0
  5 15  1  0  0  0  0
  5 16  1  0  0  0  0
  5 19  2  0  0  0  0
  6  7  2  0  0  0  0
  7 13  1  0  0  0  0
  8 13  1  0  0  0  0
  8 14  1  0  0  0  0
  9 12  1  0  0  0  0
 10 14  1  0  0  0  0
 11 16  1  0  0  0  0
  6 20  1  0  0  0  0
  6 21  1  0  0  0  0
  7 22  1  0  0  0  0
  9 23  1  0  0  0  0
  9 24  1  0  0  0  0
  9 25  1  0  0  0  0
 10 26  1  0  0  0  0
 10 27  1  0  0  0  0
 10 28  1  0  0  0  0
 11 29  1  0  0  0  0
 11 30  1  0  0  0  0
 11 31  1  0  0  0  0
 12 32  1  0  0  0  0
 12 33  1  0  0  0  0
 13 34  1  0  0  0  0
 13 35  1  0  0  0  0
 14 36  1  0  0  0  0
 15 37  1  0  0  0  0
M  END
> <Hybrid2>
-7.471408

> <docked_fragment>
x0678

> <Mpro-_dock>
0.99394

> <site>
active-noncovalent

$$$$
CHEMBL526
  -OEChem-04122014263D

 31 31  0     0  0  0  0  0  0999 V2000
   10.0704   -3.7612   24.3625 C   0  0  0  0  0  0  0  0  0  0  0  0
   10.9201   -2.6985   24.0557 C   0  0  0  0  0  0  0  0  0  0  0  0
    8.8969   -3.9492   23.6321 C   0  0  0  0  0  0  0  0  0  0  0  0
   10.5965   -1.8237   23.0186 C   0  0  0  0  0  0  0  0  0  0  0  0
    8.5732   -3.0744   22.5950 C   0  0  0  0  0  0  0  0  0  0  0  0
    9.4230   -2.0116   22.2882 C   0  0  0  0  0  0  0  0  0  0  0  0
   12.9097   -1.1764   22.2548 C   0  0  0  0  0  0  0  0  0  0  0  0
   11.6627    0.2912   23.8815 C   0  0  0  0  0  0  0  0  0  0  0  0
    6.0571   -3.1737   22.7086 C   0  0  0  0  0  0  0  0  0  0  0  0
    7.3043   -4.6406   21.0815 C   0  0  0  0  0  0  0  0  0  0  0  0
   11.5193   -0.6923   22.7054 C   0  0  0  0  0  0  0  0  0  0  0  0
    7.3124   -3.2924   21.8250 C   0  0  0  0  0  0  0  0  0  0  0  0
    9.1060   -1.1554   21.2750 O   0  0  0  0  0  0  0  0  0  0  0  0
   10.3225   -4.4425   25.1699 H   0  0  0  0  0  0  0  0  0  0  0  0
   11.8319   -2.5604   24.6305 H   0  0  0  0  0  0  0  0  0  0  0  0
    8.2412   -4.7799   23.8787 H   0  0  0  0  0  0  0  0  0  0  0  0
   13.3989   -1.7767   23.0296 H   0  0  0  0  0  0  0  0  0  0  0  0
   13.5698   -0.3339   22.0211 H   0  0  0  0  0  0  0  0  0  0  0  0
   12.8264   -1.7964   21.3552 H   0  0  0  0  0  0  0  0  0  0  0  0
   12.0625   -0.2219   24.7633 H   0  0  0  0  0  0  0  0  0  0  0  0
   10.6965    0.7278   24.1571 H   0  0  0  0  0  0  0  0  0  0  0  0
   12.3420    1.1154   23.6379 H   0  0  0  0  0  0  0  0  0  0  0  0
    6.0628   -3.9107   23.5191 H   0  0  0  0  0  0  0  0  0  0  0  0
    5.1424   -3.3277   22.1259 H   0  0  0  0  0  0  0  0  0  0  0  0
    6.0014   -2.1783   23.1632 H   0  0  0  0  0  0  0  0  0  0  0  0
    7.4012   -5.4700   21.7910 H   0  0  0  0  0  0  0  0  0  0  0  0
    8.1346   -4.7094   20.3702 H   0  0  0  0  0  0  0  0  0  0  0  0
    6.3744   -4.7872   20.5213 H   0  0  0  0  0  0  0  0  0  0  0  0
   11.1138   -0.1021   21.8624 H   0  0  0  0  0  0  0  0  0  0  0  0
    7.2116   -2.5140   21.0458 H   0  0  0  0  0  0  0  0  0  0  0  0
    8.2663   -1.4175   20.8673 H   0  0  0  0  0  0  0  0  0  0  0  0
  1  2  2  0  0  0  0
  1  3  1  0  0  0  0
  2  4  1  0  0  0  0
  3  5  2  0  0  0  0
  4  6  2  0  0  0  0
  4 11  1  0  0  0  0
  5  6  1  0  0  0  0
  5 12  1  0  0  0  0
  6 13  1  0  0  0  0
  7 11  1  0  0  0  0
  8 11  1  0  0  0  0
  9 12  1  0  0  0  0
 10 12  1  0  0  0  0
  1 14  1  0  0  0  0
  2 15  1  0  0  0  0
  3 16  1  0  0  0  0
  7 17  1  0  0  0  0
  7 18  1  0  0  0  0
  7 19  1  0  0  0  0
  8 20  1  0  0  0  0
  8 21  1  0  0  0  0
  8 22  1  0  0  0  0
  9 23  1  0  0  0  0
  9 24  1  0  0  0  0
  9 25  1  0  0  0  0
 10 26  1  0  0  0  0
 10 27  1  0  0  0  0
 10 28  1  0  0  0  0
 11 29  1  0  0  0  0
 12 30  1  0  0  0  0
 13 31  1  0  0  0  0
M  END
> <Hybrid2>
-7.469593

> <docked_fragment>
x1418

> <Mpro-_dock>
-0.133274

> <site>
active-covalent

$$$$
DB04183
  -OEChem-04122014263D

 12 11  0     0  0  0  0  0  0999 V2000
    6.1163   -2.4736   19.9803 C   0  0  0  0  0  0  0  0  0  0  0  0
    7.2070   -0.3593   19.3291 C   0  0  0  0  0  0  0  0  0  0  0  0
    8.5801   -2.2106   20.4648 C   0  0  0  0  0  0  0  0  0  0  0  0
    7.4501   -1.8689   19.5068 C   0  0  0  0  0  0  0  0  0  0  0  0
    5.6917   -2.0762   21.1014 O   0  5  0  0  0  0  0  0  0  0  0  0
    6.8999    0.2517   20.3939 O   0  5  0  0  0  0  0  0  0  0  0  0
    5.5986   -3.3001   19.1747 O   0  0  0  0  0  0  0  0  0  0  0  0
    7.3342    0.0952   18.1584 O   0  0  0  0  0  0  0  0  0  0  0  0
    8.3750   -1.8121   21.4643 H   0  0  0  0  0  0  0  0  0  0  0  0
    9.5429   -1.8024   20.1381 H   0  0  0  0  0  0  0  0  0  0  0  0
    8.6964   -3.2964   20.5504 H   0  0  0  0  0  0  0  0  0  0  0  0
    7.7027   -2.2885   18.5241 H   0  0  0  0  0  0  0  0  0  0  0  0
  1  4  1  0  0  0  0
  1  5  1  0  0  0  0
  1  7  2  0  0  0  0
  2  4  1  0  0  0  0
  2  6  1  0  0  0  0
  2  8  2  0  0  0  0
  3  4  1  0  0  0  0
  3  9  1  0  0  0  0
  3 10  1  0  0  0  0
  3 11  1  0  0  0  0
  4 12  1  0  0  0  0
M  CHG  2   5  -1   6  -1
M  END
> <Hybrid2>
-7.467208

> <docked_fragment>
x0397

> <Mpro-_dock>
0.144161

> <site>
active-noncovalent

$$$$
CHEMBL2106177
  -OEChem-04122014263D

 61 65  0     1  0  0  0  0  0999 V2000
   10.3498    6.0057   25.6587 C   0  0  0  0  0  0  0  0  0  0  0  0
   12.5584    6.2161   24.4485 C   0  0  0  0  0  0  0  0  0  0  0  0
    9.9810    5.0589   24.7904 C   0  0  0  0  0  0  0  0  0  0  0  0
   12.1828    5.2638   23.5803 C   0  0  0  0  0  0  0  0  0  0  0  0
   11.6651    6.6607   25.5378 C   0  0  0  0  0  0  0  0  0  0  0  0
   10.8362   -2.4247   22.7634 C   0  0  0  0  0  0  0  0  0  0  0  0
   13.1368    4.7906   22.5132 C   0  0  0  0  0  0  0  0  0  0  0  0
   13.3820    3.2922   22.6455 C   0  0  0  0  0  0  0  0  0  0  0  0
   13.3422    0.2619   22.0028 C   0  0  0  0  0  0  0  0  0  0  0  0
   10.1767    0.5929   24.0238 C   0  0  0  0  0  0  0  0  0  0  0  0
   12.0707    2.4847   22.6624 C   0  0  1  0  0  0  0  0  0  0  0  0
   12.3631    1.0000   22.9190 C   0  0  1  0  0  0  0  0  0  0  0  0
   13.0242   -1.2304   22.2398 C   0  0  2  0  0  0  0  0  0  0  0  0
    9.8424    2.1000   23.9456 C   0  0  1  0  0  0  0  0  0  0  0  0
   10.8200    4.5607   23.6228 C   0  0  1  0  0  0  0  0  0  0  0  0
   11.7492   -1.2781   23.0857 C   0  0  1  0  0  0  0  0  0  0  0  0
   11.0978    0.1146   22.8866 C   0  0  1  0  0  0  0  0  0  0  0  0
   11.0951    3.0125   23.7717 C   0  0  2  0  0  0  0  0  0  0  0  0
   13.5221   -2.0204   24.3353 C   0  0  0  0  0  0  0  0  0  0  0  0
    9.5656   -2.5236   23.5635 C   0  0  0  0  0  0  0  0  0  0  0  0
   10.0499    4.9485   22.3392 C   0  0  0  0  0  0  0  0  0  0  0  0
   10.3559    0.1502   21.5226 C   0  0  0  0  0  0  0  0  0  0  0  0
   14.4163   -1.2847   25.3256 C   0  0  0  0  0  0  0  0  0  0  0  0
   13.4862   -3.5124   24.6547 C   0  0  0  0  0  0  0  0  0  0  0  0
   12.0085    7.5412   26.3193 O   0  0  0  0  0  0  0  0  0  0  0  0
   11.1119   -3.2423   21.8867 O   0  0  0  0  0  0  0  0  0  0  0  0
   14.0454   -1.8497   23.0167 O   0  0  0  0  0  0  0  0  0  0  0  0
   12.1974   -1.4872   24.4226 O   0  0  0  0  0  0  0  0  0  0  0  0
    8.8808    2.2972   22.9210 O   0  0  0  0  0  0  0  0  0  0  0  0
   11.7838    2.8724   24.9684 F   0  0  0  0  0  0  0  0  0  0  0  0
    9.6938    6.3210   26.4617 H   0  0  0  0  0  0  0  0  0  0  0  0
   13.5350    6.6855   24.3950 H   0  0  0  0  0  0  0  0  0  0  0  0
    8.9900    4.6286   24.9171 H   0  0  0  0  0  0  0  0  0  0  0  0
   12.7294    5.0200   21.5219 H   0  0  0  0  0  0  0  0  0  0  0  0
   14.0990    5.3135   22.5757 H   0  0  0  0  0  0  0  0  0  0  0  0
   14.0125    2.9659   21.8099 H   0  0  0  0  0  0  0  0  0  0  0  0
   13.9520    3.0976   23.5637 H   0  0  0  0  0  0  0  0  0  0  0  0
   13.1535    0.5260   20.9561 H   0  0  0  0  0  0  0  0  0  0  0  0
   14.3832    0.5075   22.2361 H   0  0  0  0  0  0  0  0  0  0  0  0
   10.6564    0.4087   24.9934 H   0  0  0  0  0  0  0  0  0  0  0  0
    9.2495    0.0064   24.0145 H   0  0  0  0  0  0  0  0  0  0  0  0
   11.6057    2.5989   21.6784 H   0  0  0  0  0  0  0  0  0  0  0  0
   12.7987    0.9490   23.9285 H   0  0  0  0  0  0  0  0  0  0  0  0
   12.9495   -1.7544   21.2814 H   0  0  0  0  0  0  0  0  0  0  0  0
    9.3560    2.3421   24.8988 H   0  0  0  0  0  0  0  0  0  0  0  0
    8.7697   -1.9659   23.0621 H   0  0  0  0  0  0  0  0  0  0  0  0
    9.7242   -2.0969   24.5569 H   0  0  0  0  0  0  0  0  0  0  0  0
    9.2653   -3.5709   23.6461 H   0  0  0  0  0  0  0  0  0  0  0  0
   10.6128    4.6119   21.4780 H   0  0  0  0  0  0  0  0  0  0  0  0
    9.9361    6.0245   22.3109 H   0  0  0  0  0  0  0  0  0  0  0  0
    9.0779    4.4723   22.3568 H   0  0  0  0  0  0  0  0  0  0  0  0
   11.0339   -0.1913   20.7540 H   0  0  0  0  0  0  0  0  0  0  0  0
   10.0461    1.1664   21.3268 H   0  0  0  0  0  0  0  0  0  0  0  0
    9.4959   -0.5009   21.5825 H   0  0  0  0  0  0  0  0  0  0  0  0
   14.4363   -0.2206   25.0905 H   0  0  0  0  0  0  0  0  0  0  0  0
   15.4317   -1.6776   25.2738 H   0  0  0  0  0  0  0  0  0  0  0  0
   14.0372   -1.4162   26.3391 H   0  0  0  0  0  0  0  0  0  0  0  0
   12.8448   -4.0284   23.9416 H   0  0  0  0  0  0  0  0  0  0  0  0
   13.0965   -3.6665   25.6600 H   0  0  0  0  0  0  0  0  0  0  0  0
   14.4912   -3.9280   24.5950 H   0  0  0  0  0  0  0  0  0  0  0  0
    8.0976    1.7765   23.1648 H   0  0  0  0  0  0  0  0  0  0  0  0
  1  3  2  0  0  0  0
  1  5  1  0  0  0  0
  2  4  2  0  0  0  0
  2  5  1  0  0  0  0
  3 15  1  0  0  0  0
  4  7  1  0  0  0  0
  4 15  1  0  0  0  0
  5 25  2  0  0  0  0
  6 16  1  0  0  0  0
  6 20  1  0  0  0  0
  6 26  2  0  0  0  0
  7  8  1  0  0  0  0
  8 11  1  0  0  0  0
  9 12  1  0  0  0  0
  9 13  1  0  0  0  0
 10 14  1  0  0  0  0
 10 17  1  0  0  0  0
 11 12  1  0  0  0  0
 11 18  1  0  0  0  0
 12 17  1  0  0  0  0
 13 16  1  0  0  0  0
 13 27  1  0  0  0  0
 14 18  1  0  0  0  0
 14 29  1  0  0  0  0
 15 18  1  0  0  0  0
 15 21  1  0  0  0  0
 16 17  1  0  0  0  0
 16 28  1  0  0  0  0
 17 22  1  0  0  0  0
 18 30  1  0  0  0  0
 19 23  1  0  0  0  0
 19 24  1  0  0  0  0
 19 27  1  0  0  0  0
 19 28  1  0  0  0  0
  1 31  1  0  0  0  0
  2 32  1  0  0  0  0
  3 33  1  0  0  0  0
  7 34  1  0  0  0  0
  7 35  1  0  0  0  0
  8 36  1  0  0  0  0
  8 37  1  0  0  0  0
  9 38  1  0  0  0  0
  9 39  1  0  0  0  0
 10 40  1  0  0  0  0
 10 41  1  0  0  0  0
 11 42  1  0  0  0  0
 12 43  1  0  0  0  0
 13 44  1  0  0  0  0
 14 45  1  0  0  0  0
 20 46  1  0  0  0  0
 20 47  1  0  0  0  0
 20 48  1  0  0  0  0
 21 49  1  0  0  0  0
 21 50  1  0  0  0  0
 21 51  1  0  0  0  0
 22 52  1  0  0  0  0
 22 53  1  0  0  0  0
 22 54  1  0  0  0  0
 23 55  1  0  0  0  0
 23 56  1  0  0  0  0
 23 57  1  0  0  0  0
 24 58  1  0  0  0  0
 24 59  1  0  0  0  0
 24 60  1  0  0  0  0
 29 61  1  0  0  0  0
M  END
> <Hybrid2>
-7.442470

> <docked_fragment>
x0161

> <Mpro-_dock>
3.632282

> <site>
active-noncovalent

$$$$
EDRUG361
  -OEChem-04122014263D

 46 47  0     1  0  0  0  0  0999 V2000
   10.8000   -0.8319   24.5119 C   0  0  0  0  0  0  0  0  0  0  0  0
   11.4249   -1.6871   22.3405 C   0  0  0  0  0  0  0  0  0  0  0  0
    9.7313   -1.7271   24.5569 C   0  0  0  0  0  0  0  0  0  0  0  0
   10.3562   -2.5823   22.3855 C   0  0  0  0  0  0  0  0  0  0  0  0
   11.6468   -0.8118   23.4037 C   0  0  0  0  0  0  0  0  0  0  0  0
    9.5094   -2.6023   23.4938 C   0  0  0  0  0  0  0  0  0  0  0  0
   14.7762   -0.7937   23.5411 C   0  0  0  0  0  0  0  0  0  0  0  0
   13.9661    0.1135   24.4840 C   0  0  0  0  0  0  0  0  0  0  0  0
   14.0604   -0.1041   22.3661 C   0  0  0  0  0  0  0  0  0  0  0  0
   12.8813    0.2232   23.3522 C   0  0  0  0  0  0  0  0  0  0  0  0
   14.1370    4.7731   21.5700 C   0  0  0  0  0  0  0  0  0  0  0  0
   13.2355    4.4742   23.8851 C   0  0  0  0  0  0  0  0  0  0  0  0
   10.1683    2.8035   22.7858 C   0  0  0  0  0  0  0  0  0  0  0  0
   11.1361    1.3369   21.0215 C   0  0  0  0  0  0  0  0  0  0  0  0
   13.3117    2.4864   22.3501 C   0  0  0  0  0  0  0  0  0  0  0  0
   12.3357    1.6429   23.1821 C   0  0  1  0  0  0  0  0  0  0  0  0
   13.1237    4.0152   22.4280 C   0  0  0  0  0  0  0  0  0  0  0  0
   11.0120    1.5874   22.5024 N   0  3  0  0  0  0  0  0  0  0  0  0
    8.1909   -3.7064   23.5492 Cl  0  0  0  0  0  0  0  0  0  0  0  0
   10.9663   -0.1535   25.3443 H   0  0  0  0  0  0  0  0  0  0  0  0
   12.0805   -1.6770   21.4740 H   0  0  0  0  0  0  0  0  0  0  0  0
    9.0798   -1.7313   25.4270 H   0  0  0  0  0  0  0  0  0  0  0  0
   10.1951   -3.2588   21.5500 H   0  0  0  0  0  0  0  0  0  0  0  0
   15.8555   -0.6143   23.5708 H   0  0  0  0  0  0  0  0  0  0  0  0
   14.5924   -1.8652   23.6431 H   0  0  0  0  0  0  0  0  0  0  0  0
   13.6202   -0.4000   25.3863 H   0  0  0  0  0  0  0  0  0  0  0  0
   14.4567    1.0434   24.7742 H   0  0  0  0  0  0  0  0  0  0  0  0
   14.5832    0.7519   21.9375 H   0  0  0  0  0  0  0  0  0  0  0  0
   13.7909   -0.7932   21.5603 H   0  0  0  0  0  0  0  0  0  0  0  0
   15.1637    4.5491   21.8745 H   0  0  0  0  0  0  0  0  0  0  0  0
   14.0436    4.4887   20.5163 H   0  0  0  0  0  0  0  0  0  0  0  0
   13.9870    5.8557   21.6415 H   0  0  0  0  0  0  0  0  0  0  0  0
   14.2257    4.2419   24.2913 H   0  0  0  0  0  0  0  0  0  0  0  0
   13.0759    5.5541   23.9759 H   0  0  0  0  0  0  0  0  0  0  0  0
   12.4925    3.9682   24.5108 H   0  0  0  0  0  0  0  0  0  0  0  0
   10.6913    3.6736   22.3849 H   0  0  0  0  0  0  0  0  0  0  0  0
    9.2042    2.6635   22.2932 H   0  0  0  0  0  0  0  0  0  0  0  0
   10.0483    2.8821   23.8680 H   0  0  0  0  0  0  0  0  0  0  0  0
   11.6787    2.1774   20.5850 H   0  0  0  0  0  0  0  0  0  0  0  0
   11.6841    0.4025   20.8855 H   0  0  0  0  0  0  0  0  0  0  0  0
   10.1279    1.2641   20.6093 H   0  0  0  0  0  0  0  0  0  0  0  0
   14.3402    2.2437   22.6521 H   0  0  0  0  0  0  0  0  0  0  0  0
   13.2314    2.1724   21.3002 H   0  0  0  0  0  0  0  0  0  0  0  0
   12.1594    2.0884   24.1658 H   0  0  0  0  0  0  0  0  0  0  0  0
   12.1162    4.2748   22.0822 H   0  0  0  0  0  0  0  0  0  0  0  0
   10.4967    0.7807   22.8903 H   0  0  0  0  0  0  0  0  0  0  0  0
  1  3  2  0  0  0  0
  1  5  1  0  0  0  0
  2  4  1  0  0  0  0
  2  5  2  0  0  0  0
  3  6  1  0  0  0  0
  4  6  2  0  0  0  0
  5 10  1  0  0  0  0
  6 19  1  0  0  0  0
  7  8  1  0  0  0  0
  7  9  1  0  0  0  0
  8 10  1  0  0  0  0
  9 10  1  0  0  0  0
 10 16  1  0  0  0  0
 11 17  1  0  0  0  0
 12 17  1  0  0  0  0
 13 18  1  0  0  0  0
 14 18  1  0  0  0  0
 15 16  1  0  0  0  0
 15 17  1  0  0  0  0
 16 18  1  0  0  0  0
  1 20  1  0  0  0  0
  2 21  1  0  0  0  0
  3 22  1  0  0  0  0
  4 23  1  0  0  0  0
  7 24  1  0  0  0  0
  7 25  1  0  0  0  0
  8 26  1  0  0  0  0
  8 27  1  0  0  0  0
  9 28  1  0  0  0  0
  9 29  1  0  0  0  0
 11 30  1  0  0  0  0
 11 31  1  0  0  0  0
 11 32  1  0  0  0  0
 12 33  1  0  0  0  0
 12 34  1  0  0  0  0
 12 35  1  0  0  0  0
 13 36  1  0  0  0  0
 13 37  1  0  0  0  0
 13 38  1  0  0  0  0
 14 39  1  0  0  0  0
 14 40  1  0  0  0  0
 14 41  1  0  0  0  0
 15 42  1  0  0  0  0
 15 43  1  0  0  0  0
 16 44  1  0  0  0  0
 17 45  1  0  0  0  0
 18 46  1  0  0  0  0
M  CHG  1  18   1
M  END
> <Hybrid2>
-7.426121

> <docked_fragment>
x0195

> <Mpro-_dock>
0.428671

> <site>
active-noncovalent

$$$$
CHEMBL2105833
  -OEChem-04122014263D

 29 28  0     1  0  0  0  0  0999 V2000
   12.7911   -1.2914   22.2760 C   0  0  0  0  0  0  0  0  0  0  0  0
   14.3332   -0.8347   24.1937 C   0  0  0  0  0  0  0  0  0  0  0  0
   10.4470    3.2025   23.3242 C   0  0  0  0  0  0  0  0  0  0  0  0
   12.8711    1.6872   23.0108 C   0  0  0  0  0  0  0  0  0  0  0  0
   14.0124    0.9018   22.3520 C   0  0  0  0  0  0  0  0  0  0  0  0
   12.8905    3.1827   22.6752 C   0  0  0  0  0  0  0  0  0  0  0  0
   14.0868   -0.5961   22.7037 C   0  0  0  0  0  0  0  0  0  0  0  0
   11.7616    3.9708   23.3502 C   0  0  1  0  0  0  0  0  0  0  0  0
   11.5519    5.2632   22.6397 N   0  3  0  0  0  0  0  0  0  0  0  0
   11.9302   -0.8713   22.8071 H   0  0  0  0  0  0  0  0  0  0  0  0
   12.8312   -2.3622   22.5023 H   0  0  0  0  0  0  0  0  0  0  0  0
   12.6144   -1.1778   21.2009 H   0  0  0  0  0  0  0  0  0  0  0  0
   13.5347   -0.3873   24.7956 H   0  0  0  0  0  0  0  0  0  0  0  0
   15.2839   -0.3956   24.5143 H   0  0  0  0  0  0  0  0  0  0  0  0
   14.3541   -1.9033   24.4280 H   0  0  0  0  0  0  0  0  0  0  0  0
   10.1733    2.9415   22.2965 H   0  0  0  0  0  0  0  0  0  0  0  0
    9.6285    3.7918   23.7521 H   0  0  0  0  0  0  0  0  0  0  0  0
   10.5256    2.2704   23.8943 H   0  0  0  0  0  0  0  0  0  0  0  0
   11.9229    1.2560   22.6658 H   0  0  0  0  0  0  0  0  0  0  0  0
   12.9009    1.5373   24.0951 H   0  0  0  0  0  0  0  0  0  0  0  0
   13.9163    1.0126   21.2639 H   0  0  0  0  0  0  0  0  0  0  0  0
   14.9632    1.3785   22.6242 H   0  0  0  0  0  0  0  0  0  0  0  0
   12.7982    3.3005   21.5881 H   0  0  0  0  0  0  0  0  0  0  0  0
   13.8580    3.6143   22.9587 H   0  0  0  0  0  0  0  0  0  0  0  0
   14.9060   -1.0584   22.1405 H   0  0  0  0  0  0  0  0  0  0  0  0
   12.0253    4.2263   24.3821 H   0  0  0  0  0  0  0  0  0  0  0  0
   11.9855    6.0332   23.1558 H   0  0  0  0  0  0  0  0  0  0  0  0
   10.5527    5.4635   22.5437 H   0  0  0  0  0  0  0  0  0  0  0  0
   11.9645    5.2314   21.7036 H   0  0  0  0  0  0  0  0  0  0  0  0
  1  7  1  0  0  0  0
  2  7  1  0  0  0  0
  3  8  1  0  0  0  0
  4  5  1  0  0  0  0
  4  6  1  0  0  0  0
  5  7  1  0  0  0  0
  6  8  1  0  0  0  0
  8  9  1  0  0  0  0
  1 10  1  0  0  0  0
  1 11  1  0  0  0  0
  1 12  1  0  0  0  0
  2 13  1  0  0  0  0
  2 14  1  0  0  0  0
  2 15  1  0  0  0  0
  3 16  1  0  0  0  0
  3 17  1  0  0  0  0
  3 18  1  0  0  0  0
  4 19  1  0  0  0  0
  4 20  1  0  0  0  0
  5 21  1  0  0  0  0
  5 22  1  0  0  0  0
  6 23  1  0  0  0  0
  6 24  1  0  0  0  0
  7 25  1  0  0  0  0
  8 26  1  0  0  0  0
  9 27  1  0  0  0  0
  9 28  1  0  0  0  0
  9 29  1  0  0  0  0
M  CHG  1   9   1
M  END
> <Hybrid2>
-7.422825

> <docked_fragment>
x0195

> <Mpro-_dock>
-1.047991

> <site>
active-noncovalent

$$$$
CHEMBL112
  -OEChem-04122014263D

 20 20  0     0  0  0  0  0  0999 V2000
   11.8946   -0.1425   23.0352 C   0  0  0  0  0  0  0  0  0  0  0  0
   12.8839   -1.8974   21.7016 C   0  0  0  0  0  0  0  0  0  0  0  0
   12.9305   -0.2625   23.9616 C   0  0  0  0  0  0  0  0  0  0  0  0
   13.9199   -2.0173   22.6279 C   0  0  0  0  0  0  0  0  0  0  0  0
   11.8713   -0.9600   21.9052 C   0  0  0  0  0  0  0  0  0  0  0  0
   13.9431   -1.1999   23.7579 C   0  0  0  0  0  0  0  0  0  0  0  0
    9.7412    0.0349   21.0124 C   0  0  0  0  0  0  0  0  0  0  0  0
    8.8407   -0.1494   19.8168 C   0  0  0  0  0  0  0  0  0  0  0  0
   10.8352   -0.8401   20.9786 N   0  0  0  0  0  0  0  0  0  0  0  0
    9.4834    0.8738   21.8695 O   0  0  0  0  0  0  0  0  0  0  0  0
   14.9540   -1.3170   24.6619 O   0  0  0  0  0  0  0  0  0  0  0  0
   11.1107    0.5915   23.2039 H   0  0  0  0  0  0  0  0  0  0  0  0
   12.8761   -2.5398   20.8247 H   0  0  0  0  0  0  0  0  0  0  0  0
   12.9432    0.3772   24.8399 H   0  0  0  0  0  0  0  0  0  0  0  0
   14.7058   -2.7495   22.4639 H   0  0  0  0  0  0  0  0  0  0  0  0
    8.0743   -0.8964   20.0422 H   0  0  0  0  0  0  0  0  0  0  0  0
    9.4282   -0.4919   18.9601 H   0  0  0  0  0  0  0  0  0  0  0  0
    8.3622    0.8003   19.5599 H   0  0  0  0  0  0  0  0  0  0  0  0
   10.8739   -1.4686   20.1678 H   0  0  0  0  0  0  0  0  0  0  0  0
   15.5765   -2.0071   24.3827 H   0  0  0  0  0  0  0  0  0  0  0  0
  1  3  2  0  0  0  0
  1  5  1  0  0  0  0
  2  4  1  0  0  0  0
  2  5  2  0  0  0  0
  3  6  1  0  0  0  0
  4  6  2  0  0  0  0
  5  9  1  0  0  0  0
  6 11  1  0  0  0  0
  7  8  1  0  0  0  0
  7  9  1  0  0  0  0
  7 10  2  0  0  0  0
  1 12  1  0  0  0  0
  2 13  1  0  0  0  0
  3 14  1  0  0  0  0
  4 15  1  0  0  0  0
  8 16  1  0  0  0  0
  8 17  1  0  0  0  0
  8 18  1  0  0  0  0
  9 19  1  0  0  0  0
 11 20  1  0  0  0  0
M  END
> <Hybrid2>
-7.421527

> <docked_fragment>
x0678

> <Mpro-_dock>
-1.463642

> <site>
active-noncovalent

$$$$
CHEMBL1909283
  -OEChem-04122014263D

 22 22  0     1  0  0  0  0  0999 V2000
   13.4275   -1.9155   22.5047 C   0  0  0  0  0  0  0  0  0  0  0  0
   14.4044   -1.0603   21.9951 C   0  0  0  0  0  0  0  0  0  0  0  0
   12.3317   -1.3922   23.1911 C   0  0  0  0  0  0  0  0  0  0  0  0
   14.2856    0.3182   22.1718 C   0  0  0  0  0  0  0  0  0  0  0  0
   12.2129   -0.0137   23.3679 C   0  0  0  0  0  0  0  0  0  0  0  0
   13.1899    0.8416   22.8582 C   0  0  0  0  0  0  0  0  0  0  0  0
   11.6046    2.7932   23.1235 C   0  0  0  0  0  0  0  0  0  0  0  0
   13.0624    2.3154   23.0478 C   0  0  2  0  0  0  0  0  0  0  0  0
   13.9810    4.3929   22.4943 N   0  0  0  0  0  0  0  0  0  0  0  0
   13.7693    3.0617   22.0207 N   0  0  0  0  0  0  0  0  0  0  0  0
   13.5194   -2.9887   22.3658 H   0  0  0  0  0  0  0  0  0  0  0  0
   15.2572   -1.4675   21.4596 H   0  0  0  0  0  0  0  0  0  0  0  0
   11.5703   -2.0577   23.5871 H   0  0  0  0  0  0  0  0  0  0  0  0
   15.0518    0.9770   21.7714 H   0  0  0  0  0  0  0  0  0  0  0  0
   11.3558    0.3850   23.9041 H   0  0  0  0  0  0  0  0  0  0  0  0
   11.0605    2.5209   22.2125 H   0  0  0  0  0  0  0  0  0  0  0  0
   11.0833    2.3451   23.9769 H   0  0  0  0  0  0  0  0  0  0  0  0
   11.5412    3.8806   23.2426 H   0  0  0  0  0  0  0  0  0  0  0  0
   13.5462    2.6219   23.9920 H   0  0  0  0  0  0  0  0  0  0  0  0
   13.6377    4.4711   23.4513 H   0  0  0  0  0  0  0  0  0  0  0  0
   14.9834    4.5708   22.5428 H   0  0  0  0  0  0  0  0  0  0  0  0
   13.2051    3.0966   21.1711 H   0  0  0  0  0  0  0  0  0  0  0  0
  1  2  1  0  0  0  0
  1  3  2  0  0  0  0
  2  4  2  0  0  0  0
  3  5  1  0  0  0  0
  4  6  1  0  0  0  0
  5  6  2  0  0  0  0
  6  8  1  0  0  0  0
  7  8  1  0  0  0  0
  8 10  1  0  0  0  0
  9 10  1  0  0  0  0
  1 11  1  0  0  0  0
  2 12  1  0  0  0  0
  3 13  1  0  0  0  0
  4 14  1  0  0  0  0
  5 15  1  0  0  0  0
  7 16  1  0  0  0  0
  7 17  1  0  0  0  0
  7 18  1  0  0  0  0
  8 19  1  0  0  0  0
  9 20  1  0  0  0  0
  9 21  1  0  0  0  0
 10 22  1  0  0  0  0
M  END
> <Hybrid2>
-7.417472

> <docked_fragment>
x0195

> <Mpro-_dock>
1.875519

> <site>
active-noncovalent

$$$$
CHEMBL355200
  -OEChem-04122014263D

 14 14  0     0  0  0  0  0  0999 V2000
   14.7097   -1.7417   24.3091 C   0  0  0  0  0  0  0  0  0  0  0  0
   13.7192   -1.4602   23.6926 C   0  0  0  0  0  0  0  0  0  0  0  0
   12.3742   -1.5484   21.7041 C   0  0  0  0  0  0  0  0  0  0  0  0
   12.5458   -1.1283   22.9630 C   0  0  0  0  0  0  0  0  0  0  0  0
   11.4746   -0.3004   23.5879 C   0  0  0  0  0  0  0  0  0  0  0  0
   10.2084   -0.4887   21.4574 C   0  0  0  0  0  0  0  0  0  0  0  0
   11.2590   -1.2497   20.9696 N   0  0  0  0  0  0  0  0  0  0  0  0
   10.3797   -0.0461   22.7709 N   0  0  0  0  0  0  0  0  0  0  0  0
   11.5723    0.1154   24.7397 O   0  0  0  0  0  0  0  0  0  0  0  0
    9.2074   -0.2237   20.7912 O   0  0  0  0  0  0  0  0  0  0  0  0
   15.5885   -1.9928   24.8562 H   0  0  0  0  0  0  0  0  0  0  0  0
   13.1093   -2.1534   21.1845 H   0  0  0  0  0  0  0  0  0  0  0  0
   11.1981   -1.6034   20.0194 H   0  0  0  0  0  0  0  0  0  0  0  0
    9.6311    0.5156   23.1667 H   0  0  0  0  0  0  0  0  0  0  0  0
  1  2  3  0  0  0  0
  2  4  1  0  0  0  0
  3  4  2  0  0  0  0
  3  7  1  0  0  0  0
  4  5  1  0  0  0  0
  5  8  1  0  0  0  0
  5  9  2  0  0  0  0
  6  7  1  0  0  0  0
  6  8  1  0  0  0  0
  6 10  2  0  0  0  0
  1 11  1  0  0  0  0
  3 12  1  0  0  0  0
  7 13  1  0  0  0  0
  8 14  1  0  0  0  0
M  END
> <Hybrid2>
-7.416646

> <docked_fragment>
x0678

> <Mpro-_dock>
-1.472335

> <site>
active-noncovalent

$$$$
CHEMBL242273
  -OEChem-04122014263D

 22 23  0     0  0  0  0  0  0999 V2000
   11.7877    2.2225   23.4904 C   0  0  0  0  0  0  0  0  0  0  0  0
   11.6858    0.8481   23.7190 C   0  0  0  0  0  0  0  0  0  0  0  0
   13.8630    1.9068   22.2568 C   0  0  0  0  0  0  0  0  0  0  0  0
   12.8701    2.7488   22.7635 C   0  0  0  0  0  0  0  0  0  0  0  0
   12.6794    0.0386   23.2080 C   0  0  0  0  0  0  0  0  0  0  0  0
   13.7387    0.5537   22.4964 C   0  0  0  0  0  0  0  0  0  0  0  0
   11.2805    5.8419   23.4708 C   0  0  0  0  0  0  0  0  0  0  0  0
   12.3294    5.0286   23.6378 C   0  0  0  0  0  0  0  0  0  0  0  0
   13.9688   -1.5945   22.6145 C   0  0  0  0  0  0  0  0  0  0  0  0
   12.9583    4.2205   22.5329 C   0  0  0  0  0  0  0  0  0  0  0  0
   12.7474   -1.3151   23.3289 O   0  0  0  0  0  0  0  0  0  0  0  0
   14.6028   -0.4130   22.0830 O   0  0  0  0  0  0  0  0  0  0  0  0
   11.0188    2.8852   23.8799 H   0  0  0  0  0  0  0  0  0  0  0  0
   10.8525    0.4384   24.2780 H   0  0  0  0  0  0  0  0  0  0  0  0
   14.7025    2.2997   21.6933 H   0  0  0  0  0  0  0  0  0  0  0  0
   10.8616    6.4044   24.2978 H   0  0  0  0  0  0  0  0  0  0  0  0
   10.8246    5.9568   22.4936 H   0  0  0  0  0  0  0  0  0  0  0  0
   12.7666    4.9425   24.6296 H   0  0  0  0  0  0  0  0  0  0  0  0
   14.6684   -2.0904   23.2972 H   0  0  0  0  0  0  0  0  0  0  0  0
   13.7428   -2.2746   21.7855 H   0  0  0  0  0  0  0  0  0  0  0  0
   14.0123    4.5310   22.4390 H   0  0  0  0  0  0  0  0  0  0  0  0
   12.5034    4.4767   21.5612 H   0  0  0  0  0  0  0  0  0  0  0  0
  1  2  2  0  0  0  0
  1  4  1  0  0  0  0
  2  5  1  0  0  0  0
  3  4  2  0  0  0  0
  3  6  1  0  0  0  0
  4 10  1  0  0  0  0
  5  6  2  0  0  0  0
  5 11  1  0  0  0  0
  6 12  1  0  0  0  0
  7  8  2  0  0  0  0
  8 10  1  0  0  0  0
  9 11  1  0  0  0  0
  9 12  1  0  0  0  0
  1 13  1  0  0  0  0
  2 14  1  0  0  0  0
  3 15  1  0  0  0  0
  7 16  1  0  0  0  0
  7 17  1  0  0  0  0
  8 18  1  0  0  0  0
  9 19  1  0  0  0  0
  9 20  1  0  0  0  0
 10 21  1  0  0  0  0
 10 22  1  0  0  0  0
M  END
> <Hybrid2>
-7.405859

> <docked_fragment>
x0195

> <Mpro-_dock>
1.001116

> <site>
active-noncovalent

$$$$
DB08139
  -OEChem-04122014263D

 26 27  0     0  0  0  0  0  0999 V2000
   13.5916   -1.1216   21.9737 C   0  0  0  0  0  0  0  0  0  0  0  0
   14.4876    1.2508   22.1126 C   0  0  0  0  0  0  0  0  0  0  0  0
   13.5175    0.2595   22.2992 C   0  0  0  0  0  0  0  0  0  0  0  0
   12.4519    0.9115   22.8767 C   0  0  0  0  0  0  0  0  0  0  0  0
   10.7468    2.7996   23.9789 C   0  0  0  0  0  0  0  0  0  0  0  0
   11.9598    3.2033   23.5671 C   0  0  0  0  0  0  0  0  0  0  0  0
   10.4363    1.3542   23.7988 C   0  0  0  0  0  0  0  0  0  0  0  0
   10.5599    5.9623   23.1747 C   0  0  0  0  0  0  0  0  0  0  0  0
   12.4536    6.6704   24.6775 C   0  0  0  0  0  0  0  0  0  0  0  0
   11.5735    5.5169   24.2189 C   0  0  0  0  0  0  0  0  0  0  0  0
   13.6523   -2.2496   21.7078 N   0  0  0  0  0  0  0  0  0  0  0  0
   14.0902    2.4504   22.5326 N   0  0  0  0  0  0  0  0  0  0  0  0
   11.2314    0.4666   23.2834 N   0  0  0  0  0  0  0  0  0  0  0  0
   12.8280    2.2506   23.0079 N   0  0  0  0  0  0  0  0  0  0  0  0
   12.4071    4.4904   23.6575 N   0  0  0  0  0  0  0  0  0  0  0  0
    8.8912    0.7644   24.3078 Cl  0  0  0  0  0  0  0  0  0  0  0  0
   15.4766    1.1556   21.6863 H   0  0  0  0  0  0  0  0  0  0  0  0
   10.0127    3.4607   24.4212 H   0  0  0  0  0  0  0  0  0  0  0  0
   11.0624    6.3905   22.3013 H   0  0  0  0  0  0  0  0  0  0  0  0
    9.9407    5.1243   22.8355 H   0  0  0  0  0  0  0  0  0  0  0  0
    9.8873    6.7230   23.5858 H   0  0  0  0  0  0  0  0  0  0  0  0
   12.9889    7.1113   23.8295 H   0  0  0  0  0  0  0  0  0  0  0  0
   13.1959    6.3286   25.4063 H   0  0  0  0  0  0  0  0  0  0  0  0
   11.8607    7.4663   25.1420 H   0  0  0  0  0  0  0  0  0  0  0  0
   11.0492    5.0925   25.0820 H   0  0  0  0  0  0  0  0  0  0  0  0
   13.3220    4.6706   23.3205 H   0  0  0  0  0  0  0  0  0  0  0  0
  1  3  1  0  0  0  0
  1 11  3  0  0  0  0
  2  3  1  0  0  0  0
  2 12  2  0  0  0  0
  3  4  2  0  0  0  0
  4 13  1  0  0  0  0
  4 14  1  0  0  0  0
  5  6  2  0  0  0  0
  5  7  1  0  0  0  0
  6 14  1  0  0  0  0
  6 15  1  0  0  0  0
  7 13  2  0  0  0  0
  7 16  1  0  0  0  0
  8 10  1  0  0  0  0
  9 10  1  0  0  0  0
 10 15  1  0  0  0  0
 12 14  1  0  0  0  0
  2 17  1  0  0  0  0
  5 18  1  0  0  0  0
  8 19  1  0  0  0  0
  8 20  1  0  0  0  0
  8 21  1  0  0  0  0
  9 22  1  0  0  0  0
  9 23  1  0  0  0  0
  9 24  1  0  0  0  0
 10 25  1  0  0  0  0
 15 26  1  0  0  0  0
M  END
> <Hybrid2>
-7.402708

> <docked_fragment>
x0195

> <Mpro-_dock>
-0.192262

> <site>
active-noncovalent

$$$$
CHEMBL2104036
  -OEChem-04122014263D

 27 27  0     0  0  0  0  0  0999 V2000
   14.6380    0.4909   22.4420 C   0  0  0  0  0  0  0  0  0  0  0  0
   14.1007    1.7136   22.2934 C   0  0  0  0  0  0  0  0  0  0  0  0
   13.8314   -0.6912   22.7946 C   0  0  0  0  0  0  0  0  0  0  0  0
   11.8548    0.8210   22.8183 C   0  0  0  0  0  0  0  0  0  0  0  0
   10.2283    3.9533   23.7288 C   0  0  0  0  0  0  0  0  0  0  0  0
   11.5209    3.6331   23.6017 C   0  0  0  0  0  0  0  0  0  0  0  0
   10.8153   -2.0244   22.1359 C   0  0  0  0  0  0  0  0  0  0  0  0
   12.1535    3.2180   22.3139 C   0  0  0  0  0  0  0  0  0  0  0  0
   11.6169   -1.5741   23.3095 C   0  0  0  0  0  0  0  0  0  0  0  0
   12.7234    1.8783   22.4793 N   0  0  0  0  0  0  0  0  0  0  0  0
   12.4709   -0.4432   22.9611 N   0  0  0  0  0  0  0  0  0  0  0  0
   14.9362    2.7582   21.9622 N   0  0  0  0  0  0  0  0  0  0  0  0
   14.3895   -1.7798   22.9157 O   0  0  0  0  0  0  0  0  0  0  0  0
   10.6395    0.9765   22.9815 O   0  0  0  0  0  0  0  0  0  0  0  0
   15.7026    0.3218   22.3066 H   0  0  0  0  0  0  0  0  0  0  0  0
    9.8294    4.2537   24.6915 H   0  0  0  0  0  0  0  0  0  0  0  0
    9.5497    3.9215   22.8835 H   0  0  0  0  0  0  0  0  0  0  0  0
   12.1587    3.6880   24.4805 H   0  0  0  0  0  0  0  0  0  0  0  0
   11.4921   -2.3279   21.3236 H   0  0  0  0  0  0  0  0  0  0  0  0
   10.1865   -2.8786   22.4274 H   0  0  0  0  0  0  0  0  0  0  0  0
   10.1754   -1.1990   21.7906 H   0  0  0  0  0  0  0  0  0  0  0  0
   12.9566    3.9146   22.0543 H   0  0  0  0  0  0  0  0  0  0  0  0
   11.4377    3.1967   21.4860 H   0  0  0  0  0  0  0  0  0  0  0  0
   10.9333   -1.2726   24.1167 H   0  0  0  0  0  0  0  0  0  0  0  0
   12.2471   -2.4070   23.6546 H   0  0  0  0  0  0  0  0  0  0  0  0
   15.9000    2.5622   21.8475 H   0  0  0  0  0  0  0  0  0  0  0  0
   14.5345    3.6568   21.8540 H   0  0  0  0  0  0  0  0  0  0  0  0
  1  2  2  0  0  0  0
  1  3  1  0  0  0  0
  2 10  1  0  0  0  0
  2 12  1  0  0  0  0
  3 11  1  0  0  0  0
  3 13  2  0  0  0  0
  4 10  1  0  0  0  0
  4 11  1  0  0  0  0
  4 14  2  0  0  0  0
  5  6  2  0  0  0  0
  6  8  1  0  0  0  0
  7  9  1  0  0  0  0
  8 10  1  0  0  0  0
  9 11  1  0  0  0  0
  1 15  1  0  0  0  0
  5 16  1  0  0  0  0
  5 17  1  0  0  0  0
  6 18  1  0  0  0  0
  7 19  1  0  0  0  0
  7 20  1  0  0  0  0
  7 21  1  0  0  0  0
  8 22  1  0  0  0  0
  8 23  1  0  0  0  0
  9 24  1  0  0  0  0
  9 25  1  0  0  0  0
 12 26  1  0  0  0  0
 12 27  1  0  0  0  0
M  END
> <Hybrid2>
-7.399726

> <docked_fragment>
x0195

> <Mpro-_dock>
-0.250848

> <site>
active-noncovalent

$$$$
DB02970
  -OEChem-04122014263D

 23 23  0     0  0  0  0  0  0999 V2000
   14.2174   -1.6378   23.7729 C   0  0  0  0  0  0  0  0  0  0  0  0
   14.0185   -2.1044   22.4735 C   0  0  0  0  0  0  0  0  0  0  0  0
   13.5635   -0.4850   24.2078 C   0  0  0  0  0  0  0  0  0  0  0  0
   13.1658   -1.4180   21.6090 C   0  0  0  0  0  0  0  0  0  0  0  0
   12.7108    0.2014   23.3432 C   0  0  0  0  0  0  0  0  0  0  0  0
   12.5119   -0.2651   22.0438 C   0  0  0  0  0  0  0  0  0  0  0  0
    9.9653    0.1349   24.5353 C   0  0  0  0  0  0  0  0  0  0  0  0
   12.0235    1.4333   23.8355 C   0  0  0  0  0  0  0  0  0  0  0  0
   10.4957    1.3168   23.7393 C   0  0  0  0  0  0  0  0  0  0  0  0
   11.6524    0.4168   21.1547 N   0  0  0  0  0  0  0  0  0  0  0  0
   14.8813   -2.1723   24.4460 H   0  0  0  0  0  0  0  0  0  0  0  0
   14.5276   -3.0020   22.1351 H   0  0  0  0  0  0  0  0  0  0  0  0
   13.7252   -0.1298   25.2221 H   0  0  0  0  0  0  0  0  0  0  0  0
   13.0186   -1.7911   20.5986 H   0  0  0  0  0  0  0  0  0  0  0  0
   10.4138   -0.8025   24.1913 H   0  0  0  0  0  0  0  0  0  0  0  0
   10.1840    0.2504   25.6017 H   0  0  0  0  0  0  0  0  0  0  0  0
    8.8800    0.0551   24.4178 H   0  0  0  0  0  0  0  0  0  0  0  0
   12.3059    1.6393   24.8810 H   0  0  0  0  0  0  0  0  0  0  0  0
   12.3561    2.3144   23.2624 H   0  0  0  0  0  0  0  0  0  0  0  0
   10.0273    2.2373   24.1085 H   0  0  0  0  0  0  0  0  0  0  0  0
   10.1948    1.2071   22.6903 H   0  0  0  0  0  0  0  0  0  0  0  0
   11.5645    0.0880   20.2154 H   0  0  0  0  0  0  0  0  0  0  0  0
   11.2219    1.2679   21.4521 H   0  0  0  0  0  0  0  0  0  0  0  0
  1  2  1  0  0  0  0
  1  3  2  0  0  0  0
  2  4  2  0  0  0  0
  3  5  1  0  0  0  0
  4  6  1  0  0  0  0
  5  6  2  0  0  0  0
  5  8  1  0  0  0  0
  6 10  1  0  0  0  0
  7  9  1  0  0  0  0
  8  9  1  0  0  0  0
  1 11  1  0  0  0  0
  2 12  1  0  0  0  0
  3 13  1  0  0  0  0
  4 14  1  0  0  0  0
  7 15  1  0  0  0  0
  7 16  1  0  0  0  0
  7 17  1  0  0  0  0
  8 18  1  0  0  0  0
  8 19  1  0  0  0  0
  9 20  1  0  0  0  0
  9 21  1  0  0  0  0
 10 22  1  0  0  0  0
 10 23  1  0  0  0  0
M  END
> <Hybrid2>
-7.379566

> <docked_fragment>
x0678

> <Mpro-_dock>
0.845389

> <site>
active-noncovalent

$$$$
CHEMBL2105064
  -OEChem-04122014263D

 25 25  0     0  0  0  0  0  0999 V2000
   10.6556   -0.6239   23.8953 C   0  0  0  0  0  0  0  0  0  0  0  0
   11.2041    0.6552   23.9875 C   0  0  0  0  0  0  0  0  0  0  0  0
   11.2393   -1.5745   23.0578 C   0  0  0  0  0  0  0  0  0  0  0  0
   12.9200    0.0334   22.4043 C   0  0  0  0  0  0  0  0  0  0  0  0
   12.3363    0.9839   23.2420 C   0  0  0  0  0  0  0  0  0  0  0  0
   12.3715   -1.2458   22.3123 C   0  0  0  0  0  0  0  0  0  0  0  0
   13.2319    4.5898   22.1824 C   0  0  0  0  0  0  0  0  0  0  0  0
   12.9268    2.3621   23.3409 C   0  0  0  0  0  0  0  0  0  0  0  0
   12.3495    3.3565   22.3250 C   0  0  1  0  0  0  0  0  0  0  0  0
   11.0029    3.8094   22.7799 N   0  3  0  0  0  0  0  0  0  0  0  0
   12.9414   -2.1736   21.4954 O   0  0  0  0  0  0  0  0  0  0  0  0
    9.7745   -0.8799   24.4761 H   0  0  0  0  0  0  0  0  0  0  0  0
   10.7422    1.3893   24.6424 H   0  0  0  0  0  0  0  0  0  0  0  0
   10.8073   -2.5690   22.9904 H   0  0  0  0  0  0  0  0  0  0  0  0
   13.8026    0.2869   21.8217 H   0  0  0  0  0  0  0  0  0  0  0  0
   13.3944    5.0707   23.1531 H   0  0  0  0  0  0  0  0  0  0  0  0
   14.2118    4.3366   21.7629 H   0  0  0  0  0  0  0  0  0  0  0  0
   12.7616    5.3256   21.5215 H   0  0  0  0  0  0  0  0  0  0  0  0
   14.0117    2.2812   23.1855 H   0  0  0  0  0  0  0  0  0  0  0  0
   12.8057    2.7528   24.3604 H   0  0  0  0  0  0  0  0  0  0  0  0
   12.1984    2.8900   21.3454 H   0  0  0  0  0  0  0  0  0  0  0  0
   10.4002    4.0053   21.9773 H   0  0  0  0  0  0  0  0  0  0  0  0
   11.0819    4.6617   23.3399 H   0  0  0  0  0  0  0  0  0  0  0  0
   10.5559    3.0881   23.3509 H   0  0  0  0  0  0  0  0  0  0  0  0
   12.4490   -3.0087   21.5401 H   0  0  0  0  0  0  0  0  0  0  0  0
  1  2  2  0  0  0  0
  1  3  1  0  0  0  0
  2  5  1  0  0  0  0
  3  6  2  0  0  0  0
  4  5  2  0  0  0  0
  4  6  1  0  0  0  0
  5  8  1  0  0  0  0
  6 11  1  0  0  0  0
  7  9  1  0  0  0  0
  8  9  1  0  0  0  0
  9 10  1  0  0  0  0
  1 12  1  0  0  0  0
  2 13  1  0  0  0  0
  3 14  1  0  0  0  0
  4 15  1  0  0  0  0
  7 16  1  0  0  0  0
  7 17  1  0  0  0  0
  7 18  1  0  0  0  0
  8 19  1  0  0  0  0
  8 20  1  0  0  0  0
  9 21  1  0  0  0  0
 10 22  1  0  0  0  0
 10 23  1  0  0  0  0
 10 24  1  0  0  0  0
 11 25  1  0  0  0  0
M  CHG  1  10   1
M  END
> <Hybrid2>
-7.355691

> <docked_fragment>
x0104

> <Mpro-_dock>
-0.352648

> <site>
active-noncovalent

$$$$
DB03301
  -OEChem-04122014263D

 23 23  0     0  0  0  0  0  0999 V2000
   14.3948   -0.7935   22.0356 C   0  0  0  0  0  0  0  0  0  0  0  0
   13.3364   -1.6793   22.2378 C   0  0  0  0  0  0  0  0  0  0  0  0
   14.2180    0.5699   22.2711 C   0  0  0  0  0  0  0  0  0  0  0  0
   12.1011   -1.2016   22.6754 C   0  0  0  0  0  0  0  0  0  0  0  0
   12.9827    1.0476   22.7087 C   0  0  0  0  0  0  0  0  0  0  0  0
   11.9242    0.1619   22.9109 C   0  0  0  0  0  0  0  0  0  0  0  0
   10.5583    3.5820   23.2521 C   0  0  0  0  0  0  0  0  0  0  0  0
   11.5619    2.8359   23.7273 C   0  0  0  0  0  0  0  0  0  0  0  0
   10.9805   -2.1658   22.8862 C   0  0  0  0  0  0  0  0  0  0  0  0
   12.8133    2.5107   22.9551 C   0  0  0  0  0  0  0  0  0  0  0  0
   10.7159    0.6290   23.3375 O   0  0  0  0  0  0  0  0  0  0  0  0
   15.3567   -1.1655   21.6951 H   0  0  0  0  0  0  0  0  0  0  0  0
   13.4840   -2.7396   22.0515 H   0  0  0  0  0  0  0  0  0  0  0  0
   15.0484    1.2521   22.1106 H   0  0  0  0  0  0  0  0  0  0  0  0
    9.6753    3.7897   23.8462 H   0  0  0  0  0  0  0  0  0  0  0  0
   10.6098    3.9995   22.2526 H   0  0  0  0  0  0  0  0  0  0  0  0
   11.4811    2.4395   24.7365 H   0  0  0  0  0  0  0  0  0  0  0  0
   10.9909   -2.5412   23.9161 H   0  0  0  0  0  0  0  0  0  0  0  0
   10.0092   -1.6925   22.6965 H   0  0  0  0  0  0  0  0  0  0  0  0
   11.0584   -3.0199   22.2020 H   0  0  0  0  0  0  0  0  0  0  0  0
   13.6756    2.9058   23.5170 H   0  0  0  0  0  0  0  0  0  0  0  0
   12.8287    3.0565   21.9970 H   0  0  0  0  0  0  0  0  0  0  0  0
   10.0882   -0.1042   23.4288 H   0  0  0  0  0  0  0  0  0  0  0  0
  1  2  2  0  0  0  0
  1  3  1  0  0  0  0
  2  4  1  0  0  0  0
  3  5  2  0  0  0  0
  4  6  2  0  0  0  0
  4  9  1  0  0  0  0
  5  6  1  0  0  0  0
  5 10  1  0  0  0  0
  6 11  1  0  0  0  0
  7  8  2  0  0  0  0
  8 10  1  0  0  0  0
  1 12  1  0  0  0  0
  2 13  1  0  0  0  0
  3 14  1  0  0  0  0
  7 15  1  0  0  0  0
  7 16  1  0  0  0  0
  8 17  1  0  0  0  0
  9 18  1  0  0  0  0
  9 19  1  0  0  0  0
  9 20  1  0  0  0  0
 10 21  1  0  0  0  0
 10 22  1  0  0  0  0
 11 23  1  0  0  0  0
M  END
> <Hybrid2>
-7.347103

> <docked_fragment>
x0195

> <Mpro-_dock>
1.201782

> <site>
active-noncovalent

$$$$
CHEMBL449062
  -OEChem-04122014263D

 26 26  0     1  0  0  0  0  0999 V2000
   11.4934    2.1726   23.7316 C   0  0  0  0  0  0  0  0  0  0  0  0
   12.3736    3.0305   23.1882 C   0  0  0  0  0  0  0  0  0  0  0  0
   14.1902   -1.6814   22.9557 C   0  0  0  0  0  0  0  0  0  0  0  0
   12.9429   -1.2402   22.7351 C   0  0  0  0  0  0  0  0  0  0  0  0
   11.6150    0.6795   23.6335 C   0  0  0  0  0  0  0  0  0  0  0  0
   13.5987    2.5537   22.4505 C   0  0  0  0  0  0  0  0  0  0  0  0
   13.9069    1.0684   22.6656 C   0  0  0  0  0  0  0  0  0  0  0  0
   12.6343    0.2182   22.5782 C   0  0  1  0  0  0  0  0  0  0  0  0
   12.1923    4.5169   23.2782 C   0  0  0  0  0  0  0  0  0  0  0  0
   11.7768   -2.1780   22.6317 C   0  0  0  0  0  0  0  0  0  0  0  0
   10.6316    2.5531   24.2737 H   0  0  0  0  0  0  0  0  0  0  0  0
   14.4033   -2.7392   23.0679 H   0  0  0  0  0  0  0  0  0  0  0  0
   15.0272   -0.9950   23.0293 H   0  0  0  0  0  0  0  0  0  0  0  0
   11.8816    0.2951   24.6266 H   0  0  0  0  0  0  0  0  0  0  0  0
   10.6307    0.2615   23.3873 H   0  0  0  0  0  0  0  0  0  0  0  0
   13.4539    2.7430   21.3795 H   0  0  0  0  0  0  0  0  0  0  0  0
   14.4732    3.1362   22.7645 H   0  0  0  0  0  0  0  0  0  0  0  0
   14.6436    0.7439   21.9201 H   0  0  0  0  0  0  0  0  0  0  0  0
   14.3779    0.9351   23.6493 H   0  0  0  0  0  0  0  0  0  0  0  0
   12.1942    0.3544   21.5811 H   0  0  0  0  0  0  0  0  0  0  0  0
   12.6789    4.8878   24.1774 H   0  0  0  0  0  0  0  0  0  0  0  0
   11.1307    4.7518   23.3145 H   0  0  0  0  0  0  0  0  0  0  0  0
   12.6330    4.9899   22.4033 H   0  0  0  0  0  0  0  0  0  0  0  0
   11.3297   -2.3383   23.6182 H   0  0  0  0  0  0  0  0  0  0  0  0
   11.0128   -1.7618   21.9670 H   0  0  0  0  0  0  0  0  0  0  0  0
   12.0677   -3.1562   22.2343 H   0  0  0  0  0  0  0  0  0  0  0  0
  1  2  2  0  0  0  0
  1  5  1  0  0  0  0
  2  6  1  0  0  0  0
  2  9  1  0  0  0  0
  3  4  2  0  0  0  0
  4  8  1  0  0  0  0
  4 10  1  0  0  0  0
  5  8  1  0  0  0  0
  6  7  1  0  0  0  0
  7  8  1  0  0  0  0
  1 11  1  0  0  0  0
  3 12  1  0  0  0  0
  3 13  1  0  0  0  0
  5 14  1  0  0  0  0
  5 15  1  0  0  0  0
  6 16  1  0  0  0  0
  6 17  1  0  0  0  0
  7 18  1  0  0  0  0
  7 19  1  0  0  0  0
  8 20  1  0  0  0  0
  9 21  1  0  0  0  0
  9 22  1  0  0  0  0
  9 23  1  0  0  0  0
 10 24  1  0  0  0  0
 10 25  1  0  0  0  0
 10 26  1  0  0  0  0
M  END
> <Hybrid2>
-7.342541

> <docked_fragment>
x0195

> <Mpro-_dock>
0.4615

> <site>
active-noncovalent

$$$$
DB07440
  -OEChem-04122014263D

 27 27  0     0  0  0  0  0  0999 V2000
   10.4480   -2.3316   23.4318 C   0  0  0  0  0  0  0  0  0  0  0  0
   10.7406   -4.1086   25.0423 C   0  0  0  0  0  0  0  0  0  0  0  0
    9.3760   -3.0212   22.8656 C   0  0  0  0  0  0  0  0  0  0  0  0
    9.6684   -4.7982   24.4761 C   0  0  0  0  0  0  0  0  0  0  0  0
   11.1304   -2.8753   24.5201 C   0  0  0  0  0  0  0  0  0  0  0  0
    8.9861   -4.2545   23.3877 C   0  0  0  0  0  0  0  0  0  0  0  0
   11.8339   -0.7405   25.6575 C   0  0  0  0  0  0  0  0  0  0  0  0
   13.4141   -1.9058   24.0824 C   0  0  0  0  0  0  0  0  0  0  0  0
   12.9650   -2.8471   26.3393 C   0  0  0  0  0  0  0  0  0  0  0  0
   12.3128   -2.1157   25.1441 C   0  0  0  0  0  0  0  0  0  0  0  0
    8.2689   -5.9516   21.6442 O   0  5  0  0  0  0  0  0  0  0  0  0
    7.0397   -5.8907   23.7779 O   0  0  0  0  0  0  0  0  0  0  0  0
    6.7710   -4.0505   22.1645 O   0  0  0  0  0  0  0  0  0  0  0  0
    7.6429   -5.1168   22.6805 S   0  0  0  0  0  0  0  0  0  0  0  0
   10.7448   -1.3715   23.0181 H   0  0  0  0  0  0  0  0  0  0  0  0
   11.2666   -4.5401   25.8898 H   0  0  0  0  0  0  0  0  0  0  0  0
    8.8515   -2.5889   22.0175 H   0  0  0  0  0  0  0  0  0  0  0  0
    9.3734   -5.7586   24.8905 H   0  0  0  0  0  0  0  0  0  0  0  0
   12.6595   -0.1774   26.1081 H   0  0  0  0  0  0  0  0  0  0  0  0
   11.4229   -0.1184   24.8549 H   0  0  0  0  0  0  0  0  0  0  0  0
   11.0528   -0.8539   26.4186 H   0  0  0  0  0  0  0  0  0  0  0  0
   14.2793   -1.3668   24.4834 H   0  0  0  0  0  0  0  0  0  0  0  0
   13.7832   -2.8650   23.7007 H   0  0  0  0  0  0  0  0  0  0  0  0
   13.0349   -1.3310   23.2291 H   0  0  0  0  0  0  0  0  0  0  0  0
   13.8010   -2.2673   26.7488 H   0  0  0  0  0  0  0  0  0  0  0  0
   12.2506   -3.0023   27.1562 H   0  0  0  0  0  0  0  0  0  0  0  0
   13.3649   -3.8244   26.0448 H   0  0  0  0  0  0  0  0  0  0  0  0
  1  3  2  0  0  0  0
  1  5  1  0  0  0  0
  2  4  1  0  0  0  0
  2  5  2  0  0  0  0
  3  6  1  0  0  0  0
  4  6  2  0  0  0  0
  5 10  1  0  0  0  0
  6 14  1  0  0  0  0
  7 10  1  0  0  0  0
  8 10  1  0  0  0  0
  9 10  1  0  0  0  0
 11 14  1  0  0  0  0
 12 14  2  0  0  0  0
 13 14  2  0  0  0  0
  1 15  1  0  0  0  0
  2 16  1  0  0  0  0
  3 17  1  0  0  0  0
  4 18  1  0  0  0  0
  7 19  1  0  0  0  0
  7 20  1  0  0  0  0
  7 21  1  0  0  0  0
  8 22  1  0  0  0  0
  8 23  1  0  0  0  0
  8 24  1  0  0  0  0
  9 25  1  0  0  0  0
  9 26  1  0  0  0  0
  9 27  1  0  0  0  0
M  CHG  1  11  -1
M  END
> <Hybrid2>
-7.339198

> <docked_fragment>
x0749

> <Mpro-_dock>
-0.032454

> <site>
active-covalent

$$$$
CHEMBL3707370
  -OEChem-04122014263D

 27 27  0     0  0  0  0  0  0999 V2000
   12.8522    0.0006   23.6252 C   0  0  0  0  0  0  0  0  0  0  0  0
   11.2516    0.1813   21.6025 C   0  0  0  0  0  0  0  0  0  0  0  0
   13.7849   -0.7049   22.6704 C   0  0  0  0  0  0  0  0  0  0  0  0
   12.9808   -1.5966   21.7502 C   0  0  0  0  0  0  0  0  0  0  0  0
   11.4602    0.3887   23.1106 C   0  0  0  0  0  0  0  0  0  0  0  0
   10.6599   -1.9283   23.6005 C   0  0  0  0  0  0  0  0  0  0  0  0
   12.2439    2.7416   22.7963 C   0  0  0  0  0  0  0  0  0  0  0  0
   10.4283   -0.4769   23.8482 C   0  0  0  0  0  0  0  0  0  0  0  0
   11.2222    1.8703   23.4422 C   0  0  0  0  0  0  0  0  0  0  0  0
   12.0071   -0.8158   21.0221 N   0  0  0  0  0  0  0  0  0  0  0  0
   13.2226    0.2717   24.7691 O   0  0  0  0  0  0  0  0  0  0  0  0
   10.4216    0.8258   20.9593 O   0  0  0  0  0  0  0  0  0  0  0  0
   14.3451    0.0494   22.1079 H   0  0  0  0  0  0  0  0  0  0  0  0
   14.4935   -1.3084   23.2469 H   0  0  0  0  0  0  0  0  0  0  0  0
   13.6301   -2.0886   21.0196 H   0  0  0  0  0  0  0  0  0  0  0  0
   12.4404   -2.3685   22.3081 H   0  0  0  0  0  0  0  0  0  0  0  0
   10.5903   -2.1279   22.5247 H   0  0  0  0  0  0  0  0  0  0  0  0
    9.9063   -2.5392   24.1086 H   0  0  0  0  0  0  0  0  0  0  0  0
   11.6568   -2.2306   23.9383 H   0  0  0  0  0  0  0  0  0  0  0  0
   13.2409    2.4524   23.1488 H   0  0  0  0  0  0  0  0  0  0  0  0
   12.0844    3.7938   23.0549 H   0  0  0  0  0  0  0  0  0  0  0  0
   12.2234    2.6310   21.7069 H   0  0  0  0  0  0  0  0  0  0  0  0
   10.4952   -0.2658   24.9159 H   0  0  0  0  0  0  0  0  0  0  0  0
    9.4308   -0.1956   23.5092 H   0  0  0  0  0  0  0  0  0  0  0  0
   10.2249    2.1474   23.1002 H   0  0  0  0  0  0  0  0  0  0  0  0
   11.2564    1.9942   24.5247 H   0  0  0  0  0  0  0  0  0  0  0  0
   11.8599   -1.0205   20.0385 H   0  0  0  0  0  0  0  0  0  0  0  0
  1  3  1  0  0  0  0
  1  5  1  0  0  0  0
  1 11  2  0  0  0  0
  2  5  1  0  0  0  0
  2 10  1  0  0  0  0
  2 12  2  0  0  0  0
  3  4  1  0  0  0  0
  4 10  1  0  0  0  0
  5  8  1  0  0  0  0
  5  9  1  0  0  0  0
  6  8  1  0  0  0  0
  7  9  1  0  0  0  0
  3 13  1  0  0  0  0
  3 14  1  0  0  0  0
  4 15  1  0  0  0  0
  4 16  1  0  0  0  0
  6 17  1  0  0  0  0
  6 18  1  0  0  0  0
  6 19  1  0  0  0  0
  7 20  1  0  0  0  0
  7 21  1  0  0  0  0
  7 22  1  0  0  0  0
  8 23  1  0  0  0  0
  8 24  1  0  0  0  0
  9 25  1  0  0  0  0
  9 26  1  0  0  0  0
 10 27  1  0  0  0  0
M  END
> <Hybrid2>
-7.337413

> <docked_fragment>
x0678

> <Mpro-_dock>
2.073687

> <site>
active-noncovalent

$$$$
EDRUG18
  -OEChem-04122014263D

 21 21  0     0  0  0  0  0  0999 V2000
   11.0341   -1.1165   22.9978 C   0  0  0  0  0  0  0  0  0  0  0  0
   11.4632   -1.4112   21.7625 C   0  0  0  0  0  0  0  0  0  0  0  0
    9.6692   -0.5682   23.1951 C   0  0  0  0  0  0  0  0  0  0  0  0
    9.3759   -0.7091   20.7557 C   0  0  0  0  0  0  0  0  0  0  0  0
   13.9206    0.0375   22.5867 C   0  0  0  0  0  0  0  0  0  0  0  0
   12.8251   -1.9672   21.4867 C   0  0  0  0  0  0  0  0  0  0  0  0
   13.8290   -1.4807   22.5236 C   0  0  0  0  0  0  0  0  0  0  0  0
   10.6551   -1.2129   20.6666 N   0  0  0  0  0  0  0  0  0  0  0  0
    8.9320   -0.4047   22.0318 N   0  0  0  0  0  0  0  0  0  0  0  0
    9.2603   -0.2921   24.3191 O   0  0  0  0  0  0  0  0  0  0  0  0
    8.4163   -0.4791   19.4075 S   0  0  0  0  0  0  0  0  0  0  0  0
   11.6505   -1.2637   23.8773 H   0  0  0  0  0  0  0  0  0  0  0  0
   12.9417    0.4812   22.7947 H   0  0  0  0  0  0  0  0  0  0  0  0
   14.2950    0.4543   21.6466 H   0  0  0  0  0  0  0  0  0  0  0  0
   14.6060    0.3406   23.3847 H   0  0  0  0  0  0  0  0  0  0  0  0
   13.1225   -1.6196   20.4934 H   0  0  0  0  0  0  0  0  0  0  0  0
   12.7623   -3.0584   21.4722 H   0  0  0  0  0  0  0  0  0  0  0  0
   14.8236   -1.8925   22.3143 H   0  0  0  0  0  0  0  0  0  0  0  0
   13.5251   -1.8530   23.5088 H   0  0  0  0  0  0  0  0  0  0  0  0
   11.0245   -1.4513   19.7507 H   0  0  0  0  0  0  0  0  0  0  0  0
    7.9913   -0.0318   22.1230 H   0  0  0  0  0  0  0  0  0  0  0  0
  1  2  2  0  0  0  0
  1  3  1  0  0  0  0
  2  6  1  0  0  0  0
  2  8  1  0  0  0  0
  3  9  1  0  0  0  0
  3 10  2  0  0  0  0
  4  8  1  0  0  0  0
  4  9  1  0  0  0  0
  4 11  2  0  0  0  0
  5  7  1  0  0  0  0
  6  7  1  0  0  0  0
  1 12  1  0  0  0  0
  5 13  1  0  0  0  0
  5 14  1  0  0  0  0
  5 15  1  0  0  0  0
  6 16  1  0  0  0  0
  6 17  1  0  0  0  0
  7 18  1  0  0  0  0
  7 19  1  0  0  0  0
  8 20  1  0  0  0  0
  9 21  1  0  0  0  0
M  END
> <Hybrid2>
-7.320730

> <docked_fragment>
x1382

> <Mpro-_dock>
-0.260347

> <site>
active-covalent

$$$$
DB01845
  -OEChem-04122014263D

 24 24  0     0  0  0  0  0  0999 V2000
   13.9227   -1.2988   22.2375 C   0  0  0  0  0  0  0  0  0  0  0  0
   12.5935   -1.4778   22.6207 C   0  0  0  0  0  0  0  0  0  0  0  0
   14.5199   -0.0438   22.3564 C   0  0  0  0  0  0  0  0  0  0  0  0
   11.8614   -0.4018   23.1227 C   0  0  0  0  0  0  0  0  0  0  0  0
   13.7878    1.0322   22.8584 C   0  0  0  0  0  0  0  0  0  0  0  0
   12.4586    0.8532   23.2415 C   0  0  0  0  0  0  0  0  0  0  0  0
   11.8599    5.8497   23.2154 C   0  0  0  0  0  0  0  0  0  0  0  0
   11.6677    2.0169   23.7839 C   0  0  0  0  0  0  0  0  0  0  0  0
   11.3634    4.5244   23.7708 C   0  0  0  0  0  0  0  0  0  0  0  0
   12.1448    3.3456   23.1906 C   0  0  0  0  0  0  0  0  0  0  0  0
   14.4929   -2.1370   21.8480 H   0  0  0  0  0  0  0  0  0  0  0  0
   12.1287   -2.4551   22.5292 H   0  0  0  0  0  0  0  0  0  0  0  0
   15.5550    0.0956   22.0592 H   0  0  0  0  0  0  0  0  0  0  0  0
   10.8263   -0.5505   23.4186 H   0  0  0  0  0  0  0  0  0  0  0  0
   14.2613    2.0064   22.9473 H   0  0  0  0  0  0  0  0  0  0  0  0
   12.9240    5.9910   23.4300 H   0  0  0  0  0  0  0  0  0  0  0  0
   11.3070    6.6888   23.6496 H   0  0  0  0  0  0  0  0  0  0  0  0
   11.7257    5.8798   22.1294 H   0  0  0  0  0  0  0  0  0  0  0  0
   10.6014    1.8740   23.5659 H   0  0  0  0  0  0  0  0  0  0  0  0
   11.7539    2.0461   24.8778 H   0  0  0  0  0  0  0  0  0  0  0  0
   10.2975    4.4145   23.5393 H   0  0  0  0  0  0  0  0  0  0  0  0
   11.4595    4.5338   24.8628 H   0  0  0  0  0  0  0  0  0  0  0  0
   12.0281    3.3298   22.0995 H   0  0  0  0  0  0  0  0  0  0  0  0
   13.2153    3.4804   23.3913 H   0  0  0  0  0  0  0  0  0  0  0  0
  1  2  1  0  0  0  0
  1  3  2  0  0  0  0
  2  4  2  0  0  0  0
  3  5  1  0  0  0  0
  4  6  1  0  0  0  0
  5  6  2  0  0  0  0
  6  8  1  0  0  0  0
  7  9  1  0  0  0  0
  8 10  1  0  0  0  0
  9 10  1  0  0  0  0
  1 11  1  0  0  0  0
  2 12  1  0  0  0  0
  3 13  1  0  0  0  0
  4 14  1  0  0  0  0
  5 15  1  0  0  0  0
  7 16  1  0  0  0  0
  7 17  1  0  0  0  0
  7 18  1  0  0  0  0
  8 19  1  0  0  0  0
  8 20  1  0  0  0  0
  9 21  1  0  0  0  0
  9 22  1  0  0  0  0
 10 23  1  0  0  0  0
 10 24  1  0  0  0  0
M  END
> <Hybrid2>
-7.311448

> <docked_fragment>
x0195

> <Mpro-_dock>
0.656522

> <site>
active-noncovalent

$$$$
CHEMBL45029
  -OEChem-04122014263D

 32 33  0     1  0  0  0  0  0999 V2000
   12.3311    0.0639   23.6181 C   0  0  0  0  0  0  0  0  0  0  0  0
   11.4957    0.2297   24.7227 C   0  0  0  0  0  0  0  0  0  0  0  0
   11.9287   -0.7435   22.5542 C   0  0  0  0  0  0  0  0  0  0  0  0
   10.2579   -0.4121   24.7635 C   0  0  0  0  0  0  0  0  0  0  0  0
   10.6909   -1.3852   22.5950 C   0  0  0  0  0  0  0  0  0  0  0  0
    9.8555   -1.2195   23.6997 C   0  0  0  0  0  0  0  0  0  0  0  0
    7.4467   -1.0074   23.1225 C   0  0  0  0  0  0  0  0  0  0  0  0
    8.6305   -3.3119   23.0995 C   0  0  0  0  0  0  0  0  0  0  0  0
    6.4631   -2.9532   21.9154 C   0  0  0  0  0  0  0  0  0  0  0  0
    8.4913   -1.9274   23.7441 C   0  0  1  0  0  0  0  0  0  0  0  0
    8.9021   -3.0874   25.9313 C   0  0  0  0  0  0  0  0  0  0  0  0
    7.5648   -5.1338   21.8713 C   0  0  0  0  0  0  0  0  0  0  0  0
    7.9647   -2.2129   25.1710 C   0  0  0  0  0  0  0  0  0  0  0  0
    6.5113   -1.6245   22.3164 N   0  0  0  0  0  0  0  0  0  0  0  0
    7.5354   -3.7533   22.3439 N   0  0  0  0  0  0  0  0  0  0  0  0
    7.4054    0.2009   23.3621 O   0  0  0  0  0  0  0  0  0  0  0  0
    9.6405   -3.9959   23.2933 O   0  0  0  0  0  0  0  0  0  0  0  0
    5.5398   -3.3586   21.2036 O   0  0  0  0  0  0  0  0  0  0  0  0
   13.2943    0.5648   23.5859 H   0  0  0  0  0  0  0  0  0  0  0  0
   11.8084    0.8592   25.5507 H   0  0  0  0  0  0  0  0  0  0  0  0
   12.5784   -0.8718   21.6936 H   0  0  0  0  0  0  0  0  0  0  0  0
    9.6136   -0.2773   25.6284 H   0  0  0  0  0  0  0  0  0  0  0  0
   10.3858   -2.0124   21.7616 H   0  0  0  0  0  0  0  0  0  0  0  0
    9.0237   -4.0378   25.3984 H   0  0  0  0  0  0  0  0  0  0  0  0
    8.5126   -3.3063   26.9312 H   0  0  0  0  0  0  0  0  0  0  0  0
    9.8885   -2.6206   26.0228 H   0  0  0  0  0  0  0  0  0  0  0  0
    7.0968   -5.7887   22.6211 H   0  0  0  0  0  0  0  0  0  0  0  0
    7.0120   -5.2086   20.9232 H   0  0  0  0  0  0  0  0  0  0  0  0
    8.6080   -5.4450   21.7130 H   0  0  0  0  0  0  0  0  0  0  0  0
    7.8354   -1.2636   25.6916 H   0  0  0  0  0  0  0  0  0  0  0  0
    6.9884   -2.6921   25.0930 H   0  0  0  0  0  0  0  0  0  0  0  0
    5.7618   -1.0303   21.9722 H   0  0  0  0  0  0  0  0  0  0  0  0
  1  2  1  0  0  0  0
  1  3  2  0  0  0  0
  2  4  2  0  0  0  0
  3  5  1  0  0  0  0
  4  6  1  0  0  0  0
  5  6  2  0  0  0  0
  6 10  1  0  0  0  0
  7 10  1  0  0  0  0
  7 14  1  0  0  0  0
  7 16  2  0  0  0  0
  8 10  1  0  0  0  0
  8 15  1  0  0  0  0
  8 17  2  0  0  0  0
  9 14  1  0  0  0  0
  9 15  1  0  0  0  0
  9 18  2  0  0  0  0
 10 13  1  0  0  0  0
 11 13  1  0  0  0  0
 12 15  1  0  0  0  0
  1 19  1  0  0  0  0
  2 20  1  0  0  0  0
  3 21  1  0  0  0  0
  4 22  1  0  0  0  0
  5 23  1  0  0  0  0
 11 24  1  0  0  0  0
 11 25  1  0  0  0  0
 11 26  1  0  0  0  0
 12 27  1  0  0  0  0
 12 28  1  0  0  0  0
 12 29  1  0  0  0  0
 13 30  1  0  0  0  0
 13 31  1  0  0  0  0
 14 32  1  0  0  0  0
M  END
> <Hybrid2>
-7.308652

> <docked_fragment>
x1418

> <Mpro-_dock>
-0.514132

> <site>
active-covalent

$$$$
CHEMBL2106472
  -OEChem-04122014263D

 31 31  0     1  0  0  0  0  0999 V2000
   14.1081   -1.4233   23.7949 C   0  0  0  0  0  0  0  0  0  0  0  0
   13.4664   -0.0935   24.1782 C   0  0  0  0  0  0  0  0  0  0  0  0
   14.3375   -1.5224   22.2900 C   0  0  0  0  0  0  0  0  0  0  0  0
   12.1777    0.1559   23.3978 C   0  0  0  0  0  0  0  0  0  0  0  0
   13.0504   -1.2752   21.5063 C   0  0  0  0  0  0  0  0  0  0  0  0
   12.4064    0.0658   21.8829 C   0  0  0  0  0  0  0  0  0  0  0  0
   10.0234   -1.8779   22.0146 C   0  0  0  0  0  0  0  0  0  0  0  0
    8.5860   -0.0677   21.0605 C   0  0  0  0  0  0  0  0  0  0  0  0
   11.0944    0.2655   21.1266 C   0  0  1  0  0  0  0  0  0  0  0  0
    9.8775   -0.3658   21.8332 C   0  0  0  0  0  0  0  0  0  0  0  0
   10.8731    1.6708   21.0011 O   0  0  0  0  0  0  0  0  0  0  0  0
   15.0623   -1.5376   24.3216 H   0  0  0  0  0  0  0  0  0  0  0  0
   13.4612   -2.2473   24.1200 H   0  0  0  0  0  0  0  0  0  0  0  0
   13.2542   -0.0838   25.2534 H   0  0  0  0  0  0  0  0  0  0  0  0
   14.1734    0.7227   23.9849 H   0  0  0  0  0  0  0  0  0  0  0  0
   15.0954   -0.7895   21.9869 H   0  0  0  0  0  0  0  0  0  0  0  0
   14.7353   -2.5133   22.0430 H   0  0  0  0  0  0  0  0  0  0  0  0
   11.4225   -0.5787   23.7058 H   0  0  0  0  0  0  0  0  0  0  0  0
   11.7825    1.1450   23.6586 H   0  0  0  0  0  0  0  0  0  0  0  0
   13.2711   -1.2961   20.4324 H   0  0  0  0  0  0  0  0  0  0  0  0
   12.3471   -2.0951   21.7016 H   0  0  0  0  0  0  0  0  0  0  0  0
   13.0914    0.8722   21.5886 H   0  0  0  0  0  0  0  0  0  0  0  0
   10.1355   -2.3835   21.0494 H   0  0  0  0  0  0  0  0  0  0  0  0
   10.8915   -2.1238   22.6335 H   0  0  0  0  0  0  0  0  0  0  0  0
    9.1435   -2.2969   22.5150 H   0  0  0  0  0  0  0  0  0  0  0  0
    8.6163   -0.4961   20.0533 H   0  0  0  0  0  0  0  0  0  0  0  0
    8.4393    1.0124   20.9515 H   0  0  0  0  0  0  0  0  0  0  0  0
    7.7120   -0.4770   21.5785 H   0  0  0  0  0  0  0  0  0  0  0  0
   11.1944   -0.1447   20.1156 H   0  0  0  0  0  0  0  0  0  0  0  0
    9.7686    0.0936   22.8247 H   0  0  0  0  0  0  0  0  0  0  0  0
   10.8247    2.0214   21.9031 H   0  0  0  0  0  0  0  0  0  0  0  0
  1  2  1  0  0  0  0
  1  3  1  0  0  0  0
  2  4  1  0  0  0  0
  3  5  1  0  0  0  0
  4  6  1  0  0  0  0
  5  6  1  0  0  0  0
  6  9  1  0  0  0  0
  7 10  1  0  0  0  0
  8 10  1  0  0  0  0
  9 10  1  0  0  0  0
  9 11  1  0  0  0  0
  1 12  1  0  0  0  0
  1 13  1  0  0  0  0
  2 14  1  0  0  0  0
  2 15  1  0  0  0  0
  3 16  1  0  0  0  0
  3 17  1  0  0  0  0
  4 18  1  0  0  0  0
  4 19  1  0  0  0  0
  5 20  1  0  0  0  0
  5 21  1  0  0  0  0
  6 22  1  0  0  0  0
  7 23  1  0  0  0  0
  7 24  1  0  0  0  0
  7 25  1  0  0  0  0
  8 26  1  0  0  0  0
  8 27  1  0  0  0  0
  8 28  1  0  0  0  0
  9 29  1  0  0  0  0
 10 30  1  0  0  0  0
 11 31  1  0  0  0  0
M  END
> <Hybrid2>
-7.302635

> <docked_fragment>
x0678

> <Mpro-_dock>
0.014362

> <site>
active-noncovalent

$$$$
CHEMBL22498
  -OEChem-04122014263D

 25 25  0     0  0  0  0  0  0999 V2000
   12.8730   -2.0198   22.6832 C   0  0  0  0  0  0  0  0  0  0  0  0
   12.0760   -1.2309   23.5127 C   0  0  0  0  0  0  0  0  0  0  0  0
   13.9780   -1.4611   22.0408 C   0  0  0  0  0  0  0  0  0  0  0  0
   12.3839    0.1166   23.6997 C   0  0  0  0  0  0  0  0  0  0  0  0
   14.2859   -0.1136   22.2278 C   0  0  0  0  0  0  0  0  0  0  0  0
   13.4888    0.6753   23.0573 C   0  0  0  0  0  0  0  0  0  0  0  0
   11.6965    3.3849   22.6062 C   0  0  0  0  0  0  0  0  0  0  0  0
   13.8225    2.1340   23.2592 C   0  0  0  0  0  0  0  0  0  0  0  0
   13.1463    3.0681   22.2391 C   0  0  2  0  0  0  0  0  0  0  0  0
   14.2012    4.7369   23.4918 N   0  0  0  0  0  0  0  0  0  0  0  0
   13.8890    4.3296   22.1626 N   0  0  0  0  0  0  0  0  0  0  0  0
   12.6339   -3.0693   22.5387 H   0  0  0  0  0  0  0  0  0  0  0  0
   11.2162   -1.6660   24.0138 H   0  0  0  0  0  0  0  0  0  0  0  0
   14.5993   -2.0753   21.3958 H   0  0  0  0  0  0  0  0  0  0  0  0
   11.7571    0.7237   24.3477 H   0  0  0  0  0  0  0  0  0  0  0  0
   15.1486    0.3131   21.7232 H   0  0  0  0  0  0  0  0  0  0  0  0
   11.6365    3.8453   23.5992 H   0  0  0  0  0  0  0  0  0  0  0  0
   11.0763    2.4815   22.6157 H   0  0  0  0  0  0  0  0  0  0  0  0
   11.2543    4.0914   21.8964 H   0  0  0  0  0  0  0  0  0  0  0  0
   13.5593    2.4371   24.2815 H   0  0  0  0  0  0  0  0  0  0  0  0
   14.9149    2.2349   23.1948 H   0  0  0  0  0  0  0  0  0  0  0  0
   13.1601    2.6110   21.2428 H   0  0  0  0  0  0  0  0  0  0  0  0
   13.9072    4.0148   24.1489 H   0  0  0  0  0  0  0  0  0  0  0  0
   15.2148    4.7978   23.5803 H   0  0  0  0  0  0  0  0  0  0  0  0
   13.3036    5.0322   21.7195 H   0  0  0  0  0  0  0  0  0  0  0  0
  1  2  1  0  0  0  0
  1  3  2  0  0  0  0
  2  4  2  0  0  0  0
  3  5  1  0  0  0  0
  4  6  1  0  0  0  0
  5  6  2  0  0  0  0
  6  8  1  0  0  0  0
  7  9  1  0  0  0  0
  8  9  1  0  0  0  0
  9 11  1  0  0  0  0
 10 11  1  0  0  0  0
  1 12  1  0  0  0  0
  2 13  1  0  0  0  0
  3 14  1  0  0  0  0
  4 15  1  0  0  0  0
  5 16  1  0  0  0  0
  7 17  1  0  0  0  0
  7 18  1  0  0  0  0
  7 19  1  0  0  0  0
  8 20  1  0  0  0  0
  8 21  1  0  0  0  0
  9 22  1  0  0  0  0
 10 23  1  0  0  0  0
 10 24  1  0  0  0  0
 11 25  1  0  0  0  0
M  END
> <Hybrid2>
-7.295744

> <docked_fragment>
x0195

> <Mpro-_dock>
0.008248

> <site>
active-noncovalent

$$$$
EDRUG565
  -OEChem-04122014263D

 55 56  0     1  0  0  0  0  0999 V2000
   14.5757   -1.4368   22.2310 C   0  0  0  0  0  0  0  0  0  0  0  0
   13.5086   -2.1517   22.7747 C   0  0  0  0  0  0  0  0  0  0  0  0
   14.4528   -0.0662   22.0028 C   0  0  0  0  0  0  0  0  0  0  0  0
    8.0611   -1.7202   22.1029 C   0  0  0  0  0  0  0  0  0  0  0  0
    7.7898   -1.2009   20.8420 C   0  0  0  0  0  0  0  0  0  0  0  0
   12.3185   -1.4961   23.0903 C   0  0  0  0  0  0  0  0  0  0  0  0
   13.2628    0.5894   22.3184 C   0  0  0  0  0  0  0  0  0  0  0  0
    9.0567   -1.1461   22.8856 C   0  0  0  0  0  0  0  0  0  0  0  0
    8.5363   -0.1152   20.4133 C   0  0  0  0  0  0  0  0  0  0  0  0
   12.1956   -0.1255   22.8621 C   0  0  0  0  0  0  0  0  0  0  0  0
    9.7467   -0.0630   22.3653 C   0  0  0  0  0  0  0  0  0  0  0  0
   10.5542    0.5097   24.7430 C   0  0  0  0  0  0  0  0  0  0  0  0
    7.4549    4.5957   23.5226 C   0  0  0  0  0  0  0  0  0  0  0  0
    8.1049    4.6680   21.0840 C   0  0  0  0  0  0  0  0  0  0  0  0
    9.6211    5.5214   24.9816 C   0  0  0  0  0  0  0  0  0  0  0  0
   11.2383    6.2993   23.2057 C   0  0  0  0  0  0  0  0  0  0  0  0
   10.9246    2.1620   22.9407 C   0  0  0  0  0  0  0  0  0  0  0  0
    9.6122    2.9127   23.1957 C   0  0  0  0  0  0  0  0  0  0  0  0
    8.4989    5.0308   22.5068 C   0  0  0  0  0  0  0  0  0  0  0  0
   10.5776    5.1052   23.8757 C   0  0  0  0  0  0  0  0  0  0  0  0
   10.8691    0.6060   23.2135 C   0  0  1  0  0  0  0  0  0  0  0  0
    9.5113    0.4692   21.1451 N   0  0  0  0  0  0  0  0  0  0  0  0
   11.6652    0.4301   25.5609 N   0  0  0  0  0  0  0  0  0  0  0  0
    9.8001    4.3415   22.8333 N   0  3  0  0  0  0  0  0  0  0  0  0
    9.4134    0.4350   25.2000 O   0  0  0  0  0  0  0  0  0  0  0  0
   15.5027   -1.9472   21.9865 H   0  0  0  0  0  0  0  0  0  0  0  0
   13.6045   -3.2187   22.9535 H   0  0  0  0  0  0  0  0  0  0  0  0
   15.2838    0.4910   21.5805 H   0  0  0  0  0  0  0  0  0  0  0  0
    7.4977   -2.5706   22.4749 H   0  0  0  0  0  0  0  0  0  0  0  0
    7.0182   -1.6323   20.2147 H   0  0  0  0  0  0  0  0  0  0  0  0
   11.4923   -2.0613   23.5135 H   0  0  0  0  0  0  0  0  0  0  0  0
   13.1760    1.6575   22.1370 H   0  0  0  0  0  0  0  0  0  0  0  0
    9.2781   -1.5417   23.8710 H   0  0  0  0  0  0  0  0  0  0  0  0
    8.3635    0.3270   19.4377 H   0  0  0  0  0  0  0  0  0  0  0  0
    7.2627    3.5208   23.4408 H   0  0  0  0  0  0  0  0  0  0  0  0
    7.7802    4.8028   24.5482 H   0  0  0  0  0  0  0  0  0  0  0  0
    6.5061    5.1181   23.3583 H   0  0  0  0  0  0  0  0  0  0  0  0
    7.9134    3.5930   20.9999 H   0  0  0  0  0  0  0  0  0  0  0  0
    8.8939    4.9266   20.3694 H   0  0  0  0  0  0  0  0  0  0  0  0
    7.1924    5.1941   20.7836 H   0  0  0  0  0  0  0  0  0  0  0  0
    8.8635    6.2116   24.5958 H   0  0  0  0  0  0  0  0  0  0  0  0
    9.1022    4.6573   25.4114 H   0  0  0  0  0  0  0  0  0  0  0  0
   10.1553    6.0303   25.7914 H   0  0  0  0  0  0  0  0  0  0  0  0
   10.4822    6.9902   22.8181 H   0  0  0  0  0  0  0  0  0  0  0  0
   11.8734    5.9905   22.3682 H   0  0  0  0  0  0  0  0  0  0  0  0
   11.8625    6.8519   23.9161 H   0  0  0  0  0  0  0  0  0  0  0  0
   11.7127    2.6397   23.5335 H   0  0  0  0  0  0  0  0  0  0  0  0
   11.2171    2.3391   21.8956 H   0  0  0  0  0  0  0  0  0  0  0  0
    8.7922    2.5485   22.5715 H   0  0  0  0  0  0  0  0  0  0  0  0
    9.3078    2.8979   24.2446 H   0  0  0  0  0  0  0  0  0  0  0  0
    8.6901    6.1056   22.5896 H   0  0  0  0  0  0  0  0  0  0  0  0
   11.3345    4.4153   24.2627 H   0  0  0  0  0  0  0  0  0  0  0  0
   11.5256    0.3655   26.5638 H   0  0  0  0  0  0  0  0  0  0  0  0
   12.6143    0.4335   25.2023 H   0  0  0  0  0  0  0  0  0  0  0  0
   10.3675    4.3746   21.9699 H   0  0  0  0  0  0  0  0  0  0  0  0
  1  2  1  0  0  0  0
  1  3  2  0  0  0  0
  2  6  2  0  0  0  0
  3  7  1  0  0  0  0
  4  5  1  0  0  0  0
  4  8  2  0  0  0  0
  5  9  2  0  0  0  0
  6 10  1  0  0  0  0
  7 10  2  0  0  0  0
  8 11  1  0  0  0  0
  9 22  1  0  0  0  0
 10 21  1  0  0  0  0
 11 21  1  0  0  0  0
 11 22  2  0  0  0  0
 12 21  1  0  0  0  0
 12 23  1  0  0  0  0
 12 25  2  0  0  0  0
 13 19  1  0  0  0  0
 14 19  1  0  0  0  0
 15 20  1  0  0  0  0
 16 20  1  0  0  0  0
 17 18  1  0  0  0  0
 17 21  1  0  0  0  0
 18 24  1  0  0  0  0
 19 24  1  0  0  0  0
 20 24  1  0  0  0  0
  1 26  1  0  0  0  0
  2 27  1  0  0  0  0
  3 28  1  0  0  0  0
  4 29  1  0  0  0  0
  5 30  1  0  0  0  0
  6 31  1  0  0  0  0
  7 32  1  0  0  0  0
  8 33  1  0  0  0  0
  9 34  1  0  0  0  0
 13 35  1  0  0  0  0
 13 36  1  0  0  0  0
 13 37  1  0  0  0  0
 14 38  1  0  0  0  0
 14 39  1  0  0  0  0
 14 40  1  0  0  0  0
 15 41  1  0  0  0  0
 15 42  1  0  0  0  0
 15 43  1  0  0  0  0
 16 44  1  0  0  0  0
 16 45  1  0  0  0  0
 16 46  1  0  0  0  0
 17 47  1  0  0  0  0
 17 48  1  0  0  0  0
 18 49  1  0  0  0  0
 18 50  1  0  0  0  0
 19 51  1  0  0  0  0
 20 52  1  0  0  0  0
 23 53  1  0  0  0  0
 23 54  1  0  0  0  0
 24 55  1  0  0  0  0
M  CHG  1  24   1
M  END
> <Hybrid2>
-7.282314

> <docked_fragment>
x0195

> <Mpro-_dock>
1.890519

> <site>
active-noncovalent

$$$$
CHEMBL517
  -OEChem-04122014263D

 55 56  0     1  0  0  0  0  0999 V2000
   14.5757   -1.4368   22.2310 C   0  0  0  0  0  0  0  0  0  0  0  0
   13.5086   -2.1517   22.7747 C   0  0  0  0  0  0  0  0  0  0  0  0
   14.4528   -0.0662   22.0028 C   0  0  0  0  0  0  0  0  0  0  0  0
    8.0611   -1.7202   22.1029 C   0  0  0  0  0  0  0  0  0  0  0  0
    7.7898   -1.2009   20.8420 C   0  0  0  0  0  0  0  0  0  0  0  0
   12.3185   -1.4961   23.0903 C   0  0  0  0  0  0  0  0  0  0  0  0
   13.2628    0.5894   22.3184 C   0  0  0  0  0  0  0  0  0  0  0  0
    9.0567   -1.1461   22.8856 C   0  0  0  0  0  0  0  0  0  0  0  0
    8.5363   -0.1152   20.4133 C   0  0  0  0  0  0  0  0  0  0  0  0
   12.1956   -0.1255   22.8621 C   0  0  0  0  0  0  0  0  0  0  0  0
    9.7467   -0.0630   22.3653 C   0  0  0  0  0  0  0  0  0  0  0  0
   10.5542    0.5097   24.7430 C   0  0  0  0  0  0  0  0  0  0  0  0
    7.4549    4.5957   23.5226 C   0  0  0  0  0  0  0  0  0  0  0  0
    8.1049    4.6680   21.0840 C   0  0  0  0  0  0  0  0  0  0  0  0
    9.6211    5.5214   24.9816 C   0  0  0  0  0  0  0  0  0  0  0  0
   11.2383    6.2993   23.2057 C   0  0  0  0  0  0  0  0  0  0  0  0
   10.9246    2.1620   22.9407 C   0  0  0  0  0  0  0  0  0  0  0  0
    9.6122    2.9127   23.1957 C   0  0  0  0  0  0  0  0  0  0  0  0
    8.4989    5.0308   22.5068 C   0  0  0  0  0  0  0  0  0  0  0  0
   10.5776    5.1052   23.8757 C   0  0  0  0  0  0  0  0  0  0  0  0
   10.8691    0.6060   23.2135 C   0  0  1  0  0  0  0  0  0  0  0  0
    9.5113    0.4692   21.1451 N   0  0  0  0  0  0  0  0  0  0  0  0
   11.6652    0.4301   25.5609 N   0  0  0  0  0  0  0  0  0  0  0  0
    9.8001    4.3415   22.8333 N   0  3  0  0  0  0  0  0  0  0  0  0
    9.4134    0.4350   25.2000 O   0  0  0  0  0  0  0  0  0  0  0  0
   15.5027   -1.9472   21.9865 H   0  0  0  0  0  0  0  0  0  0  0  0
   13.6045   -3.2187   22.9535 H   0  0  0  0  0  0  0  0  0  0  0  0
   15.2838    0.4910   21.5805 H   0  0  0  0  0  0  0  0  0  0  0  0
    7.4977   -2.5706   22.4749 H   0  0  0  0  0  0  0  0  0  0  0  0
    7.0182   -1.6323   20.2147 H   0  0  0  0  0  0  0  0  0  0  0  0
   11.4923   -2.0613   23.5135 H   0  0  0  0  0  0  0  0  0  0  0  0
   13.1760    1.6575   22.1370 H   0  0  0  0  0  0  0  0  0  0  0  0
    9.2781   -1.5417   23.8710 H   0  0  0  0  0  0  0  0  0  0  0  0
    8.3635    0.3270   19.4377 H   0  0  0  0  0  0  0  0  0  0  0  0
    7.2627    3.5208   23.4408 H   0  0  0  0  0  0  0  0  0  0  0  0
    7.7802    4.8028   24.5482 H   0  0  0  0  0  0  0  0  0  0  0  0
    6.5061    5.1181   23.3583 H   0  0  0  0  0  0  0  0  0  0  0  0
    7.9134    3.5930   20.9999 H   0  0  0  0  0  0  0  0  0  0  0  0
    8.8939    4.9266   20.3694 H   0  0  0  0  0  0  0  0  0  0  0  0
    7.1924    5.1941   20.7836 H   0  0  0  0  0  0  0  0  0  0  0  0
    8.8635    6.2116   24.5958 H   0  0  0  0  0  0  0  0  0  0  0  0
    9.1022    4.6573   25.4114 H   0  0  0  0  0  0  0  0  0  0  0  0
   10.1553    6.0303   25.7914 H   0  0  0  0  0  0  0  0  0  0  0  0
   10.4822    6.9902   22.8181 H   0  0  0  0  0  0  0  0  0  0  0  0
   11.8734    5.9905   22.3682 H   0  0  0  0  0  0  0  0  0  0  0  0
   11.8625    6.8519   23.9161 H   0  0  0  0  0  0  0  0  0  0  0  0
   11.7127    2.6397   23.5335 H   0  0  0  0  0  0  0  0  0  0  0  0
   11.2171    2.3391   21.8956 H   0  0  0  0  0  0  0  0  0  0  0  0
    8.7922    2.5485   22.5715 H   0  0  0  0  0  0  0  0  0  0  0  0
    9.3078    2.8979   24.2446 H   0  0  0  0  0  0  0  0  0  0  0  0
    8.6901    6.1056   22.5896 H   0  0  0  0  0  0  0  0  0  0  0  0
   11.3345    4.4153   24.2627 H   0  0  0  0  0  0  0  0  0  0  0  0
   11.5256    0.3655   26.5638 H   0  0  0  0  0  0  0  0  0  0  0  0
   12.6143    0.4335   25.2023 H   0  0  0  0  0  0  0  0  0  0  0  0
   10.3675    4.3746   21.9699 H   0  0  0  0  0  0  0  0  0  0  0  0
  1  2  1  0  0  0  0
  1  3  2  0  0  0  0
  2  6  2  0  0  0  0
  3  7  1  0  0  0  0
  4  5  1  0  0  0  0
  4  8  2  0  0  0  0
  5  9  2  0  0  0  0
  6 10  1  0  0  0  0
  7 10  2  0  0  0  0
  8 11  1  0  0  0  0
  9 22  1  0  0  0  0
 10 21  1  0  0  0  0
 11 21  1  0  0  0  0
 11 22  2  0  0  0  0
 12 21  1  0  0  0  0
 12 23  1  0  0  0  0
 12 25  2  0  0  0  0
 13 19  1  0  0  0  0
 14 19  1  0  0  0  0
 15 20  1  0  0  0  0
 16 20  1  0  0  0  0
 17 18  1  0  0  0  0
 17 21  1  0  0  0  0
 18 24  1  0  0  0  0
 19 24  1  0  0  0  0
 20 24  1  0  0  0  0
  1 26  1  0  0  0  0
  2 27  1  0  0  0  0
  3 28  1  0  0  0  0
  4 29  1  0  0  0  0
  5 30  1  0  0  0  0
  6 31  1  0  0  0  0
  7 32  1  0  0  0  0
  8 33  1  0  0  0  0
  9 34  1  0  0  0  0
 13 35  1  0  0  0  0
 13 36  1  0  0  0  0
 13 37  1  0  0  0  0
 14 38  1  0  0  0  0
 14 39  1  0  0  0  0
 14 40  1  0  0  0  0
 15 41  1  0  0  0  0
 15 42  1  0  0  0  0
 15 43  1  0  0  0  0
 16 44  1  0  0  0  0
 16 45  1  0  0  0  0
 16 46  1  0  0  0  0
 17 47  1  0  0  0  0
 17 48  1  0  0  0  0
 18 49  1  0  0  0  0
 18 50  1  0  0  0  0
 19 51  1  0  0  0  0
 20 52  1  0  0  0  0
 23 53  1  0  0  0  0
 23 54  1  0  0  0  0
 24 55  1  0  0  0  0
M  CHG  1  24   1
M  END
> <Hybrid2>
-7.282314

> <docked_fragment>
x0195

> <Mpro-_dock>
1.890519

> <site>
active-noncovalent

$$$$
CHEMBL861
  -OEChem-04122014263D

 30 31  0     1  0  0  0  0  0999 V2000
    5.1556    0.8615   18.3034 C   0  0  0  0  0  0  0  0  0  0  0  0
    6.4630    0.3761   18.2802 C   0  0  0  0  0  0  0  0  0  0  0  0
    4.5929    1.2930   19.5047 C   0  0  0  0  0  0  0  0  0  0  0  0
    7.2078    0.3220   19.4584 C   0  0  0  0  0  0  0  0  0  0  0  0
    5.3378    1.2389   20.6828 C   0  0  0  0  0  0  0  0  0  0  0  0
    6.6452    0.7534   20.6597 C   0  0  0  0  0  0  0  0  0  0  0  0
    8.8664    0.1306   21.7041 C   0  0  0  0  0  0  0  0  0  0  0  0
    7.8732   -1.3098   23.1647 C   0  0  0  0  0  0  0  0  0  0  0  0
    7.4574    0.6945   21.9458 C   0  0  1  0  0  0  0  0  0  0  0  0
    8.4292    1.8384   23.9583 C   0  0  0  0  0  0  0  0  0  0  0  0
   10.2338   -1.8067   22.5099 C   0  0  0  0  0  0  0  0  0  0  0  0
    7.6158    2.0123   22.7151 C   0  0  0  0  0  0  0  0  0  0  0  0
    6.9395   -0.3211   22.8483 N   0  0  0  0  0  0  0  0  0  0  0  0
    9.0267   -1.0057   22.4690 N   0  0  0  0  0  0  0  0  0  0  0  0
    9.6897    0.6392   20.9527 O   0  0  0  0  0  0  0  0  0  0  0  0
    7.6785   -2.2617   23.9093 O   0  0  0  0  0  0  0  0  0  0  0  0
    4.5762    0.9048   17.3857 H   0  0  0  0  0  0  0  0  0  0  0  0
    6.9017    0.0412   17.3448 H   0  0  0  0  0  0  0  0  0  0  0  0
    3.5754    1.6720   19.5228 H   0  0  0  0  0  0  0  0  0  0  0  0
    8.2258   -0.0579   19.4309 H   0  0  0  0  0  0  0  0  0  0  0  0
    4.8911    1.5770   21.6141 H   0  0  0  0  0  0  0  0  0  0  0  0
    7.9556    1.0960   24.6115 H   0  0  0  0  0  0  0  0  0  0  0  0
    8.5006    2.7809   24.5114 H   0  0  0  0  0  0  0  0  0  0  0  0
    9.4371    1.4847   23.7170 H   0  0  0  0  0  0  0  0  0  0  0  0
   10.8965   -1.4319   23.3039 H   0  0  0  0  0  0  0  0  0  0  0  0
    9.9714   -2.8549   22.7160 H   0  0  0  0  0  0  0  0  0  0  0  0
   10.7499   -1.7417   21.5407 H   0  0  0  0  0  0  0  0  0  0  0  0
    8.0956    2.7549   22.0688 H   0  0  0  0  0  0  0  0  0  0  0  0
    6.6263    2.3993   22.9805 H   0  0  0  0  0  0  0  0  0  0  0  0
    5.9917   -0.3122   23.2128 H   0  0  0  0  0  0  0  0  0  0  0  0
  1  2  1  0  0  0  0
  1  3  2  0  0  0  0
  2  4  2  0  0  0  0
  3  5  1  0  0  0  0
  4  6  1  0  0  0  0
  5  6  2  0  0  0  0
  6  9  1  0  0  0  0
  7  9  1  0  0  0  0
  7 14  1  0  0  0  0
  7 15  2  0  0  0  0
  8 13  1  0  0  0  0
  8 14  1  0  0  0  0
  8 16  2  0  0  0  0
  9 12  1  0  0  0  0
  9 13  1  0  0  0  0
 10 12  1  0  0  0  0
 11 14  1  0  0  0  0
  1 17  1  0  0  0  0
  2 18  1  0  0  0  0
  3 19  1  0  0  0  0
  4 20  1  0  0  0  0
  5 21  1  0  0  0  0
 10 22  1  0  0  0  0
 10 23  1  0  0  0  0
 10 24  1  0  0  0  0
 11 25  1  0  0  0  0
 11 26  1  0  0  0  0
 11 27  1  0  0  0  0
 12 28  1  0  0  0  0
 12 29  1  0  0  0  0
 13 30  1  0  0  0  0
M  END
> <Hybrid2>
-7.243958

> <docked_fragment>
x0434

> <Mpro-_dock>
-0.398338

> <site>
active-noncovalent

$$$$
DB08776
  -OEChem-04122014263D

 26 27  0     0  0  0  0  0  0999 V2000
   12.0896    0.5238   23.2126 C   0  0  0  0  0  0  0  0  0  0  0  0
   13.2071    1.0303   22.5602 C   0  0  0  0  0  0  0  0  0  0  0  0
   12.1871    2.9436   23.0141 C   0  0  0  0  0  0  0  0  0  0  0  0
   11.6303   -0.8193   23.5329 C   0  0  0  0  0  0  0  0  0  0  0  0
   10.7203    4.8647   23.7083 C   0  0  0  0  0  0  0  0  0  0  0  0
   14.3732    0.3188   21.9619 C   0  0  0  0  0  0  0  0  0  0  0  0
   14.1949   -1.1740   21.7416 C   0  0  0  0  0  0  0  0  0  0  0  0
   13.9030   -1.8940   23.0457 C   0  0  0  0  0  0  0  0  0  0  0  0
   10.7386    6.3700   23.6181 C   0  0  0  0  0  0  0  0  0  0  0  0
   13.2517    2.4187   22.4610 N   0  0  0  0  0  0  0  0  0  0  0  0
   12.4915   -1.8925   23.3810 N   0  0  0  0  0  0  0  0  0  0  0  0
   11.8627    4.2698   23.1165 N   0  0  0  0  0  0  0  0  0  0  0  0
   10.4845   -1.0461   23.9361 O   0  0  0  0  0  0  0  0  0  0  0  0
    9.7891    4.2793   24.2515 O   0  0  0  0  0  0  0  0  0  0  0  0
   11.0731    1.8440   23.6848 S   0  0  0  0  0  0  0  0  0  0  0  0
   14.6063    0.7826   20.9950 H   0  0  0  0  0  0  0  0  0  0  0  0
   15.2458    0.4911   22.6053 H   0  0  0  0  0  0  0  0  0  0  0  0
   13.4111   -1.3743   21.0003 H   0  0  0  0  0  0  0  0  0  0  0  0
   15.1276   -1.5704   21.3214 H   0  0  0  0  0  0  0  0  0  0  0  0
   14.1905   -2.9472   22.9537 H   0  0  0  0  0  0  0  0  0  0  0  0
   14.4590   -1.4691   23.8885 H   0  0  0  0  0  0  0  0  0  0  0  0
   10.2506    6.6914   22.6936 H   0  0  0  0  0  0  0  0  0  0  0  0
   11.7720    6.7282   23.6163 H   0  0  0  0  0  0  0  0  0  0  0  0
   10.2166    6.8018   24.4771 H   0  0  0  0  0  0  0  0  0  0  0  0
   12.0765   -2.8084   23.5247 H   0  0  0  0  0  0  0  0  0  0  0  0
   12.5261    4.9604   22.7150 H   0  0  0  0  0  0  0  0  0  0  0  0
  1  2  2  0  0  0  0
  1  4  1  0  0  0  0
  1 15  1  0  0  0  0
  2  6  1  0  0  0  0
  2 10  1  0  0  0  0
  3 10  2  0  0  0  0
  3 12  1  0  0  0  0
  3 15  1  0  0  0  0
  4 11  1  0  0  0  0
  4 13  2  0  0  0  0
  5  9  1  0  0  0  0
  5 12  1  0  0  0  0
  5 14  2  0  0  0  0
  6  7  1  0  0  0  0
  7  8  1  0  0  0  0
  8 11  1  0  0  0  0
  6 16  1  0  0  0  0
  6 17  1  0  0  0  0
  7 18  1  0  0  0  0
  7 19  1  0  0  0  0
  8 20  1  0  0  0  0
  8 21  1  0  0  0  0
  9 22  1  0  0  0  0
  9 23  1  0  0  0  0
  9 24  1  0  0  0  0
 11 25  1  0  0  0  0
 12 26  1  0  0  0  0
M  END
> <Hybrid2>
-7.242461

> <docked_fragment>
x0195

> <Mpro-_dock>
0.092595

> <site>
active-noncovalent

$$$$
CHEMBL1397202
  -OEChem-04122014263D

 22 22  0     1  0  0  0  0  0999 V2000
   13.1961   -1.9047   22.8096 C   0  0  0  0  0  0  0  0  0  0  0  0
   12.0045   -1.3129   23.2283 C   0  0  0  0  0  0  0  0  0  0  0  0
   14.3048   -1.1098   22.5184 C   0  0  0  0  0  0  0  0  0  0  0  0
   11.9214    0.0736   23.3557 C   0  0  0  0  0  0  0  0  0  0  0  0
   14.2218    0.2767   22.6458 C   0  0  0  0  0  0  0  0  0  0  0  0
   13.0300    0.8685   23.0644 C   0  0  0  0  0  0  0  0  0  0  0  0
   13.6492    4.6381   22.3099 C   0  0  0  0  0  0  0  0  0  0  0  0
   13.8520    3.1322   22.2320 C   0  0  0  0  0  0  0  0  0  0  0  0
   12.9418    2.3511   23.2002 C   0  0  1  0  0  0  0  0  0  0  0  0
   11.5801    2.7269   22.9551 O   0  0  0  0  0  0  0  0  0  0  0  0
   13.2611   -2.9844   22.7118 H   0  0  0  0  0  0  0  0  0  0  0  0
   11.1414   -1.9317   23.4562 H   0  0  0  0  0  0  0  0  0  0  0  0
   15.2331   -1.5703   22.1935 H   0  0  0  0  0  0  0  0  0  0  0  0
   10.9887    0.5260   23.6823 H   0  0  0  0  0  0  0  0  0  0  0  0
   15.0906    0.8880   22.4165 H   0  0  0  0  0  0  0  0  0  0  0  0
   12.6035    4.9035   22.1248 H   0  0  0  0  0  0  0  0  0  0  0  0
   13.9379    5.0320   23.2890 H   0  0  0  0  0  0  0  0  0  0  0  0
   14.2637    5.1394   21.5553 H   0  0  0  0  0  0  0  0  0  0  0  0
   14.9057    2.8926   22.4207 H   0  0  0  0  0  0  0  0  0  0  0  0
   13.6601    2.8033   21.2027 H   0  0  0  0  0  0  0  0  0  0  0  0
   13.1655    2.6762   24.2313 H   0  0  0  0  0  0  0  0  0  0  0  0
   11.0517    2.2695   23.6239 H   0  0  0  0  0  0  0  0  0  0  0  0
  1  2  1  0  0  0  0
  1  3  2  0  0  0  0
  2  4  2  0  0  0  0
  3  5  1  0  0  0  0
  4  6  1  0  0  0  0
  5  6  2  0  0  0  0
  6  9  1  0  0  0  0
  7  8  1  0  0  0  0
  8  9  1  0  0  0  0
  9 10  1  0  0  0  0
  1 11  1  0  0  0  0
  2 12  1  0  0  0  0
  3 13  1  0  0  0  0
  4 14  1  0  0  0  0
  5 15  1  0  0  0  0
  7 16  1  0  0  0  0
  7 17  1  0  0  0  0
  7 18  1  0  0  0  0
  8 19  1  0  0  0  0
  8 20  1  0  0  0  0
  9 21  1  0  0  0  0
 10 22  1  0  0  0  0
M  END
> <Hybrid2>
-7.226493

> <docked_fragment>
x0195

> <Mpro-_dock>
0.822752

> <site>
active-noncovalent

$$$$
CHEMBL269644
  -OEChem-04122014263D

 19 19  0     0  0  0  0  0  0999 V2000
   12.4746   -1.7099   22.9361 C   0  0  0  0  0  0  0  0  0  0  0  0
   11.6390   -0.6241   23.1978 C   0  0  0  0  0  0  0  0  0  0  0  0
   13.7675   -1.4958   22.4583 C   0  0  0  0  0  0  0  0  0  0  0  0
   12.0962    0.6758   22.9816 C   0  0  0  0  0  0  0  0  0  0  0  0
   14.2247   -0.1959   22.2420 C   0  0  0  0  0  0  0  0  0  0  0  0
   13.3891    0.8900   22.5037 C   0  0  0  0  0  0  0  0  0  0  0  0
   13.1587    3.3942   22.4911 C   0  0  0  0  0  0  0  0  0  0  0  0
   14.0072    4.5895   22.1369 C   0  0  0  0  0  0  0  0  0  0  0  0
   13.8463    2.1903   22.2876 N   0  0  0  0  0  0  0  0  0  0  0  0
   12.0129    3.5378   22.9052 O   0  0  0  0  0  0  0  0  0  0  0  0
   12.1191   -2.7222   23.1051 H   0  0  0  0  0  0  0  0  0  0  0  0
   10.6327   -0.7904   23.5707 H   0  0  0  0  0  0  0  0  0  0  0  0
   14.4182   -2.3415   22.2556 H   0  0  0  0  0  0  0  0  0  0  0  0
   11.4361    1.5143   23.1892 H   0  0  0  0  0  0  0  0  0  0  0  0
   15.2343   -0.0411   21.8695 H   0  0  0  0  0  0  0  0  0  0  0  0
   13.8644    4.8458   21.0833 H   0  0  0  0  0  0  0  0  0  0  0  0
   15.0626    4.3572   22.3052 H   0  0  0  0  0  0  0  0  0  0  0  0
   13.7294    5.4430   22.7624 H   0  0  0  0  0  0  0  0  0  0  0  0
   14.8063    2.2834   21.9362 H   0  0  0  0  0  0  0  0  0  0  0  0
  1  2  1  0  0  0  0
  1  3  2  0  0  0  0
  2  4  2  0  0  0  0
  3  5  1  0  0  0  0
  4  6  1  0  0  0  0
  5  6  2  0  0  0  0
  6  9  1  0  0  0  0
  7  8  1  0  0  0  0
  7  9  1  0  0  0  0
  7 10  2  0  0  0  0
  1 11  1  0  0  0  0
  2 12  1  0  0  0  0
  3 13  1  0  0  0  0
  4 14  1  0  0  0  0
  5 15  1  0  0  0  0
  8 16  1  0  0  0  0
  8 17  1  0  0  0  0
  8 18  1  0  0  0  0
  9 19  1  0  0  0  0
M  END
> <Hybrid2>
-7.226410

> <docked_fragment>
x0195

> <Mpro-_dock>
-2.094514

> <site>
active-noncovalent

$$$$
DB02870
  -OEChem-04122014263D

 21 21  0     0  0  0  0  0  0999 V2000
   12.5572   -1.9199   23.0687 C   0  0  0  0  0  0  0  0  0  0  0  0
   11.7886   -0.8363   23.4935 C   0  0  0  0  0  0  0  0  0  0  0  0
   13.7741   -1.7013   22.4229 C   0  0  0  0  0  0  0  0  0  0  0  0
   12.2367    0.4660   23.2724 C   0  0  0  0  0  0  0  0  0  0  0  0
   14.2223   -0.3990   22.2018 C   0  0  0  0  0  0  0  0  0  0  0  0
   13.4537    0.6846   22.6266 C   0  0  0  0  0  0  0  0  0  0  0  0
   11.1915    3.7666   23.9819 C   0  0  0  0  0  0  0  0  0  0  0  0
   12.3999    3.2352   23.7650 C   0  0  0  0  0  0  0  0  0  0  0  0
   13.0365    3.1357   22.4176 C   0  0  0  0  0  0  0  0  0  0  0  0
   13.9072    2.0012   22.4030 N   0  0  0  0  0  0  0  0  0  0  0  0
   12.2080   -2.9340   23.2407 H   0  0  0  0  0  0  0  0  0  0  0  0
   10.8412   -1.0066   23.9961 H   0  0  0  0  0  0  0  0  0  0  0  0
   14.3726   -2.5453   22.0921 H   0  0  0  0  0  0  0  0  0  0  0  0
   11.6303    1.3036   23.6072 H   0  0  0  0  0  0  0  0  0  0  0  0
   15.1724   -0.2409   21.6977 H   0  0  0  0  0  0  0  0  0  0  0  0
   10.7859    3.8159   24.9865 H   0  0  0  0  0  0  0  0  0  0  0  0
   10.5892    4.1579   23.1694 H   0  0  0  0  0  0  0  0  0  0  0  0
   12.9643    2.8631   24.6166 H   0  0  0  0  0  0  0  0  0  0  0  0
   13.6255    4.0364   22.2189 H   0  0  0  0  0  0  0  0  0  0  0  0
   12.2995    3.0247   21.6158 H   0  0  0  0  0  0  0  0  0  0  0  0
   14.8870    2.1207   22.2273 H   0  0  0  0  0  0  0  0  0  0  0  0
  1  2  1  0  0  0  0
  1  3  2  0  0  0  0
  2  4  2  0  0  0  0
  3  5  1  0  0  0  0
  4  6  1  0  0  0  0
  5  6  2  0  0  0  0
  6 10  1  0  0  0  0
  7  8  2  0  0  0  0
  8  9  1  0  0  0  0
  9 10  1  0  0  0  0
  1 11  1  0  0  0  0
  2 12  1  0  0  0  0
  3 13  1  0  0  0  0
  4 14  1  0  0  0  0
  5 15  1  0  0  0  0
  7 16  1  0  0  0  0
  7 17  1  0  0  0  0
  8 18  1  0  0  0  0
  9 19  1  0  0  0  0
  9 20  1  0  0  0  0
 10 21  1  0  0  0  0
M  END
> <Hybrid2>
-7.207365

> <docked_fragment>
x0195

> <Mpro-_dock>
-0.59168

> <site>
active-noncovalent

$$$$
CHEMBL450
  -OEChem-04122014263D

 28 28  0     0  0  0  0  0  0999 V2000
   10.9739    0.1116   21.5929 C   0  0  0  0  0  0  0  0  0  0  0  0
   12.3116   -0.3080   23.7241 C   0  0  0  0  0  0  0  0  0  0  0  0
   12.9238   -1.4416   21.5903 C   0  0  0  0  0  0  0  0  0  0  0  0
   10.9511    0.0156   23.1095 C   0  0  0  0  0  0  0  0  0  0  0  0
   10.4508   -2.4253   22.9077 C   0  0  0  0  0  0  0  0  0  0  0  0
   11.2670    2.4873   23.3077 C   0  0  0  0  0  0  0  0  0  0  0  0
   14.2656   -1.7794   23.6076 C   0  0  0  0  0  0  0  0  0  0  0  0
    9.9941   -1.1307   23.4844 C   0  0  0  0  0  0  0  0  0  0  0  0
   10.4130    1.3299   23.6967 C   0  0  0  0  0  0  0  0  0  0  0  0
   11.8902   -0.7304   20.9846 N   0  0  0  0  0  0  0  0  0  0  0  0
   13.0950   -1.1930   22.9658 N   0  0  0  0  0  0  0  0  0  0  0  0
   10.2004    0.8207   20.9510 O   0  0  0  0  0  0  0  0  0  0  0  0
   12.6471    0.1374   24.8230 O   0  0  0  0  0  0  0  0  0  0  0  0
   13.6491   -2.1879   20.9273 O   0  0  0  0  0  0  0  0  0  0  0  0
   10.4924   -2.3380   21.8156 H   0  0  0  0  0  0  0  0  0  0  0  0
    9.7571   -3.2352   23.1574 H   0  0  0  0  0  0  0  0  0  0  0  0
   11.4525   -2.6852   23.2661 H   0  0  0  0  0  0  0  0  0  0  0  0
   12.2871    2.3234   23.6745 H   0  0  0  0  0  0  0  0  0  0  0  0
   10.8934    3.4180   23.7479 H   0  0  0  0  0  0  0  0  0  0  0  0
   11.3108    2.5957   22.2188 H   0  0  0  0  0  0  0  0  0  0  0  0
   13.9816   -2.7218   24.0987 H   0  0  0  0  0  0  0  0  0  0  0  0
   15.0376   -1.9792   22.8498 H   0  0  0  0  0  0  0  0  0  0  0  0
   14.6612   -1.0795   24.3583 H   0  0  0  0  0  0  0  0  0  0  0  0
    9.9469   -1.1993   24.5704 H   0  0  0  0  0  0  0  0  0  0  0  0
    8.9998   -0.8849   23.1142 H   0  0  0  0  0  0  0  0  0  0  0  0
    9.3947    1.4798   23.3380 H   0  0  0  0  0  0  0  0  0  0  0  0
   10.3805    1.2380   24.7823 H   0  0  0  0  0  0  0  0  0  0  0  0
   11.7977   -0.8424   19.9787 H   0  0  0  0  0  0  0  0  0  0  0  0
  1  4  1  0  0  0  0
  1 10  1  0  0  0  0
  1 12  2  0  0  0  0
  2  4  1  0  0  0  0
  2 11  1  0  0  0  0
  2 13  2  0  0  0  0
  3 10  1  0  0  0  0
  3 11  1  0  0  0  0
  3 14  2  0  0  0  0
  4  8  1  0  0  0  0
  4  9  1  0  0  0  0
  5  8  1  0  0  0  0
  6  9  1  0  0  0  0
  7 11  1  0  0  0  0
  5 15  1  0  0  0  0
  5 16  1  0  0  0  0
  5 17  1  0  0  0  0
  6 18  1  0  0  0  0
  6 19  1  0  0  0  0
  6 20  1  0  0  0  0
  7 21  1  0  0  0  0
  7 22  1  0  0  0  0
  7 23  1  0  0  0  0
  8 24  1  0  0  0  0
  8 25  1  0  0  0  0
  9 26  1  0  0  0  0
  9 27  1  0  0  0  0
 10 28  1  0  0  0  0
M  END
> <Hybrid2>
-7.205359

> <docked_fragment>
x0678

> <Mpro-_dock>
3.047599

> <site>
active-noncovalent

$$$$
DB02924
  -OEChem-04122014263D

 27 28  0     1  0  0  0  0  0999 V2000
   14.1496   -1.8440   22.9345 C   0  0  0  0  0  0  0  0  0  0  0  0
   12.8727   -1.4549   22.8039 C   0  0  0  0  0  0  0  0  0  0  0  0
   13.7368    0.8894   22.6975 C   0  0  0  0  0  0  0  0  0  0  0  0
   13.3780    2.3452   22.3964 C   0  0  0  0  0  0  0  0  0  0  0  0
   11.5353    0.3881   23.8170 C   0  0  0  0  0  0  0  0  0  0  0  0
   12.4926   -0.0091   22.6847 C   0  0  2  0  0  0  0  0  0  0  0  0
   11.2940    1.8613   23.9004 C   0  0  1  0  0  0  0  0  0  0  0  0
   12.2306    2.8438   23.2315 C   0  0  1  0  0  0  0  0  0  0  0  0
   11.7429   -2.4409   22.7693 C   0  0  0  0  0  0  0  0  0  0  0  0
   12.2950    4.2569   23.7143 C   0  0  0  0  0  0  0  0  0  0  0  0
   10.9452    2.4982   22.6707 O   0  0  0  0  0  0  0  0  0  0  0  0
   14.4143   -2.8926   23.0200 H   0  0  0  0  0  0  0  0  0  0  0  0
   14.9600   -1.1230   22.9588 H   0  0  0  0  0  0  0  0  0  0  0  0
   14.4710    0.5477   21.9574 H   0  0  0  0  0  0  0  0  0  0  0  0
   14.2267    0.8314   23.6789 H   0  0  0  0  0  0  0  0  0  0  0  0
   14.2669    2.9642   22.5671 H   0  0  0  0  0  0  0  0  0  0  0  0
   13.1256    2.4511   21.3338 H   0  0  0  0  0  0  0  0  0  0  0  0
   10.5742   -0.1263   23.6935 H   0  0  0  0  0  0  0  0  0  0  0  0
   11.9429    0.0604   24.7825 H   0  0  0  0  0  0  0  0  0  0  0  0
   11.9804    0.1165   21.7218 H   0  0  0  0  0  0  0  0  0  0  0  0
   10.7545    2.1544   24.7906 H   0  0  0  0  0  0  0  0  0  0  0  0
   11.3712   -2.6284   23.7820 H   0  0  0  0  0  0  0  0  0  0  0  0
   10.9184   -2.0522   22.1627 H   0  0  0  0  0  0  0  0  0  0  0  0
   12.0470   -3.4024   22.3421 H   0  0  0  0  0  0  0  0  0  0  0  0
   11.4095    4.5176   24.3132 H   0  0  0  0  0  0  0  0  0  0  0  0
   12.3462    4.9662   22.8749 H   0  0  0  0  0  0  0  0  0  0  0  0
   13.1811    4.4261   24.3443 H   0  0  0  0  0  0  0  0  0  0  0  0
  1  2  2  0  0  0  0
  2  6  1  0  0  0  0
  2  9  1  0  0  0  0
  3  4  1  0  0  0  0
  3  6  1  0  0  0  0
  4  8  1  0  0  0  0
  5  6  1  0  0  0  0
  5  7  1  0  0  0  0
  7  8  1  0  0  0  0
  7 11  1  0  0  0  0
  8 10  1  0  0  0  0
  8 11  1  0  0  0  0
  1 12  1  0  0  0  0
  1 13  1  0  0  0  0
  3 14  1  0  0  0  0
  3 15  1  0  0  0  0
  4 16  1  0  0  0  0
  4 17  1  0  0  0  0
  5 18  1  0  0  0  0
  5 19  1  0  0  0  0
  6 20  1  0  0  0  0
  7 21  1  0  0  0  0
  9 22  1  0  0  0  0
  9 23  1  0  0  0  0
  9 24  1  0  0  0  0
 10 25  1  0  0  0  0
 10 26  1  0  0  0  0
 10 27  1  0  0  0  0
M  END
> <Hybrid2>
-7.204408

> <docked_fragment>
x0195

> <Mpro-_dock>
0.233391

> <site>
active-noncovalent

$$$$
CHEMBL2110963
  -OEChem-04122014263D

 52 53  0     1  0  0  0  0  0999 V2000
   12.9879    5.0493   22.9829 C   0  0  0  0  0  0  0  0  0  0  0  0
   12.1267    4.2753   23.7606 C   0  0  0  0  0  0  0  0  0  0  0  0
   13.7778    4.4447   22.0050 C   0  0  0  0  0  0  0  0  0  0  0  0
   12.0554    2.8967   23.5605 C   0  0  0  0  0  0  0  0  0  0  0  0
   13.7065    3.0661   21.8049 C   0  0  0  0  0  0  0  0  0  0  0  0
   12.8454    2.2921   22.5827 C   0  0  0  0  0  0  0  0  0  0  0  0
    9.9219   -0.3084   24.4113 C   0  0  0  0  0  0  0  0  0  0  0  0
   13.7975   -1.3909   23.0937 C   0  0  0  0  0  0  0  0  0  0  0  0
   12.4065   -1.9740   23.3127 C   0  0  0  0  0  0  0  0  0  0  0  0
   13.8091    0.1247   23.2787 C   0  0  0  0  0  0  0  0  0  0  0  0
   11.3623   -1.2960   22.4246 C   0  0  0  0  0  0  0  0  0  0  0  0
   12.7695    0.8112   22.3674 C   0  0  1  0  0  0  0  0  0  0  0  0
   11.3410    0.2374   22.6024 C   0  0  1  0  0  0  0  0  0  0  0  0
   10.0638   -0.4747   25.8939 C   0  0  0  0  0  0  0  0  0  0  0  0
    9.6899   -0.2439   20.7718 C   0  0  0  0  0  0  0  0  0  0  0  0
    7.4780    3.4135   22.1998 C   0  0  0  0  0  0  0  0  0  0  0  0
    9.4871    3.5168   20.7324 C   0  0  0  0  0  0  0  0  0  0  0  0
    9.2488    1.6727   22.3886 C   0  0  0  0  0  0  0  0  0  0  0  0
   10.3047    0.8454   21.6498 C   0  0  1  0  0  0  0  0  0  0  0  0
    8.5420    2.6137   21.4876 N   0  3  0  0  0  0  0  0  0  0  0  0
    9.0365   -0.8275   23.7452 O   0  0  0  0  0  0  0  0  0  0  0  0
   10.9192    0.4960   23.9462 O   0  0  0  0  0  0  0  0  0  0  0  0
   13.0422    6.1229   23.1379 H   0  0  0  0  0  0  0  0  0  0  0  0
   11.5107    4.7461   24.5213 H   0  0  0  0  0  0  0  0  0  0  0  0
   14.4476    5.0472   21.3986 H   0  0  0  0  0  0  0  0  0  0  0  0
   11.3817    2.3016   24.1713 H   0  0  0  0  0  0  0  0  0  0  0  0
   14.3258    2.6037   21.0408 H   0  0  0  0  0  0  0  0  0  0  0  0
   14.5047   -1.8526   23.7919 H   0  0  0  0  0  0  0  0  0  0  0  0
   14.1421   -1.6361   22.0815 H   0  0  0  0  0  0  0  0  0  0  0  0
   12.4229   -3.0493   23.1014 H   0  0  0  0  0  0  0  0  0  0  0  0
   12.1247   -1.8645   24.3670 H   0  0  0  0  0  0  0  0  0  0  0  0
   13.6129    0.3665   24.3317 H   0  0  0  0  0  0  0  0  0  0  0  0
   14.8139    0.5057   23.0560 H   0  0  0  0  0  0  0  0  0  0  0  0
   11.5661   -1.5478   21.3760 H   0  0  0  0  0  0  0  0  0  0  0  0
   10.3798   -1.7155   22.6753 H   0  0  0  0  0  0  0  0  0  0  0  0
   13.0540    0.6308   21.3225 H   0  0  0  0  0  0  0  0  0  0  0  0
   10.6946   -1.3401   26.1114 H   0  0  0  0  0  0  0  0  0  0  0  0
    9.0776   -0.5921   26.3501 H   0  0  0  0  0  0  0  0  0  0  0  0
   10.5377    0.4167   26.3151 H   0  0  0  0  0  0  0  0  0  0  0  0
    9.1313   -0.9786   21.3606 H   0  0  0  0  0  0  0  0  0  0  0  0
    9.0092    0.1924   20.0332 H   0  0  0  0  0  0  0  0  0  0  0  0
   10.4714   -0.7836   20.2259 H   0  0  0  0  0  0  0  0  0  0  0  0
    7.9696    4.0155   22.9661 H   0  0  0  0  0  0  0  0  0  0  0  0
    6.9845    4.0465   21.4598 H   0  0  0  0  0  0  0  0  0  0  0  0
    6.7734    2.7092   22.6462 H   0  0  0  0  0  0  0  0  0  0  0  0
   10.0271    4.1213   21.4634 H   0  0  0  0  0  0  0  0  0  0  0  0
   10.1714    2.8840   20.1640 H   0  0  0  0  0  0  0  0  0  0  0  0
    8.8901    4.1448   20.0683 H   0  0  0  0  0  0  0  0  0  0  0  0
    8.4811    1.0323   22.8344 H   0  0  0  0  0  0  0  0  0  0  0  0
    9.7036    2.2795   23.1781 H   0  0  0  0  0  0  0  0  0  0  0  0
   10.8425    1.5350   20.9877 H   0  0  0  0  0  0  0  0  0  0  0  0
    8.0468    2.0558   20.7703 H   0  0  0  0  0  0  0  0  0  0  0  0
  1  2  1  0  0  0  0
  1  3  2  0  0  0  0
  2  4  2  0  0  0  0
  3  5  1  0  0  0  0
  4  6  1  0  0  0  0
  5  6  2  0  0  0  0
  6 12  1  0  0  0  0
  7 14  1  0  0  0  0
  7 21  2  0  0  0  0
  7 22  1  0  0  0  0
  8  9  1  0  0  0  0
  8 10  1  0  0  0  0
  9 11  1  0  0  0  0
 10 12  1  0  0  0  0
 11 13  1  0  0  0  0
 12 13  1  0  0  0  0
 13 19  1  0  0  0  0
 13 22  1  0  0  0  0
 15 19  1  0  0  0  0
 16 20  1  0  0  0  0
 17 20  1  0  0  0  0
 18 19  1  0  0  0  0
 18 20  1  0  0  0  0
  1 23  1  0  0  0  0
  2 24  1  0  0  0  0
  3 25  1  0  0  0  0
  4 26  1  0  0  0  0
  5 27  1  0  0  0  0
  8 28  1  0  0  0  0
  8 29  1  0  0  0  0
  9 30  1  0  0  0  0
  9 31  1  0  0  0  0
 10 32  1  0  0  0  0
 10 33  1  0  0  0  0
 11 34  1  0  0  0  0
 11 35  1  0  0  0  0
 12 36  1  0  0  0  0
 14 37  1  0  0  0  0
 14 38  1  0  0  0  0
 14 39  1  0  0  0  0
 15 40  1  0  0  0  0
 15 41  1  0  0  0  0
 15 42  1  0  0  0  0
 16 43  1  0  0  0  0
 16 44  1  0  0  0  0
 16 45  1  0  0  0  0
 17 46  1  0  0  0  0
 17 47  1  0  0  0  0
 17 48  1  0  0  0  0
 18 49  1  0  0  0  0
 18 50  1  0  0  0  0
 19 51  1  0  0  0  0
 20 52  1  0  0  0  0
M  CHG  1  20   1
M  END
> <Hybrid2>
-7.195467

> <docked_fragment>
x0195

> <Mpro-_dock>
0.42303

> <site>
active-noncovalent

$$$$
CHEMBL454
  -OEChem-04122014263D

 32 32  0     0  0  0  0  0  0999 V2000
   13.6195   -0.2171   23.5018 C   0  0  0  0  0  0  0  0  0  0  0  0
   11.6431   -0.4009   21.8801 C   0  0  0  0  0  0  0  0  0  0  0  0
   13.8252   -1.4716   21.3677 C   0  0  0  0  0  0  0  0  0  0  0  0
    9.2077   -1.4963   24.9566 C   0  0  0  0  0  0  0  0  0  0  0  0
   10.0829   -1.5440   23.9460 C   0  0  0  0  0  0  0  0  0  0  0  0
   12.1047   -0.2210   23.3229 C   0  0  0  0  0  0  0  0  0  0  0  0
   11.1375    3.5751   23.5469 C   0  0  0  0  0  0  0  0  0  0  0  0
   13.2231    2.4741   22.7096 C   0  0  0  0  0  0  0  0  0  0  0  0
   11.5594   -1.4174   24.1230 C   0  0  0  0  0  0  0  0  0  0  0  0
   11.5175    1.0793   23.8910 C   0  0  0  0  0  0  0  0  0  0  0  0
   11.7266    2.2871   22.9700 C   0  0  0  0  0  0  0  0  0  0  0  0
   14.3158   -0.9681   22.5666 N   0  0  0  0  0  0  0  0  0  0  0  0
   12.5072   -1.1361   21.0823 N   0  0  0  0  0  0  0  0  0  0  0  0
   14.1802    0.3495   24.4396 O   0  0  0  0  0  0  0  0  0  0  0  0
   10.5593    0.0122   21.4689 O   0  0  0  0  0  0  0  0  0  0  0  0
   14.5224   -2.1282   20.5924 O   0  0  0  0  0  0  0  0  0  0  0  0
    8.1408   -1.5921   24.7886 H   0  0  0  0  0  0  0  0  0  0  0  0
    9.5528   -1.3598   25.9757 H   0  0  0  0  0  0  0  0  0  0  0  0
    9.7070   -1.7046   22.9386 H   0  0  0  0  0  0  0  0  0  0  0  0
   11.5902    3.8207   24.5134 H   0  0  0  0  0  0  0  0  0  0  0  0
   10.0559    3.4902   23.6883 H   0  0  0  0  0  0  0  0  0  0  0  0
   11.3103    4.4183   22.8693 H   0  0  0  0  0  0  0  0  0  0  0  0
   13.7664    2.6760   23.6391 H   0  0  0  0  0  0  0  0  0  0  0  0
   13.3979    3.3116   22.0259 H   0  0  0  0  0  0  0  0  0  0  0  0
   13.6540    1.5768   22.2528 H   0  0  0  0  0  0  0  0  0  0  0  0
   11.8329   -1.2824   25.1700 H   0  0  0  0  0  0  0  0  0  0  0  0
   12.0483   -2.3237   23.7656 H   0  0  0  0  0  0  0  0  0  0  0  0
   10.4543    0.9207   24.0862 H   0  0  0  0  0  0  0  0  0  0  0  0
   12.0006    1.2629   24.8541 H   0  0  0  0  0  0  0  0  0  0  0  0
   11.2401    2.0891   22.0064 H   0  0  0  0  0  0  0  0  0  0  0  0
   15.2880   -1.1720   22.7807 H   0  0  0  0  0  0  0  0  0  0  0  0
   12.1371   -1.4643   20.1946 H   0  0  0  0  0  0  0  0  0  0  0  0
  1  6  1  0  0  0  0
  1 12  1  0  0  0  0
  1 14  2  0  0  0  0
  2  6  1  0  0  0  0
  2 13  1  0  0  0  0
  2 15  2  0  0  0  0
  3 12  1  0  0  0  0
  3 13  1  0  0  0  0
  3 16  2  0  0  0  0
  4  5  2  0  0  0  0
  5  9  1  0  0  0  0
  6  9  1  0  0  0  0
  6 10  1  0  0  0  0
  7 11  1  0  0  0  0
  8 11  1  0  0  0  0
 10 11  1  0  0  0  0
  4 17  1  0  0  0  0
  4 18  1  0  0  0  0
  5 19  1  0  0  0  0
  7 20  1  0  0  0  0
  7 21  1  0  0  0  0
  7 22  1  0  0  0  0
  8 23  1  0  0  0  0
  8 24  1  0  0  0  0
  8 25  1  0  0  0  0
  9 26  1  0  0  0  0
  9 27  1  0  0  0  0
 10 28  1  0  0  0  0
 10 29  1  0  0  0  0
 11 30  1  0  0  0  0
 12 31  1  0  0  0  0
 13 32  1  0  0  0  0
M  END
> <Hybrid2>
-7.193576

> <docked_fragment>
x0195

> <Mpro-_dock>
2.28805

> <site>
active-noncovalent

$$$$
CHEMBL1740513
  -OEChem-04122014263D

 21 21  0     0  0  0  0  0  0999 V2000
   13.3150   -0.4447   24.1616 C   0  0  0  0  0  0  0  0  0  0  0  0
   13.3690   -1.5578   23.3477 C   0  0  0  0  0  0  0  0  0  0  0  0
   12.0549   -0.0762   24.5863 C   0  0  0  0  0  0  0  0  0  0  0  0
   11.1117   -1.8051   23.4512 C   0  0  0  0  0  0  0  0  0  0  0  0
    8.2845   -4.2232   23.4036 C   0  0  0  0  0  0  0  0  0  0  0  0
    8.2091   -2.0695   24.7082 C   0  0  0  0  0  0  0  0  0  0  0  0
    9.1001   -3.1364   24.0888 C   0  0  0  0  0  0  0  0  0  0  0  0
   12.2831   -2.2646   22.9713 N   0  0  0  0  0  0  0  0  0  0  0  0
   10.9273   -0.7360   24.2490 N   0  0  0  0  0  0  0  0  0  0  0  0
    9.9925   -2.4970   23.0913 N   0  0  0  0  0  0  0  0  0  0  0  0
   14.2019    0.1049   24.4471 H   0  0  0  0  0  0  0  0  0  0  0  0
   14.3157   -1.9238   22.9646 H   0  0  0  0  0  0  0  0  0  0  0  0
   11.9125    0.7865   25.2284 H   0  0  0  0  0  0  0  0  0  0  0  0
    7.6481   -3.7981   22.6207 H   0  0  0  0  0  0  0  0  0  0  0  0
    8.9314   -4.9793   22.9446 H   0  0  0  0  0  0  0  0  0  0  0  0
    7.6385   -4.7368   24.1241 H   0  0  0  0  0  0  0  0  0  0  0  0
    7.5708   -1.6071   23.9473 H   0  0  0  0  0  0  0  0  0  0  0  0
    8.8103   -1.2804   25.1715 H   0  0  0  0  0  0  0  0  0  0  0  0
    7.5518   -2.4931   25.4758 H   0  0  0  0  0  0  0  0  0  0  0  0
    9.7281   -3.5840   24.8668 H   0  0  0  0  0  0  0  0  0  0  0  0
    9.7287   -2.6023   22.1367 H   0  0  0  0  0  0  0  0  0  0  0  0
  1  2  1  0  0  0  0
  1  3  2  0  0  0  0
  2  8  2  0  0  0  0
  3  9  1  0  0  0  0
  4  8  1  0  0  0  0
  4  9  2  0  0  0  0
  4 10  1  0  0  0  0
  5  7  1  0  0  0  0
  6  7  1  0  0  0  0
  7 10  1  0  0  0  0
  1 11  1  0  0  0  0
  2 12  1  0  0  0  0
  3 13  1  0  0  0  0
  5 14  1  0  0  0  0
  5 15  1  0  0  0  0
  5 16  1  0  0  0  0
  6 17  1  0  0  0  0
  6 18  1  0  0  0  0
  6 19  1  0  0  0  0
  7 20  1  0  0  0  0
 10 21  1  0  0  0  0
M  END
> <Hybrid2>
-7.178702

> <docked_fragment>
x0072

> <Mpro-_dock>
-1.248482

> <site>
active-noncovalent

$$$$
DB02534
  -OEChem-04122014263D

 20 20  0     0  0  0  0  0  0999 V2000
   13.0400   -1.8524   23.0357 C   0  0  0  0  0  0  0  0  0  0  0  0
   14.1456   -1.4925   22.2651 C   0  0  0  0  0  0  0  0  0  0  0  0
   12.1941   -0.8671   23.5448 C   0  0  0  0  0  0  0  0  0  0  0  0
   14.4053   -0.1472   22.0038 C   0  0  0  0  0  0  0  0  0  0  0  0
   12.4539    0.4783   23.2835 C   0  0  0  0  0  0  0  0  0  0  0  0
   13.5595    0.8382   22.5130 C   0  0  0  0  0  0  0  0  0  0  0  0
   12.1347    3.9614   23.8844 C   0  0  0  0  0  0  0  0  0  0  0  0
   11.7412    2.8743   23.2113 C   0  0  0  0  0  0  0  0  0  0  0  0
   11.5380    1.5193   23.8368 C   0  0  0  0  0  0  0  0  0  0  0  0
   13.8279    2.1477   22.2490 O   0  0  0  0  0  0  0  0  0  0  0  0
   12.8376   -2.8999   23.2400 H   0  0  0  0  0  0  0  0  0  0  0  0
   14.8044   -2.2600   21.8697 H   0  0  0  0  0  0  0  0  0  0  0  0
   11.3362   -1.1578   24.1454 H   0  0  0  0  0  0  0  0  0  0  0  0
   15.2682    0.1270   21.4029 H   0  0  0  0  0  0  0  0  0  0  0  0
   12.2676    4.9174   23.3902 H   0  0  0  0  0  0  0  0  0  0  0  0
   12.3291    3.9072   24.9499 H   0  0  0  0  0  0  0  0  0  0  0  0
   11.5476    2.9658   22.1453 H   0  0  0  0  0  0  0  0  0  0  0  0
   10.4868    1.2248   23.6827 H   0  0  0  0  0  0  0  0  0  0  0  0
   11.6550    1.5784   24.9319 H   0  0  0  0  0  0  0  0  0  0  0  0
   14.6271    2.2226   21.7044 H   0  0  0  0  0  0  0  0  0  0  0  0
  1  2  1  0  0  0  0
  1  3  2  0  0  0  0
  2  4  2  0  0  0  0
  3  5  1  0  0  0  0
  4  6  1  0  0  0  0
  5  6  2  0  0  0  0
  5  9  1  0  0  0  0
  6 10  1  0  0  0  0
  7  8  2  0  0  0  0
  8  9  1  0  0  0  0
  1 11  1  0  0  0  0
  2 12  1  0  0  0  0
  3 13  1  0  0  0  0
  4 14  1  0  0  0  0
  7 15  1  0  0  0  0
  7 16  1  0  0  0  0
  8 17  1  0  0  0  0
  9 18  1  0  0  0  0
  9 19  1  0  0  0  0
 10 20  1  0  0  0  0
M  END
> <Hybrid2>
-7.173183

> <docked_fragment>
x0195

> <Mpro-_dock>
0.789352

> <site>
active-noncovalent

$$$$
CHEMBL2110696
  -OEChem-04122014263D

 28 28  0     0  0  0  0  0  0999 V2000
   12.1801   -1.1160   21.7534 C   0  0  0  0  0  0  0  0  0  0  0  0
   10.7956   -0.0946   23.6533 C   0  0  0  0  0  0  0  0  0  0  0  0
    9.9340   -0.1460   21.3241 C   0  0  0  0  0  0  0  0  0  0  0  0
   11.8681   -1.1002   23.2465 C   0  0  0  0  0  0  0  0  0  0  0  0
   10.1049   -2.8249   22.8405 C   0  0  0  0  0  0  0  0  0  0  0  0
   14.1768   -1.9278   23.7839 C   0  0  0  0  0  0  0  0  0  0  0  0
   13.7238    0.5388   23.6630 C   0  0  0  0  0  0  0  0  0  0  0  0
   11.3367   -2.4980   23.6108 C   0  0  0  0  0  0  0  0  0  0  0  0
   13.1556   -0.8250   24.0369 C   0  0  0  0  0  0  0  0  0  0  0  0
   11.1179   -0.7613   20.9353 N   0  0  0  0  0  0  0  0  0  0  0  0
    9.8510    0.1737   22.6739 N   0  0  0  0  0  0  0  0  0  0  0  0
   13.2656   -1.4796   21.3015 O   0  0  0  0  0  0  0  0  0  0  0  0
   10.7289    0.3911   24.7821 O   0  0  0  0  0  0  0  0  0  0  0  0
    9.0426    0.1376   20.5221 O   0  0  0  0  0  0  0  0  0  0  0  0
    9.3322   -2.0800   23.0640 H   0  0  0  0  0  0  0  0  0  0  0  0
    9.7163   -3.8107   23.1174 H   0  0  0  0  0  0  0  0  0  0  0  0
   10.2964   -2.8027   21.7625 H   0  0  0  0  0  0  0  0  0  0  0  0
   14.4638   -1.9740   22.7277 H   0  0  0  0  0  0  0  0  0  0  0  0
   13.7754   -2.9059   24.0686 H   0  0  0  0  0  0  0  0  0  0  0  0
   15.0830   -1.7533   24.3735 H   0  0  0  0  0  0  0  0  0  0  0  0
   13.9941    0.5838   22.6024 H   0  0  0  0  0  0  0  0  0  0  0  0
   14.6224    0.7539   24.2509 H   0  0  0  0  0  0  0  0  0  0  0  0
   12.9965    1.3334   23.8608 H   0  0  0  0  0  0  0  0  0  0  0  0
   12.1160   -3.2294   23.4002 H   0  0  0  0  0  0  0  0  0  0  0  0
   11.1277   -2.5202   24.6795 H   0  0  0  0  0  0  0  0  0  0  0  0
   12.9022   -0.8194   25.1013 H   0  0  0  0  0  0  0  0  0  0  0  0
   11.2156   -0.9741   19.9464 H   0  0  0  0  0  0  0  0  0  0  0  0
    9.0085    0.6554   22.9755 H   0  0  0  0  0  0  0  0  0  0  0  0
  1  4  1  0  0  0  0
  1 10  1  0  0  0  0
  1 12  2  0  0  0  0
  2  4  1  0  0  0  0
  2 11  1  0  0  0  0
  2 13  2  0  0  0  0
  3 10  1  0  0  0  0
  3 11  1  0  0  0  0
  3 14  2  0  0  0  0
  4  8  1  0  0  0  0
  4  9  1  0  0  0  0
  5  8  1  0  0  0  0
  6  9  1  0  0  0  0
  7  9  1  0  0  0  0
  5 15  1  0  0  0  0
  5 16  1  0  0  0  0
  5 17  1  0  0  0  0
  6 18  1  0  0  0  0
  6 19  1  0  0  0  0
  6 20  1  0  0  0  0
  7 21  1  0  0  0  0
  7 22  1  0  0  0  0
  7 23  1  0  0  0  0
  8 24  1  0  0  0  0
  8 25  1  0  0  0  0
  9 26  1  0  0  0  0
 10 27  1  0  0  0  0
 11 28  1  0  0  0  0
M  END
> <Hybrid2>
-7.166325

> <docked_fragment>
x0678

> <Mpro-_dock>
2.182184

> <site>
active-noncovalent

$$$$
CHEMBL1722501
  -OEChem-04122014263D

 25 25  0     0  0  0  0  0  0999 V2000
   14.2439   -1.3355   22.1078 C   0  0  0  0  0  0  0  0  0  0  0  0
   11.7850   -0.7987   22.1777 C   0  0  0  0  0  0  0  0  0  0  0  0
   13.6490    0.8853   22.4183 C   0  0  0  0  0  0  0  0  0  0  0  0
   12.8455   -1.8254   21.9198 C   0  0  0  0  0  0  0  0  0  0  0  0
   12.2349    0.4849   22.8631 C   0  0  0  0  0  0  0  0  0  0  0  0
   11.6400    2.8935   23.1686 C   0  0  0  0  0  0  0  0  0  0  0  0
   10.8878   -0.1120   24.8824 C   0  0  0  0  0  0  0  0  0  0  0  0
   11.2457    1.6108   22.5214 C   0  0  0  0  0  0  0  0  0  0  0  0
   12.2428    0.2547   24.3792 C   0  0  0  0  0  0  0  0  0  0  0  0
   14.5956   -0.1119   22.3329 N   0  0  0  0  0  0  0  0  0  0  0  0
   10.6072   -1.0356   21.9093 O   0  0  0  0  0  0  0  0  0  0  0  0
   13.9373    2.0640   22.2147 O   0  0  0  0  0  0  0  0  0  0  0  0
   15.0417   -2.0929   22.0309 H   0  0  0  0  0  0  0  0  0  0  0  0
   12.7529   -2.1890   20.8921 H   0  0  0  0  0  0  0  0  0  0  0  0
   12.6930   -2.6643   22.6063 H   0  0  0  0  0  0  0  0  0  0  0  0
   11.6640    2.7571   24.2562 H   0  0  0  0  0  0  0  0  0  0  0  0
   10.9199    3.6869   22.9418 H   0  0  0  0  0  0  0  0  0  0  0  0
   12.6374    3.2082   22.8436 H   0  0  0  0  0  0  0  0  0  0  0  0
   10.1820    0.6931   24.6465 H   0  0  0  0  0  0  0  0  0  0  0  0
   10.8960   -0.2488   25.9689 H   0  0  0  0  0  0  0  0  0  0  0  0
   10.5274   -1.0300   24.4062 H   0  0  0  0  0  0  0  0  0  0  0  0
   11.2176    1.7317   21.4386 H   0  0  0  0  0  0  0  0  0  0  0  0
   10.2520    1.3134   22.8560 H   0  0  0  0  0  0  0  0  0  0  0  0
   12.9524   -0.5414   24.6096 H   0  0  0  0  0  0  0  0  0  0  0  0
   12.5872    1.1659   24.8708 H   0  0  0  0  0  0  0  0  0  0  0  0
  1  4  1  0  0  0  0
  1 10  2  0  0  0  0
  2  4  1  0  0  0  0
  2  5  1  0  0  0  0
  2 11  2  0  0  0  0
  3  5  1  0  0  0  0
  3 10  1  0  0  0  0
  3 12  2  0  0  0  0
  5  8  1  0  0  0  0
  5  9  1  0  0  0  0
  6  8  1  0  0  0  0
  7  9  1  0  0  0  0
  1 13  1  0  0  0  0
  4 14  1  0  0  0  0
  4 15  1  0  0  0  0
  6 16  1  0  0  0  0
  6 17  1  0  0  0  0
  6 18  1  0  0  0  0
  7 19  1  0  0  0  0
  7 20  1  0  0  0  0
  7 21  1  0  0  0  0
  8 22  1  0  0  0  0
  8 23  1  0  0  0  0
  9 24  1  0  0  0  0
  9 25  1  0  0  0  0
M  END
> <Hybrid2>
-7.129838

> <docked_fragment>
x0195

> <Mpro-_dock>
2.29663

> <site>
active-noncovalent

$$$$
DB03852
  -OEChem-04122014263D

 29 30  0     0  0  0  0  0  0999 V2000
   13.3400   -2.3357   26.1187 C   0  0  0  0  0  0  0  0  0  0  0  0
   11.9049   -0.4085   25.5838 C   0  0  0  0  0  0  0  0  0  0  0  0
   14.0210   -2.2524   24.7478 C   0  0  0  0  0  0  0  0  0  0  0  0
   12.5464   -0.2720   24.1981 C   0  0  0  0  0  0  0  0  0  0  0  0
   11.8695   -1.8982   25.9759 C   0  0  0  0  0  0  0  0  0  0  0  0
   13.0461   -1.6485   23.7189 C   0  0  0  0  0  0  0  0  0  0  0  0
   11.1934   -2.7178   24.8377 C   0  0  0  0  0  0  0  0  0  0  0  0
   13.6957   -1.5464   22.3428 C   0  0  0  0  0  0  0  0  0  0  0  0
    9.7407   -2.2816   24.5936 C   0  0  0  0  0  0  0  0  0  0  0  0
   11.1896   -4.2254   25.1333 C   0  0  0  0  0  0  0  0  0  0  0  0
   11.9095   -2.5281   23.5986 O   0  0  0  0  0  0  0  0  0  0  0  0
   13.4182   -3.3507   26.5231 H   0  0  0  0  0  0  0  0  0  0  0  0
   13.8629   -1.6889   26.8343 H   0  0  0  0  0  0  0  0  0  0  0  0
   12.4822    0.1658   26.3193 H   0  0  0  0  0  0  0  0  0  0  0  0
   10.9010    0.0298   25.5849 H   0  0  0  0  0  0  0  0  0  0  0  0
   14.9376   -1.6553   24.8215 H   0  0  0  0  0  0  0  0  0  0  0  0
   14.3147   -3.2632   24.4385 H   0  0  0  0  0  0  0  0  0  0  0  0
   11.7954    0.1186   23.4998 H   0  0  0  0  0  0  0  0  0  0  0  0
   13.3659    0.4553   24.2354 H   0  0  0  0  0  0  0  0  0  0  0  0
   11.3428   -2.0260   26.9283 H   0  0  0  0  0  0  0  0  0  0  0  0
   12.9914   -1.1177   21.6306 H   0  0  0  0  0  0  0  0  0  0  0  0
   13.9912   -2.5366   21.9975 H   0  0  0  0  0  0  0  0  0  0  0  0
   14.5788   -0.9104   22.3954 H   0  0  0  0  0  0  0  0  0  0  0  0
    9.3145   -2.8801   23.7942 H   0  0  0  0  0  0  0  0  0  0  0  0
    9.7220   -1.2331   24.3125 H   0  0  0  0  0  0  0  0  0  0  0  0
    9.1641   -2.4250   25.5024 H   0  0  0  0  0  0  0  0  0  0  0  0
   10.7096   -4.7518   24.3139 H   0  0  0  0  0  0  0  0  0  0  0  0
   10.6442   -4.4105   26.0536 H   0  0  0  0  0  0  0  0  0  0  0  0
   12.2124   -4.5740   25.2401 H   0  0  0  0  0  0  0  0  0  0  0  0
  1  3  1  0  0  0  0
  1  5  1  0  0  0  0
  2  4  1  0  0  0  0
  2  5  1  0  0  0  0
  3  6  1  0  0  0  0
  4  6  1  0  0  0  0
  5  7  1  0  0  0  0
  6  8  1  0  0  0  0
  6 11  1  0  0  0  0
  7  9  1  0  0  0  0
  7 10  1  0  0  0  0
  7 11  1  0  0  0  0
  1 12  1  0  0  0  0
  1 13  1  0  0  0  0
  2 14  1  0  0  0  0
  2 15  1  0  0  0  0
  3 16  1  0  0  0  0
  3 17  1  0  0  0  0
  4 18  1  0  0  0  0
  4 19  1  0  0  0  0
  5 20  1  0  0  0  0
  8 21  1  0  0  0  0
  8 22  1  0  0  0  0
  8 23  1  0  0  0  0
  9 24  1  0  0  0  0
  9 25  1  0  0  0  0
  9 26  1  0  0  0  0
 10 27  1  0  0  0  0
 10 28  1  0  0  0  0
 10 29  1  0  0  0  0
M  END
> <Hybrid2>
-7.124851

> <docked_fragment>
x0354

> <Mpro-_dock>
2.976404

> <site>
active-noncovalent

$$$$
DB01742
  -OEChem-04122014263D

 25 25  0     1  0  0  0  0  0999 V2000
   12.6640    2.0134   22.9504 C   0  0  0  0  0  0  0  0  0  0  0  0
   11.1124   -1.1962   22.7370 C   0  0  0  0  0  0  0  0  0  0  0  0
   12.2758   -2.1640   22.9577 C   0  0  0  0  0  0  0  0  0  0  0  0
   11.2753    0.0652   23.5794 C   0  0  0  0  0  0  0  0  0  0  0  0
   13.7302   -0.2017   23.6071 C   0  0  0  0  0  0  0  0  0  0  0  0
   13.6454   -1.4896   22.7737 C   0  0  2  0  0  0  0  0  0  0  0  0
   11.5615    2.9282   23.4207 C   0  0  0  0  0  0  0  0  0  0  0  0
   13.9468   -1.2131   21.2980 C   0  0  0  0  0  0  0  0  0  0  0  0
   12.5836    0.6805   23.3518 N   0  0  0  0  0  0  0  0  0  0  0  0
   13.5699    2.4720   22.2499 O   0  0  0  0  0  0  0  0  0  0  0  0
   11.0554   -0.9273   21.6763 H   0  0  0  0  0  0  0  0  0  0  0  0
   10.1674   -1.6907   22.9939 H   0  0  0  0  0  0  0  0  0  0  0  0
   12.2028   -2.5957   23.9696 H   0  0  0  0  0  0  0  0  0  0  0  0
   12.1789   -3.0106   22.2562 H   0  0  0  0  0  0  0  0  0  0  0  0
   10.5134    0.8074   23.3109 H   0  0  0  0  0  0  0  0  0  0  0  0
   11.1352   -0.1768   24.6382 H   0  0  0  0  0  0  0  0  0  0  0  0
   13.8147   -0.4563   24.6688 H   0  0  0  0  0  0  0  0  0  0  0  0
   14.6353    0.3682   23.3492 H   0  0  0  0  0  0  0  0  0  0  0  0
   14.4228   -2.1840   23.1455 H   0  0  0  0  0  0  0  0  0  0  0  0
   11.8442    3.3643   24.3731 H   0  0  0  0  0  0  0  0  0  0  0  0
   10.6470    2.3546   23.5323 H   0  0  0  0  0  0  0  0  0  0  0  0
   11.4113    3.7111   22.6842 H   0  0  0  0  0  0  0  0  0  0  0  0
   13.2025   -0.5308   20.8902 H   0  0  0  0  0  0  0  0  0  0  0  0
   13.9222   -2.1448   20.7349 H   0  0  0  0  0  0  0  0  0  0  0  0
   14.9338   -0.7635   21.2002 H   0  0  0  0  0  0  0  0  0  0  0  0
  1  7  1  0  0  0  0
  1  9  1  0  0  0  0
  1 10  2  0  0  0  0
  2  3  1  0  0  0  0
  2  4  1  0  0  0  0
  3  6  1  0  0  0  0
  4  9  1  0  0  0  0
  5  6  1  0  0  0  0
  5  9  1  0  0  0  0
  6  8  1  0  0  0  0
  2 11  1  0  0  0  0
  2 12  1  0  0  0  0
  3 13  1  0  0  0  0
  3 14  1  0  0  0  0
  4 15  1  0  0  0  0
  4 16  1  0  0  0  0
  5 17  1  0  0  0  0
  5 18  1  0  0  0  0
  6 19  1  0  0  0  0
  7 20  1  0  0  0  0
  7 21  1  0  0  0  0
  7 22  1  0  0  0  0
  8 23  1  0  0  0  0
  8 24  1  0  0  0  0
  8 25  1  0  0  0  0
M  END
> <Hybrid2>
-7.121165

> <docked_fragment>
x0195

> <Mpro-_dock>
1.154715

> <site>
active-noncovalent

$$$$
CHEMBL1159684
  -OEChem-04122014263D

 26 27  0     1  0  0  0  0  0999 V2000
   13.7361   -2.1185   22.5941 C   0  0  0  0  0  0  0  0  0  0  0  0
   14.4854   -1.1211   21.9744 C   0  0  0  0  0  0  0  0  0  0  0  0
   12.5782   -1.7873   23.2978 C   0  0  0  0  0  0  0  0  0  0  0  0
   14.0763    0.2107   22.0508 C   0  0  0  0  0  0  0  0  0  0  0  0
   12.1672   -0.4514   23.3818 C   0  0  0  0  0  0  0  0  0  0  0  0
   12.9119    0.5491   22.7518 C   0  0  0  0  0  0  0  0  0  0  0  0
   10.9568   -0.1173   24.1619 C   0  0  0  0  0  0  0  0  0  0  0  0
   12.4744    1.9655   22.7849 C   0  0  0  0  0  0  0  0  0  0  0  0
   10.6952    1.3392   24.4552 C   0  0  0  0  0  0  0  0  0  0  0  0
   11.0734    2.2676   23.3028 C   0  0  1  0  0  0  0  0  0  0  0  0
   10.9915    3.7232   23.7827 C   0  0  0  0  0  0  0  0  0  0  0  0
   10.1356    0.6688   21.5754 O   0  5  0  0  0  0  0  0  0  0  0  0
   10.2332   -1.0028   24.6072 O   0  0  0  0  0  0  0  0  0  0  0  0
   13.2151    2.8391   22.3411 O   0  0  0  0  0  0  0  0  0  0  0  0
    8.6541    2.3775   22.5579 O   0  0  0  0  0  0  0  0  0  0  0  0
   10.4273    3.0436   20.9791 O   0  0  0  0  0  0  0  0  0  0  0  0
    9.9332    2.0645   21.9367 S   0  0  0  0  0  0  0  0  0  0  0  0
   14.0516   -3.1555   22.5262 H   0  0  0  0  0  0  0  0  0  0  0  0
   15.3916   -1.3796   21.4345 H   0  0  0  0  0  0  0  0  0  0  0  0
   12.0059   -2.5846   23.7648 H   0  0  0  0  0  0  0  0  0  0  0  0
   14.6849    0.9700   21.5664 H   0  0  0  0  0  0  0  0  0  0  0  0
    9.6272    1.4267   24.7002 H   0  0  0  0  0  0  0  0  0  0  0  0
   11.2544    1.6150   25.3599 H   0  0  0  0  0  0  0  0  0  0  0  0
    9.9896    3.9283   24.1497 H   0  0  0  0  0  0  0  0  0  0  0  0
   11.2175    4.3908   22.9558 H   0  0  0  0  0  0  0  0  0  0  0  0
   11.7095    3.8821   24.5827 H   0  0  0  0  0  0  0  0  0  0  0  0
  1  2  1  0  0  0  0
  1  3  2  0  0  0  0
  2  4  2  0  0  0  0
  3  5  1  0  0  0  0
  4  6  1  0  0  0  0
  5  6  2  0  0  0  0
  5  7  1  0  0  0  0
  6  8  1  0  0  0  0
  7  9  1  0  0  0  0
  7 13  2  0  0  0  0
  8 10  1  0  0  0  0
  8 14  2  0  0  0  0
  9 10  1  0  0  0  0
 10 11  1  0  0  0  0
 10 17  1  0  0  0  0
 12 17  1  0  0  0  0
 15 17  2  0  0  0  0
 16 17  2  0  0  0  0
  1 18  1  0  0  0  0
  2 19  1  0  0  0  0
  3 20  1  0  0  0  0
  4 21  1  0  0  0  0
  9 22  1  0  0  0  0
  9 23  1  0  0  0  0
 11 24  1  0  0  0  0
 11 25  1  0  0  0  0
 11 26  1  0  0  0  0
M  CHG  1  12  -1
M  END
> <Hybrid2>
-7.114249

> <docked_fragment>
x0195

> <Mpro-_dock>
0.251391

> <site>
active-noncovalent

$$$$
DB07954
  -OEChem-04122014263D

 30 31  0     0  0  0  0  0  0999 V2000
   10.1531    0.0939   25.0661 C   0  0  0  0  0  0  0  0  0  0  0  0
   11.0878    1.7108   23.9052 C   0  0  0  0  0  0  0  0  0  0  0  0
   11.9200    0.6313   24.0239 C   0  0  0  0  0  0  0  0  0  0  0  0
   11.4151    2.9127   23.2089 C   0  0  0  0  0  0  0  0  0  0  0  0
   13.6443    1.7485   22.7382 C   0  0  0  0  0  0  0  0  0  0  0  0
   12.1803   -2.1520   22.9231 C   0  0  0  0  0  0  0  0  0  0  0  0
   13.8170   -1.3228   21.2031 C   0  0  0  0  0  0  0  0  0  0  0  0
   13.1472    4.0382   21.9171 C   0  0  0  0  0  0  0  0  0  0  0  0
   14.0380   -0.5574   23.6148 C   0  0  0  0  0  0  0  0  0  0  0  0
   13.6176   -1.6927   22.6736 C   0  0  0  0  0  0  0  0  0  0  0  0
   11.3409   -0.3770   24.7465 N   0  0  0  0  0  0  0  0  0  0  0  0
    9.9526    1.3591   24.5775 N   0  0  0  0  0  0  0  0  0  0  0  0
   13.1882    0.6170   23.4596 N   0  0  0  0  0  0  0  0  0  0  0  0
   12.7200    2.8515   22.6512 N   0  0  0  0  0  0  0  0  0  0  0  0
   10.6536    3.8714   23.1129 O   0  0  0  0  0  0  0  0  0  0  0  0
   14.7644    1.7849   22.2169 O   0  0  0  0  0  0  0  0  0  0  0  0
    9.3979   -0.4227   25.6413 H   0  0  0  0  0  0  0  0  0  0  0  0
   11.4574   -1.3529   22.7296 H   0  0  0  0  0  0  0  0  0  0  0  0
   11.9274   -2.9931   22.2684 H   0  0  0  0  0  0  0  0  0  0  0  0
   12.0526   -2.4857   23.9582 H   0  0  0  0  0  0  0  0  0  0  0  0
   13.1915   -0.4732   20.9098 H   0  0  0  0  0  0  0  0  0  0  0  0
   13.5574   -2.1670   20.5552 H   0  0  0  0  0  0  0  0  0  0  0  0
   14.8620   -1.0610   21.0063 H   0  0  0  0  0  0  0  0  0  0  0  0
   13.6466    4.7359   22.6055 H   0  0  0  0  0  0  0  0  0  0  0  0
   13.8473    3.7445   21.1211 H   0  0  0  0  0  0  0  0  0  0  0  0
   12.2696    4.5289   21.4708 H   0  0  0  0  0  0  0  0  0  0  0  0
   13.9901   -0.8842   24.6592 H   0  0  0  0  0  0  0  0  0  0  0  0
   15.0719   -0.2600   23.4074 H   0  0  0  0  0  0  0  0  0  0  0  0
   14.2739   -2.5463   22.8889 H   0  0  0  0  0  0  0  0  0  0  0  0
    9.1203    1.9218   24.6955 H   0  0  0  0  0  0  0  0  0  0  0  0
  1 11  2  0  0  0  0
  1 12  1  0  0  0  0
  2  3  2  0  0  0  0
  2  4  1  0  0  0  0
  2 12  1  0  0  0  0
  3 11  1  0  0  0  0
  3 13  1  0  0  0  0
  4 14  1  0  0  0  0
  4 15  2  0  0  0  0
  5 13  1  0  0  0  0
  5 14  1  0  0  0  0
  5 16  2  0  0  0  0
  6 10  1  0  0  0  0
  7 10  1  0  0  0  0
  8 14  1  0  0  0  0
  9 10  1  0  0  0  0
  9 13  1  0  0  0  0
  1 17  1  0  0  0  0
  6 18  1  0  0  0  0
  6 19  1  0  0  0  0
  6 20  1  0  0  0  0
  7 21  1  0  0  0  0
  7 22  1  0  0  0  0
  7 23  1  0  0  0  0
  8 24  1  0  0  0  0
  8 25  1  0  0  0  0
  8 26  1  0  0  0  0
  9 27  1  0  0  0  0
  9 28  1  0  0  0  0
 10 29  1  0  0  0  0
 12 30  1  0  0  0  0
M  END
> <Hybrid2>
-7.113242

> <docked_fragment>
x0195

> <Mpro-_dock>
-0.455384

> <site>
active-noncovalent

$$$$
CHEMBL116943
  -OEChem-04122014263D

 20 21  0     0  0  0  0  0  0999 V2000
   11.7291    0.9345   23.7087 C   0  0  0  0  0  0  0  0  0  0  0  0
   11.3812   -0.4860   23.9804 C   0  0  0  0  0  0  0  0  0  0  0  0
   11.8824   -1.4453   22.9058 C   0  0  0  0  0  0  0  0  0  0  0  0
   13.3649   -1.8046   23.0342 C   0  0  0  0  0  0  0  0  0  0  0  0
   14.3074   -0.6580   23.4057 C   0  0  0  0  0  0  0  0  0  0  0  0
   14.0335    0.6390   22.6530 C   0  0  0  0  0  0  0  0  0  0  0  0
   10.9835    1.9904   23.9712 N   0  0  0  0  0  0  0  0  0  0  0  0
   11.6992    3.0833   23.5478 N   0  0  0  0  0  0  0  0  0  0  0  0
   12.8648    2.7188   23.0339 N   0  0  0  0  0  0  0  0  0  0  0  0
   12.8933    1.3795   23.1418 N   0  0  0  0  0  0  0  0  0  0  0  0
   11.7617   -0.7780   24.9687 H   0  0  0  0  0  0  0  0  0  0  0  0
   10.2863   -0.5641   24.0362 H   0  0  0  0  0  0  0  0  0  0  0  0
   11.3088   -2.3769   22.9912 H   0  0  0  0  0  0  0  0  0  0  0  0
   11.6818   -1.0449   21.9043 H   0  0  0  0  0  0  0  0  0  0  0  0
   13.4845   -2.6305   23.7550 H   0  0  0  0  0  0  0  0  0  0  0  0
   13.6965   -2.2089   22.0635 H   0  0  0  0  0  0  0  0  0  0  0  0
   14.1849   -0.4598   24.4782 H   0  0  0  0  0  0  0  0  0  0  0  0
   15.3486   -0.9725   23.2599 H   0  0  0  0  0  0  0  0  0  0  0  0
   14.9002    1.3166   22.6856 H   0  0  0  0  0  0  0  0  0  0  0  0
   13.8439    0.4105   21.5928 H   0  0  0  0  0  0  0  0  0  0  0  0
  1  2  1  0  0  0  0
  1  7  2  0  0  0  0
  1 10  1  0  0  0  0
  2  3  1  0  0  0  0
  3  4  1  0  0  0  0
  4  5  1  0  0  0  0
  5  6  1  0  0  0  0
  6 10  1  0  0  0  0
  7  8  1  0  0  0  0
  8  9  2  0  0  0  0
  9 10  1  0  0  0  0
  2 11  1  0  0  0  0
  2 12  1  0  0  0  0
  3 13  1  0  0  0  0
  3 14  1  0  0  0  0
  4 15  1  0  0  0  0
  4 16  1  0  0  0  0
  5 17  1  0  0  0  0
  5 18  1  0  0  0  0
  6 19  1  0  0  0  0
  6 20  1  0  0  0  0
M  END
> <Hybrid2>
-7.112023

> <docked_fragment>
x0195

> <Mpro-_dock>
-0.824485

> <site>
active-noncovalent

$$$$
CHEMBL289116
  -OEChem-04122014263D

 30 31  0     1  0  0  0  0  0999 V2000
   13.2570    1.8794   22.2754 C   0  0  0  0  0  0  0  0  0  0  0  0
   11.7297    1.3834   24.0659 C   0  0  0  0  0  0  0  0  0  0  0  0
   12.8634    3.2039   22.3788 C   0  0  0  0  0  0  0  0  0  0  0  0
   11.4046    2.7301   24.0892 C   0  0  0  0  0  0  0  0  0  0  0  0
   12.6746    0.9581   23.1387 C   0  0  0  0  0  0  0  0  0  0  0  0
   10.5341   -1.9338   22.4990 C   0  0  0  0  0  0  0  0  0  0  0  0
   12.7843   -1.1559   21.6951 C   0  0  0  0  0  0  0  0  0  0  0  0
   10.8466   -1.4195   23.8805 C   0  0  0  0  0  0  0  0  0  0  0  0
   12.3458   -1.3774   24.1332 C   0  0  0  0  0  0  0  0  0  0  0  0
   13.0735   -0.5266   23.0678 C   0  0  2  0  0  0  0  0  0  0  0  0
   15.0557   -2.0564   23.2555 C   0  0  0  0  0  0  0  0  0  0  0  0
   14.5968   -0.6384   23.3103 C   0  0  0  0  0  0  0  0  0  0  0  0
   11.9490    3.6546   23.2666 N   0  0  0  0  0  0  0  0  0  0  0  0
   11.5334   -1.7550   21.5498 N   0  0  0  0  0  0  0  0  0  0  0  0
    9.4430   -2.4381   22.2343 O   0  0  0  0  0  0  0  0  0  0  0  0
   13.5824   -1.0932   20.7579 O   0  0  0  0  0  0  0  0  0  0  0  0
   13.9963    1.5795   21.5404 H   0  0  0  0  0  0  0  0  0  0  0  0
   11.2580    0.6889   24.7526 H   0  0  0  0  0  0  0  0  0  0  0  0
   13.2870    3.9615   21.7275 H   0  0  0  0  0  0  0  0  0  0  0  0
   10.6734    3.1123   24.7938 H   0  0  0  0  0  0  0  0  0  0  0  0
   10.3885   -0.4312   23.9930 H   0  0  0  0  0  0  0  0  0  0  0  0
   10.3769   -2.0894   24.6095 H   0  0  0  0  0  0  0  0  0  0  0  0
   12.5259   -0.9706   25.1364 H   0  0  0  0  0  0  0  0  0  0  0  0
   12.7427   -2.4018   24.1258 H   0  0  0  0  0  0  0  0  0  0  0  0
   14.5281   -2.6394   24.0195 H   0  0  0  0  0  0  0  0  0  0  0  0
   16.1301   -2.1294   23.4546 H   0  0  0  0  0  0  0  0  0  0  0  0
   14.8389   -2.5015   22.2787 H   0  0  0  0  0  0  0  0  0  0  0  0
   15.1173   -0.0505   22.5525 H   0  0  0  0  0  0  0  0  0  0  0  0
   14.8294   -0.2108   24.2869 H   0  0  0  0  0  0  0  0  0  0  0  0
   11.3283   -2.1202   20.6235 H   0  0  0  0  0  0  0  0  0  0  0  0
  1  3  2  0  0  0  0
  1  5  1  0  0  0  0
  2  4  1  0  0  0  0
  2  5  2  0  0  0  0
  3 13  1  0  0  0  0
  4 13  2  0  0  0  0
  5 10  1  0  0  0  0
  6  8  1  0  0  0  0
  6 14  1  0  0  0  0
  6 15  2  0  0  0  0
  7 10  1  0  0  0  0
  7 14  1  0  0  0  0
  7 16  2  0  0  0  0
  8  9  1  0  0  0  0
  9 10  1  0  0  0  0
 10 12  1  0  0  0  0
 11 12  1  0  0  0  0
  1 17  1  0  0  0  0
  2 18  1  0  0  0  0
  3 19  1  0  0  0  0
  4 20  1  0  0  0  0
  8 21  1  0  0  0  0
  8 22  1  0  0  0  0
  9 23  1  0  0  0  0
  9 24  1  0  0  0  0
 11 25  1  0  0  0  0
 11 26  1  0  0  0  0
 11 27  1  0  0  0  0
 12 28  1  0  0  0  0
 12 29  1  0  0  0  0
 14 30  1  0  0  0  0
M  END
> <Hybrid2>
-7.109794

> <docked_fragment>
x0195

> <Mpro-_dock>
-0.461566

> <site>
active-noncovalent

$$$$
CHEMBL256087
  -OEChem-04122014263D

 31 31  0     1  0  0  0  0  0999 V2000
   11.3636    2.1698   24.1476 C   0  0  0  0  0  0  0  0  0  0  0  0
   11.4274    0.6785   23.8247 C   0  0  0  0  0  0  0  0  0  0  0  0
   13.3253    2.5870   22.6208 C   0  0  0  0  0  0  0  0  0  0  0  0
   11.9045    3.0220   22.9935 C   0  0  2  0  0  0  0  0  0  0  0  0
   12.8473    0.2363   23.4476 C   0  0  2  0  0  0  0  0  0  0  0  0
   13.3991    1.0933   22.2964 C   0  0  2  0  0  0  0  0  0  0  0  0
   11.8718    4.5052   23.3567 C   0  0  0  0  0  0  0  0  0  0  0  0
   11.6061   -1.6278   22.3132 C   0  0  0  0  0  0  0  0  0  0  0  0
   14.1165   -1.5968   22.2942 C   0  0  0  0  0  0  0  0  0  0  0  0
   12.8629   -1.2528   23.0924 C   0  0  0  0  0  0  0  0  0  0  0  0
   14.7596    0.7413   22.0568 O   0  0  0  0  0  0  0  0  0  0  0  0
   10.3249    2.4481   24.3621 H   0  0  0  0  0  0  0  0  0  0  0  0
   11.9402    2.3665   25.0606 H   0  0  0  0  0  0  0  0  0  0  0  0
   11.0763    0.1081   24.6930 H   0  0  0  0  0  0  0  0  0  0  0  0
   10.7366    0.4581   23.0006 H   0  0  0  0  0  0  0  0  0  0  0  0
   13.6851    3.1632   21.7586 H   0  0  0  0  0  0  0  0  0  0  0  0
   14.0215    2.8182   23.4388 H   0  0  0  0  0  0  0  0  0  0  0  0
   11.2563    2.8743   22.1196 H   0  0  0  0  0  0  0  0  0  0  0  0
   13.5019    0.3635   24.3193 H   0  0  0  0  0  0  0  0  0  0  0  0
   12.8350    0.8929   21.3764 H   0  0  0  0  0  0  0  0  0  0  0  0
   12.5064    4.6872   24.2224 H   0  0  0  0  0  0  0  0  0  0  0  0
   10.8520    4.8048   23.5926 H   0  0  0  0  0  0  0  0  0  0  0  0
   12.2332    5.0985   22.5183 H   0  0  0  0  0  0  0  0  0  0  0  0
   11.5442   -1.0798   21.3666 H   0  0  0  0  0  0  0  0  0  0  0  0
   10.7054   -1.4030   22.8939 H   0  0  0  0  0  0  0  0  0  0  0  0
   11.5988   -2.6989   22.0852 H   0  0  0  0  0  0  0  0  0  0  0  0
   14.1508   -1.0477   21.3470 H   0  0  0  0  0  0  0  0  0  0  0  0
   14.1472   -2.6676   22.0663 H   0  0  0  0  0  0  0  0  0  0  0  0
   15.0201   -1.3496   22.8615 H   0  0  0  0  0  0  0  0  0  0  0  0
   12.8770   -1.8256   24.0261 H   0  0  0  0  0  0  0  0  0  0  0  0
   15.2457    0.9482   22.8699 H   0  0  0  0  0  0  0  0  0  0  0  0
  1  2  1  0  0  0  0
  1  4  1  0  0  0  0
  2  5  1  0  0  0  0
  3  4  1  0  0  0  0
  3  6  1  0  0  0  0
  4  7  1  0  0  0  0
  5  6  1  0  0  0  0
  5 10  1  0  0  0  0
  6 11  1  0  0  0  0
  8 10  1  0  0  0  0
  9 10  1  0  0  0  0
  1 12  1  0  0  0  0
  1 13  1  0  0  0  0
  2 14  1  0  0  0  0
  2 15  1  0  0  0  0
  3 16  1  0  0  0  0
  3 17  1  0  0  0  0
  4 18  1  0  0  0  0
  5 19  1  0  0  0  0
  6 20  1  0  0  0  0
  7 21  1  0  0  0  0
  7 22  1  0  0  0  0
  7 23  1  0  0  0  0
  8 24  1  0  0  0  0
  8 25  1  0  0  0  0
  8 26  1  0  0  0  0
  9 27  1  0  0  0  0
  9 28  1  0  0  0  0
  9 29  1  0  0  0  0
 10 30  1  0  0  0  0
 11 31  1  0  0  0  0
M  END
> <Hybrid2>
-7.082570

> <docked_fragment>
x0195

> <Mpro-_dock>
0.501388

> <site>
active-noncovalent

$$$$
CHEMBL1200790
  -OEChem-04122014263D

 30 30  0     1  0  0  0  0  0999 V2000
   12.4008   -0.5870   23.7719 C   0  0  0  0  0  0  0  0  0  0  0  0
   11.2008    0.1788   21.6107 C   0  0  0  0  0  0  0  0  0  0  0  0
   11.5803   -2.2273   22.0977 C   0  0  0  0  0  0  0  0  0  0  0  0
   12.7317   -1.8642   23.0229 C   0  0  1  0  0  0  0  0  0  0  0  0
   11.4727    0.4338   23.0996 C   0  0  0  0  0  0  0  0  0  0  0  0
   14.0569   -1.6965   22.2862 C   0  0  0  0  0  0  0  0  0  0  0  0
    9.5052   -0.9543   23.7672 C   0  0  0  0  0  0  0  0  0  0  0  0
   13.4465    1.8893   22.6083 C   0  0  0  0  0  0  0  0  0  0  0  0
   10.1253    0.3988   23.8355 C   0  0  0  0  0  0  0  0  0  0  0  0
   12.1034    1.8281   23.2511 C   0  0  0  0  0  0  0  0  0  0  0  0
   11.2534   -1.1378   21.2074 N   0  0  0  0  0  0  0  0  0  0  0  0
   12.8832   -0.3844   24.8892 O   0  0  0  0  0  0  0  0  0  0  0  0
   10.9003    1.0851   20.8320 O   0  0  0  0  0  0  0  0  0  0  0  0
   11.8173   -3.1038   21.4751 H   0  0  0  0  0  0  0  0  0  0  0  0
   10.6715   -2.4636   22.6708 H   0  0  0  0  0  0  0  0  0  0  0  0
   12.8658   -2.6510   23.7909 H   0  0  0  0  0  0  0  0  0  0  0  0
   13.9616   -0.9274   21.5203 H   0  0  0  0  0  0  0  0  0  0  0  0
   14.3400   -2.6359   21.8122 H   0  0  0  0  0  0  0  0  0  0  0  0
   14.8376   -1.4037   22.9878 H   0  0  0  0  0  0  0  0  0  0  0  0
    9.3459   -1.2264   22.7172 H   0  0  0  0  0  0  0  0  0  0  0  0
    8.5337   -0.9683   24.2727 H   0  0  0  0  0  0  0  0  0  0  0  0
   10.1574   -1.7094   24.2186 H   0  0  0  0  0  0  0  0  0  0  0  0
   14.1050    1.1467   23.0741 H   0  0  0  0  0  0  0  0  0  0  0  0
   13.9015    2.8767   22.7403 H   0  0  0  0  0  0  0  0  0  0  0  0
   13.3815    1.6623   21.5389 H   0  0  0  0  0  0  0  0  0  0  0  0
   10.2895    0.6825   24.8751 H   0  0  0  0  0  0  0  0  0  0  0  0
    9.4628    1.1365   23.3828 H   0  0  0  0  0  0  0  0  0  0  0  0
   11.4384    2.5626   22.7962 H   0  0  0  0  0  0  0  0  0  0  0  0
   12.1875    2.0589   24.3133 H   0  0  0  0  0  0  0  0  0  0  0  0
   11.0521   -1.3527   20.2353 H   0  0  0  0  0  0  0  0  0  0  0  0
  1  4  1  0  0  0  0
  1  5  1  0  0  0  0
  1 12  2  0  0  0  0
  2  5  1  0  0  0  0
  2 11  1  0  0  0  0
  2 13  2  0  0  0  0
  3  4  1  0  0  0  0
  3 11  1  0  0  0  0
  4  6  1  0  0  0  0
  5  9  1  0  0  0  0
  5 10  1  0  0  0  0
  7  9  1  0  0  0  0
  8 10  1  0  0  0  0
  3 14  1  0  0  0  0
  3 15  1  0  0  0  0
  4 16  1  0  0  0  0
  6 17  1  0  0  0  0
  6 18  1  0  0  0  0
  6 19  1  0  0  0  0
  7 20  1  0  0  0  0
  7 21  1  0  0  0  0
  7 22  1  0  0  0  0
  8 23  1  0  0  0  0
  8 24  1  0  0  0  0
  8 25  1  0  0  0  0
  9 26  1  0  0  0  0
  9 27  1  0  0  0  0
 10 28  1  0  0  0  0
 10 29  1  0  0  0  0
 11 30  1  0  0  0  0
M  END
> <Hybrid2>
-7.069792

> <docked_fragment>
x0678

> <Mpro-_dock>
2.443968

> <site>
active-noncovalent

$$$$
DB02386
  -OEChem-04122014263D

 23 22  0     1  0  0  0  0  0999 V2000
    8.3281   -5.7782   21.7394 C   0  0  0  0  0  0  0  0  0  0  0  0
    6.8806   -5.1993   23.6971 C   0  0  0  0  0  0  0  0  0  0  0  0
    7.7308   -3.3703   22.1342 C   0  0  0  0  0  0  0  0  0  0  0  0
    7.2450   -4.8280   22.2594 C   0  0  0  0  0  0  0  0  0  0  0  0
    8.0696   -2.8855   20.7148 C   0  0  2  0  0  0  0  0  0  0  0  0
    9.0129   -1.7292   20.7943 N   0  3  0  0  0  0  0  0  0  0  0  0
    7.0226   -2.0844   18.3779 O   0  5  0  0  0  0  0  0  0  0  0  0
    5.7833   -3.9051   19.7170 O   0  5  0  0  0  0  0  0  0  0  0  0
    5.7873   -1.4631   20.5548 O   0  0  0  0  0  0  0  0  0  0  0  0
    6.4665   -2.5429   19.7211 P   0  0  0  0  0  0  0  0  0  0  0  0
    9.2496   -5.6894   22.3247 H   0  0  0  0  0  0  0  0  0  0  0  0
    7.9914   -6.8190   21.7939 H   0  0  0  0  0  0  0  0  0  0  0  0
    8.5675   -5.5602   20.6933 H   0  0  0  0  0  0  0  0  0  0  0  0
    7.7342   -5.0738   24.3700 H   0  0  0  0  0  0  0  0  0  0  0  0
    6.0765   -4.5569   24.0720 H   0  0  0  0  0  0  0  0  0  0  0  0
    6.5415   -6.2386   23.7647 H   0  0  0  0  0  0  0  0  0  0  0  0
    8.6157   -3.2360   22.7699 H   0  0  0  0  0  0  0  0  0  0  0  0
    6.9645   -2.7052   22.5521 H   0  0  0  0  0  0  0  0  0  0  0  0
    6.3586   -4.9712   21.6302 H   0  0  0  0  0  0  0  0  0  0  0  0
    8.5872   -3.6607   20.1405 H   0  0  0  0  0  0  0  0  0  0  0  0
    9.9225   -1.9979   21.1913 H   0  0  0  0  0  0  0  0  0  0  0  0
    8.6284   -0.9683   21.3694 H   0  0  0  0  0  0  0  0  0  0  0  0
    9.1937   -1.3442   19.8580 H   0  0  0  0  0  0  0  0  0  0  0  0
  1  4  1  0  0  0  0
  2  4  1  0  0  0  0
  3  4  1  0  0  0  0
  3  5  1  0  0  0  0
  5  6  1  0  0  0  0
  5 10  1  0  0  0  0
  7 10  1  0  0  0  0
  8 10  1  0  0  0  0
  9 10  2  0  0  0  0
  1 11  1  0  0  0  0
  1 12  1  0  0  0  0
  1 13  1  0  0  0  0
  2 14  1  0  0  0  0
  2 15  1  0  0  0  0
  2 16  1  0  0  0  0
  3 17  1  0  0  0  0
  3 18  1  0  0  0  0
  4 19  1  0  0  0  0
  5 20  1  0  0  0  0
  6 21  1  0  0  0  0
  6 22  1  0  0  0  0
  6 23  1  0  0  0  0
M  CHG  3   6   1   7  -1   8  -1
M  END
> <Hybrid2>
-7.059947

> <docked_fragment>
x0397

> <Mpro-_dock>
0.368219

> <site>
active-noncovalent

$$$$
CHEMBL9419
  -OEChem-04122014263D

 20 20  0     0  0  0  0  0  0999 V2000
   14.1244   -1.7771   22.4153 C   0  0  0  0  0  0  0  0  0  0  0  0
   14.4705   -0.4436   22.1969 C   0  0  0  0  0  0  0  0  0  0  0  0
   12.8527   -2.0989   22.8894 C   0  0  0  0  0  0  0  0  0  0  0  0
   12.2731    0.2463   22.9268 C   0  0  0  0  0  0  0  0  0  0  0  0
   13.5449    0.5680   22.4527 C   0  0  0  0  0  0  0  0  0  0  0  0
   11.9271   -1.0872   23.1452 C   0  0  0  0  0  0  0  0  0  0  0  0
   13.1039    3.0438   22.4312 C   0  0  0  0  0  0  0  0  0  0  0  0
   13.8497    4.3055   22.0758 C   0  0  0  0  0  0  0  0  0  0  0  0
   13.8915    1.9018   22.2338 N   0  0  0  0  0  0  0  0  0  0  0  0
   11.9487    3.0914   22.8412 O   0  0  0  0  0  0  0  0  0  0  0  0
   10.6861   -1.4012   23.6080 O   0  0  0  0  0  0  0  0  0  0  0  0
   14.8450   -2.5645   22.2152 H   0  0  0  0  0  0  0  0  0  0  0  0
   15.4646   -0.2045   21.8278 H   0  0  0  0  0  0  0  0  0  0  0  0
   12.5893   -3.1396   23.0568 H   0  0  0  0  0  0  0  0  0  0  0  0
   11.5478    1.0316   23.1273 H   0  0  0  0  0  0  0  0  0  0  0  0
   13.6894    4.5456   21.0210 H   0  0  0  0  0  0  0  0  0  0  0  0
   14.9204    4.1636   22.2482 H   0  0  0  0  0  0  0  0  0  0  0  0
   13.4988    5.1343   22.6977 H   0  0  0  0  0  0  0  0  0  0  0  0
   14.8414    2.0744   21.8852 H   0  0  0  0  0  0  0  0  0  0  0  0
   10.1612   -0.5951   23.7364 H   0  0  0  0  0  0  0  0  0  0  0  0
  1  2  2  0  0  0  0
  1  3  1  0  0  0  0
  2  5  1  0  0  0  0
  3  6  2  0  0  0  0
  4  5  2  0  0  0  0
  4  6  1  0  0  0  0
  5  9  1  0  0  0  0
  6 11  1  0  0  0  0
  7  8  1  0  0  0  0
  7  9  1  0  0  0  0
  7 10  2  0  0  0  0
  1 12  1  0  0  0  0
  2 13  1  0  0  0  0
  3 14  1  0  0  0  0
  4 15  1  0  0  0  0
  8 16  1  0  0  0  0
  8 17  1  0  0  0  0
  8 18  1  0  0  0  0
  9 19  1  0  0  0  0
 11 20  1  0  0  0  0
M  END
> <Hybrid2>
-7.043998

> <docked_fragment>
x0195

> <Mpro-_dock>
-1.843277

> <site>
active-noncovalent

$$$$
DB03842
  -OEChem-04122014263D

 21 21  0     1  0  0  0  0  0999 V2000
   12.2263   -0.3189   24.1144 C   0  0  0  0  0  0  0  0  0  0  0  0
   11.0436   -0.9411   24.2101 C   0  0  0  0  0  0  0  0  0  0  0  0
   13.1872   -0.6750   23.1004 C   0  0  0  0  0  0  0  0  0  0  0  0
   12.8796   -1.5382   22.1161 C   0  0  0  0  0  0  0  0  0  0  0  0
   10.6423   -1.9748   23.2702 C   0  0  0  0  0  0  0  0  0  0  0  0
    9.5580   -2.7320   23.5043 C   0  0  0  0  0  0  0  0  0  0  0  0
   11.4938   -2.1661   22.0172 C   0  0  1  0  0  0  0  0  0  0  0  0
   13.8917   -1.9411   21.0823 C   0  0  0  0  0  0  0  0  0  0  0  0
   10.7661   -1.6706   20.7977 N   0  3  0  0  0  0  0  0  0  0  0  0
   12.5087    0.4434   24.8326 H   0  0  0  0  0  0  0  0  0  0  0  0
   10.3681   -0.6822   25.0203 H   0  0  0  0  0  0  0  0  0  0  0  0
   14.1727   -0.2271   23.1744 H   0  0  0  0  0  0  0  0  0  0  0  0
    9.2656   -3.4980   22.8019 H   0  0  0  0  0  0  0  0  0  0  0  0
    8.9695   -2.5811   24.3968 H   0  0  0  0  0  0  0  0  0  0  0  0
   11.6221   -3.2443   21.8530 H   0  0  0  0  0  0  0  0  0  0  0  0
   14.4301   -2.8201   21.4275 H   0  0  0  0  0  0  0  0  0  0  0  0
   14.5903   -1.1233   20.9222 H   0  0  0  0  0  0  0  0  0  0  0  0
   13.3836   -2.1663   20.1478 H   0  0  0  0  0  0  0  0  0  0  0  0
   10.5242   -2.4556   20.1958 H   0  0  0  0  0  0  0  0  0  0  0  0
   11.3594   -1.0247   20.2796 H   0  0  0  0  0  0  0  0  0  0  0  0
    9.9128   -1.1889   21.0755 H   0  0  0  0  0  0  0  0  0  0  0  0
  1  2  2  0  0  0  0
  1  3  1  0  0  0  0
  2  5  1  0  0  0  0
  3  4  2  0  0  0  0
  4  7  1  0  0  0  0
  4  8  1  0  0  0  0
  5  6  2  0  0  0  0
  5  7  1  0  0  0  0
  7  9  1  0  0  0  0
  1 10  1  0  0  0  0
  2 11  1  0  0  0  0
  3 12  1  0  0  0  0
  6 13  1  0  0  0  0
  6 14  1  0  0  0  0
  7 15  1  0  0  0  0
  8 16  1  0  0  0  0
  8 17  1  0  0  0  0
  8 18  1  0  0  0  0
  9 19  1  0  0  0  0
  9 20  1  0  0  0  0
  9 21  1  0  0  0  0
M  CHG  1   9   1
M  END
> <Hybrid2>
-7.036787

> <docked_fragment>
x1382

> <Mpro-_dock>
1.801348

> <site>
active-covalent

$$$$
CHEMBL1453416
  -OEChem-04122014263D

 33 34  0     0  0  0  0  0  0999 V2000
   10.5035   -2.9124   24.2615 C   0  0  0  0  0  0  0  0  0  0  0  0
    9.1874   -2.1857   22.6567 C   0  0  0  0  0  0  0  0  0  0  0  0
    8.6457   -3.2641   23.3014 C   0  0  0  0  0  0  0  0  0  0  0  0
    8.5682   -1.4965   21.5712 C   0  0  0  0  0  0  0  0  0  0  0  0
    6.6863   -3.2029   21.8760 C   0  0  0  0  0  0  0  0  0  0  0  0
   10.4765    0.6888   24.7327 C   0  0  0  0  0  0  0  0  0  0  0  0
   12.7721    0.9723   23.7757 C   0  0  0  0  0  0  0  0  0  0  0  0
    6.8781   -4.9416   23.6597 C   0  0  0  0  0  0  0  0  0  0  0  0
    6.6002   -1.4349   20.1354 C   0  0  0  0  0  0  0  0  0  0  0  0
   11.3509   -0.9369   22.9797 C   0  0  0  0  0  0  0  0  0  0  0  0
   11.7025   -0.0433   24.1824 C   0  0  0  0  0  0  0  0  0  0  0  0
    9.4630   -3.7191   24.3009 N   0  0  0  0  0  0  0  0  0  0  0  0
   10.3824   -1.9641   23.2788 N   0  0  0  0  0  0  0  0  0  0  0  0
    7.4129   -3.7910   22.9414 N   0  0  0  0  0  0  0  0  0  0  0  0
    7.3127   -2.0715   21.2388 N   0  0  0  0  0  0  0  0  0  0  0  0
    9.0643   -0.5283   21.0006 O   0  0  0  0  0  0  0  0  0  0  0  0
    5.5849   -3.6345   21.5177 O   0  0  0  0  0  0  0  0  0  0  0  0
   11.3662   -2.9645   24.9117 H   0  0  0  0  0  0  0  0  0  0  0  0
   10.0259    1.3235   23.9620 H   0  0  0  0  0  0  0  0  0  0  0  0
    9.7132   -0.0170   25.0771 H   0  0  0  0  0  0  0  0  0  0  0  0
   10.7452    1.3377   25.5720 H   0  0  0  0  0  0  0  0  0  0  0  0
   12.4085    1.6194   22.9704 H   0  0  0  0  0  0  0  0  0  0  0  0
   13.0414    1.6133   24.6216 H   0  0  0  0  0  0  0  0  0  0  0  0
   13.6818    0.4731   23.4247 H   0  0  0  0  0  0  0  0  0  0  0  0
    6.2752   -4.5946   24.5119 H   0  0  0  0  0  0  0  0  0  0  0  0
    6.2472   -5.5358   22.9822 H   0  0  0  0  0  0  0  0  0  0  0  0
    7.7083   -5.5628   24.0268 H   0  0  0  0  0  0  0  0  0  0  0  0
    6.8901   -1.9117   19.1875 H   0  0  0  0  0  0  0  0  0  0  0  0
    5.5163   -1.5472   20.2857 H   0  0  0  0  0  0  0  0  0  0  0  0
    6.8569   -0.3658   20.1016 H   0  0  0  0  0  0  0  0  0  0  0  0
   10.9671   -0.3375   22.1449 H   0  0  0  0  0  0  0  0  0  0  0  0
   12.2453   -1.4547   22.6100 H   0  0  0  0  0  0  0  0  0  0  0  0
   12.1164   -0.6630   24.9879 H   0  0  0  0  0  0  0  0  0  0  0  0
  1 12  2  0  0  0  0
  1 13  1  0  0  0  0
  2  3  2  0  0  0  0
  2  4  1  0  0  0  0
  2 13  1  0  0  0  0
  3 12  1  0  0  0  0
  3 14  1  0  0  0  0
  4 15  1  0  0  0  0
  4 16  2  0  0  0  0
  5 14  1  0  0  0  0
  5 15  1  0  0  0  0
  5 17  2  0  0  0  0
  6 11  1  0  0  0  0
  7 11  1  0  0  0  0
  8 14  1  0  0  0  0
  9 15  1  0  0  0  0
 10 11  1  0  0  0  0
 10 13  1  0  0  0  0
  1 18  1  0  0  0  0
  6 19  1  0  0  0  0
  6 20  1  0  0  0  0
  6 21  1  0  0  0  0
  7 22  1  0  0  0  0
  7 23  1  0  0  0  0
  7 24  1  0  0  0  0
  8 25  1  0  0  0  0
  8 26  1  0  0  0  0
  8 27  1  0  0  0  0
  9 28  1  0  0  0  0
  9 29  1  0  0  0  0
  9 30  1  0  0  0  0
 10 31  1  0  0  0  0
 10 32  1  0  0  0  0
 11 33  1  0  0  0  0
M  END
> <Hybrid2>
-7.032668

> <docked_fragment>
x0692

> <Mpro-_dock>
-0.38133

> <site>
active-covalent

$$$$
CHEMBL1576
  -OEChem-04122014263D

 25 25  0     0  0  0  0  0  0999 V2000
   10.7743   -4.0235   24.9208 C   0  0  0  0  0  0  0  0  0  0  0  0
   11.2448   -2.9197   24.8851 C   0  0  0  0  0  0  0  0  0  0  0  0
    9.8966   -1.0216   26.1086 C   0  0  0  0  0  0  0  0  0  0  0  0
   13.7573   -1.4680   22.5800 C   0  0  0  0  0  0  0  0  0  0  0  0
   14.1047   -2.1924   23.8773 C   0  0  0  0  0  0  0  0  0  0  0  0
   12.2533   -1.4540   22.3239 C   0  0  0  0  0  0  0  0  0  0  0  0
   13.3416   -1.6119   25.0679 C   0  0  0  0  0  0  0  0  0  0  0  0
   11.4854   -0.8719   23.5107 C   0  0  0  0  0  0  0  0  0  0  0  0
   11.8221   -1.5636   24.8413 C   0  0  0  0  0  0  0  0  0  0  0  0
    9.1964    0.1489   25.9517 N   0  0  0  0  0  0  0  0  0  0  0  0
    9.3858   -2.0996   26.3937 O   0  0  0  0  0  0  0  0  0  0  0  0
   11.2306   -0.8129   25.9030 O   0  0  0  0  0  0  0  0  0  0  0  0
   10.3572   -5.0028   24.9524 H   0  0  0  0  0  0  0  0  0  0  0  0
   14.1274   -0.4364   22.6293 H   0  0  0  0  0  0  0  0  0  0  0  0
   14.2698   -1.9503   21.7400 H   0  0  0  0  0  0  0  0  0  0  0  0
   13.8776   -3.2601   23.7733 H   0  0  0  0  0  0  0  0  0  0  0  0
   15.1824   -2.1164   24.0623 H   0  0  0  0  0  0  0  0  0  0  0  0
   12.0397   -0.8632   21.4258 H   0  0  0  0  0  0  0  0  0  0  0  0
   11.9066   -2.4741   22.1195 H   0  0  0  0  0  0  0  0  0  0  0  0
   13.5764   -2.1875   25.9729 H   0  0  0  0  0  0  0  0  0  0  0  0
   13.7124   -0.5966   25.2648 H   0  0  0  0  0  0  0  0  0  0  0  0
   11.7153    0.1996   23.5896 H   0  0  0  0  0  0  0  0  0  0  0  0
   10.4066   -0.9239   23.3136 H   0  0  0  0  0  0  0  0  0  0  0  0
    8.1895    0.1456   26.0749 H   0  0  0  0  0  0  0  0  0  0  0  0
    9.6649    1.0170   25.7151 H   0  0  0  0  0  0  0  0  0  0  0  0
  1  2  3  0  0  0  0
  2  9  1  0  0  0  0
  3 10  1  0  0  0  0
  3 11  2  0  0  0  0
  3 12  1  0  0  0  0
  4  5  1  0  0  0  0
  4  6  1  0  0  0  0
  5  7  1  0  0  0  0
  6  8  1  0  0  0  0
  7  9  1  0  0  0  0
  8  9  1  0  0  0  0
  9 12  1  0  0  0  0
  1 13  1  0  0  0  0
  4 14  1  0  0  0  0
  4 15  1  0  0  0  0
  5 16  1  0  0  0  0
  5 17  1  0  0  0  0
  6 18  1  0  0  0  0
  6 19  1  0  0  0  0
  7 20  1  0  0  0  0
  7 21  1  0  0  0  0
  8 22  1  0  0  0  0
  8 23  1  0  0  0  0
 10 24  1  0  0  0  0
 10 25  1  0  0  0  0
M  END
> <Hybrid2>
-7.030241

> <docked_fragment>
x0354

> <Mpro-_dock>
1.415843

> <site>
active-noncovalent

$$$$
DB04302
  -OEChem-04122014263D

 27 27  0     1  0  0  0  0  0999 V2000
   11.3614    3.9735   23.9915 C   0  0  0  0  0  0  0  0  0  0  0  0
   12.0062    2.9319   23.4225 C   0  0  0  0  0  0  0  0  0  0  0  0
   10.0924    3.6176   24.6566 C   0  0  0  0  0  0  0  0  0  0  0  0
   14.5913   -2.1230   24.7034 C   0  0  0  0  0  0  0  0  0  0  0  0
   13.6638   -1.1856   24.9368 C   0  0  0  0  0  0  0  0  0  0  0  0
   12.1008    0.5714   24.3741 C   0  0  0  0  0  0  0  0  0  0  0  0
   13.0191   -0.3206   23.9480 C   0  0  0  0  0  0  0  0  0  0  0  0
   11.3073    1.5669   23.5657 C   0  0  2  0  0  0  0  0  0  0  0  0
   11.7918    5.4048   24.0133 C   0  0  0  0  0  0  0  0  0  0  0  0
   13.4282   -0.4894   22.5081 C   0  0  0  0  0  0  0  0  0  0  0  0
   10.8671    0.9627   22.2197 C   0  0  0  0  0  0  0  0  0  0  0  0
   13.0945    2.8774   22.7816 O   0  5  0  0  0  0  0  0  0  0  0  0
    9.3569    4.4062   25.2278 O   0  0  0  0  0  0  0  0  0  0  0  0
    9.7695    1.9107   24.5251 S   0  0  0  0  0  0  0  0  0  0  0  0
   15.0281   -2.7302   25.4876 H   0  0  0  0  0  0  0  0  0  0  0  0
   14.9364   -2.3020   23.6900 H   0  0  0  0  0  0  0  0  0  0  0  0
   13.3562   -1.0512   25.9729 H   0  0  0  0  0  0  0  0  0  0  0  0
   11.8721    0.6125   25.4393 H   0  0  0  0  0  0  0  0  0  0  0  0
   11.3918    5.9227   23.1424 H   0  0  0  0  0  0  0  0  0  0  0  0
   12.8798    5.4629   23.9992 H   0  0  0  0  0  0  0  0  0  0  0  0
   11.4246    5.8860   24.9194 H   0  0  0  0  0  0  0  0  0  0  0  0
   12.8261   -1.2191   21.9638 H   0  0  0  0  0  0  0  0  0  0  0  0
   14.4671   -0.8316   22.4417 H   0  0  0  0  0  0  0  0  0  0  0  0
   13.3360    0.4600   21.9689 H   0  0  0  0  0  0  0  0  0  0  0  0
   10.3852    0.0075   22.3980 H   0  0  0  0  0  0  0  0  0  0  0  0
   11.7389    0.8213   21.5901 H   0  0  0  0  0  0  0  0  0  0  0  0
   10.1713    1.6394   21.7355 H   0  0  0  0  0  0  0  0  0  0  0  0
  1  2  2  0  0  0  0
  1  3  1  0  0  0  0
  1  9  1  0  0  0  0
  2  8  1  0  0  0  0
  2 12  1  0  0  0  0
  3 13  2  0  0  0  0
  3 14  1  0  0  0  0
  4  5  2  0  0  0  0
  5  7  1  0  0  0  0
  6  7  2  0  0  0  0
  6  8  1  0  0  0  0
  7 10  1  0  0  0  0
  8 11  1  0  0  0  0
  8 14  1  0  0  0  0
  4 15  1  0  0  0  0
  4 16  1  0  0  0  0
  5 17  1  0  0  0  0
  6 18  1  0  0  0  0
  9 19  1  0  0  0  0
  9 20  1  0  0  0  0
  9 21  1  0  0  0  0
 10 22  1  0  0  0  0
 10 23  1  0  0  0  0
 10 24  1  0  0  0  0
 11 25  1  0  0  0  0
 11 26  1  0  0  0  0
 11 27  1  0  0  0  0
M  CHG  1  12  -1
M  END
> <Hybrid2>
-7.027461

> <docked_fragment>
x0161

> <Mpro-_dock>
-0.562535

> <site>
active-noncovalent

$$$$
DB04063
  -OEChem-04122014263D

 25 24  0     1  0  0  0  0  0999 V2000
    6.1337   -2.8558   20.2487 C   0  0  0  0  0  0  0  0  0  0  0  0
    5.3222    0.1462   19.5807 C   0  0  0  0  0  0  0  0  0  0  0  0
    6.5309    1.1355   17.6316 C   0  0  0  0  0  0  0  0  0  0  0  0
    7.8968   -1.3632   20.9339 C   0  0  0  0  0  0  0  0  0  0  0  0
    7.1726   -1.1899   18.5276 C   0  0  0  0  0  0  0  0  0  0  0  0
    6.6715    0.2358   18.8578 C   0  0  0  0  0  0  0  0  0  0  0  0
    7.4046   -2.1550   19.7105 C   0  0  2  0  0  0  0  0  0  0  0  0
    8.5128   -3.1015   19.3476 N   0  3  0  0  0  0  0  0  0  0  0  0
    5.5329   -3.5977   19.4190 O   0  5  0  0  0  0  0  0  0  0  0  0
    5.8448   -2.6205   21.4566 O   0  0  0  0  0  0  0  0  0  0  0  0
    4.5673   -0.3223   18.9401 H   0  0  0  0  0  0  0  0  0  0  0  0
    5.4016   -0.4455   20.4992 H   0  0  0  0  0  0  0  0  0  0  0  0
    4.9568    1.1431   19.8490 H   0  0  0  0  0  0  0  0  0  0  0  0
    5.8378    0.7097   16.9011 H   0  0  0  0  0  0  0  0  0  0  0  0
    7.4950    1.2519   17.1242 H   0  0  0  0  0  0  0  0  0  0  0  0
    6.1769    2.1340   17.9083 H   0  0  0  0  0  0  0  0  0  0  0  0
    8.8106   -0.8022   20.7043 H   0  0  0  0  0  0  0  0  0  0  0  0
    7.1454   -0.6393   21.2714 H   0  0  0  0  0  0  0  0  0  0  0  0
    8.1208   -2.0220   21.7819 H   0  0  0  0  0  0  0  0  0  0  0  0
    6.4343   -1.6454   17.8518 H   0  0  0  0  0  0  0  0  0  0  0  0
    8.0935   -1.1084   17.9345 H   0  0  0  0  0  0  0  0  0  0  0  0
    7.3750    0.7112   19.5519 H   0  0  0  0  0  0  0  0  0  0  0  0
    9.2122   -2.6199   18.7841 H   0  0  0  0  0  0  0  0  0  0  0  0
    8.1400   -3.8854   18.8132 H   0  0  0  0  0  0  0  0  0  0  0  0
    8.9570   -3.4585   20.1927 H   0  0  0  0  0  0  0  0  0  0  0  0
  1  7  1  0  0  0  0
  1  9  1  0  0  0  0
  1 10  2  0  0  0  0
  2  6  1  0  0  0  0
  3  6  1  0  0  0  0
  4  7  1  0  0  0  0
  5  6  1  0  0  0  0
  5  7  1  0  0  0  0
  7  8  1  0  0  0  0
  2 11  1  0  0  0  0
  2 12  1  0  0  0  0
  2 13  1  0  0  0  0
  3 14  1  0  0  0  0
  3 15  1  0  0  0  0
  3 16  1  0  0  0  0
  4 17  1  0  0  0  0
  4 18  1  0  0  0  0
  4 19  1  0  0  0  0
  5 20  1  0  0  0  0
  5 21  1  0  0  0  0
  6 22  1  0  0  0  0
  8 23  1  0  0  0  0
  8 24  1  0  0  0  0
  8 25  1  0  0  0  0
M  CHG  2   8   1   9  -1
M  END
> <Hybrid2>
-7.016713

> <docked_fragment>
x0397

> <Mpro-_dock>
-1.31101

> <site>
active-noncovalent

$$$$
DB04018
  -OEChem-04122014263D

 18 17  0     0  0  0  0  0  0999 V2000
   13.5724    4.4123   22.1199 C   0  0  0  0  0  0  0  0  0  0  0  0
   12.1949    1.8657   23.7457 C   0  0  0  0  0  0  0  0  0  0  0  0
   13.8039    0.3692   22.5160 C   0  0  0  0  0  0  0  0  0  0  0  0
   13.4760    1.8008   22.9229 C   0  0  0  0  0  0  0  0  0  0  0  0
   14.7367    4.6352   22.7137 N   0  0  0  0  0  0  0  0  0  0  0  0
   12.6223    5.3360   22.0645 N   0  3  0  0  0  0  0  0  0  0  0  0
   13.3041    2.8400   21.4332 S   0  0  0  0  0  0  0  0  0  0  0  0
   11.3526    1.4650   23.1707 H   0  0  0  0  0  0  0  0  0  0  0  0
   12.2780    1.2687   24.6607 H   0  0  0  0  0  0  0  0  0  0  0  0
   11.9414    2.8941   24.0273 H   0  0  0  0  0  0  0  0  0  0  0  0
   12.9863   -0.0545   21.9221 H   0  0  0  0  0  0  0  0  0  0  0  0
   13.9369   -0.2741   23.3929 H   0  0  0  0  0  0  0  0  0  0  0  0
   14.7143    0.3152   21.9082 H   0  0  0  0  0  0  0  0  0  0  0  0
   14.3043    2.2052   23.5145 H   0  0  0  0  0  0  0  0  0  0  0  0
   15.4425    3.9084   22.7381 H   0  0  0  0  0  0  0  0  0  0  0  0
   14.9367    5.5296   23.1469 H   0  0  0  0  0  0  0  0  0  0  0  0
   12.7619    6.2483   22.4843 H   0  0  0  0  0  0  0  0  0  0  0  0
   11.7391    5.1399   21.6085 H   0  0  0  0  0  0  0  0  0  0  0  0
  1  5  1  0  0  0  0
  1  6  2  0  0  0  0
  1  7  1  0  0  0  0
  2  4  1  0  0  0  0
  3  4  1  0  0  0  0
  4  7  1  0  0  0  0
  2  8  1  0  0  0  0
  2  9  1  0  0  0  0
  2 10  1  0  0  0  0
  3 11  1  0  0  0  0
  3 12  1  0  0  0  0
  3 13  1  0  0  0  0
  4 14  1  0  0  0  0
  5 15  1  0  0  0  0
  5 16  1  0  0  0  0
  6 17  1  0  0  0  0
  6 18  1  0  0  0  0
M  CHG  1   6   1
M  END
> <Hybrid2>
-6.988349

> <docked_fragment>
x0195

> <Mpro-_dock>
-0.851732

> <site>
active-noncovalent

$$$$
DB08571
  -OEChem-04122014263D

 24 24  0     0  0  0  0  0  0999 V2000
    8.6987   -3.1548   22.2707 C   0  0  0  0  0  0  0  0  0  0  0  0
    9.0370   -4.9711   23.8274 C   0  0  0  0  0  0  0  0  0  0  0  0
    8.3014   -4.3833   22.7983 C   0  0  0  0  0  0  0  0  0  0  0  0
    9.8317   -2.5140   22.7722 C   0  0  0  0  0  0  0  0  0  0  0  0
   10.5673   -3.1018   23.8013 C   0  0  0  0  0  0  0  0  0  0  0  0
   10.1699   -4.3304   24.3289 C   0  0  0  0  0  0  0  0  0  0  0  0
    7.1071   -5.0615   22.2691 C   0  0  0  0  0  0  0  0  0  0  0  0
   12.5543   -2.9062   25.3302 C   0  0  0  0  0  0  0  0  0  0  0  0
   13.6740   -1.9280   25.5829 C   0  0  0  0  0  0  0  0  0  0  0  0
   10.2156   -1.2703   22.2216 N   0  0  0  0  0  0  0  0  0  0  0  0
   11.7058   -2.4656   24.3097 N   0  0  0  0  0  0  0  0  0  0  0  0
    6.7631   -6.1951   22.7743 O   0  5  0  0  0  0  0  0  0  0  0  0
    6.4455   -4.4993   21.3178 O   0  0  0  0  0  0  0  0  0  0  0  0
   12.4676   -3.9431   25.9800 O   0  0  0  0  0  0  0  0  0  0  0  0
   10.8740   -4.9235   25.3342 O   0  0  0  0  0  0  0  0  0  0  0  0
    8.1246   -2.6982   21.4673 H   0  0  0  0  0  0  0  0  0  0  0  0
    8.7304   -5.9289   24.2416 H   0  0  0  0  0  0  0  0  0  0  0  0
   13.3664   -1.2007   26.3395 H   0  0  0  0  0  0  0  0  0  0  0  0
   13.9167   -1.3964   24.6583 H   0  0  0  0  0  0  0  0  0  0  0  0
   14.5647   -2.4612   25.9280 H   0  0  0  0  0  0  0  0  0  0  0  0
   10.9985   -0.7883   22.6113 H   0  0  0  0  0  0  0  0  0  0  0  0
    9.6419   -0.8537   21.5183 H   0  0  0  0  0  0  0  0  0  0  0  0
   11.9493   -1.5669   23.8822 H   0  0  0  0  0  0  0  0  0  0  0  0
   10.4619   -5.7667   25.5786 H   0  0  0  0  0  0  0  0  0  0  0  0
  1  3  1  0  0  0  0
  1  4  2  0  0  0  0
  2  3  2  0  0  0  0
  2  6  1  0  0  0  0
  3  7  1  0  0  0  0
  4  5  1  0  0  0  0
  4 10  1  0  0  0  0
  5  6  2  0  0  0  0
  5 11  1  0  0  0  0
  6 15  1  0  0  0  0
  7 12  1  0  0  0  0
  7 13  2  0  0  0  0
  8  9  1  0  0  0  0
  8 11  1  0  0  0  0
  8 14  2  0  0  0  0
  1 16  1  0  0  0  0
  2 17  1  0  0  0  0
  9 18  1  0  0  0  0
  9 19  1  0  0  0  0
  9 20  1  0  0  0  0
 10 21  1  0  0  0  0
 10 22  1  0  0  0  0
 11 23  1  0  0  0  0
 15 24  1  0  0  0  0
M  CHG  1  12  -1
M  END
> <Hybrid2>
-6.950950

> <docked_fragment>
x0749

> <Mpro-_dock>
-1.273101

> <site>
active-covalent

$$$$
CHEMBL284127
  -OEChem-04122014263D

 19 19  0     0  0  0  0  0  0999 V2000
   14.1194    0.3658   22.3265 C   0  0  0  0  0  0  0  0  0  0  0  0
   12.1626    1.6099   23.3263 C   0  0  0  0  0  0  0  0  0  0  0  0
   13.5723   -0.7365   22.8411 C   0  0  0  0  0  0  0  0  0  0  0  0
   11.6570    0.4462   23.8259 C   0  0  0  0  0  0  0  0  0  0  0  0
   13.4299    1.6419   22.5426 C   0  0  0  0  0  0  0  0  0  0  0  0
   11.4482    2.8876   23.5581 C   0  0  0  0  0  0  0  0  0  0  0  0
   14.1842   -2.0914   22.6849 C   0  0  0  0  0  0  0  0  0  0  0  0
   12.2734    4.1377   23.6365 C   0  0  0  0  0  0  0  0  0  0  0  0
   10.5873    0.3386   24.5009 O   0  5  0  0  0  0  0  0  0  0  0  0
   13.8942    2.6823   22.0883 O   0  0  0  0  0  0  0  0  0  0  0  0
   10.2303    2.8925   23.6846 O   0  0  0  0  0  0  0  0  0  0  0  0
   12.3979   -0.7333   23.5617 O   0  0  0  0  0  0  0  0  0  0  0  0
   15.0427    0.3586   21.7607 H   0  0  0  0  0  0  0  0  0  0  0  0
   14.8663   -2.2846   23.5120 H   0  0  0  0  0  0  0  0  0  0  0  0
   14.7335   -2.1416   21.7452 H   0  0  0  0  0  0  0  0  0  0  0  0
   13.4020   -2.8499   22.6775 H   0  0  0  0  0  0  0  0  0  0  0  0
   12.3981    4.6018   22.6545 H   0  0  0  0  0  0  0  0  0  0  0  0
   13.2608    3.8898   24.0346 H   0  0  0  0  0  0  0  0  0  0  0  0
   11.7726    4.8539   24.2935 H   0  0  0  0  0  0  0  0  0  0  0  0
  1  3  2  0  0  0  0
  1  5  1  0  0  0  0
  2  4  2  0  0  0  0
  2  5  1  0  0  0  0
  2  6  1  0  0  0  0
  3  7  1  0  0  0  0
  3 12  1  0  0  0  0
  4  9  1  0  0  0  0
  4 12  1  0  0  0  0
  5 10  2  0  0  0  0
  6  8  1  0  0  0  0
  6 11  2  0  0  0  0
  1 13  1  0  0  0  0
  7 14  1  0  0  0  0
  7 15  1  0  0  0  0
  7 16  1  0  0  0  0
  8 17  1  0  0  0  0
  8 18  1  0  0  0  0
  8 19  1  0  0  0  0
M  CHG  1   9  -1
M  END
> <Hybrid2>
-6.936645

> <docked_fragment>
x0195

> <Mpro-_dock>
-0.384349

> <site>
active-noncovalent

$$$$
CHEMBL1724669
  -OEChem-04122014263D

 19 19  0     0  0  0  0  0  0999 V2000
   14.1194    0.3658   22.3265 C   0  0  0  0  0  0  0  0  0  0  0  0
   12.1626    1.6099   23.3263 C   0  0  0  0  0  0  0  0  0  0  0  0
   13.5723   -0.7365   22.8411 C   0  0  0  0  0  0  0  0  0  0  0  0
   11.6570    0.4462   23.8259 C   0  0  0  0  0  0  0  0  0  0  0  0
   13.4299    1.6419   22.5426 C   0  0  0  0  0  0  0  0  0  0  0  0
   11.4482    2.8876   23.5581 C   0  0  0  0  0  0  0  0  0  0  0  0
   14.1842   -2.0914   22.6849 C   0  0  0  0  0  0  0  0  0  0  0  0
   12.2734    4.1377   23.6365 C   0  0  0  0  0  0  0  0  0  0  0  0
   10.5873    0.3386   24.5009 O   0  5  0  0  0  0  0  0  0  0  0  0
   13.8942    2.6823   22.0883 O   0  0  0  0  0  0  0  0  0  0  0  0
   10.2303    2.8925   23.6846 O   0  0  0  0  0  0  0  0  0  0  0  0
   12.3979   -0.7333   23.5617 O   0  0  0  0  0  0  0  0  0  0  0  0
   15.0427    0.3586   21.7607 H   0  0  0  0  0  0  0  0  0  0  0  0
   14.8663   -2.2846   23.5120 H   0  0  0  0  0  0  0  0  0  0  0  0
   14.7335   -2.1416   21.7452 H   0  0  0  0  0  0  0  0  0  0  0  0
   13.4020   -2.8499   22.6775 H   0  0  0  0  0  0  0  0  0  0  0  0
   12.3981    4.6018   22.6545 H   0  0  0  0  0  0  0  0  0  0  0  0
   13.2608    3.8898   24.0346 H   0  0  0  0  0  0  0  0  0  0  0  0
   11.7726    4.8539   24.2935 H   0  0  0  0  0  0  0  0  0  0  0  0
  1  3  2  0  0  0  0
  1  5  1  0  0  0  0
  2  4  2  0  0  0  0
  2  5  1  0  0  0  0
  2  6  1  0  0  0  0
  3  7  1  0  0  0  0
  3 12  1  0  0  0  0
  4  9  1  0  0  0  0
  4 12  1  0  0  0  0
  5 10  2  0  0  0  0
  6  8  1  0  0  0  0
  6 11  2  0  0  0  0
  1 13  1  0  0  0  0
  7 14  1  0  0  0  0
  7 15  1  0  0  0  0
  7 16  1  0  0  0  0
  8 17  1  0  0  0  0
  8 18  1  0  0  0  0
  8 19  1  0  0  0  0
M  CHG  1   9  -1
M  END
> <Hybrid2>
-6.936645

> <docked_fragment>
x0195

> <Mpro-_dock>
-0.384349

> <site>
active-noncovalent

$$$$
CHEMBL96868
  -OEChem-04122014263D

 24 24  0     0  0  0  0  0  0999 V2000
    6.8289   -0.3388   18.6242 C   0  0  0  0  0  0  0  0  0  0  0  0
    5.9951   -2.4300   19.2071 C   0  0  0  0  0  0  0  0  0  0  0  0
    6.7374   -0.9977   20.9973 C   0  0  0  0  0  0  0  0  0  0  0  0
    6.4976    0.1514   20.0346 C   0  0  0  0  0  0  0  0  0  0  0  0
    4.8121    1.7429   19.0979 C   0  0  0  0  0  0  0  0  0  0  0  0
    8.8508    0.9120   20.3944 C   0  0  0  0  0  0  0  0  0  0  0  0
    5.0364    0.6286   20.0614 C   0  0  0  0  0  0  0  0  0  0  0  0
    7.4182    1.3200   20.4196 C   0  0  0  0  0  0  0  0  0  0  0  0
    6.6936   -1.6464   18.3808 N   0  5  0  0  0  0  0  0  0  0  0  0
    7.1913    0.4701   17.7682 O   0  0  0  0  0  0  0  0  0  0  0  0
    5.3967   -3.4383   18.8367 O   0  0  0  0  0  0  0  0  0  0  0  0
    5.9842   -2.1259   20.5474 O   0  0  0  0  0  0  0  0  0  0  0  0
    7.7935   -1.2873   21.0219 H   0  0  0  0  0  0  0  0  0  0  0  0
    6.4296   -0.7656   22.0242 H   0  0  0  0  0  0  0  0  0  0  0  0
    5.4671    2.5828   19.3577 H   0  0  0  0  0  0  0  0  0  0  0  0
    3.7760    2.0953   19.1377 H   0  0  0  0  0  0  0  0  0  0  0  0
    5.0481    1.4319   18.0747 H   0  0  0  0  0  0  0  0  0  0  0  0
    9.0044    0.0884   21.1016 H   0  0  0  0  0  0  0  0  0  0  0  0
    9.5019    1.7408   20.6919 H   0  0  0  0  0  0  0  0  0  0  0  0
    9.1435    0.5634   19.3983 H   0  0  0  0  0  0  0  0  0  0  0  0
    4.3908   -0.2143   19.8146 H   0  0  0  0  0  0  0  0  0  0  0  0
    4.7960    0.9556   21.0730 H   0  0  0  0  0  0  0  0  0  0  0  0
    7.2503    2.1390   19.7205 H   0  0  0  0  0  0  0  0  0  0  0  0
    7.1448    1.6631   21.4173 H   0  0  0  0  0  0  0  0  0  0  0  0
  1  4  1  0  0  0  0
  1  9  1  0  0  0  0
  1 10  2  0  0  0  0
  2  9  1  0  0  0  0
  2 11  2  0  0  0  0
  2 12  1  0  0  0  0
  3  4  1  0  0  0  0
  3 12  1  0  0  0  0
  4  7  1  0  0  0  0
  4  8  1  0  0  0  0
  5  7  1  0  0  0  0
  6  8  1  0  0  0  0
  3 13  1  0  0  0  0
  3 14  1  0  0  0  0
  5 15  1  0  0  0  0
  5 16  1  0  0  0  0
  5 17  1  0  0  0  0
  6 18  1  0  0  0  0
  6 19  1  0  0  0  0
  6 20  1  0  0  0  0
  7 21  1  0  0  0  0
  7 22  1  0  0  0  0
  8 23  1  0  0  0  0
  8 24  1  0  0  0  0
M  CHG  1   9  -1
M  END
> <Hybrid2>
-6.910440

> <docked_fragment>
x0397

> <Mpro-_dock>
1.608771

> <site>
active-noncovalent

$$$$
DB03514
  -OEChem-04122014263D

 21 21  0     0  0  0  0  0  0999 V2000
   13.6227   -1.4681   22.2682 C   0  0  0  0  0  0  0  0  0  0  0  0
   14.5485   -0.4880   21.9107 C   0  0  0  0  0  0  0  0  0  0  0  0
   12.3405    0.1841   23.4777 C   0  0  0  0  0  0  0  0  0  0  0  0
   12.5187   -1.1320   23.0517 C   0  0  0  0  0  0  0  0  0  0  0  0
   14.3704    0.8282   22.3367 C   0  0  0  0  0  0  0  0  0  0  0  0
   13.2664    1.1643   23.1203 C   0  0  0  0  0  0  0  0  0  0  0  0
   10.2600   -1.9147   23.6005 C   0  0  0  0  0  0  0  0  0  0  0  0
   11.5520   -2.1537   23.4220 C   0  0  0  0  0  0  0  0  0  0  0  0
   12.3264    3.3067   22.6933 C   0  0  0  0  0  0  0  0  0  0  0  0
   15.2819    1.7759   21.9808 O   0  0  0  0  0  0  0  0  0  0  0  0
   13.0830    2.4464   23.5428 O   0  0  0  0  0  0  0  0  0  0  0  0
   13.7743   -2.4896   21.9276 H   0  0  0  0  0  0  0  0  0  0  0  0
   15.4065   -0.7565   21.3003 H   0  0  0  0  0  0  0  0  0  0  0  0
   11.4822    0.4551   24.0886 H   0  0  0  0  0  0  0  0  0  0  0  0
    9.6071   -2.7411   23.8646 H   0  0  0  0  0  0  0  0  0  0  0  0
    9.7936   -0.9431   23.4888 H   0  0  0  0  0  0  0  0  0  0  0  0
   11.9205   -3.1610   23.5265 H   0  0  0  0  0  0  0  0  0  0  0  0
   12.2557    4.2981   23.1473 H   0  0  0  0  0  0  0  0  0  0  0  0
   11.3271    2.8891   22.5471 H   0  0  0  0  0  0  0  0  0  0  0  0
   12.8309    3.3859   21.7274 H   0  0  0  0  0  0  0  0  0  0  0  0
   15.9832    1.3800   21.4398 H   0  0  0  0  0  0  0  0  0  0  0  0
  1  2  2  0  0  0  0
  1  4  1  0  0  0  0
  2  5  1  0  0  0  0
  3  4  2  0  0  0  0
  3  6  1  0  0  0  0
  4  8  1  0  0  0  0
  5  6  2  0  0  0  0
  5 10  1  0  0  0  0
  6 11  1  0  0  0  0
  7  8  2  0  0  0  0
  9 11  1  0  0  0  0
  1 12  1  0  0  0  0
  2 13  1  0  0  0  0
  3 14  1  0  0  0  0
  7 15  1  0  0  0  0
  7 16  1  0  0  0  0
  8 17  1  0  0  0  0
  9 18  1  0  0  0  0
  9 19  1  0  0  0  0
  9 20  1  0  0  0  0
 10 21  1  0  0  0  0
M  END
> <Hybrid2>
-6.910066

> <docked_fragment>
x0195

> <Mpro-_dock>
1.599289

> <site>
active-noncovalent

$$$$
CHEMBL2105515
  -OEChem-04122014263D

 28 28  0     1  0  0  0  0  0999 V2000
   13.6738   -1.1587   22.4468 C   0  0  0  0  0  0  0  0  0  0  0  0
   11.3601   -0.1534   22.3092 C   0  0  0  0  0  0  0  0  0  0  0  0
   13.5015    1.1413   22.6608 C   0  0  0  0  0  0  0  0  0  0  0  0
   12.2295   -1.3679   22.0920 C   0  0  2  0  0  0  0  0  0  0  0  0
   12.0083    1.0425   22.9969 C   0  0  0  0  0  0  0  0  0  0  0  0
   11.6852   -2.5449   22.8940 C   0  0  0  0  0  0  0  0  0  0  0  0
   11.8816    3.5355   23.1875 C   0  0  0  0  0  0  0  0  0  0  0  0
   10.4215    0.8157   24.9117 C   0  0  0  0  0  0  0  0  0  0  0  0
   11.2906    2.3257   22.5463 C   0  0  0  0  0  0  0  0  0  0  0  0
   11.8562    0.8814   24.5143 C   0  0  0  0  0  0  0  0  0  0  0  0
   14.2359   -0.0221   22.7006 N   0  0  0  0  0  0  0  0  0  0  0  0
   10.1696   -0.1662   21.9926 O   0  0  0  0  0  0  0  0  0  0  0  0
   14.0303    2.2289   22.4350 O   0  0  0  0  0  0  0  0  0  0  0  0
   14.2983   -2.0710   22.5277 H   0  0  0  0  0  0  0  0  0  0  0  0
   12.2016   -1.6061   21.0220 H   0  0  0  0  0  0  0  0  0  0  0  0
   11.7097   -2.3155   23.9600 H   0  0  0  0  0  0  0  0  0  0  0  0
   12.2894   -3.4343   22.7113 H   0  0  0  0  0  0  0  0  0  0  0  0
   10.6550   -2.7528   22.6021 H   0  0  0  0  0  0  0  0  0  0  0  0
   11.8023    3.4452   24.2773 H   0  0  0  0  0  0  0  0  0  0  0  0
   11.3481    4.4420   22.8823 H   0  0  0  0  0  0  0  0  0  0  0  0
   12.9414    3.6373   22.9313 H   0  0  0  0  0  0  0  0  0  0  0  0
    9.9167    1.7369   24.5978 H   0  0  0  0  0  0  0  0  0  0  0  0
   10.3176    0.7249   25.9981 H   0  0  0  0  0  0  0  0  0  0  0  0
    9.9179   -0.0288   24.4295 H   0  0  0  0  0  0  0  0  0  0  0  0
   11.3652    2.4072   21.4607 H   0  0  0  0  0  0  0  0  0  0  0  0
   10.2338    2.2468   22.8064 H   0  0  0  0  0  0  0  0  0  0  0  0
   12.3706   -0.0295   24.8208 H   0  0  0  0  0  0  0  0  0  0  0  0
   12.3408    1.7261   25.0041 H   0  0  0  0  0  0  0  0  0  0  0  0
  1  4  1  0  0  0  0
  1 11  2  0  0  0  0
  2  4  1  0  0  0  0
  2  5  1  0  0  0  0
  2 12  2  0  0  0  0
  3  5  1  0  0  0  0
  3 11  1  0  0  0  0
  3 13  2  0  0  0  0
  4  6  1  0  0  0  0
  5  9  1  0  0  0  0
  5 10  1  0  0  0  0
  7  9  1  0  0  0  0
  8 10  1  0  0  0  0
  1 14  1  0  0  0  0
  4 15  1  0  0  0  0
  6 16  1  0  0  0  0
  6 17  1  0  0  0  0
  6 18  1  0  0  0  0
  7 19  1  0  0  0  0
  7 20  1  0  0  0  0
  7 21  1  0  0  0  0
  8 22  1  0  0  0  0
  8 23  1  0  0  0  0
  8 24  1  0  0  0  0
  9 25  1  0  0  0  0
  9 26  1  0  0  0  0
 10 27  1  0  0  0  0
 10 28  1  0  0  0  0
M  END
> <Hybrid2>
-6.878928

> <docked_fragment>
x0195

> <Mpro-_dock>
1.995632

> <site>
active-noncovalent

$$$$
DB03308
  -OEChem-04122014263D

 25 24  0     1  0  0  0  0  0999 V2000
   11.8100    5.0364   23.5151 C   0  0  0  0  0  0  0  0  0  0  0  0
   11.2493    0.4759   24.1049 C   0  0  0  0  0  0  0  0  0  0  0  0
    9.9437    2.5677   23.6791 C   0  0  0  0  0  0  0  0  0  0  0  0
   12.4944    2.5889   23.5524 C   0  0  0  0  0  0  0  0  0  0  0  0
   12.5585    3.9235   22.8004 C   0  0  2  0  0  0  0  0  0  0  0  0
   11.2020    1.7821   23.3074 C   0  0  0  0  0  0  0  0  0  0  0  0
   10.8823    5.6478   22.7091 N   0  0  0  0  0  0  0  0  0  0  0  0
   13.9968    4.3213   22.7043 N   0  3  0  0  0  0  0  0  0  0  0  0
   12.0085    5.3116   24.6967 O   0  0  0  0  0  0  0  0  0  0  0  0
   10.1222    6.6578   23.3140 O   0  0  0  0  0  0  0  0  0  0  0  0
   11.3135    0.6782   25.1793 H   0  0  0  0  0  0  0  0  0  0  0  0
   12.1160   -0.1316   23.8221 H   0  0  0  0  0  0  0  0  0  0  0  0
   10.3463   -0.1190   23.9318 H   0  0  0  0  0  0  0  0  0  0  0  0
    9.9527    2.8592   24.7337 H   0  0  0  0  0  0  0  0  0  0  0  0
    9.0389    1.9790   23.4942 H   0  0  0  0  0  0  0  0  0  0  0  0
    9.8732    3.4888   23.0904 H   0  0  0  0  0  0  0  0  0  0  0  0
   12.5968    2.7774   24.6299 H   0  0  0  0  0  0  0  0  0  0  0  0
   13.3540    1.9668   23.2675 H   0  0  0  0  0  0  0  0  0  0  0  0
   12.2179    3.8131   21.7666 H   0  0  0  0  0  0  0  0  0  0  0  0
   11.1385    1.5178   22.2447 H   0  0  0  0  0  0  0  0  0  0  0  0
   10.7552    5.3853   21.7380 H   0  0  0  0  0  0  0  0  0  0  0  0
   14.0869    5.3382   22.7362 H   0  0  0  0  0  0  0  0  0  0  0  0
   14.3995    3.9861   21.8273 H   0  0  0  0  0  0  0  0  0  0  0  0
   14.5281    3.9226   23.4803 H   0  0  0  0  0  0  0  0  0  0  0  0
   10.4950    6.6430   24.2117 H   0  0  0  0  0  0  0  0  0  0  0  0
  1  5  1  0  0  0  0
  1  7  1  0  0  0  0
  1  9  2  0  0  0  0
  2  6  1  0  0  0  0
  3  6  1  0  0  0  0
  4  5  1  0  0  0  0
  4  6  1  0  0  0  0
  5  8  1  0  0  0  0
  7 10  1  0  0  0  0
  2 11  1  0  0  0  0
  2 12  1  0  0  0  0
  2 13  1  0  0  0  0
  3 14  1  0  0  0  0
  3 15  1  0  0  0  0
  3 16  1  0  0  0  0
  4 17  1  0  0  0  0
  4 18  1  0  0  0  0
  5 19  1  0  0  0  0
  6 20  1  0  0  0  0
  7 21  1  0  0  0  0
  8 22  1  0  0  0  0
  8 23  1  0  0  0  0
  8 24  1  0  0  0  0
 10 25  1  0  0  0  0
M  CHG  1   8   1
M  END
> <Hybrid2>
-6.866472

> <docked_fragment>
x0104

> <Mpro-_dock>
-0.924689

> <site>
active-noncovalent

$$$$
CHEMBL1235931
  -OEChem-04122014263D

 15 14  0     0  0  0  0  0  0999 V2000
    7.0503   -0.2056   18.7181 C   0  0  0  0  0  0  0  0  0  0  0  0
    6.1484   -2.9116   19.9185 C   0  0  0  0  0  0  0  0  0  0  0  0
    5.8544    0.2647   19.4763 C   0  0  0  0  0  0  0  0  0  0  0  0
    7.9841   -1.1203   19.4846 C   0  0  0  0  0  0  0  0  0  0  0  0
    7.2578   -2.0145   20.4811 C   0  0  0  0  0  0  0  0  0  0  0  0
    5.5197   -3.5679   20.7988 O   0  5  0  0  0  0  0  0  0  0  0  0
    7.2237    0.1589   17.5623 O   0  0  0  0  0  0  0  0  0  0  0  0
    5.9854   -2.8922   18.6679 O   0  0  0  0  0  0  0  0  0  0  0  0
    6.0061    1.2048   20.0287 H   0  0  0  0  0  0  0  0  0  0  0  0
    4.9852    0.4438   18.8243 H   0  0  0  0  0  0  0  0  0  0  0  0
    5.5160   -0.4673   20.2261 H   0  0  0  0  0  0  0  0  0  0  0  0
    8.7348   -0.5059   19.9938 H   0  0  0  0  0  0  0  0  0  0  0  0
    8.4997   -1.7494   18.7497 H   0  0  0  0  0  0  0  0  0  0  0  0
    7.9802   -2.6529   21.0054 H   0  0  0  0  0  0  0  0  0  0  0  0
    6.7864   -1.3756   21.2387 H   0  0  0  0  0  0  0  0  0  0  0  0
  1  3  1  0  0  0  0
  1  4  1  0  0  0  0
  1  7  2  0  0  0  0
  2  5  1  0  0  0  0
  2  6  1  0  0  0  0
  2  8  2  0  0  0  0
  4  5  1  0  0  0  0
  3  9  1  0  0  0  0
  3 10  1  0  0  0  0
  3 11  1  0  0  0  0
  4 12  1  0  0  0  0
  4 13  1  0  0  0  0
  5 14  1  0  0  0  0
  5 15  1  0  0  0  0
M  CHG  1   6  -1
M  END
> <Hybrid2>
-6.838971

> <docked_fragment>
x0397

> <Mpro-_dock>
-0.811783

> <site>
active-noncovalent

$$$$
CHEMBL1099
  -OEChem-04122014263D

 15 15  0     0  0  0  0  0  0999 V2000
    6.6149   -0.2211   18.2616 C   0  0  0  0  0  0  0  0  0  0  0  0
    6.0493   -2.1059   19.1448 C   0  0  0  0  0  0  0  0  0  0  0  0
    6.0152    0.1101   19.5988 C   0  0  0  0  0  0  0  0  0  0  0  0
    7.0334    0.7581   20.5259 C   0  0  0  0  0  0  0  0  0  0  0  0
    4.7464    0.9384   19.4553 C   0  0  0  0  0  0  0  0  0  0  0  0
    6.5948   -1.5355   18.0762 N   0  5  0  0  0  0  0  0  0  0  0  0
    7.0453    0.6292   17.4904 O   0  0  0  0  0  0  0  0  0  0  0  0
    5.8692   -3.3054   19.3212 O   0  0  0  0  0  0  0  0  0  0  0  0
    5.6864   -1.1841   20.0832 O   0  0  0  0  0  0  0  0  0  0  0  0
    6.5721    0.9873   21.4871 H   0  0  0  0  0  0  0  0  0  0  0  0
    7.4064    1.6830   20.0845 H   0  0  0  0  0  0  0  0  0  0  0  0
    7.8735    0.0822   20.6903 H   0  0  0  0  0  0  0  0  0  0  0  0
    4.3333    1.1639   20.4391 H   0  0  0  0  0  0  0  0  0  0  0  0
    4.0028    0.3872   18.8787 H   0  0  0  0  0  0  0  0  0  0  0  0
    4.9669    1.8753   18.9424 H   0  0  0  0  0  0  0  0  0  0  0  0
  1  3  1  0  0  0  0
  1  6  1  0  0  0  0
  1  7  2  0  0  0  0
  2  6  1  0  0  0  0
  2  8  2  0  0  0  0
  2  9  1  0  0  0  0
  3  4  1  0  0  0  0
  3  5  1  0  0  0  0
  3  9  1  0  0  0  0
  4 10  1  0  0  0  0
  4 11  1  0  0  0  0
  4 12  1  0  0  0  0
  5 13  1  0  0  0  0
  5 14  1  0  0  0  0
  5 15  1  0  0  0  0
M  CHG  1   6  -1
M  END
> <Hybrid2>
-6.829866

> <docked_fragment>
x0397

> <Mpro-_dock>
1.274811

> <site>
active-noncovalent

$$$$
CHEMBL696
  -OEChem-04122014263D

 21 21  0     1  0  0  0  0  0999 V2000
   11.2244    0.7941   21.5262 C   0  0  0  0  0  0  0  0  0  0  0  0
   11.8789   -1.2732   22.3034 C   0  0  0  0  0  0  0  0  0  0  0  0
   11.5910    1.0194   22.9665 C   0  0  0  0  0  0  0  0  0  0  0  0
   12.2169   -0.3091   23.4263 C   0  0  1  0  0  0  0  0  0  0  0  0
   11.6170   -0.7925   24.7449 C   0  0  0  0  0  0  0  0  0  0  0  0
   14.3706   -1.5126   23.8282 C   0  0  0  0  0  0  0  0  0  0  0  0
   13.7401   -0.1927   23.5345 C   0  0  0  0  0  0  0  0  0  0  0  0
   11.3842   -0.5397   21.2540 N   0  0  0  0  0  0  0  0  0  0  0  0
   10.8229    1.6605   20.7635 O   0  0  0  0  0  0  0  0  0  0  0  0
   12.0529   -2.4833   22.3298 O   0  0  0  0  0  0  0  0  0  0  0  0
   12.2836    1.8630   23.0446 H   0  0  0  0  0  0  0  0  0  0  0  0
   10.6743    1.2581   23.5166 H   0  0  0  0  0  0  0  0  0  0  0  0
   11.8659   -0.0937   25.5419 H   0  0  0  0  0  0  0  0  0  0  0  0
   12.0162   -1.7744   24.9941 H   0  0  0  0  0  0  0  0  0  0  0  0
   10.5340   -0.8601   24.6550 H   0  0  0  0  0  0  0  0  0  0  0  0
   13.9737   -1.9049   24.7719 H   0  0  0  0  0  0  0  0  0  0  0  0
   15.4565   -1.4142   23.9315 H   0  0  0  0  0  0  0  0  0  0  0  0
   14.1479   -2.2378   23.0384 H   0  0  0  0  0  0  0  0  0  0  0  0
   14.1315    0.2033   22.5955 H   0  0  0  0  0  0  0  0  0  0  0  0
   13.9844    0.5181   24.3263 H   0  0  0  0  0  0  0  0  0  0  0  0
   11.1415   -0.9521   20.3600 H   0  0  0  0  0  0  0  0  0  0  0  0
  1  3  1  0  0  0  0
  1  8  1  0  0  0  0
  1  9  2  0  0  0  0
  2  4  1  0  0  0  0
  2  8  1  0  0  0  0
  2 10  2  0  0  0  0
  3  4  1  0  0  0  0
  4  5  1  0  0  0  0
  4  7  1  0  0  0  0
  6  7  1  0  0  0  0
  3 11  1  0  0  0  0
  3 12  1  0  0  0  0
  5 13  1  0  0  0  0
  5 14  1  0  0  0  0
  5 15  1  0  0  0  0
  6 16  1  0  0  0  0
  6 17  1  0  0  0  0
  6 18  1  0  0  0  0
  7 19  1  0  0  0  0
  7 20  1  0  0  0  0
  8 21  1  0  0  0  0
M  END
> <Hybrid2>
-6.826540

> <docked_fragment>
x0678

> <Mpro-_dock>
1.438711

> <site>
active-noncovalent

$$$$
DB01788
  -OEChem-04122014263D

 18 18  0     0  0  0  0  0  0999 V2000
    8.3036   -3.4439   25.7291 C   0  0  0  0  0  0  0  0  0  0  0  0
    8.5331   -4.8856   25.9805 C   0  0  0  0  0  0  0  0  0  0  0  0
    9.4708   -5.5966   25.0844 C   0  0  0  0  0  0  0  0  0  0  0  0
    9.7397   -3.4172   23.9394 C   0  0  0  0  0  0  0  0  0  0  0  0
    7.8783   -5.4530   27.0000 C   0  0  0  0  0  0  0  0  0  0  0  0
   10.3809   -2.6127   22.8485 C   0  0  0  0  0  0  0  0  0  0  0  0
    8.8671   -2.7677   24.7794 N   0  0  0  0  0  0  0  0  0  0  0  0
   10.0792   -4.6570   23.9834 N   0  3  0  0  0  0  0  0  0  0  0  0
    9.7840   -6.8377   25.1578 N   0  3  0  0  0  0  0  0  0  0  0  0
    7.6034   -2.9240   26.4039 H   0  0  0  0  0  0  0  0  0  0  0  0
    8.0124   -6.5033   27.2241 H   0  0  0  0  0  0  0  0  0  0  0  0
    7.2053   -4.8699   27.6151 H   0  0  0  0  0  0  0  0  0  0  0  0
   11.3131   -2.1858   23.2118 H   0  0  0  0  0  0  0  0  0  0  0  0
    9.7089   -1.8133   22.5429 H   0  0  0  0  0  0  0  0  0  0  0  0
   10.5828   -3.2549   21.9938 H   0  0  0  0  0  0  0  0  0  0  0  0
   10.7394   -5.0661   23.3194 H   0  0  0  0  0  0  0  0  0  0  0  0
    9.3889   -7.4612   25.8783 H   0  0  0  0  0  0  0  0  0  0  0  0
   10.4470   -7.2758   24.5003 H   0  0  0  0  0  0  0  0  0  0  0  0
  1  2  1  0  0  0  0
  1  7  2  0  0  0  0
  2  3  1  0  0  0  0
  2  5  2  0  0  0  0
  3  8  1  0  0  0  0
  3  9  2  0  0  0  0
  4  6  1  0  0  0  0
  4  7  1  0  0  0  0
  4  8  2  0  0  0  0
  1 10  1  0  0  0  0
  5 11  1  0  0  0  0
  5 12  1  0  0  0  0
  6 13  1  0  0  0  0
  6 14  1  0  0  0  0
  6 15  1  0  0  0  0
  8 16  1  0  0  0  0
  9 17  1  0  0  0  0
  9 18  1  0  0  0  0
M  CHG  2   8   1   9   1
M  END
> <Hybrid2>
-6.825720

> <docked_fragment>
x1077

> <Mpro-_dock>
-1.10045

> <site>
active-noncovalent

$$$$
CHEMBL1214192
  -OEChem-04122014263D

 24 24  0     0  0  0  0  0  0999 V2000
   10.6838   -0.0090   21.3215 C   0  0  0  0  0  0  0  0  0  0  0  0
   10.2664   -1.7645   23.0502 C   0  0  0  0  0  0  0  0  0  0  0  0
   12.1467   -0.3871   21.2956 C   0  0  0  0  0  0  0  0  0  0  0  0
   11.7308   -2.1367   23.0219 C   0  0  0  0  0  0  0  0  0  0  0  0
   12.6460   -0.9711   22.6237 C   0  0  0  0  0  0  0  0  0  0  0  0
   12.6781    0.1068   23.7241 C   0  0  0  0  0  0  0  0  0  0  0  0
   14.6132   -2.0827   23.6928 C   0  0  0  0  0  0  0  0  0  0  0  0
   14.0780   -1.5026   22.4303 C   0  0  0  0  0  0  0  0  0  0  0  0
    9.8837   -0.7540   22.1779 N   0  0  0  0  0  0  0  0  0  0  0  0
   10.2365    0.8711   20.5864 O   0  0  0  0  0  0  0  0  0  0  0  0
    9.4673   -2.3640   23.7694 O   0  0  0  0  0  0  0  0  0  0  0  0
   12.2714   -1.1134   20.4825 H   0  0  0  0  0  0  0  0  0  0  0  0
   12.7258    0.5059   21.0304 H   0  0  0  0  0  0  0  0  0  0  0  0
   12.0060   -2.5151   24.0140 H   0  0  0  0  0  0  0  0  0  0  0  0
   11.8329   -2.9681   22.3128 H   0  0  0  0  0  0  0  0  0  0  0  0
   13.0343   -0.3374   24.6469 H   0  0  0  0  0  0  0  0  0  0  0  0
   11.6772    0.4984   23.8677 H   0  0  0  0  0  0  0  0  0  0  0  0
   13.3449    0.9059   23.4198 H   0  0  0  0  0  0  0  0  0  0  0  0
   14.6218   -1.3085   24.4691 H   0  0  0  0  0  0  0  0  0  0  0  0
   15.6396   -2.4406   23.5589 H   0  0  0  0  0  0  0  0  0  0  0  0
   13.9863   -2.9090   24.0441 H   0  0  0  0  0  0  0  0  0  0  0  0
   14.0621   -2.2589   21.6467 H   0  0  0  0  0  0  0  0  0  0  0  0
   14.7093   -0.6797   22.0981 H   0  0  0  0  0  0  0  0  0  0  0  0
    8.8958   -0.5154   22.1818 H   0  0  0  0  0  0  0  0  0  0  0  0
  1  3  1  0  0  0  0
  1  9  1  0  0  0  0
  1 10  2  0  0  0  0
  2  4  1  0  0  0  0
  2  9  1  0  0  0  0
  2 11  2  0  0  0  0
  3  5  1  0  0  0  0
  4  5  1  0  0  0  0
  5  6  1  0  0  0  0
  5  8  1  0  0  0  0
  7  8  1  0  0  0  0
  3 12  1  0  0  0  0
  3 13  1  0  0  0  0
  4 14  1  0  0  0  0
  4 15  1  0  0  0  0
  6 16  1  0  0  0  0
  6 17  1  0  0  0  0
  6 18  1  0  0  0  0
  7 19  1  0  0  0  0
  7 20  1  0  0  0  0
  7 21  1  0  0  0  0
  8 22  1  0  0  0  0
  8 23  1  0  0  0  0
  9 24  1  0  0  0  0
M  END
> <Hybrid2>
-6.810605

> <docked_fragment>
x0678

> <Mpro-_dock>
1.545831

> <site>
active-noncovalent

$$$$
CHEMBL1100
  -OEChem-04122014263D

 22 22  0     1  0  0  0  0  0999 V2000
   11.8960    0.0843   23.7985 C   0  0  0  0  0  0  0  0  0  0  0  0
   11.2262    0.8249   21.7782 C   0  0  0  0  0  0  0  0  0  0  0  0
   12.2404   -0.9769   22.7821 C   0  0  2  0  0  0  0  0  0  0  0  0
   11.4858   -2.2687   23.0570 C   0  0  0  0  0  0  0  0  0  0  0  0
   14.3269   -1.6162   24.0013 C   0  0  0  0  0  0  0  0  0  0  0  0
   10.8308    2.3330   23.7202 C   0  0  0  0  0  0  0  0  0  0  0  0
   13.7446   -1.1852   22.6926 C   0  0  0  0  0  0  0  0  0  0  0  0
   11.3135    1.1114   23.1067 N   0  0  0  0  0  0  0  0  0  0  0  0
   12.1093    0.0038   24.9992 O   0  0  0  0  0  0  0  0  0  0  0  0
   10.7462    1.5185   20.8917 O   0  0  0  0  0  0  0  0  0  0  0  0
   11.7688   -0.4094   21.5477 O   0  0  0  0  0  0  0  0  0  0  0  0
   11.7478   -3.0221   22.3129 H   0  0  0  0  0  0  0  0  0  0  0  0
   10.4103   -2.0914   23.0143 H   0  0  0  0  0  0  0  0  0  0  0  0
   11.7408   -2.6487   24.0473 H   0  0  0  0  0  0  0  0  0  0  0  0
   14.1137   -0.8631   24.7690 H   0  0  0  0  0  0  0  0  0  0  0  0
   15.4139   -1.7260   23.9260 H   0  0  0  0  0  0  0  0  0  0  0  0
   13.8903   -2.5663   24.3269 H   0  0  0  0  0  0  0  0  0  0  0  0
   11.6393    3.0786   23.7394 H   0  0  0  0  0  0  0  0  0  0  0  0
    9.9839    2.7257   23.1383 H   0  0  0  0  0  0  0  0  0  0  0  0
   10.5025    2.1218   24.7486 H   0  0  0  0  0  0  0  0  0  0  0  0
   13.9620   -1.9424   21.9320 H   0  0  0  0  0  0  0  0  0  0  0  0
   14.2220   -0.2529   22.3729 H   0  0  0  0  0  0  0  0  0  0  0  0
  1  3  1  0  0  0  0
  1  8  1  0  0  0  0
  1  9  2  0  0  0  0
  2  8  1  0  0  0  0
  2 10  2  0  0  0  0
  2 11  1  0  0  0  0
  3  4  1  0  0  0  0
  3  7  1  0  0  0  0
  3 11  1  0  0  0  0
  5  7  1  0  0  0  0
  6  8  1  0  0  0  0
  4 12  1  0  0  0  0
  4 13  1  0  0  0  0
  4 14  1  0  0  0  0
  5 15  1  0  0  0  0
  5 16  1  0  0  0  0
  5 17  1  0  0  0  0
  6 18  1  0  0  0  0
  6 19  1  0  0  0  0
  6 20  1  0  0  0  0
  7 21  1  0  0  0  0
  7 22  1  0  0  0  0
M  END
> <Hybrid2>
-6.809840

> <docked_fragment>
x0678

> <Mpro-_dock>
-1.007773

> <site>
active-noncovalent

$$$$
CHEMBL154166
  -OEChem-04122014263D

 39 40  0     0  0  0  0  0  0999 V2000
   10.5359    3.4411   23.0627 C   0  0  0  0  0  0  0  0  0  0  0  0
   12.6701    2.3664   23.4199 C   0  0  0  0  0  0  0  0  0  0  0  0
    9.7658   -3.0921   24.3454 C   0  0  0  0  0  0  0  0  0  0  0  0
    7.6317   -2.0176   23.9877 C   0  0  0  0  0  0  0  0  0  0  0  0
   10.0628    2.2913   22.4304 C   0  0  0  0  0  0  0  0  0  0  0  0
   12.1969    1.2166   22.7876 C   0  0  0  0  0  0  0  0  0  0  0  0
   10.3441   -2.2638   23.3836 C   0  0  0  0  0  0  0  0  0  0  0  0
    8.2100   -1.1892   23.0259 C   0  0  0  0  0  0  0  0  0  0  0  0
   11.8396    3.4786   23.5574 C   0  0  0  0  0  0  0  0  0  0  0  0
    8.4096   -2.9690   24.6474 C   0  0  0  0  0  0  0  0  0  0  0  0
   10.8932    1.1791   22.2929 C   0  0  0  0  0  0  0  0  0  0  0  0
    9.5662   -1.3124   22.7238 C   0  0  0  0  0  0  0  0  0  0  0  0
   11.6327    5.8321   24.4191 C   0  0  0  0  0  0  0  0  0  0  0  0
    8.4461   -4.8015   26.3693 C   0  0  0  0  0  0  0  0  0  0  0  0
   12.4989    6.8359   25.1378 C   0  0  0  0  0  0  0  0  0  0  0  0
    7.4709   -5.4719   27.3041 C   0  0  0  0  0  0  0  0  0  0  0  0
   12.3129    4.6287   24.1898 N   0  0  0  0  0  0  0  0  0  0  0  0
    7.8311   -3.7975   25.6095 N   0  0  0  0  0  0  0  0  0  0  0  0
   10.4785    6.1074   24.1077 O   0  0  0  0  0  0  0  0  0  0  0  0
    9.6230   -5.1462   26.3366 O   0  0  0  0  0  0  0  0  0  0  0  0
    9.2455    0.1742   20.5968 O   0  0  0  0  0  0  0  0  0  0  0  0
   11.4320   -1.0183   20.9822 O   0  0  0  0  0  0  0  0  0  0  0  0
   10.3011   -0.2599   21.5012 S   0  0  0  0  0  0  0  0  0  0  0  0
    9.8800    4.3020   23.1642 H   0  0  0  0  0  0  0  0  0  0  0  0
   13.6877    2.3844   23.8017 H   0  0  0  0  0  0  0  0  0  0  0  0
   10.3816   -3.8302   24.8532 H   0  0  0  0  0  0  0  0  0  0  0  0
    6.5738   -1.9127   24.2151 H   0  0  0  0  0  0  0  0  0  0  0  0
    9.0455    2.2728   22.0485 H   0  0  0  0  0  0  0  0  0  0  0  0
   12.8523    0.3558   22.6859 H   0  0  0  0  0  0  0  0  0  0  0  0
   11.4015   -2.3683   23.1558 H   0  0  0  0  0  0  0  0  0  0  0  0
    7.5948   -0.4513   22.5179 H   0  0  0  0  0  0  0  0  0  0  0  0
   13.0444    7.4428   24.4096 H   0  0  0  0  0  0  0  0  0  0  0  0
   13.2189    6.3145   25.7749 H   0  0  0  0  0  0  0  0  0  0  0  0
   11.8784    7.4843   25.7634 H   0  0  0  0  0  0  0  0  0  0  0  0
    7.0064   -6.3264   26.8040 H   0  0  0  0  0  0  0  0  0  0  0  0
    6.6897   -4.7635   27.5942 H   0  0  0  0  0  0  0  0  0  0  0  0
    7.9907   -5.8125   28.2044 H   0  0  0  0  0  0  0  0  0  0  0  0
   13.2798    4.5949   24.5331 H   0  0  0  0  0  0  0  0  0  0  0  0
    6.8298   -3.6585   25.7881 H   0  0  0  0  0  0  0  0  0  0  0  0
  1  5  2  0  0  0  0
  1  9  1  0  0  0  0
  2  6  1  0  0  0  0
  2  9  2  0  0  0  0
  3  7  2  0  0  0  0
  3 10  1  0  0  0  0
  4  8  1  0  0  0  0
  4 10  2  0  0  0  0
  5 11  1  0  0  0  0
  6 11  2  0  0  0  0
  7 12  1  0  0  0  0
  8 12  2  0  0  0  0
  9 17  1  0  0  0  0
 10 18  1  0  0  0  0
 11 23  1  0  0  0  0
 12 23  1  0  0  0  0
 13 15  1  0  0  0  0
 13 17  1  0  0  0  0
 13 19  2  0  0  0  0
 14 16  1  0  0  0  0
 14 18  1  0  0  0  0
 14 20  2  0  0  0  0
 21 23  2  0  0  0  0
 22 23  2  0  0  0  0
  1 24  1  0  0  0  0
  2 25  1  0  0  0  0
  3 26  1  0  0  0  0
  4 27  1  0  0  0  0
  5 28  1  0  0  0  0
  6 29  1  0  0  0  0
  7 30  1  0  0  0  0
  8 31  1  0  0  0  0
 15 32  1  0  0  0  0
 15 33  1  0  0  0  0
 15 34  1  0  0  0  0
 16 35  1  0  0  0  0
 16 36  1  0  0  0  0
 16 37  1  0  0  0  0
 17 38  1  0  0  0  0
 18 39  1  0  0  0  0
M  END
> <Hybrid2>
-6.757399

> <docked_fragment>
x0874

> <Mpro-_dock>
2.739755

> <site>
active-noncovalent

$$$$
CHEMBL2105979
  -OEChem-04122014263D

 27 27  0     0  0  0  0  0  0999 V2000
   14.3379    0.0336   22.2861 C   0  0  0  0  0  0  0  0  0  0  0  0
   13.6253    0.9705   22.9343 C   0  0  0  0  0  0  0  0  0  0  0  0
   13.8488   -1.3438   22.0972 C   0  0  0  0  0  0  0  0  0  0  0  0
   11.8020   -0.6521   23.3328 C   0  0  0  0  0  0  0  0  0  0  0  0
   10.6074    2.1800   21.9436 C   0  0  0  0  0  0  0  0  0  0  0  0
   10.9783    2.6001   23.1630 C   0  0  0  0  0  0  0  0  0  0  0  0
   10.8199    4.0352   23.5788 C   0  0  0  0  0  0  0  0  0  0  0  0
   12.0504   -2.9449   22.4864 C   0  0  0  0  0  0  0  0  0  0  0  0
   11.6062    1.6654   24.1571 C   0  0  0  0  0  0  0  0  0  0  0  0
   12.3702    0.6324   23.4528 N   0  0  0  0  0  0  0  0  0  0  0  0
   12.5922   -1.5987   22.6415 N   0  0  0  0  0  0  0  0  0  0  0  0
   14.1666    2.2315   23.0604 N   0  0  0  0  0  0  0  0  0  0  0  0
   14.5545   -2.1503   21.4949 O   0  0  0  0  0  0  0  0  0  0  0  0
   10.6929   -0.9416   23.7951 O   0  0  0  0  0  0  0  0  0  0  0  0
   15.3163    0.2563   21.8695 H   0  0  0  0  0  0  0  0  0  0  0  0
   10.7344    1.1462   21.6399 H   0  0  0  0  0  0  0  0  0  0  0  0
   10.1664    2.8593   21.2216 H   0  0  0  0  0  0  0  0  0  0  0  0
    9.8414    4.1970   24.0421 H   0  0  0  0  0  0  0  0  0  0  0  0
   11.5964    4.3089   24.3005 H   0  0  0  0  0  0  0  0  0  0  0  0
   10.9012    4.7211   22.7290 H   0  0  0  0  0  0  0  0  0  0  0  0
   12.3583   -3.5653   23.3410 H   0  0  0  0  0  0  0  0  0  0  0  0
   10.9523   -2.8956   22.4460 H   0  0  0  0  0  0  0  0  0  0  0  0
   12.4321   -3.3885   21.5550 H   0  0  0  0  0  0  0  0  0  0  0  0
   12.2985    2.1798   24.8315 H   0  0  0  0  0  0  0  0  0  0  0  0
   10.8435    1.1726   24.7681 H   0  0  0  0  0  0  0  0  0  0  0  0
   15.0605    2.3936   22.6666 H   0  0  0  0  0  0  0  0  0  0  0  0
   13.6368    2.9176   23.5391 H   0  0  0  0  0  0  0  0  0  0  0  0
  1  2  2  0  0  0  0
  1  3  1  0  0  0  0
  2 10  1  0  0  0  0
  2 12  1  0  0  0  0
  3 11  1  0  0  0  0
  3 13  2  0  0  0  0
  4 10  1  0  0  0  0
  4 11  1  0  0  0  0
  4 14  2  0  0  0  0
  5  6  2  0  0  0  0
  6  7  1  0  0  0  0
  6  9  1  0  0  0  0
  8 11  1  0  0  0  0
  9 10  1  0  0  0  0
  1 15  1  0  0  0  0
  5 16  1  0  0  0  0
  5 17  1  0  0  0  0
  7 18  1  0  0  0  0
  7 19  1  0  0  0  0
  7 20  1  0  0  0  0
  8 21  1  0  0  0  0
  8 22  1  0  0  0  0
  8 23  1  0  0  0  0
  9 24  1  0  0  0  0
  9 25  1  0  0  0  0
 12 26  1  0  0  0  0
 12 27  1  0  0  0  0
M  END
> <Hybrid2>
-6.740133

> <docked_fragment>
x0195

> <Mpro-_dock>
-0.790466

> <site>
active-noncovalent

$$$$
DB02885
  -OEChem-04122014263D

 18 18  0     0  0  0  0  0  0999 V2000
    9.4884   -2.5130   26.9281 C   0  0  0  0  0  0  0  0  0  0  0  0
    9.6158   -3.9682   27.1738 C   0  0  0  0  0  0  0  0  0  0  0  0
   10.1254   -4.8078   26.0677 C   0  0  0  0  0  0  0  0  0  0  0  0
   10.2655   -2.6990   24.7768 C   0  0  0  0  0  0  0  0  0  0  0  0
    9.2618   -4.4309   28.3783 C   0  0  0  0  0  0  0  0  0  0  0  0
   10.6116   -2.0006   23.4959 C   0  0  0  0  0  0  0  0  0  0  0  0
    9.7919   -1.9296   25.8126 N   0  0  0  0  0  0  0  0  0  0  0  0
   10.4533   -3.9714   24.7800 N   0  3  0  0  0  0  0  0  0  0  0  0
   10.2977   -6.0777   26.1073 N   0  3  0  0  0  0  0  0  0  0  0  0
   10.3848   -0.6756   23.5945 F   0  0  0  0  0  0  0  0  0  0  0  0
   11.9116   -2.1772   23.1862 F   0  0  0  0  0  0  0  0  0  0  0  0
    9.8736   -2.4729   22.4714 F   0  0  0  0  0  0  0  0  0  0  0  0
    9.1085   -1.8969   27.7599 H   0  0  0  0  0  0  0  0  0  0  0  0
    9.3366   -5.4861   28.6065 H   0  0  0  0  0  0  0  0  0  0  0  0
    8.8956   -3.7566   29.1414 H   0  0  0  0  0  0  0  0  0  0  0  0
   10.8121   -4.4723   23.9649 H   0  0  0  0  0  0  0  0  0  0  0  0
   10.0850   -6.6340   26.9494 H   0  0  0  0  0  0  0  0  0  0  0  0
   10.6579   -6.6076   25.2989 H   0  0  0  0  0  0  0  0  0  0  0  0
  1  2  1  0  0  0  0
  1  7  2  0  0  0  0
  2  3  1  0  0  0  0
  2  5  2  0  0  0  0
  3  8  1  0  0  0  0
  3  9  2  0  0  0  0
  4  6  1  0  0  0  0
  4  7  1  0  0  0  0
  4  8  2  0  0  0  0
  6 10  1  0  0  0  0
  6 11  1  0  0  0  0
  6 12  1  0  0  0  0
  1 13  1  0  0  0  0
  5 14  1  0  0  0  0
  5 15  1  0  0  0  0
  8 16  1  0  0  0  0
  9 17  1  0  0  0  0
  9 18  1  0  0  0  0
M  CHG  2   8   1   9   1
M  END
> <Hybrid2>
-6.726896

> <docked_fragment>
x0387

> <Mpro-_dock>
-1.75836

> <site>
active-noncovalent

$$$$
DB08628
  -OEChem-04122014263D

 24 24  0     1  0  0  0  0  0999 V2000
    7.2399   -2.6086   20.4953 C   0  0  0  0  0  0  0  0  0  0  0  0
    6.6004   -2.3804   19.3276 C   0  0  0  0  0  0  0  0  0  0  0  0
    8.1770   -1.5413   20.8980 C   0  0  0  0  0  0  0  0  0  0  0  0
    4.0796    2.6398   20.2583 C   0  0  0  0  0  0  0  0  0  0  0  0
    4.3821    1.7231   19.3322 C   0  0  0  0  0  0  0  0  0  0  0  0
    5.4988    0.8147   19.4491 C   0  0  0  0  0  0  0  0  0  0  0  0
    5.7981   -0.1028   18.5179 C   0  0  0  0  0  0  0  0  0  0  0  0
    6.9609   -1.0570   18.6269 C   0  0  2  0  0  0  0  0  0  0  0  0
    7.0975   -3.7969   21.3908 C   0  0  0  0  0  0  0  0  0  0  0  0
    7.6445   -1.2560   17.2617 C   0  0  0  0  0  0  0  0  0  0  0  0
    5.7495   -3.0705   18.6969 O   0  5  0  0  0  0  0  0  0  0  0  0
    8.8537   -1.5511   21.9134 O   0  0  0  0  0  0  0  0  0  0  0  0
    8.1980   -0.2481   19.7308 S   0  0  0  0  0  0  0  0  0  0  0  0
    3.2351    3.3120   20.1488 H   0  0  0  0  0  0  0  0  0  0  0  0
    4.6843    2.7310   21.1544 H   0  0  0  0  0  0  0  0  0  0  0  0
    3.7598    1.6525   18.4440 H   0  0  0  0  0  0  0  0  0  0  0  0
    6.1150    0.8939   20.3412 H   0  0  0  0  0  0  0  0  0  0  0  0
    5.1875   -0.1893   17.6223 H   0  0  0  0  0  0  0  0  0  0  0  0
    7.8185   -4.5618   21.1049 H   0  0  0  0  0  0  0  0  0  0  0  0
    6.0895   -4.2024   21.3077 H   0  0  0  0  0  0  0  0  0  0  0  0
    7.2751   -3.5021   22.4247 H   0  0  0  0  0  0  0  0  0  0  0  0
    7.8677   -0.2864   16.8299 H   0  0  0  0  0  0  0  0  0  0  0  0
    6.9775   -1.8045   16.6055 H   0  0  0  0  0  0  0  0  0  0  0  0
    8.5633   -1.8153   17.4011 H   0  0  0  0  0  0  0  0  0  0  0  0
  1  2  2  0  0  0  0
  1  3  1  0  0  0  0
  1  9  1  0  0  0  0
  2  8  1  0  0  0  0
  2 11  1  0  0  0  0
  3 12  2  0  0  0  0
  3 13  1  0  0  0  0
  4  5  2  0  0  0  0
  5  6  1  0  0  0  0
  6  7  2  0  0  0  0
  7  8  1  0  0  0  0
  8 10  1  0  0  0  0
  8 13  1  0  0  0  0
  4 14  1  0  0  0  0
  4 15  1  0  0  0  0
  5 16  1  0  0  0  0
  6 17  1  0  0  0  0
  7 18  1  0  0  0  0
  9 19  1  0  0  0  0
  9 20  1  0  0  0  0
  9 21  1  0  0  0  0
 10 22  1  0  0  0  0
 10 23  1  0  0  0  0
 10 24  1  0  0  0  0
M  CHG  1  11  -1
M  END
> <Hybrid2>
-6.714650

> <docked_fragment>
x0397

> <Mpro-_dock>
-0.495165

> <site>
active-noncovalent

$$$$
DB04501
  -OEChem-04122014263D

 28 29  0     0  0  0  0  0  0999 V2000
   12.1719   -2.6519   25.8571 C   0  0  0  0  0  0  0  0  0  0  0  0
   14.0342   -1.4546   24.7516 C   0  0  0  0  0  0  0  0  0  0  0  0
   11.6293   -3.0836   24.4837 C   0  0  0  0  0  0  0  0  0  0  0  0
   13.4970   -1.8821   23.3746 C   0  0  0  0  0  0  0  0  0  0  0  0
   12.7430   -1.2448   25.5734 C   0  0  0  0  0  0  0  0  0  0  0  0
   11.9581   -1.8623   23.5825 C   0  0  0  0  0  0  0  0  0  0  0  0
   11.7491   -0.6532   24.5403 C   0  0  0  0  0  0  0  0  0  0  0  0
   11.1811   -1.8558   22.2811 C   0  0  0  0  0  0  0  0  0  0  0  0
   12.1709    0.7178   23.9753 C   0  0  0  0  0  0  0  0  0  0  0  0
   10.3149   -0.4758   25.0769 C   0  0  0  0  0  0  0  0  0  0  0  0
   11.3682   -2.6162   26.6001 H   0  0  0  0  0  0  0  0  0  0  0  0
   12.9319   -3.3463   26.2304 H   0  0  0  0  0  0  0  0  0  0  0  0
   14.6890   -2.2170   25.1864 H   0  0  0  0  0  0  0  0  0  0  0  0
   14.6155   -0.5298   24.6738 H   0  0  0  0  0  0  0  0  0  0  0  0
   12.1121   -4.0024   24.1326 H   0  0  0  0  0  0  0  0  0  0  0  0
   10.5534   -3.2832   24.5362 H   0  0  0  0  0  0  0  0  0  0  0  0
   13.8196   -1.1808   22.5973 H   0  0  0  0  0  0  0  0  0  0  0  0
   13.8669   -2.8732   23.0893 H   0  0  0  0  0  0  0  0  0  0  0  0
   12.8973   -0.6506   26.4771 H   0  0  0  0  0  0  0  0  0  0  0  0
   11.4462   -0.9800   21.6838 H   0  0  0  0  0  0  0  0  0  0  0  0
   10.1068   -1.8288   22.4793 H   0  0  0  0  0  0  0  0  0  0  0  0
   11.4048   -2.7537   21.6997 H   0  0  0  0  0  0  0  0  0  0  0  0
   11.4237    1.0541   23.2656 H   0  0  0  0  0  0  0  0  0  0  0  0
   13.1298    0.6175   23.4799 H   0  0  0  0  0  0  0  0  0  0  0  0
   12.2503    1.4281   24.7903 H   0  0  0  0  0  0  0  0  0  0  0  0
    9.6919   -0.0597   24.2935 H   0  0  0  0  0  0  0  0  0  0  0  0
   10.3348    0.1965   25.9270 H   0  0  0  0  0  0  0  0  0  0  0  0
    9.9278   -1.4417   25.3807 H   0  0  0  0  0  0  0  0  0  0  0  0
  1  3  1  0  0  0  0
  1  5  1  0  0  0  0
  2  4  1  0  0  0  0
  2  5  1  0  0  0  0
  3  6  1  0  0  0  0
  4  6  1  0  0  0  0
  5  7  1  0  0  0  0
  6  7  1  0  0  0  0
  6  8  1  0  0  0  0
  7  9  1  0  0  0  0
  7 10  1  0  0  0  0
  1 11  1  0  0  0  0
  1 12  1  0  0  0  0
  2 13  1  0  0  0  0
  2 14  1  0  0  0  0
  3 15  1  0  0  0  0
  3 16  1  0  0  0  0
  4 17  1  0  0  0  0
  4 18  1  0  0  0  0
  5 19  1  0  0  0  0
  8 20  1  0  0  0  0
  8 21  1  0  0  0  0
  8 22  1  0  0  0  0
  9 23  1  0  0  0  0
  9 24  1  0  0  0  0
  9 25  1  0  0  0  0
 10 26  1  0  0  0  0
 10 27  1  0  0  0  0
 10 28  1  0  0  0  0
M  END
> <Hybrid2>
-6.711880

> <docked_fragment>
x0354

> <Mpro-_dock>
3.107563

> <site>
active-noncovalent

$$$$
CHEMBL291962
  -OEChem-04122014263D

 22 21  0     1  0  0  0  0  0999 V2000
    6.0143   -2.7483   20.2012 C   0  0  0  0  0  0  0  0  0  0  0  0
    6.0992    1.0403   17.5378 C   0  0  0  0  0  0  0  0  0  0  0  0
    4.9284    0.0181   19.4992 C   0  0  0  0  0  0  0  0  0  0  0  0
    7.0149   -1.0840   18.5225 C   0  0  0  0  0  0  0  0  0  0  0  0
    7.2613   -1.9772   19.7452 C   0  0  2  0  0  0  0  0  0  0  0  0
    6.2857    0.2409   18.8306 C   0  0  0  0  0  0  0  0  0  0  0  0
    8.3800   -2.9066   19.3826 N   0  3  0  0  0  0  0  0  0  0  0  0
    5.4937   -3.4807   19.3120 O   0  5  0  0  0  0  0  0  0  0  0  0
    5.6669   -2.5729   21.4026 O   0  0  0  0  0  0  0  0  0  0  0  0
    5.4867    0.4909   16.8148 H   0  0  0  0  0  0  0  0  0  0  0  0
    7.0660    1.2551   17.0703 H   0  0  0  0  0  0  0  0  0  0  0  0
    5.6077    1.9980   17.7397 H   0  0  0  0  0  0  0  0  0  0  0  0
    4.2668   -0.5825   18.8678 H   0  0  0  0  0  0  0  0  0  0  0  0
    4.4290    0.9696   19.7108 H   0  0  0  0  0  0  0  0  0  0  0  0
    5.0459   -0.5193   20.4465 H   0  0  0  0  0  0  0  0  0  0  0  0
    7.9737   -0.8525   18.0389 H   0  0  0  0  0  0  0  0  0  0  0  0
    6.4293   -1.6445   17.7807 H   0  0  0  0  0  0  0  0  0  0  0  0
    7.6530   -1.3810   20.5762 H   0  0  0  0  0  0  0  0  0  0  0  0
    6.9040    0.8455   19.5049 H   0  0  0  0  0  0  0  0  0  0  0  0
    8.6138   -3.5022   20.1772 H   0  0  0  0  0  0  0  0  0  0  0  0
    9.2080   -2.3725   19.1175 H   0  0  0  0  0  0  0  0  0  0  0  0
    8.1052   -3.4981   18.5980 H   0  0  0  0  0  0  0  0  0  0  0  0
  1  5  1  0  0  0  0
  1  8  1  0  0  0  0
  1  9  2  0  0  0  0
  2  6  1  0  0  0  0
  3  6  1  0  0  0  0
  4  5  1  0  0  0  0
  4  6  1  0  0  0  0
  5  7  1  0  0  0  0
  2 10  1  0  0  0  0
  2 11  1  0  0  0  0
  2 12  1  0  0  0  0
  3 13  1  0  0  0  0
  3 14  1  0  0  0  0
  3 15  1  0  0  0  0
  4 16  1  0  0  0  0
  4 17  1  0  0  0  0
  5 18  1  0  0  0  0
  6 19  1  0  0  0  0
  7 20  1  0  0  0  0
  7 21  1  0  0  0  0
  7 22  1  0  0  0  0
M  CHG  2   7   1   8  -1
M  END
> <Hybrid2>
-6.664870

> <docked_fragment>
x0397

> <Mpro-_dock>
-1.607541

> <site>
active-noncovalent

$$$$
CHEMBL73622
  -OEChem-04122014263D

 23 24  0     1  0  0  0  0  0999 V2000
   13.4460   -0.8847   21.8369 C   0  0  0  0  0  0  0  0  0  0  0  0
    9.9823    0.3019   21.3653 C   0  0  0  0  0  0  0  0  0  0  0  0
   13.4451   -1.9391   22.9641 C   0  0  2  0  0  0  0  0  0  0  0  0
   11.3716    0.5467   21.9327 C   0  0  1  0  0  0  0  0  0  0  0  0
   11.9637   -1.5562   23.1603 C   0  0  2  0  0  0  0  0  0  0  0  0
   11.3721    1.0840   23.3835 C   0  0  0  0  0  0  0  0  0  0  0  0
   12.6095    1.9598   23.6443 C   0  0  0  0  0  0  0  0  0  0  0  0
   10.1177    1.8820   23.7580 C   0  0  0  0  0  0  0  0  0  0  0  0
   12.1039   -0.7011   21.9815 N   0  0  0  0  0  0  0  0  0  0  0  0
    9.2511   -0.4708   22.0445 O   0  5  0  0  0  0  0  0  0  0  0  0
   14.2763   -0.3409   21.1448 O   0  0  0  0  0  0  0  0  0  0  0  0
    9.7382    0.9057   20.2832 O   0  0  0  0  0  0  0  0  0  0  0  0
   11.4878   -0.4006   24.5000 S   0  0  0  0  0  0  0  0  0  0  0  0
   14.7533   -1.5544   24.3183 Br  0  0  0  0  0  0  0  0  0  0  0  0
   13.5722   -2.9574   22.5704 H   0  0  0  0  0  0  0  0  0  0  0  0
   11.8787    1.2135   21.2627 H   0  0  0  0  0  0  0  0  0  0  0  0
   11.2587   -2.3792   22.9969 H   0  0  0  0  0  0  0  0  0  0  0  0
   12.5897    2.3263   24.6683 H   0  0  0  0  0  0  0  0  0  0  0  0
   12.6103    2.8058   22.9604 H   0  0  0  0  0  0  0  0  0  0  0  0
   13.5126    1.3730   23.4905 H   0  0  0  0  0  0  0  0  0  0  0  0
   10.1990    2.2205   24.7868 H   0  0  0  0  0  0  0  0  0  0  0  0
    9.2420    1.2485   23.6525 H   0  0  0  0  0  0  0  0  0  0  0  0
   10.0263    2.7408   23.0994 H   0  0  0  0  0  0  0  0  0  0  0  0
  1  3  1  0  0  0  0
  1  9  1  0  0  0  0
  1 11  2  0  0  0  0
  2  4  1  0  0  0  0
  2 10  1  0  0  0  0
  2 12  2  0  0  0  0
  3  5  1  0  0  0  0
  3 14  1  0  0  0  0
  4  6  1  0  0  0  0
  4  9  1  0  0  0  0
  5  9  1  0  0  0  0
  5 13  1  0  0  0  0
  6  7  1  0  0  0  0
  6  8  1  0  0  0  0
  6 13  1  0  0  0  0
  3 15  1  0  0  0  0
  4 16  1  0  0  0  0
  5 17  1  0  0  0  0
  7 18  1  0  0  0  0
  7 19  1  0  0  0  0
  7 20  1  0  0  0  0
  8 21  1  0  0  0  0
  8 22  1  0  0  0  0
  8 23  1  0  0  0  0
M  CHG  1  10  -1
M  END
> <Hybrid2>
-6.640400

> <docked_fragment>
x0678

> <Mpro-_dock>
0.41147

> <site>
active-noncovalent

$$$$
CHEMBL1430
  -OEChem-04122014263D

 20 19  0     1  0  0  0  0  0999 V2000
    5.9350    0.7456   17.8625 C   0  0  0  0  0  0  0  0  0  0  0  0
    8.3611   -0.3511   20.0153 C   0  0  0  0  0  0  0  0  0  0  0  0
    6.0797    0.4345   20.6887 C   0  0  0  0  0  0  0  0  0  0  0  0
    6.3659   -0.6359   18.3914 C   0  0  1  0  0  0  0  0  0  0  0  0
    6.8538   -0.6112   19.8670 C   0  0  0  0  0  0  0  0  0  0  0  0
    5.2832   -1.6630   18.2362 N   0  3  0  0  0  0  0  0  0  0  0  0
    4.9887    1.2867   18.5030 O   0  5  0  0  0  0  0  0  0  0  0  0
    6.5624    1.1660   16.8502 O   0  0  0  0  0  0  0  0  0  0  0  0
    6.5078   -2.2500   20.6563 S   0  0  0  0  0  0  0  0  0  0  0  0
    8.9458   -1.0784   19.4422 H   0  0  0  0  0  0  0  0  0  0  0  0
    8.6956   -0.4063   21.0568 H   0  0  0  0  0  0  0  0  0  0  0  0
    8.6376    0.6400   19.6342 H   0  0  0  0  0  0  0  0  0  0  0  0
    4.9948    0.2907   20.6150 H   0  0  0  0  0  0  0  0  0  0  0  0
    6.3307    0.3661   21.7532 H   0  0  0  0  0  0  0  0  0  0  0  0
    6.3080    1.4560   20.3624 H   0  0  0  0  0  0  0  0  0  0  0  0
    7.1773   -0.9916   17.7416 H   0  0  0  0  0  0  0  0  0  0  0  0
    5.3358   -2.3442   18.9931 H   0  0  0  0  0  0  0  0  0  0  0  0
    5.3886   -2.1500   17.3463 H   0  0  0  0  0  0  0  0  0  0  0  0
    4.3683   -1.2134   18.2599 H   0  0  0  0  0  0  0  0  0  0  0  0
    6.9431   -1.8794   21.8644 H   0  0  0  0  0  0  0  0  0  0  0  0
  1  4  1  0  0  0  0
  1  7  1  0  0  0  0
  1  8  2  0  0  0  0
  2  5  1  0  0  0  0
  3  5  1  0  0  0  0
  4  5  1  0  0  0  0
  4  6  1  0  0  0  0
  5  9  1  0  0  0  0
  2 10  1  0  0  0  0
  2 11  1  0  0  0  0
  2 12  1  0  0  0  0
  3 13  1  0  0  0  0
  3 14  1  0  0  0  0
  3 15  1  0  0  0  0
  4 16  1  0  0  0  0
  6 17  1  0  0  0  0
  6 18  1  0  0  0  0
  6 19  1  0  0  0  0
  9 20  1  0  0  0  0
M  CHG  2   6   1   7  -1
M  END
> <Hybrid2>
-6.635518

> <docked_fragment>
x0397

> <Mpro-_dock>
0.669594

> <site>
active-noncovalent

$$$$
CHEMBL40
  -OEChem-04122014263D

 29 30  0     0  0  0  0  0  0999 V2000
   13.1534   -0.9797   22.7286 C   0  0  0  0  0  0  0  0  0  0  0  0
   14.1588   -0.0142   22.7792 C   0  0  0  0  0  0  0  0  0  0  0  0
   11.8174   -0.5909   22.6311 C   0  0  0  0  0  0  0  0  0  0  0  0
   13.8282    1.3401   22.7325 C   0  0  0  0  0  0  0  0  0  0  0  0
   11.4868    0.7634   22.5844 C   0  0  0  0  0  0  0  0  0  0  0  0
   12.4922    1.7290   22.6351 C   0  0  0  0  0  0  0  0  0  0  0  0
   13.4236    4.0126   22.6576 C   0  0  0  0  0  0  0  0  0  0  0  0
   11.0925    3.4772   23.6684 C   0  0  0  0  0  0  0  0  0  0  0  0
   12.3902    5.4722   24.3824 C   0  0  0  0  0  0  0  0  0  0  0  0
   12.1352    3.1881   22.5850 C   0  0  0  0  0  0  0  0  0  0  0  0
   11.0995    4.9268   21.1178 C   0  0  0  0  0  0  0  0  0  0  0  0
   11.4786    3.4896   21.2305 C   0  0  0  0  0  0  0  0  0  0  0  0
   13.3999    5.1043   23.5069 N   0  0  0  0  0  0  0  0  0  0  0  0
   11.2955    4.6223   24.4175 N   0  0  0  0  0  0  0  0  0  0  0  0
   14.4139    3.7408   21.9754 O   0  0  0  0  0  0  0  0  0  0  0  0
   10.1111    2.7517   23.8426 O   0  0  0  0  0  0  0  0  0  0  0  0
   12.4692    6.4742   25.0955 O   0  0  0  0  0  0  0  0  0  0  0  0
   13.4111   -2.0342   22.7636 H   0  0  0  0  0  0  0  0  0  0  0  0
   15.1993   -0.3168   22.8540 H   0  0  0  0  0  0  0  0  0  0  0  0
   11.0344   -1.3423   22.5905 H   0  0  0  0  0  0  0  0  0  0  0  0
   14.6183    2.0854   22.7728 H   0  0  0  0  0  0  0  0  0  0  0  0
   10.4431    1.0571   22.5086 H   0  0  0  0  0  0  0  0  0  0  0  0
   10.3967    5.1805   21.9200 H   0  0  0  0  0  0  0  0  0  0  0  0
   10.6091    5.1303   20.1599 H   0  0  0  0  0  0  0  0  0  0  0  0
   11.9774    5.5739   21.2179 H   0  0  0  0  0  0  0  0  0  0  0  0
   12.1782    3.2256   20.4366 H   0  0  0  0  0  0  0  0  0  0  0  0
   10.5934    2.8617   21.1239 H   0  0  0  0  0  0  0  0  0  0  0  0
   14.2318    5.6880   23.5113 H   0  0  0  0  0  0  0  0  0  0  0  0
   10.5560    4.8693   25.0694 H   0  0  0  0  0  0  0  0  0  0  0  0
  1  2  1  0  0  0  0
  1  3  2  0  0  0  0
  2  4  2  0  0  0  0
  3  5  1  0  0  0  0
  4  6  1  0  0  0  0
  5  6  2  0  0  0  0
  6 10  1  0  0  0  0
  7 10  1  0  0  0  0
  7 13  1  0  0  0  0
  7 15  2  0  0  0  0
  8 10  1  0  0  0  0
  8 14  1  0  0  0  0
  8 16  2  0  0  0  0
  9 13  1  0  0  0  0
  9 14  1  0  0  0  0
  9 17  2  0  0  0  0
 10 12  1  0  0  0  0
 11 12  1  0  0  0  0
  1 18  1  0  0  0  0
  2 19  1  0  0  0  0
  3 20  1  0  0  0  0
  4 21  1  0  0  0  0
  5 22  1  0  0  0  0
 11 23  1  0  0  0  0
 11 24  1  0  0  0  0
 11 25  1  0  0  0  0
 12 26  1  0  0  0  0
 12 27  1  0  0  0  0
 13 28  1  0  0  0  0
 14 29  1  0  0  0  0
M  END
> <Hybrid2>
-6.628639

> <docked_fragment>
x0195

> <Mpro-_dock>
0.767982

> <site>
active-noncovalent

$$$$
CHEMBL485259
  -OEChem-04122014263D

 29 30  0     0  0  0  0  0  0999 V2000
   11.2373   -0.4751   25.5956 C   0  0  0  0  0  0  0  0  0  0  0  0
   13.1260   -1.9854   26.0555 C   0  0  0  0  0  0  0  0  0  0  0  0
   11.7806   -0.1660   24.1958 C   0  0  0  0  0  0  0  0  0  0  0  0
   13.7219   -1.7173   24.6687 C   0  0  0  0  0  0  0  0  0  0  0  0
   11.5891   -1.9302   25.9605 C   0  0  0  0  0  0  0  0  0  0  0  0
   12.5954   -1.3668   23.6778 C   0  0  0  0  0  0  0  0  0  0  0  0
   11.1057   -2.8804   24.8256 C   0  0  0  0  0  0  0  0  0  0  0  0
   13.1562   -1.0891   22.2871 C   0  0  0  0  0  0  0  0  0  0  0  0
   11.4883   -4.3439   25.0931 C   0  0  0  0  0  0  0  0  0  0  0  0
    9.5834   -2.8197   24.6285 C   0  0  0  0  0  0  0  0  0  0  0  0
   11.7135   -2.5031   23.5716 O   0  0  0  0  0  0  0  0  0  0  0  0
   11.6740    0.2176   26.3259 H   0  0  0  0  0  0  0  0  0  0  0  0
   10.1561   -0.3038   25.6325 H   0  0  0  0  0  0  0  0  0  0  0  0
   13.4684   -2.9529   26.4381 H   0  0  0  0  0  0  0  0  0  0  0  0
   13.4914   -1.2363   26.7690 H   0  0  0  0  0  0  0  0  0  0  0  0
   10.9347    0.0310   23.5256 H   0  0  0  0  0  0  0  0  0  0  0  0
   12.3917    0.7437   24.2247 H   0  0  0  0  0  0  0  0  0  0  0  0
   14.4604   -0.9092   24.7295 H   0  0  0  0  0  0  0  0  0  0  0  0
   14.2513   -2.6177   24.3329 H   0  0  0  0  0  0  0  0  0  0  0  0
   11.1411   -2.1970   26.9240 H   0  0  0  0  0  0  0  0  0  0  0  0
   13.7282   -1.9485   21.9388 H   0  0  0  0  0  0  0  0  0  0  0  0
   13.8088   -0.2172   22.3172 H   0  0  0  0  0  0  0  0  0  0  0  0
   12.3413   -0.8987   21.5893 H   0  0  0  0  0  0  0  0  0  0  0  0
   11.1308   -4.9646   24.2771 H   0  0  0  0  0  0  0  0  0  0  0  0
   11.0347   -4.6704   26.0240 H   0  0  0  0  0  0  0  0  0  0  0  0
   12.5686   -4.4261   25.1663 H   0  0  0  0  0  0  0  0  0  0  0  0
    9.2963   -3.4968   23.8298 H   0  0  0  0  0  0  0  0  0  0  0  0
    9.2941   -1.8063   24.3676 H   0  0  0  0  0  0  0  0  0  0  0  0
    9.0890   -3.1134   25.5496 H   0  0  0  0  0  0  0  0  0  0  0  0
  1  3  1  0  0  0  0
  1  5  1  0  0  0  0
  2  4  1  0  0  0  0
  2  5  1  0  0  0  0
  3  6  1  0  0  0  0
  4  6  1  0  0  0  0
  5  7  1  0  0  0  0
  6  8  1  0  0  0  0
  6 11  1  0  0  0  0
  7  9  1  0  0  0  0
  7 10  1  0  0  0  0
  7 11  1  0  0  0  0
  1 12  1  0  0  0  0
  1 13  1  0  0  0  0
  2 14  1  0  0  0  0
  2 15  1  0  0  0  0
  3 16  1  0  0  0  0
  3 17  1  0  0  0  0
  4 18  1  0  0  0  0
  4 19  1  0  0  0  0
  5 20  1  0  0  0  0
  8 21  1  0  0  0  0
  8 22  1  0  0  0  0
  8 23  1  0  0  0  0
  9 24  1  0  0  0  0
  9 25  1  0  0  0  0
  9 26  1  0  0  0  0
 10 27  1  0  0  0  0
 10 28  1  0  0  0  0
 10 29  1  0  0  0  0
M  END
> <Hybrid2>
-6.620468

> <docked_fragment>
x0354

> <Mpro-_dock>
2.960086

> <site>
active-noncovalent

$$$$
DB03519
  -OEChem-04122014263D

 19 18  0     1  0  0  0  0  0999 V2000
    6.1508   -2.4571   19.9833 C   0  0  0  0  0  0  0  0  0  0  0  0
    5.2752    0.3057   19.0274 C   0  0  0  0  0  0  0  0  0  0  0  0
    6.6377    0.4043   18.3571 C   0  0  0  0  0  0  0  0  0  0  0  0
    7.2578   -0.9826   18.1521 C   0  0  0  0  0  0  0  0  0  0  0  0
    7.4305   -1.7972   19.4410 C   0  0  2  0  0  0  0  0  0  0  0  0
    8.5697   -2.7441   19.2266 N   0  3  0  0  0  0  0  0  0  0  0  0
    5.5862   -3.2659   19.1923 O   0  5  0  0  0  0  0  0  0  0  0  0
    5.7950   -2.0988   21.1412 O   0  0  0  0  0  0  0  0  0  0  0  0
    4.5915   -0.3123   18.4368 H   0  0  0  0  0  0  0  0  0  0  0  0
    5.3601   -0.1331   20.0267 H   0  0  0  0  0  0  0  0  0  0  0  0
    4.8308    1.3006   19.1304 H   0  0  0  0  0  0  0  0  0  0  0  0
    7.2925    1.0282   18.9751 H   0  0  0  0  0  0  0  0  0  0  0  0
    6.5162    0.9138   17.3951 H   0  0  0  0  0  0  0  0  0  0  0  0
    8.2362   -0.8657   17.6676 H   0  0  0  0  0  0  0  0  0  0  0  0
    6.6388   -1.5509   17.4462 H   0  0  0  0  0  0  0  0  0  0  0  0
    7.7741   -1.1170   20.2304 H   0  0  0  0  0  0  0  0  0  0  0  0
    9.3837   -2.2428   18.8684 H   0  0  0  0  0  0  0  0  0  0  0  0
    8.3074   -3.4652   18.5529 H   0  0  0  0  0  0  0  0  0  0  0  0
    8.8247   -3.1955   20.1062 H   0  0  0  0  0  0  0  0  0  0  0  0
  1  5  1  0  0  0  0
  1  7  1  0  0  0  0
  1  8  2  0  0  0  0
  2  3  1  0  0  0  0
  3  4  1  0  0  0  0
  4  5  1  0  0  0  0
  5  6  1  0  0  0  0
  2  9  1  0  0  0  0
  2 10  1  0  0  0  0
  2 11  1  0  0  0  0
  3 12  1  0  0  0  0
  3 13  1  0  0  0  0
  4 14  1  0  0  0  0
  4 15  1  0  0  0  0
  5 16  1  0  0  0  0
  6 17  1  0  0  0  0
  6 18  1  0  0  0  0
  6 19  1  0  0  0  0
M  CHG  2   6   1   7  -1
M  END
> <Hybrid2>
-6.616121

> <docked_fragment>
x0397

> <Mpro-_dock>
-1.022114

> <site>
active-noncovalent

$$$$
DB00859
  -OEChem-04122014263D

 20 19  0     1  0  0  0  0  0999 V2000
    6.4380   -5.2680   20.8925 C   0  0  0  0  0  0  0  0  0  0  0  0
    5.7179   -2.8818   22.7672 C   0  0  0  0  0  0  0  0  0  0  0  0
    5.0569   -4.5533   24.5120 C   0  0  0  0  0  0  0  0  0  0  0  0
    5.5694   -5.3931   22.1589 C   0  0  2  0  0  0  0  0  0  0  0  0
    5.9005   -4.3311   23.2444 C   0  0  0  0  0  0  0  0  0  0  0  0
    5.6333   -6.7732   22.7442 N   0  3  0  0  0  0  0  0  0  0  0  0
    7.6830   -5.3599   21.0925 O   0  5  0  0  0  0  0  0  0  0  0  0
    5.8107   -5.0750   19.8134 O   0  0  0  0  0  0  0  0  0  0  0  0
    7.6694   -4.5112   23.7613 S   0  0  0  0  0  0  0  0  0  0  0  0
    6.3055   -2.6863   21.8639 H   0  0  0  0  0  0  0  0  0  0  0  0
    6.0220   -2.1499   23.5232 H   0  0  0  0  0  0  0  0  0  0  0  0
    4.6722   -2.6720   22.5096 H   0  0  0  0  0  0  0  0  0  0  0  0
    5.1537   -5.5772   24.8932 H   0  0  0  0  0  0  0  0  0  0  0  0
    5.3771   -3.8885   25.3221 H   0  0  0  0  0  0  0  0  0  0  0  0
    3.9932   -4.3601   24.3296 H   0  0  0  0  0  0  0  0  0  0  0  0
    4.5225   -5.2823   21.8445 H   0  0  0  0  0  0  0  0  0  0  0  0
    4.9913   -7.3928   22.2506 H   0  0  0  0  0  0  0  0  0  0  0  0
    5.3737   -6.7470   23.7301 H   0  0  0  0  0  0  0  0  0  0  0  0
    6.5793   -7.1449   22.6618 H   0  0  0  0  0  0  0  0  0  0  0  0
    8.1629   -4.2023   22.5582 H   0  0  0  0  0  0  0  0  0  0  0  0
  1  4  1  0  0  0  0
  1  7  1  0  0  0  0
  1  8  2  0  0  0  0
  2  5  1  0  0  0  0
  3  5  1  0  0  0  0
  4  5  1  0  0  0  0
  4  6  1  0  0  0  0
  5  9  1  0  0  0  0
  2 10  1  0  0  0  0
  2 11  1  0  0  0  0
  2 12  1  0  0  0  0
  3 13  1  0  0  0  0
  3 14  1  0  0  0  0
  3 15  1  0  0  0  0
  4 16  1  0  0  0  0
  6 17  1  0  0  0  0
  6 18  1  0  0  0  0
  6 19  1  0  0  0  0
  9 20  1  0  0  0  0
M  CHG  2   6   1   7  -1
M  END
> <Hybrid2>
-6.609823

> <docked_fragment>
x0689

> <Mpro-_dock>
0.807805

> <site>
active-covalent

$$$$
CHEMBL93070
  -OEChem-04122014263D

 19 19  0     0  0  0  0  0  0999 V2000
   12.2471    3.4599   22.9589 C   0  0  0  0  0  0  0  0  0  0  0  0
   13.4123    2.9205   22.5813 C   0  0  0  0  0  0  0  0  0  0  0  0
   11.9209    1.3217   23.1266 C   0  0  0  0  0  0  0  0  0  0  0  0
   13.6434   -1.8640   22.7556 C   0  0  0  0  0  0  0  0  0  0  0  0
   13.9409   -0.6515   23.2363 C   0  0  0  0  0  0  0  0  0  0  0  0
   11.8786    4.8982   23.0438 C   0  0  0  0  0  0  0  0  0  0  0  0
   14.2029    0.5432   22.3790 C   0  0  0  0  0  0  0  0  0  0  0  0
   13.2152    1.5621   22.6842 N   0  0  0  0  0  0  0  0  0  0  0  0
   14.5278    3.3475   22.1936 O   0  5  0  0  0  0  0  0  0  0  0  0
   11.3927    0.2365   23.3338 O   0  0  0  0  0  0  0  0  0  0  0  0
   11.2607    2.5249   23.3163 O   0  0  0  0  0  0  0  0  0  0  0  0
   13.4571   -2.6916   23.4312 H   0  0  0  0  0  0  0  0  0  0  0  0
   13.5814   -2.0525   21.6894 H   0  0  0  0  0  0  0  0  0  0  0  0
   13.9840   -0.5161   24.3142 H   0  0  0  0  0  0  0  0  0  0  0  0
   11.4585    5.2351   22.0939 H   0  0  0  0  0  0  0  0  0  0  0  0
   12.7608    5.4996   23.2746 H   0  0  0  0  0  0  0  0  0  0  0  0
   11.1389    5.0507   23.8328 H   0  0  0  0  0  0  0  0  0  0  0  0
   14.1132    0.2684   21.3236 H   0  0  0  0  0  0  0  0  0  0  0  0
   15.2017    0.9609   22.5405 H   0  0  0  0  0  0  0  0  0  0  0  0
  1  2  2  0  0  0  0
  1  6  1  0  0  0  0
  1 11  1  0  0  0  0
  2  8  1  0  0  0  0
  2  9  1  0  0  0  0
  3  8  1  0  0  0  0
  3 10  2  0  0  0  0
  3 11  1  0  0  0  0
  4  5  2  0  0  0  0
  5  7  1  0  0  0  0
  7  8  1  0  0  0  0
  4 12  1  0  0  0  0
  4 13  1  0  0  0  0
  5 14  1  0  0  0  0
  6 15  1  0  0  0  0
  6 16  1  0  0  0  0
  6 17  1  0  0  0  0
  7 18  1  0  0  0  0
  7 19  1  0  0  0  0
M  CHG  1   9  -1
M  END
> <Hybrid2>
-6.598959

> <docked_fragment>
x0195

> <Mpro-_dock>
-0.463795

> <site>
active-noncovalent

$$$$
CHEMBL207413
  -OEChem-04122014263D

 84 88  0     1  0  0  0  0  0999 V2000
    8.8809    2.1101   25.3199 C   0  0  0  0  0  0  0  0  0  0  0  0
    9.8346    2.4166   24.4212 C   0  0  0  0  0  0  0  0  0  0  0  0
    8.2652    0.7611   25.4249 C   0  0  0  0  0  0  0  0  0  0  0  0
    9.6787    6.9346   24.5570 C   0  0  0  0  0  0  0  0  0  0  0  0
    5.3174   -5.9276   22.8826 C   0  0  0  0  0  0  0  0  0  0  0  0
   10.3231   -2.6409   23.5057 C   0  0  0  0  0  0  0  0  0  0  0  0
    6.1389   -3.3178   24.8168 C   0  0  0  0  0  0  0  0  0  0  0  0
   11.8660    1.6473   23.0261 C   0  0  0  0  0  0  0  0  0  0  0  0
   11.4512    6.2278   22.9332 C   0  0  0  0  0  0  0  0  0  0  0  0
   10.7123   -1.2174   23.1020 C   0  0  0  0  0  0  0  0  0  0  0  0
    6.6979   -1.8974   24.7672 C   0  0  0  0  0  0  0  0  0  0  0  0
   12.2323    3.1265   22.8682 C   0  0  0  0  0  0  0  0  0  0  0  0
   12.3094    5.4374   23.9175 C   0  0  0  0  0  0  0  0  0  0  0  0
    9.4897    4.7118   23.4202 C   0  0  0  0  0  0  0  0  0  0  0  0
   10.3497    3.8605   24.3861 C   0  0  2  0  0  0  0  0  0  0  0  0
    8.7102   -0.3322   24.4385 C   0  0  2  0  0  0  0  0  0  0  0  0
    8.7960   -2.7656   23.6640 C   0  0  2  0  0  0  0  0  0  0  0  0
    6.7027   -4.2020   23.7116 C   0  0  1  0  0  0  0  0  0  0  0  0
   10.3835    1.3719   23.4295 C   0  0  1  0  0  0  0  0  0  0  0  0
    9.9669    6.1562   23.2754 C   0  0  1  0  0  0  0  0  0  0  0  0
   11.8750    3.9619   24.1170 C   0  0  1  0  0  0  0  0  0  0  0  0
    8.2583   -1.8141   24.8032 C   0  0  2  0  0  0  0  0  0  0  0  0
   10.2282   -0.1137   24.0814 C   0  0  2  0  0  0  0  0  0  0  0  0
    8.2573   -4.2453   23.6818 C   0  0  0  0  0  0  0  0  0  0  0  0
    5.8673   -7.1863   22.2830 C   0  0  0  0  0  0  0  0  0  0  0  0
    9.5385    1.5220   22.1249 C   0  0  0  0  0  0  0  0  0  0  0  0
    9.1305    6.9090   22.2386 C   0  0  0  0  0  0  0  0  0  0  0  0
   12.6663    3.4417   25.3447 C   0  0  0  0  0  0  0  0  0  0  0  0
    8.7322   -2.2198   26.2205 C   0  0  0  0  0  0  0  0  0  0  0  0
   11.1225   -0.2404   25.3589 C   0  0  0  0  0  0  0  0  0  0  0  0
    8.6768   -4.9688   22.3703 C   0  0  0  0  0  0  0  0  0  0  0  0
    8.8175   -5.1018   24.8351 C   0  0  0  0  0  0  0  0  0  0  0  0
    8.4719    6.9362   24.9269 O   0  5  0  0  0  0  0  0  0  0  0  0
    7.3894    0.6009   26.2727 O   0  0  0  0  0  0  0  0  0  0  0  0
   10.6888    7.4791   25.0845 O   0  0  0  0  0  0  0  0  0  0  0  0
    4.2868   -5.3841   22.5091 O   0  0  0  0  0  0  0  0  0  0  0  0
    6.1373   -5.5009   23.8871 O   0  0  0  0  0  0  0  0  0  0  0  0
    8.4981    2.8577   26.0085 H   0  0  0  0  0  0  0  0  0  0  0  0
   10.6882   -3.2984   22.7114 H   0  0  0  0  0  0  0  0  0  0  0  0
   10.8544   -2.9461   24.4106 H   0  0  0  0  0  0  0  0  0  0  0  0
    6.3059   -3.7772   25.7972 H   0  0  0  0  0  0  0  0  0  0  0  0
    5.0461   -3.2756   24.7176 H   0  0  0  0  0  0  0  0  0  0  0  0
   12.0904    1.1359   22.0804 H   0  0  0  0  0  0  0  0  0  0  0  0
   12.5691    1.2212   23.7429 H   0  0  0  0  0  0  0  0  0  0  0  0
   11.7965    7.2699   22.9293 H   0  0  0  0  0  0  0  0  0  0  0  0
   11.6189    5.8484   21.9178 H   0  0  0  0  0  0  0  0  0  0  0  0
   11.8028   -1.1736   22.9890 H   0  0  0  0  0  0  0  0  0  0  0  0
   10.3056   -1.0598   22.1003 H   0  0  0  0  0  0  0  0  0  0  0  0
    6.3269   -1.4195   23.8509 H   0  0  0  0  0  0  0  0  0  0  0  0
    6.2555   -1.3441   25.6011 H   0  0  0  0  0  0  0  0  0  0  0  0
   13.3098    3.1967   22.6691 H   0  0  0  0  0  0  0  0  0  0  0  0
   11.7400    3.5290   21.9765 H   0  0  0  0  0  0  0  0  0  0  0  0
   13.3554    5.4776   23.5868 H   0  0  0  0  0  0  0  0  0  0  0  0
   12.2830    5.9586   24.8840 H   0  0  0  0  0  0  0  0  0  0  0  0
    9.4780    4.2631   22.4237 H   0  0  0  0  0  0  0  0  0  0  0  0
    8.4463    4.6957   23.7654 H   0  0  0  0  0  0  0  0  0  0  0  0
   10.1893    4.2929   25.3860 H   0  0  0  0  0  0  0  0  0  0  0  0
    8.1368   -0.1088   23.5291 H   0  0  0  0  0  0  0  0  0  0  0  0
    8.3825   -2.3485   22.7296 H   0  0  0  0  0  0  0  0  0  0  0  0
    6.3293   -3.8168   22.7532 H   0  0  0  0  0  0  0  0  0  0  0  0
    6.5418   -6.9408   21.4591 H   0  0  0  0  0  0  0  0  0  0  0  0
    5.0478   -7.8199   21.9346 H   0  0  0  0  0  0  0  0  0  0  0  0
    6.4310   -7.7341   23.0437 H   0  0  0  0  0  0  0  0  0  0  0  0
    9.8986    0.8025   21.4080 H   0  0  0  0  0  0  0  0  0  0  0  0
    9.6670    2.5265   21.7565 H   0  0  0  0  0  0  0  0  0  0  0  0
    8.5064    1.3336   22.3711 H   0  0  0  0  0  0  0  0  0  0  0  0
    9.2513    6.4438   21.2627 H   0  0  0  0  0  0  0  0  0  0  0  0
    9.4586    7.9448   22.1854 H   0  0  0  0  0  0  0  0  0  0  0  0
    8.0809    6.8790   22.5230 H   0  0  0  0  0  0  0  0  0  0  0  0
   12.4013    4.0395   26.2057 H   0  0  0  0  0  0  0  0  0  0  0  0
   13.7237    3.5311   25.1378 H   0  0  0  0  0  0  0  0  0  0  0  0
   12.4035    2.4064   25.5122 H   0  0  0  0  0  0  0  0  0  0  0  0
    9.8120   -2.1651   26.2552 H   0  0  0  0  0  0  0  0  0  0  0  0
    8.4033   -3.2306   26.4212 H   0  0  0  0  0  0  0  0  0  0  0  0
    8.3007   -1.5371   26.9402 H   0  0  0  0  0  0  0  0  0  0  0  0
   10.8093    0.5149   26.0594 H   0  0  0  0  0  0  0  0  0  0  0  0
   12.1468   -0.0901   25.0632 H   0  0  0  0  0  0  0  0  0  0  0  0
   10.9802   -1.2266   25.7670 H   0  0  0  0  0  0  0  0  0  0  0  0
    8.2986   -5.9794   22.4024 H   0  0  0  0  0  0  0  0  0  0  0  0
    9.7548   -4.9702   22.3115 H   0  0  0  0  0  0  0  0  0  0  0  0
    8.2530   -4.4326   21.5346 H   0  0  0  0  0  0  0  0  0  0  0  0
    8.3975   -6.0991   24.7725 H   0  0  0  0  0  0  0  0  0  0  0  0
    8.5444   -4.6462   25.7799 H   0  0  0  0  0  0  0  0  0  0  0  0
    9.8968   -5.1509   24.7483 H   0  0  0  0  0  0  0  0  0  0  0  0
  1  2  2  0  0  0  0
  1  3  1  0  0  0  0
  2 15  1  0  0  0  0
  2 19  1  0  0  0  0
  3 16  1  0  0  0  0
  3 34  2  0  0  0  0
  4 20  1  0  0  0  0
  4 33  1  0  0  0  0
  4 35  2  0  0  0  0
  5 25  1  0  0  0  0
  5 36  2  0  0  0  0
  5 37  1  0  0  0  0
  6 10  1  0  0  0  0
  6 17  1  0  0  0  0
  7 11  1  0  0  0  0
  7 18  1  0  0  0  0
  8 12  1  0  0  0  0
  8 19  1  0  0  0  0
  9 13  1  0  0  0  0
  9 20  1  0  0  0  0
 10 23  1  0  0  0  0
 11 22  1  0  0  0  0
 12 21  1  0  0  0  0
 13 21  1  0  0  0  0
 14 15  1  0  0  0  0
 14 20  1  0  0  0  0
 15 21  1  0  0  0  0
 16 22  1  0  0  0  0
 16 23  1  0  0  0  0
 17 22  1  0  0  0  0
 17 24  1  0  0  0  0
 18 24  1  0  0  0  0
 18 37  1  0  0  0  0
 19 23  1  0  0  0  0
 19 26  1  0  0  0  0
 20 27  1  0  0  0  0
 21 28  1  0  0  0  0
 22 29  1  0  0  0  0
 23 30  1  0  0  0  0
 24 31  1  0  0  0  0
 24 32  1  0  0  0  0
  1 38  1  0  0  0  0
  6 39  1  0  0  0  0
  6 40  1  0  0  0  0
  7 41  1  0  0  0  0
  7 42  1  0  0  0  0
  8 43  1  0  0  0  0
  8 44  1  0  0  0  0
  9 45  1  0  0  0  0
  9 46  1  0  0  0  0
 10 47  1  0  0  0  0
 10 48  1  0  0  0  0
 11 49  1  0  0  0  0
 11 50  1  0  0  0  0
 12 51  1  0  0  0  0
 12 52  1  0  0  0  0
 13 53  1  0  0  0  0
 13 54  1  0  0  0  0
 14 55  1  0  0  0  0
 14 56  1  0  0  0  0
 15 57  1  0  0  0  0
 16 58  1  0  0  0  0
 17 59  1  0  0  0  0
 18 60  1  0  0  0  0
 25 61  1  0  0  0  0
 25 62  1  0  0  0  0
 25 63  1  0  0  0  0
 26 64  1  0  0  0  0
 26 65  1  0  0  0  0
 26 66  1  0  0  0  0
 27 67  1  0  0  0  0
 27 68  1  0  0  0  0
 27 69  1  0  0  0  0
 28 70  1  0  0  0  0
 28 71  1  0  0  0  0
 28 72  1  0  0  0  0
 29 73  1  0  0  0  0
 29 74  1  0  0  0  0
 29 75  1  0  0  0  0
 30 76  1  0  0  0  0
 30 77  1  0  0  0  0
 30 78  1  0  0  0  0
 31 79  1  0  0  0  0
 31 80  1  0  0  0  0
 31 81  1  0  0  0  0
 32 82  1  0  0  0  0
 32 83  1  0  0  0  0
 32 84  1  0  0  0  0
M  CHG  1  33  -1
M  END
> <Hybrid2>
-6.594630

> <docked_fragment>
x0104

> <Mpro-_dock>
10.174428

> <site>
active-noncovalent

$$$$
DB02268
  -OEChem-04122014263D

 23 23  0     0  0  0  0  0  0999 V2000
    8.9109   -2.7276   22.7972 C   0  0  0  0  0  0  0  0  0  0  0  0
    9.9532   -2.9678   23.6925 C   0  0  0  0  0  0  0  0  0  0  0  0
    8.1444   -5.0013   23.0794 C   0  0  0  0  0  0  0  0  0  0  0  0
    8.0065   -3.7443   22.4907 C   0  0  0  0  0  0  0  0  0  0  0  0
   10.0911   -4.2248   24.2812 C   0  0  0  0  0  0  0  0  0  0  0  0
    9.1867   -5.2416   23.9747 C   0  0  0  0  0  0  0  0  0  0  0  0
    6.9069   -3.4895   21.5462 C   0  0  0  0  0  0  0  0  0  0  0  0
   12.1250   -3.5348   25.5895 C   0  0  0  0  0  0  0  0  0  0  0  0
   13.0838   -4.1606   26.5711 C   0  0  0  0  0  0  0  0  0  0  0  0
    9.3069   -6.5220   24.5606 N   0  0  0  0  0  0  0  0  0  0  0  0
   11.1419   -4.4417   25.1770 N   0  0  0  0  0  0  0  0  0  0  0  0
    6.0852   -4.4447   21.2793 O   0  5  0  0  0  0  0  0  0  0  0  0
    6.8027   -2.3199   21.0172 O   0  0  0  0  0  0  0  0  0  0  0  0
   12.2539   -2.3646   25.2447 O   0  0  0  0  0  0  0  0  0  0  0  0
    8.8125   -1.7446   22.3440 H   0  0  0  0  0  0  0  0  0  0  0  0
   10.6513   -2.1671   23.9237 H   0  0  0  0  0  0  0  0  0  0  0  0
    7.4385   -5.7938   22.8395 H   0  0  0  0  0  0  0  0  0  0  0  0
   13.9216   -4.6129   26.0330 H   0  0  0  0  0  0  0  0  0  0  0  0
   12.5709   -4.9372   27.1457 H   0  0  0  0  0  0  0  0  0  0  0  0
   13.4598   -3.4003   27.2620 H   0  0  0  0  0  0  0  0  0  0  0  0
   10.0799   -6.7083   25.1648 H   0  0  0  0  0  0  0  0  0  0  0  0
    8.6719   -7.2422   24.2863 H   0  0  0  0  0  0  0  0  0  0  0  0
   11.2029   -5.3804   25.5853 H   0  0  0  0  0  0  0  0  0  0  0  0
  1  2  2  0  0  0  0
  1  4  1  0  0  0  0
  2  5  1  0  0  0  0
  3  4  2  0  0  0  0
  3  6  1  0  0  0  0
  4  7  1  0  0  0  0
  5  6  2  0  0  0  0
  5 11  1  0  0  0  0
  6 10  1  0  0  0  0
  7 12  1  0  0  0  0
  7 13  2  0  0  0  0
  8  9  1  0  0  0  0
  8 11  1  0  0  0  0
  8 14  2  0  0  0  0
  1 15  1  0  0  0  0
  2 16  1  0  0  0  0
  3 17  1  0  0  0  0
  9 18  1  0  0  0  0
  9 19  1  0  0  0  0
  9 20  1  0  0  0  0
 10 21  1  0  0  0  0
 10 22  1  0  0  0  0
 11 23  1  0  0  0  0
M  CHG  1  12  -1
M  END
> <Hybrid2>
-6.583210

> <docked_fragment>
x0749

> <Mpro-_dock>
-1.360268

> <site>
active-covalent

$$$$
DB04619
  -OEChem-04122014263D

 17 17  0     0  0  0  0  0  0999 V2000
   13.6570   -1.9154   23.5678 C   0  0  0  0  0  0  0  0  0  0  0  0
   13.1660   -1.1330   24.6128 C   0  0  0  0  0  0  0  0  0  0  0  0
   13.8292   -1.3583   22.3006 C   0  0  0  0  0  0  0  0  0  0  0  0
   12.8470    0.2067   24.3908 C   0  0  0  0  0  0  0  0  0  0  0  0
   13.5102   -0.0186   22.0786 C   0  0  0  0  0  0  0  0  0  0  0  0
   13.0191    0.7639   23.1237 C   0  0  0  0  0  0  0  0  0  0  0  0
   12.6865    2.1605   22.8923 C   0  0  0  0  0  0  0  0  0  0  0  0
   11.5897    2.7592   23.7241 C   0  0  0  0  0  0  0  0  0  0  0  0
   13.2337    2.8889   22.0615 O   0  0  0  0  0  0  0  0  0  0  0  0
   13.9053   -2.9585   23.7406 H   0  0  0  0  0  0  0  0  0  0  0  0
   13.0318   -1.5670   25.5993 H   0  0  0  0  0  0  0  0  0  0  0  0
   14.2118   -1.9674   21.4869 H   0  0  0  0  0  0  0  0  0  0  0  0
   12.4651    0.8073   25.2124 H   0  0  0  0  0  0  0  0  0  0  0  0
   13.6483    0.4049   21.0871 H   0  0  0  0  0  0  0  0  0  0  0  0
   11.9394    3.2133   24.6647 H   0  0  0  0  0  0  0  0  0  0  0  0
   10.7975    2.0385   23.9799 H   0  0  0  0  0  0  0  0  0  0  0  0
   11.0585    3.5839   23.2163 H   0  0  0  0  0  0  0  0  0  0  0  0
  1  2  1  0  0  0  0
  1  3  2  0  0  0  0
  2  4  2  0  0  0  0
  3  5  1  0  0  0  0
  4  6  1  0  0  0  0
  5  6  2  0  0  0  0
  6  7  1  0  0  0  0
  7  8  1  0  0  0  0
  7  9  2  0  0  0  0
  1 10  1  0  0  0  0
  2 11  1  0  0  0  0
  3 12  1  0  0  0  0
  4 13  1  0  0  0  0
  5 14  1  0  0  0  0
  8 15  1  0  0  0  0
  8 16  1  0  0  0  0
  8 17  1  0  0  0  0
M  END
> <Hybrid2>
-6.579109

> <docked_fragment>
x0161

> <Mpro-_dock>
1.253029

> <site>
active-noncovalent

$$$$
CHEMBL112687
  -OEChem-04122014263D

 21 21  0     0  0  0  0  0  0999 V2000
    8.8486   -2.7793   22.7610 C   0  0  0  0  0  0  0  0  0  0  0  0
    7.8078   -4.9097   23.2248 C   0  0  0  0  0  0  0  0  0  0  0  0
    9.8476   -3.0647   23.6917 C   0  0  0  0  0  0  0  0  0  0  0  0
    8.8068   -5.1952   24.1555 C   0  0  0  0  0  0  0  0  0  0  0  0
    7.8287   -3.7018   22.5276 C   0  0  0  0  0  0  0  0  0  0  0  0
    9.8267   -4.2727   24.3889 C   0  0  0  0  0  0  0  0  0  0  0  0
    6.7749   -3.4013   21.5451 C   0  0  0  0  0  0  0  0  0  0  0  0
   11.9212   -3.7641   25.6846 C   0  0  0  0  0  0  0  0  0  0  0  0
   12.7747   -4.4353   26.7312 C   0  0  0  0  0  0  0  0  0  0  0  0
   10.8261   -4.5586   25.3193 N   0  0  0  0  0  0  0  0  0  0  0  0
    5.8449   -4.2703   21.3483 O   0  5  0  0  0  0  0  0  0  0  0  0
    6.8174   -2.2794   20.9140 O   0  0  0  0  0  0  0  0  0  0  0  0
   12.2124   -2.6526   25.2548 O   0  0  0  0  0  0  0  0  0  0  0  0
    8.8741   -1.8347   22.2238 H   0  0  0  0  0  0  0  0  0  0  0  0
    7.0169   -5.6352   23.0516 H   0  0  0  0  0  0  0  0  0  0  0  0
   10.6377   -2.3386   23.8657 H   0  0  0  0  0  0  0  0  0  0  0  0
    8.7806   -6.1397   24.6928 H   0  0  0  0  0  0  0  0  0  0  0  0
   13.5488   -5.0374   26.2472 H   0  0  0  0  0  0  0  0  0  0  0  0
   12.1543   -5.0880   27.3519 H   0  0  0  0  0  0  0  0  0  0  0  0
   13.2434   -3.6812   27.3705 H   0  0  0  0  0  0  0  0  0  0  0  0
   10.7558   -5.4626   25.8006 H   0  0  0  0  0  0  0  0  0  0  0  0
  1  3  2  0  0  0  0
  1  5  1  0  0  0  0
  2  4  1  0  0  0  0
  2  5  2  0  0  0  0
  3  6  1  0  0  0  0
  4  6  2  0  0  0  0
  5  7  1  0  0  0  0
  6 10  1  0  0  0  0
  7 11  1  0  0  0  0
  7 12  2  0  0  0  0
  8  9  1  0  0  0  0
  8 10  1  0  0  0  0
  8 13  2  0  0  0  0
  1 14  1  0  0  0  0
  2 15  1  0  0  0  0
  3 16  1  0  0  0  0
  4 17  1  0  0  0  0
  9 18  1  0  0  0  0
  9 19  1  0  0  0  0
  9 20  1  0  0  0  0
 10 21  1  0  0  0  0
M  CHG  1  11  -1
M  END
> <Hybrid2>
-6.577055

> <docked_fragment>
x0749

> <Mpro-_dock>
-1.542238

> <site>
active-covalent

$$$$
CHEMBL2104369
  -OEChem-04122014263D

 35 34  0     0  0  0  0  0  0999 V2000
    6.4314   -5.3999   27.2900 C   0  0  0  0  0  0  0  0  0  0  0  0
   10.4414   -1.6818   22.8059 C   0  0  0  0  0  0  0  0  0  0  0  0
    7.3002   -6.0573   21.7662 C   0  0  0  0  0  0  0  0  0  0  0  0
    7.1354   -5.1016   25.9734 C   0  0  0  0  0  0  0  0  0  0  0  0
   10.4214   -3.1622   23.1598 C   0  0  0  0  0  0  0  0  0  0  0  0
    7.6983   -5.1816   22.9467 C   0  0  0  0  0  0  0  0  0  0  0  0
    8.6605   -5.1317   26.1409 C   0  0  0  0  0  0  0  0  0  0  0  0
    9.6106   -3.4162   24.4358 C   0  0  0  0  0  0  0  0  0  0  0  0
    8.9299   -5.7487   23.6657 C   0  0  0  0  0  0  0  0  0  0  0  0
    9.4849   -4.9071   24.8483 C   0  0  0  0  0  0  0  0  0  0  0  0
   10.8936   -5.3759   25.1177 N   0  3  0  0  0  0  0  0  0  0  0  0
    6.7218   -4.6802   28.0619 H   0  0  0  0  0  0  0  0  0  0  0  0
    6.6965   -6.4016   27.6425 H   0  0  0  0  0  0  0  0  0  0  0  0
    5.3439   -5.3585   27.1719 H   0  0  0  0  0  0  0  0  0  0  0  0
   10.8602   -1.0882   23.6249 H   0  0  0  0  0  0  0  0  0  0  0  0
   11.0556   -1.5136   21.9157 H   0  0  0  0  0  0  0  0  0  0  0  0
    9.4316   -1.3149   22.5957 H   0  0  0  0  0  0  0  0  0  0  0  0
    7.0861   -7.0806   22.0911 H   0  0  0  0  0  0  0  0  0  0  0  0
    6.4106   -5.6613   21.2661 H   0  0  0  0  0  0  0  0  0  0  0  0
    8.1123   -6.0966   21.0335 H   0  0  0  0  0  0  0  0  0  0  0  0
    6.8147   -5.8441   25.2358 H   0  0  0  0  0  0  0  0  0  0  0  0
    6.8075   -4.1200   25.6161 H   0  0  0  0  0  0  0  0  0  0  0  0
    9.9968   -3.7169   22.3168 H   0  0  0  0  0  0  0  0  0  0  0  0
   11.4539   -3.5022   23.2887 H   0  0  0  0  0  0  0  0  0  0  0  0
    7.9018   -4.1726   22.5747 H   0  0  0  0  0  0  0  0  0  0  0  0
    6.8467   -5.1165   23.6318 H   0  0  0  0  0  0  0  0  0  0  0  0
    8.9273   -4.3679   26.8823 H   0  0  0  0  0  0  0  0  0  0  0  0
    8.9459   -6.0936   26.5859 H   0  0  0  0  0  0  0  0  0  0  0  0
   10.0752   -2.8544   25.2584 H   0  0  0  0  0  0  0  0  0  0  0  0
    8.6117   -2.9777   24.3124 H   0  0  0  0  0  0  0  0  0  0  0  0
    8.6831   -6.7560   24.0284 H   0  0  0  0  0  0  0  0  0  0  0  0
    9.7226   -5.8792   22.9183 H   0  0  0  0  0  0  0  0  0  0  0  0
   10.9066   -6.3893   25.1992 H   0  0  0  0  0  0  0  0  0  0  0  0
   11.2301   -4.9643   25.9846 H   0  0  0  0  0  0  0  0  0  0  0  0
   11.5002   -5.0920   24.3525 H   0  0  0  0  0  0  0  0  0  0  0  0
  1  4  1  0  0  0  0
  2  5  1  0  0  0  0
  3  6  1  0  0  0  0
  4  7  1  0  0  0  0
  5  8  1  0  0  0  0
  6  9  1  0  0  0  0
  7 10  1  0  0  0  0
  8 10  1  0  0  0  0
  9 10  1  0  0  0  0
 10 11  1  0  0  0  0
  1 12  1  0  0  0  0
  1 13  1  0  0  0  0
  1 14  1  0  0  0  0
  2 15  1  0  0  0  0
  2 16  1  0  0  0  0
  2 17  1  0  0  0  0
  3 18  1  0  0  0  0
  3 19  1  0  0  0  0
  3 20  1  0  0  0  0
  4 21  1  0  0  0  0
  4 22  1  0  0  0  0
  5 23  1  0  0  0  0
  5 24  1  0  0  0  0
  6 25  1  0  0  0  0
  6 26  1  0  0  0  0
  7 27  1  0  0  0  0
  7 28  1  0  0  0  0
  8 29  1  0  0  0  0
  8 30  1  0  0  0  0
  9 31  1  0  0  0  0
  9 32  1  0  0  0  0
 11 33  1  0  0  0  0
 11 34  1  0  0  0  0
 11 35  1  0  0  0  0
M  CHG  1  11   1
M  END
> <Hybrid2>
-6.529293

> <docked_fragment>
x1077

> <Mpro-_dock>
-0.367034

> <site>
active-noncovalent

$$$$
DB02278
  -OEChem-04122014263D

 26 27  0     0  0  0  0  0  0999 V2000
    7.2433   -1.7759   20.6019 C   0  0  0  0  0  0  0  0  0  0  0  0
    7.9162   -0.6113   20.5008 C   0  0  0  0  0  0  0  0  0  0  0  0
    6.2663   -2.1667   19.5572 C   0  0  0  0  0  0  0  0  0  0  0  0
    8.2791   -2.4001   22.7176 C   0  0  0  0  0  0  0  0  0  0  0  0
    6.8815   -0.0616   18.5026 C   0  0  0  0  0  0  0  0  0  0  0  0
    9.2268   -1.2023   22.5840 C   0  0  0  0  0  0  0  0  0  0  0  0
   10.6260   -1.7285   22.2474 C   0  0  0  0  0  0  0  0  0  0  0  0
    9.2520   -0.4203   23.8996 C   0  0  0  0  0  0  0  0  0  0  0  0
    7.7308    0.2562   19.4386 N   0  0  0  0  0  0  0  0  0  0  0  0
    7.4066   -2.6196   21.6703 N   0  0  0  0  0  0  0  0  0  0  0  0
    8.8054   -0.3053   21.5201 N   0  0  0  0  0  0  0  0  0  0  0  0
    6.1569   -1.2415   18.5410 N   0  0  0  0  0  0  0  0  0  0  0  0
    6.6457    0.7449   17.4204 N   0  0  0  0  0  0  0  0  0  0  0  0
    5.6299   -3.2139   19.6135 O   0  0  0  0  0  0  0  0  0  0  0  0
    8.3341   -3.1598   23.6874 O   0  0  0  0  0  0  0  0  0  0  0  0
   11.3149   -0.8935   22.1481 H   0  0  0  0  0  0  0  0  0  0  0  0
   10.5918   -2.2809   21.3117 H   0  0  0  0  0  0  0  0  0  0  0  0
   10.9687   -2.3862   23.0423 H   0  0  0  0  0  0  0  0  0  0  0  0
    9.9239    0.4300   23.8068 H   0  0  0  0  0  0  0  0  0  0  0  0
    9.5991   -1.0665   24.7025 H   0  0  0  0  0  0  0  0  0  0  0  0
    8.2511   -0.0637   24.1322 H   0  0  0  0  0  0  0  0  0  0  0  0
    6.8180   -3.4473   21.7066 H   0  0  0  0  0  0  0  0  0  0  0  0
    9.3016    0.5741   21.4096 H   0  0  0  0  0  0  0  0  0  0  0  0
    5.5116   -1.4352   17.7810 H   0  0  0  0  0  0  0  0  0  0  0  0
    7.1446    1.6021   17.3538 H   0  0  0  0  0  0  0  0  0  0  0  0
    5.9847    0.4429   16.7423 H   0  0  0  0  0  0  0  0  0  0  0  0
  1  2  2  0  0  0  0
  1  3  1  0  0  0  0
  1 10  1  0  0  0  0
  2  9  1  0  0  0  0
  2 11  1  0  0  0  0
  3 12  1  0  0  0  0
  3 14  2  0  0  0  0
  4  6  1  0  0  0  0
  4 10  1  0  0  0  0
  4 15  2  0  0  0  0
  5  9  2  0  0  0  0
  5 12  1  0  0  0  0
  5 13  1  0  0  0  0
  6  7  1  0  0  0  0
  6  8  1  0  0  0  0
  6 11  1  0  0  0  0
  7 16  1  0  0  0  0
  7 17  1  0  0  0  0
  7 18  1  0  0  0  0
  8 19  1  0  0  0  0
  8 20  1  0  0  0  0
  8 21  1  0  0  0  0
 10 22  1  0  0  0  0
 11 23  1  0  0  0  0
 12 24  1  0  0  0  0
 13 25  1  0  0  0  0
 13 26  1  0  0  0  0
M  END
> <Hybrid2>
-6.526858

> <docked_fragment>
x1386

> <Mpro-_dock>
-1.237144

> <site>
active-covalent

$$$$
CHEMBL1885632
  -OEChem-04122014263D

 24 24  0     0  0  0  0  0  0999 V2000
    9.1075   -5.0391   23.8408 C   0  0  0  0  0  0  0  0  0  0  0  0
    9.3491   -2.9099   22.7250 C   0  0  0  0  0  0  0  0  0  0  0  0
   10.1936   -4.7328   24.6606 C   0  0  0  0  0  0  0  0  0  0  0  0
   10.4352   -2.6034   23.5449 C   0  0  0  0  0  0  0  0  0  0  0  0
    8.6853   -4.1277   22.8729 C   0  0  0  0  0  0  0  0  0  0  0  0
   10.8574   -3.5149   24.5127 C   0  0  0  0  0  0  0  0  0  0  0  0
   12.7272   -2.0464   25.3321 C   0  0  0  0  0  0  0  0  0  0  0  0
    6.2324   -3.9662   22.6502 C   0  0  0  0  0  0  0  0  0  0  0  0
   13.8114   -2.1026   26.3790 C   0  0  0  0  0  0  0  0  0  0  0  0
    7.5241   -4.4554   21.9963 C   0  0  0  0  0  0  0  0  0  0  0  0
   11.9436   -3.2081   25.3328 N   0  0  0  0  0  0  0  0  0  0  0  0
    5.1736   -4.2307   22.0133 O   0  5  0  0  0  0  0  0  0  0  0  0
   12.6059   -1.0654   24.6057 O   0  0  0  0  0  0  0  0  0  0  0  0
    6.3828   -3.3507   23.7435 O   0  0  0  0  0  0  0  0  0  0  0  0
    8.5976   -5.9913   23.9615 H   0  0  0  0  0  0  0  0  0  0  0  0
    9.0273   -2.1942   21.9730 H   0  0  0  0  0  0  0  0  0  0  0  0
   10.5138   -5.4504   25.4119 H   0  0  0  0  0  0  0  0  0  0  0  0
   10.9460   -1.6519   23.4204 H   0  0  0  0  0  0  0  0  0  0  0  0
   14.7151   -2.5470   25.9526 H   0  0  0  0  0  0  0  0  0  0  0  0
   13.4798   -2.7145   27.2228 H   0  0  0  0  0  0  0  0  0  0  0  0
   14.0342   -1.0943   26.7401 H   0  0  0  0  0  0  0  0  0  0  0  0
    7.6357   -3.9940   21.0027 H   0  0  0  0  0  0  0  0  0  0  0  0
    7.4607   -5.5393   21.8131 H   0  0  0  0  0  0  0  0  0  0  0  0
   12.2061   -3.9181   26.0263 H   0  0  0  0  0  0  0  0  0  0  0  0
  1  3  2  0  0  0  0
  1  5  1  0  0  0  0
  2  4  1  0  0  0  0
  2  5  2  0  0  0  0
  3  6  1  0  0  0  0
  4  6  2  0  0  0  0
  5 10  1  0  0  0  0
  6 11  1  0  0  0  0
  7  9  1  0  0  0  0
  7 11  1  0  0  0  0
  7 13  2  0  0  0  0
  8 10  1  0  0  0  0
  8 12  1  0  0  0  0
  8 14  2  0  0  0  0
  1 15  1  0  0  0  0
  2 16  1  0  0  0  0
  3 17  1  0  0  0  0
  4 18  1  0  0  0  0
  9 19  1  0  0  0  0
  9 20  1  0  0  0  0
  9 21  1  0  0  0  0
 10 22  1  0  0  0  0
 10 23  1  0  0  0  0
 11 24  1  0  0  0  0
M  CHG  1  12  -1
M  END
> <Hybrid2>
-6.518070

> <docked_fragment>
x0749

> <Mpro-_dock>
-0.622058

> <site>
active-covalent

$$$$
CHEMBL2110937
  -OEChem-04122014263D

 32 32  0     0  0  0  0  0  0999 V2000
   11.5120    1.1610   22.2370 C   0  0  0  0  0  0  0  0  0  0  0  0
   13.6987    0.5135   23.4178 C   0  0  0  0  0  0  0  0  0  0  0  0
   13.3863    2.7513   22.4308 C   0  0  0  0  0  0  0  0  0  0  0  0
    9.4142    1.8965   24.8259 C   0  0  0  0  0  0  0  0  0  0  0  0
   10.0849    0.7786   24.5259 C   0  0  0  0  0  0  0  0  0  0  0  0
   12.1943    0.2871   23.2870 C   0  0  0  0  0  0  0  0  0  0  0  0
   13.8771   -1.3989   21.3531 C   0  0  0  0  0  0  0  0  0  0  0  0
   12.0169   -3.0729   21.3316 C   0  0  0  0  0  0  0  0  0  0  0  0
   11.5665    0.6448   24.6460 C   0  0  0  0  0  0  0  0  0  0  0  0
   11.9239   -1.1922   22.9763 C   0  0  0  0  0  0  0  0  0  0  0  0
   12.3774   -1.6049   21.5710 C   0  0  0  0  0  0  0  0  0  0  0  0
   12.1232    2.3859   22.0159 N   0  0  0  0  0  0  0  0  0  0  0  0
   14.1228    1.7936   23.0950 N   0  0  0  0  0  0  0  0  0  0  0  0
   10.4643    0.8379   21.6779 O   0  0  0  0  0  0  0  0  0  0  0  0
   14.4694   -0.3478   23.8411 O   0  0  0  0  0  0  0  0  0  0  0  0
   14.0167    4.2622   22.0918 S   0  0  0  0  0  0  0  0  0  0  0  0
    8.3362    1.9559   24.7258 H   0  0  0  0  0  0  0  0  0  0  0  0
    9.9421    2.7753   25.1798 H   0  0  0  0  0  0  0  0  0  0  0  0
    9.5244   -0.0923   24.1955 H   0  0  0  0  0  0  0  0  0  0  0  0
   14.4661   -1.9816   22.0693 H   0  0  0  0  0  0  0  0  0  0  0  0
   14.1542   -0.3458   21.4600 H   0  0  0  0  0  0  0  0  0  0  0  0
   14.1690   -1.7097   20.3440 H   0  0  0  0  0  0  0  0  0  0  0  0
   12.5282   -3.7293   22.0441 H   0  0  0  0  0  0  0  0  0  0  0  0
   12.3006   -3.3838   20.3204 H   0  0  0  0  0  0  0  0  0  0  0  0
   10.9385   -3.2314   21.4377 H   0  0  0  0  0  0  0  0  0  0  0  0
   12.0296    1.5643   25.0056 H   0  0  0  0  0  0  0  0  0  0  0  0
   11.8046   -0.1474   25.3558 H   0  0  0  0  0  0  0  0  0  0  0  0
   12.4192   -1.8002   23.7369 H   0  0  0  0  0  0  0  0  0  0  0  0
   10.8483   -1.3568   23.0789 H   0  0  0  0  0  0  0  0  0  0  0  0
   11.8373   -1.0013   20.8305 H   0  0  0  0  0  0  0  0  0  0  0  0
   11.5899    3.0796   21.4994 H   0  0  0  0  0  0  0  0  0  0  0  0
   15.0655    2.0501   23.3744 H   0  0  0  0  0  0  0  0  0  0  0  0
  1  6  1  0  0  0  0
  1 12  1  0  0  0  0
  1 14  2  0  0  0  0
  2  6  1  0  0  0  0
  2 13  1  0  0  0  0
  2 15  2  0  0  0  0
  3 12  1  0  0  0  0
  3 13  1  0  0  0  0
  3 16  2  0  0  0  0
  4  5  2  0  0  0  0
  5  9  1  0  0  0  0
  6  9  1  0  0  0  0
  6 10  1  0  0  0  0
  7 11  1  0  0  0  0
  8 11  1  0  0  0  0
 10 11  1  0  0  0  0
  4 17  1  0  0  0  0
  4 18  1  0  0  0  0
  5 19  1  0  0  0  0
  7 20  1  0  0  0  0
  7 21  1  0  0  0  0
  7 22  1  0  0  0  0
  8 23  1  0  0  0  0
  8 24  1  0  0  0  0
  8 25  1  0  0  0  0
  9 26  1  0  0  0  0
  9 27  1  0  0  0  0
 10 28  1  0  0  0  0
 10 29  1  0  0  0  0
 11 30  1  0  0  0  0
 12 31  1  0  0  0  0
 13 32  1  0  0  0  0
M  END
> <Hybrid2>
-6.505419

> <docked_fragment>
x0195

> <Mpro-_dock>
2.269261

> <site>
active-noncovalent

$$$$
CHEMBL141837
  -OEChem-04122014263D

 57 57  0     1  0  0  0  0  0999 V2000
    9.6997   -2.7568   22.6891 C   0  0  0  0  0  0  0  0  0  0  0  0
    8.9883   -3.2232   23.7889 C   0  0  0  0  0  0  0  0  0  0  0  0
    9.2557   -1.6285   22.0085 C   0  0  0  0  0  0  0  0  0  0  0  0
    7.8483   -2.5312   24.1649 C   0  0  0  0  0  0  0  0  0  0  0  0
    8.1037   -1.0080   22.4641 C   0  0  0  0  0  0  0  0  0  0  0  0
    7.2859   -0.1737   20.2618 C   0  0  0  0  0  0  0  0  0  0  0  0
    4.5715    2.6428   22.8205 C   0  0  0  0  0  0  0  0  0  0  0  0
    5.6849    2.6236   20.5914 C   0  0  0  0  0  0  0  0  0  0  0  0
   10.4319    2.6969   25.3830 C   0  0  0  0  0  0  0  0  0  0  0  0
    9.4678    4.6800   24.1535 C   0  0  0  0  0  0  0  0  0  0  0  0
   12.3199    1.5339   23.7195 C   0  0  0  0  0  0  0  0  0  0  0  0
   12.4548    3.1365   21.7733 C   0  0  0  0  0  0  0  0  0  0  0  0
    8.7050    1.3445   21.7155 C   0  0  0  0  0  0  0  0  0  0  0  0
    6.2709    0.8465   22.3748 C   0  0  0  0  0  0  0  0  0  0  0  0
    9.2276    1.7406   23.0962 C   0  0  0  0  0  0  0  0  0  0  0  0
    5.8736    2.3156   22.0750 C   0  0  0  0  0  0  0  0  0  0  0  0
   10.5232    3.5859   24.1532 C   0  0  0  0  0  0  0  0  0  0  0  0
   11.6180    2.0896   22.4909 C   0  0  0  0  0  0  0  0  0  0  0  0
    7.5771    0.2560   21.7279 C   0  0  2  0  0  0  0  0  0  0  0  0
    7.3860   -1.4316   23.5286 N   0  0  0  0  0  0  0  0  0  0  0  0
    6.3491   -1.1769   20.1260 N   0  0  0  0  0  0  0  0  0  0  0  0
   10.3236    2.7290   22.9278 N   0  3  0  0  0  0  0  0  0  0  0  0
    7.8592    0.3211   19.2912 O   0  0  0  0  0  0  0  0  0  0  0  0
   10.5984   -3.2716   22.3631 H   0  0  0  0  0  0  0  0  0  0  0  0
    9.3158   -4.1007   24.3346 H   0  0  0  0  0  0  0  0  0  0  0  0
    9.8017   -1.2545   21.1490 H   0  0  0  0  0  0  0  0  0  0  0  0
    7.2580   -2.8542   25.0161 H   0  0  0  0  0  0  0  0  0  0  0  0
    3.7480    2.0053   22.4806 H   0  0  0  0  0  0  0  0  0  0  0  0
    4.6920    2.4969   23.8993 H   0  0  0  0  0  0  0  0  0  0  0  0
    4.2812    3.6866   22.6593 H   0  0  0  0  0  0  0  0  0  0  0  0
    4.9245    1.9684   20.1518 H   0  0  0  0  0  0  0  0  0  0  0  0
    6.6139    2.4779   20.0310 H   0  0  0  0  0  0  0  0  0  0  0  0
    5.3373    3.6475   20.4378 H   0  0  0  0  0  0  0  0  0  0  0  0
    9.4304    2.2628   25.4708 H   0  0  0  0  0  0  0  0  0  0  0  0
   11.1534    1.8734   25.3389 H   0  0  0  0  0  0  0  0  0  0  0  0
   10.6293    3.2689   26.2961 H   0  0  0  0  0  0  0  0  0  0  0  0
    8.4653    4.2478   24.2400 H   0  0  0  0  0  0  0  0  0  0  0  0
    9.5012    5.2719   23.2322 H   0  0  0  0  0  0  0  0  0  0  0  0
    9.6110    5.3627   24.9980 H   0  0  0  0  0  0  0  0  0  0  0  0
   12.5924    2.3425   24.4058 H   0  0  0  0  0  0  0  0  0  0  0  0
   11.6808    0.8303   24.2645 H   0  0  0  0  0  0  0  0  0  0  0  0
   13.2395    1.0076   23.4415 H   0  0  0  0  0  0  0  0  0  0  0  0
   12.7273    3.9467   22.4578 H   0  0  0  0  0  0  0  0  0  0  0  0
   11.9121    3.5765   20.9295 H   0  0  0  0  0  0  0  0  0  0  0  0
   13.3820    2.6999   21.3868 H   0  0  0  0  0  0  0  0  0  0  0  0
    8.3432    2.2424   21.1974 H   0  0  0  0  0  0  0  0  0  0  0  0
    9.5539    1.0079   21.1054 H   0  0  0  0  0  0  0  0  0  0  0  0
    6.3764    0.7825   23.4666 H   0  0  0  0  0  0  0  0  0  0  0  0
    5.4105    0.2094   22.1308 H   0  0  0  0  0  0  0  0  0  0  0  0
    9.6566    0.8955   23.6408 H   0  0  0  0  0  0  0  0  0  0  0  0
    8.4689    2.2287   23.7122 H   0  0  0  0  0  0  0  0  0  0  0  0
    6.6394    2.9914   22.4710 H   0  0  0  0  0  0  0  0  0  0  0  0
   11.5249    4.0191   24.0666 H   0  0  0  0  0  0  0  0  0  0  0  0
   11.3461    1.2802   21.8056 H   0  0  0  0  0  0  0  0  0  0  0  0
    6.1039   -1.5130   19.2009 H   0  0  0  0  0  0  0  0  0  0  0  0
    5.9028   -1.5819   20.9422 H   0  0  0  0  0  0  0  0  0  0  0  0
   10.0512    3.3745   22.1674 H   0  0  0  0  0  0  0  0  0  0  0  0
  1  2  1  0  0  0  0
  1  3  2  0  0  0  0
  2  4  2  0  0  0  0
  3  5  1  0  0  0  0
  4 20  1  0  0  0  0
  5 19  1  0  0  0  0
  5 20  2  0  0  0  0
  6 19  1  0  0  0  0
  6 21  1  0  0  0  0
  6 23  2  0  0  0  0
  7 16  1  0  0  0  0
  8 16  1  0  0  0  0
  9 17  1  0  0  0  0
 10 17  1  0  0  0  0
 11 18  1  0  0  0  0
 12 18  1  0  0  0  0
 13 15  1  0  0  0  0
 13 19  1  0  0  0  0
 14 16  1  0  0  0  0
 14 19  1  0  0  0  0
 15 22  1  0  0  0  0
 17 22  1  0  0  0  0
 18 22  1  0  0  0  0
  1 24  1  0  0  0  0
  2 25  1  0  0  0  0
  3 26  1  0  0  0  0
  4 27  1  0  0  0  0
  7 28  1  0  0  0  0
  7 29  1  0  0  0  0
  7 30  1  0  0  0  0
  8 31  1  0  0  0  0
  8 32  1  0  0  0  0
  8 33  1  0  0  0  0
  9 34  1  0  0  0  0
  9 35  1  0  0  0  0
  9 36  1  0  0  0  0
 10 37  1  0  0  0  0
 10 38  1  0  0  0  0
 10 39  1  0  0  0  0
 11 40  1  0  0  0  0
 11 41  1  0  0  0  0
 11 42  1  0  0  0  0
 12 43  1  0  0  0  0
 12 44  1  0  0  0  0
 12 45  1  0  0  0  0
 13 46  1  0  0  0  0
 13 47  1  0  0  0  0
 14 48  1  0  0  0  0
 14 49  1  0  0  0  0
 15 50  1  0  0  0  0
 15 51  1  0  0  0  0
 16 52  1  0  0  0  0
 17 53  1  0  0  0  0
 18 54  1  0  0  0  0
 21 55  1  0  0  0  0
 21 56  1  0  0  0  0
 22 57  1  0  0  0  0
M  CHG  1  22   1
M  END
> <Hybrid2>
-6.502604

> <docked_fragment>
x0967

> <Mpro-_dock>
1.868185

> <site>
active-noncovalent

$$$$
DB02440
  -OEChem-04122014263D

 26 25  0     0  0  0  0  0  0999 V2000
    7.9769   -5.1611   21.8282 C   0  0  0  0  0  0  0  0  0  0  0  0
   13.8351   -1.5154   25.5491 C   0  0  0  0  0  0  0  0  0  0  0  0
    7.6217   -5.2767   23.3028 C   0  0  0  0  0  0  0  0  0  0  0  0
   12.9919   -2.7659   25.7403 C   0  0  0  0  0  0  0  0  0  0  0  0
    8.8757   -5.3099   24.1772 C   0  0  0  0  0  0  0  0  0  0  0  0
   11.7974   -2.7872   24.7868 C   0  0  0  0  0  0  0  0  0  0  0  0
    9.7539   -4.0640   24.0301 C   0  0  0  0  0  0  0  0  0  0  0  0
   10.9702   -4.0633   24.9588 C   0  0  0  0  0  0  0  0  0  0  0  0
    8.6121   -5.9946   21.5115 H   0  0  0  0  0  0  0  0  0  0  0  0
    7.0761   -5.1589   21.2060 H   0  0  0  0  0  0  0  0  0  0  0  0
    8.5204   -4.2294   21.6415 H   0  0  0  0  0  0  0  0  0  0  0  0
   13.2271   -0.6200   25.7118 H   0  0  0  0  0  0  0  0  0  0  0  0
   14.2436   -1.4690   24.5345 H   0  0  0  0  0  0  0  0  0  0  0  0
   14.6696   -1.4928   26.2572 H   0  0  0  0  0  0  0  0  0  0  0  0
    6.9881   -4.4266   23.5769 H   0  0  0  0  0  0  0  0  0  0  0  0
    7.0327   -6.1876   23.4601 H   0  0  0  0  0  0  0  0  0  0  0  0
   13.6177   -3.6503   25.5733 H   0  0  0  0  0  0  0  0  0  0  0  0
   12.6411   -2.8078   26.7779 H   0  0  0  0  0  0  0  0  0  0  0  0
    8.5760   -5.3936   25.2294 H   0  0  0  0  0  0  0  0  0  0  0  0
    9.4657   -6.2052   23.9457 H   0  0  0  0  0  0  0  0  0  0  0  0
   11.1644   -1.9108   24.9722 H   0  0  0  0  0  0  0  0  0  0  0  0
   12.1522   -2.7164   23.7514 H   0  0  0  0  0  0  0  0  0  0  0  0
   10.0830   -3.9672   22.9883 H   0  0  0  0  0  0  0  0  0  0  0  0
    9.1364   -3.1839   24.2489 H   0  0  0  0  0  0  0  0  0  0  0  0
   11.6044   -4.9317   24.7483 H   0  0  0  0  0  0  0  0  0  0  0  0
   10.6376   -4.1471   26.0004 H   0  0  0  0  0  0  0  0  0  0  0  0
  1  3  1  0  0  0  0
  2  4  1  0  0  0  0
  3  5  1  0  0  0  0
  4  6  1  0  0  0  0
  5  7  1  0  0  0  0
  6  8  1  0  0  0  0
  7  8  1  0  0  0  0
  1  9  1  0  0  0  0
  1 10  1  0  0  0  0
  1 11  1  0  0  0  0
  2 12  1  0  0  0  0
  2 13  1  0  0  0  0
  2 14  1  0  0  0  0
  3 15  1  0  0  0  0
  3 16  1  0  0  0  0
  4 17  1  0  0  0  0
  4 18  1  0  0  0  0
  5 19  1  0  0  0  0
  5 20  1  0  0  0  0
  6 21  1  0  0  0  0
  6 22  1  0  0  0  0
  7 23  1  0  0  0  0
  7 24  1  0  0  0  0
  8 25  1  0  0  0  0
  8 26  1  0  0  0  0
M  END
> <Hybrid2>
-6.491484

> <docked_fragment>
x0749

> <Mpro-_dock>
-0.640213

> <site>
active-covalent

$$$$
CHEMBL1201327
  -OEChem-04122014263D

 21 21  0     0  0  0  0  0  0999 V2000
   13.5880    1.8873   22.6767 C   0  0  0  0  0  0  0  0  0  0  0  0
   11.7166    0.9402   23.8758 C   0  0  0  0  0  0  0  0  0  0  0  0
   11.7102    3.2820   23.2818 C   0  0  0  0  0  0  0  0  0  0  0  0
   12.9664    0.7910   23.2745 C   0  0  0  0  0  0  0  0  0  0  0  0
   12.9599    3.1328   22.6804 C   0  0  0  0  0  0  0  0  0  0  0  0
   11.0885    2.1856   23.8795 C   0  0  0  0  0  0  0  0  0  0  0  0
   11.0647   -0.2301   24.5073 C   0  0  0  0  0  0  0  0  0  0  0  0
   11.1931    5.5506   24.2357 C   0  0  0  0  0  0  0  0  0  0  0  0
   10.3599    6.7518   23.8651 C   0  0  0  0  0  0  0  0  0  0  0  0
   11.0858    4.5373   23.2800 N   0  0  0  0  0  0  0  0  0  0  0  0
   10.2943   -0.9621   23.7876 O   0  5  0  0  0  0  0  0  0  0  0  0
   11.2974   -0.4630   25.7479 O   0  0  0  0  0  0  0  0  0  0  0  0
   11.8594    5.5420   25.2657 O   0  0  0  0  0  0  0  0  0  0  0  0
   13.9848   -1.0436   23.2231 I   0  0  0  0  0  0  0  0  0  0  0  0
   13.9693    4.7277   21.7597 I   0  0  0  0  0  0  0  0  0  0  0  0
    9.1816    2.4129   24.7944 I   0  0  0  0  0  0  0  0  0  0  0  0
   14.5635    1.7712   22.2092 H   0  0  0  0  0  0  0  0  0  0  0  0
    9.3553    6.6494   24.2852 H   0  0  0  0  0  0  0  0  0  0  0  0
   10.2829    6.8273   22.7767 H   0  0  0  0  0  0  0  0  0  0  0  0
   10.8268    7.6632   24.2502 H   0  0  0  0  0  0  0  0  0  0  0  0
   10.4779    4.7352   22.4807 H   0  0  0  0  0  0  0  0  0  0  0  0
  1  4  1  0  0  0  0
  1  5  2  0  0  0  0
  2  4  2  0  0  0  0
  2  6  1  0  0  0  0
  2  7  1  0  0  0  0
  3  5  1  0  0  0  0
  3  6  2  0  0  0  0
  3 10  1  0  0  0  0
  4 14  1  0  0  0  0
  5 15  1  0  0  0  0
  6 16  1  0  0  0  0
  7 11  1  0  0  0  0
  7 12  2  0  0  0  0
  8  9  1  0  0  0  0
  8 10  1  0  0  0  0
  8 13  2  0  0  0  0
  1 17  1  0  0  0  0
  9 18  1  0  0  0  0
  9 19  1  0  0  0  0
  9 20  1  0  0  0  0
 10 21  1  0  0  0  0
M  CHG  1  11  -1
M  END
> <Hybrid2>
-6.461906

> <docked_fragment>
x0195

> <Mpro-_dock>
-0.113845

> <site>
active-noncovalent

$$$$
CHEMBL403
  -OEChem-04122014263D

 25 26  0     1  0  0  0  0  0999 V2000
   13.6016   -1.3742   21.4578 C   0  0  0  0  0  0  0  0  0  0  0  0
   10.2440    0.1507   21.5347 C   0  0  0  0  0  0  0  0  0  0  0  0
   13.7382   -2.3196   22.6650 C   0  0  0  0  0  0  0  0  0  0  0  0
   11.7359    0.2947   21.7812 C   0  0  1  0  0  0  0  0  0  0  0  0
   12.3546   -1.8031   23.0886 C   0  0  2  0  0  0  0  0  0  0  0  0
   12.0845    0.9536   23.1321 C   0  0  0  0  0  0  0  0  0  0  0  0
   13.4503    1.6626   23.0544 C   0  0  0  0  0  0  0  0  0  0  0  0
   11.0460    1.9632   23.6350 C   0  0  0  0  0  0  0  0  0  0  0  0
   12.3491   -1.0162   21.8513 N   0  0  0  0  0  0  0  0  0  0  0  0
    9.6088   -0.4794   22.4250 O   0  5  0  0  0  0  0  0  0  0  0  0
   14.3268   -0.9901   20.5688 O   0  0  0  0  0  0  0  0  0  0  0  0
    9.8300    0.6822   20.4663 O   0  0  0  0  0  0  0  0  0  0  0  0
   10.9311   -0.6337   24.9731 O   0  0  0  0  0  0  0  0  0  0  0  0
   13.4279   -0.3765   25.0641 O   0  0  0  0  0  0  0  0  0  0  0  0
   12.2043   -0.4829   24.2922 S   0  0  0  0  0  0  0  0  0  0  0  0
   13.7736   -3.3772   22.3896 H   0  0  0  0  0  0  0  0  0  0  0  0
   14.5732   -2.0795   23.3268 H   0  0  0  0  0  0  0  0  0  0  0  0
   12.1652    0.8554   20.9434 H   0  0  0  0  0  0  0  0  0  0  0  0
   11.5495   -2.5416   23.1327 H   0  0  0  0  0  0  0  0  0  0  0  0
   13.6706    2.1160   24.0144 H   0  0  0  0  0  0  0  0  0  0  0  0
   13.4105    2.4279   22.2874 H   0  0  0  0  0  0  0  0  0  0  0  0
   14.2152    0.9347   22.8078 H   0  0  0  0  0  0  0  0  0  0  0  0
   11.3712    2.3752   24.5867 H   0  0  0  0  0  0  0  0  0  0  0  0
   10.0888    1.4653   23.7652 H   0  0  0  0  0  0  0  0  0  0  0  0
   10.9401    2.7665   22.9107 H   0  0  0  0  0  0  0  0  0  0  0  0
  1  3  1  0  0  0  0
  1  9  1  0  0  0  0
  1 11  2  0  0  0  0
  2  4  1  0  0  0  0
  2 10  1  0  0  0  0
  2 12  2  0  0  0  0
  3  5  1  0  0  0  0
  4  6  1  0  0  0  0
  4  9  1  0  0  0  0
  5  9  1  0  0  0  0
  5 15  1  0  0  0  0
  6  7  1  0  0  0  0
  6  8  1  0  0  0  0
  6 15  1  0  0  0  0
 13 15  2  0  0  0  0
 14 15  2  0  0  0  0
  3 16  1  0  0  0  0
  3 17  1  0  0  0  0
  4 18  1  0  0  0  0
  5 19  1  0  0  0  0
  7 20  1  0  0  0  0
  7 21  1  0  0  0  0
  7 22  1  0  0  0  0
  8 23  1  0  0  0  0
  8 24  1  0  0  0  0
  8 25  1  0  0  0  0
M  CHG  1  10  -1
M  END
> <Hybrid2>
-6.461625

> <docked_fragment>
x0678

> <Mpro-_dock>
2.462934

> <site>
active-noncovalent

$$$$
CHEMBL1872946
  -OEChem-04122014263D

 18 18  0     0  0  0  0  0  0999 V2000
   14.0841   -1.2482   22.8155 C   0  0  0  0  0  0  0  0  0  0  0  0
   12.7381   -1.1597   23.1030 C   0  0  0  0  0  0  0  0  0  0  0  0
   13.8690    0.9322   22.7190 C   0  0  0  0  0  0  0  0  0  0  0  0
   13.1879    3.3531   22.7074 C   0  0  0  0  0  0  0  0  0  0  0  0
   13.8410    4.6933   22.4800 C   0  0  0  0  0  0  0  0  0  0  0  0
   14.7341   -0.0497   22.5946 N   0  0  0  0  0  0  0  0  0  0  0  0
   14.1067    2.3197   22.5747 N   0  0  0  0  0  0  0  0  0  0  0  0
   11.8601   -2.2829   23.3655 N   0  0  0  0  0  0  0  0  0  0  0  0
   12.2754   -3.3900   22.6785 O   0  5  0  0  0  0  0  0  0  0  0  0
   11.9933    3.2737   22.9745 O   0  0  0  0  0  0  0  0  0  0  0  0
   10.5850   -2.0032   22.9585 O   0  0  0  0  0  0  0  0  0  0  0  0
   12.2565    0.4863   23.1012 S   0  0  0  0  0  0  0  0  0  0  0  0
   14.6469   -2.1700   22.7493 H   0  0  0  0  0  0  0  0  0  0  0  0
   13.7838    4.9579   21.4204 H   0  0  0  0  0  0  0  0  0  0  0  0
   14.8924    4.6480   22.7778 H   0  0  0  0  0  0  0  0  0  0  0  0
   13.3376    5.4598   23.0766 H   0  0  0  0  0  0  0  0  0  0  0  0
   15.0654    2.5765   22.3484 H   0  0  0  0  0  0  0  0  0  0  0  0
   11.8541   -2.4970   24.3883 H   0  0  0  0  0  0  0  0  0  0  0  0
  1  2  2  0  0  0  0
  1  6  1  0  0  0  0
  2  8  1  0  0  0  0
  2 12  1  0  0  0  0
  3  6  2  0  0  0  0
  3  7  1  0  0  0  0
  3 12  1  0  0  0  0
  4  5  1  0  0  0  0
  4  7  1  0  0  0  0
  4 10  2  0  0  0  0
  8  9  1  0  0  0  0
  8 11  2  0  0  0  0
  1 13  1  0  0  0  0
  5 14  1  0  0  0  0
  5 15  1  0  0  0  0
  5 16  1  0  0  0  0
  7 17  1  0  0  0  0
  8 18  1  0  0  0  0
M  CHG  1   9  -1
M  END
> <Hybrid2>
-6.455386

> <docked_fragment>
x0195

> <Mpro-_dock>
-0.599998

> <site>
active-noncovalent

$$$$
CHEMBL1075733
  -OEChem-04122014263D

 27 26  0     1  0  0  0  0  0999 V2000
   11.3242   -0.1850   21.5056 C   0  0  0  0  0  0  0  0  0  0  0  0
   12.9738    1.6095   23.3225 C   0  0  0  0  0  0  0  0  0  0  0  0
   14.9297   -2.3962   24.3777 C   0  0  0  0  0  0  0  0  0  0  0  0
   14.0004   -1.0153   21.8562 C   0  0  0  0  0  0  0  0  0  0  0  0
   11.8698    0.6798   23.8142 C   0  0  0  0  0  0  0  0  0  0  0  0
   13.6998   -1.4973   24.3367 C   0  0  0  0  0  0  0  0  0  0  0  0
   11.7246   -0.5770   22.9304 C   0  0  2  0  0  0  0  0  0  0  0  0
   13.0172   -1.4489   22.9522 C   0  0  1  0  0  0  0  0  0  0  0  0
   11.1234   -1.2640   20.6733 N   0  0  0  0  0  0  0  0  0  0  0  0
   11.2063    0.9811   21.1354 O   0  0  0  0  0  0  0  0  0  0  0  0
   13.9401    1.0955   23.3047 H   0  0  0  0  0  0  0  0  0  0  0  0
   12.7535    1.9491   22.3054 H   0  0  0  0  0  0  0  0  0  0  0  0
   13.0661    2.4948   23.9588 H   0  0  0  0  0  0  0  0  0  0  0  0
   15.6654   -2.0568   23.6413 H   0  0  0  0  0  0  0  0  0  0  0  0
   15.4027   -2.3711   25.3644 H   0  0  0  0  0  0  0  0  0  0  0  0
   14.6791   -3.4332   24.1369 H   0  0  0  0  0  0  0  0  0  0  0  0
   14.3670    0.0027   22.0211 H   0  0  0  0  0  0  0  0  0  0  0  0
   13.5302   -1.0575   20.8680 H   0  0  0  0  0  0  0  0  0  0  0  0
   14.8691   -1.6806   21.8229 H   0  0  0  0  0  0  0  0  0  0  0  0
   10.9274    1.2406   23.8131 H   0  0  0  0  0  0  0  0  0  0  0  0
   12.0827    0.4108   24.8549 H   0  0  0  0  0  0  0  0  0  0  0  0
   12.9942   -1.8720   25.0857 H   0  0  0  0  0  0  0  0  0  0  0  0
   13.9946   -0.4899   24.6523 H   0  0  0  0  0  0  0  0  0  0  0  0
   10.9124   -1.1807   23.3593 H   0  0  0  0  0  0  0  0  0  0  0  0
   12.7091   -2.4735   22.7003 H   0  0  0  0  0  0  0  0  0  0  0  0
   10.8550   -1.0930   19.7099 H   0  0  0  0  0  0  0  0  0  0  0  0
   11.2332   -2.2233   20.9857 H   0  0  0  0  0  0  0  0  0  0  0  0
  1  7  1  0  0  0  0
  1  9  1  0  0  0  0
  1 10  2  0  0  0  0
  2  5  1  0  0  0  0
  3  6  1  0  0  0  0
  4  8  1  0  0  0  0
  5  7  1  0  0  0  0
  6  8  1  0  0  0  0
  7  8  1  0  0  0  0
  2 11  1  0  0  0  0
  2 12  1  0  0  0  0
  2 13  1  0  0  0  0
  3 14  1  0  0  0  0
  3 15  1  0  0  0  0
  3 16  1  0  0  0  0
  4 17  1  0  0  0  0
  4 18  1  0  0  0  0
  4 19  1  0  0  0  0
  5 20  1  0  0  0  0
  5 21  1  0  0  0  0
  6 22  1  0  0  0  0
  6 23  1  0  0  0  0
  7 24  1  0  0  0  0
  8 25  1  0  0  0  0
  9 26  1  0  0  0  0
  9 27  1  0  0  0  0
M  END
> <Hybrid2>
-6.452810

> <docked_fragment>
x0678

> <Mpro-_dock>
0.798603

> <site>
active-noncovalent

$$$$
DB03915
  -OEChem-04122014263D

 15 14  0     0  0  0  0  0  0999 V2000
    7.4351   -2.3376   19.9638 C   0  0  0  0  0  0  0  0  0  0  0  0
    6.7285   -3.2992   20.5826 C   0  0  0  0  0  0  0  0  0  0  0  0
    7.0562   -1.8530   18.5548 C   0  0  0  0  0  0  0  0  0  0  0  0
    7.0026   -3.8482   21.9543 C   0  0  0  0  0  0  0  0  0  0  0  0
    8.5390   -1.7362   20.6197 N   0  3  0  0  0  0  0  0  0  0  0  0
    6.0483   -2.4275   18.0504 O   0  5  0  0  0  0  0  0  0  0  0  0
    7.7775   -0.9304   18.0787 O   0  0  0  0  0  0  0  0  0  0  0  0
    5.6279   -3.8654   19.9568 O   0  0  0  0  0  0  0  0  0  0  0  0
    6.4548   -3.2682   22.7044 H   0  0  0  0  0  0  0  0  0  0  0  0
    8.0721   -3.7763   22.1785 H   0  0  0  0  0  0  0  0  0  0  0  0
    6.7112   -4.8951   22.0727 H   0  0  0  0  0  0  0  0  0  0  0  0
    9.2375   -2.4380   20.8842 H   0  0  0  0  0  0  0  0  0  0  0  0
    8.2413   -1.2532   21.4732 H   0  0  0  0  0  0  0  0  0  0  0  0
    9.0002   -1.0487   20.0156 H   0  0  0  0  0  0  0  0  0  0  0  0
    5.2405   -4.5302   20.5311 H   0  0  0  0  0  0  0  0  0  0  0  0
  1  2  2  0  0  0  0
  1  3  1  0  0  0  0
  1  5  1  0  0  0  0
  2  4  1  0  0  0  0
  2  8  1  0  0  0  0
  3  6  1  0  0  0  0
  3  7  2  0  0  0  0
  4  9  1  0  0  0  0
  4 10  1  0  0  0  0
  4 11  1  0  0  0  0
  5 12  1  0  0  0  0
  5 13  1  0  0  0  0
  5 14  1  0  0  0  0
  8 15  1  0  0  0  0
M  CHG  2   5   1   6  -1
M  END
> <Hybrid2>
-6.451915

> <docked_fragment>
x0397

> <Mpro-_dock>
-0.889729

> <site>
active-noncovalent

$$$$
CHEMBL268164
  -OEChem-04122014263D

 33 34  0     0  0  0  0  0  0999 V2000
   12.8742   -0.0599   24.4814 C   0  0  0  0  0  0  0  0  0  0  0  0
   12.1829   -0.4653   23.4019 C   0  0  0  0  0  0  0  0  0  0  0  0
   11.0371    1.3361   22.1206 C   0  0  0  0  0  0  0  0  0  0  0  0
    9.9089   -0.9629   22.5158 C   0  0  0  0  0  0  0  0  0  0  0  0
    9.2011    0.5250   20.6549 C   0  0  0  0  0  0  0  0  0  0  0  0
   14.1901   -0.6496   24.8957 C   0  0  0  0  0  0  0  0  0  0  0  0
   12.7008   -1.5427   22.4815 C   0  0  0  0  0  0  0  0  0  0  0  0
   14.5150   -1.9617   24.1818 C   0  0  0  0  0  0  0  0  0  0  0  0
   14.1796   -1.8752   22.6976 C   0  0  0  0  0  0  0  0  0  0  0  0
   10.8209    0.1392   23.0364 C   0  0  0  0  0  0  0  0  0  0  0  0
    9.9471   -0.4069   25.2864 C   0  0  0  0  0  0  0  0  0  0  0  0
   10.1612    0.6719   24.2805 C   0  0  0  0  0  0  0  0  0  0  0  0
   10.1623    1.4423   21.0528 N   0  0  0  0  0  0  0  0  0  0  0  0
    9.1417   -0.6367   21.4105 N   0  0  0  0  0  0  0  0  0  0  0  0
   11.9045    2.1849   22.3359 O   0  0  0  0  0  0  0  0  0  0  0  0
    9.8204   -2.0626   23.0652 O   0  0  0  0  0  0  0  0  0  0  0  0
    8.4663    0.7189   19.6848 O   0  0  0  0  0  0  0  0  0  0  0  0
   12.4851    0.7415   25.1037 H   0  0  0  0  0  0  0  0  0  0  0  0
   14.9906    0.0720   24.6963 H   0  0  0  0  0  0  0  0  0  0  0  0
   14.1688   -0.8130   25.9799 H   0  0  0  0  0  0  0  0  0  0  0  0
   12.1169   -2.4611   22.6164 H   0  0  0  0  0  0  0  0  0  0  0  0
   12.5498   -1.2148   21.4454 H   0  0  0  0  0  0  0  0  0  0  0  0
   15.5818   -2.1911   24.3006 H   0  0  0  0  0  0  0  0  0  0  0  0
   13.9595   -2.7834   24.6479 H   0  0  0  0  0  0  0  0  0  0  0  0
   14.4147   -2.8328   22.2155 H   0  0  0  0  0  0  0  0  0  0  0  0
   14.8027   -1.1145   22.2137 H   0  0  0  0  0  0  0  0  0  0  0  0
    9.3118   -1.1872   24.8511 H   0  0  0  0  0  0  0  0  0  0  0  0
    9.4448   -0.0187   26.1788 H   0  0  0  0  0  0  0  0  0  0  0  0
   10.8973   -0.8663   25.5786 H   0  0  0  0  0  0  0  0  0  0  0  0
   10.7924    1.4547   24.7020 H   0  0  0  0  0  0  0  0  0  0  0  0
    9.2058    1.1190   24.0044 H   0  0  0  0  0  0  0  0  0  0  0  0
   10.2280    2.2915   20.5003 H   0  0  0  0  0  0  0  0  0  0  0  0
    8.4566   -1.3273   21.1197 H   0  0  0  0  0  0  0  0  0  0  0  0
  1  2  2  0  0  0  0
  1  6  1  0  0  0  0
  2  7  1  0  0  0  0
  2 10  1  0  0  0  0
  3 10  1  0  0  0  0
  3 13  1  0  0  0  0
  3 15  2  0  0  0  0
  4 10  1  0  0  0  0
  4 14  1  0  0  0  0
  4 16  2  0  0  0  0
  5 13  1  0  0  0  0
  5 14  1  0  0  0  0
  5 17  2  0  0  0  0
  6  8  1  0  0  0  0
  7  9  1  0  0  0  0
  8  9  1  0  0  0  0
 10 12  1  0  0  0  0
 11 12  1  0  0  0  0
  1 18  1  0  0  0  0
  6 19  1  0  0  0  0
  6 20  1  0  0  0  0
  7 21  1  0  0  0  0
  7 22  1  0  0  0  0
  8 23  1  0  0  0  0
  8 24  1  0  0  0  0
  9 25  1  0  0  0  0
  9 26  1  0  0  0  0
 11 27  1  0  0  0  0
 11 28  1  0  0  0  0
 11 29  1  0  0  0  0
 12 30  1  0  0  0  0
 12 31  1  0  0  0  0
 13 32  1  0  0  0  0
 14 33  1  0  0  0  0
M  END
> <Hybrid2>
-6.437647

> <docked_fragment>
x0678

> <Mpro-_dock>
0.58643

> <site>
active-noncovalent

$$$$
CHEMBL449
  -OEChem-04122014263D

 31 31  0     1  0  0  0  0  0999 V2000
   10.8912    2.2894   21.9845 C   0  0  0  0  0  0  0  0  0  0  0  0
   12.9264    1.5662   23.3645 C   0  0  0  0  0  0  0  0  0  0  0  0
   12.8979    3.7421   22.1666 C   0  0  0  0  0  0  0  0  0  0  0  0
   11.4188    1.4655   23.1548 C   0  0  0  0  0  0  0  0  0  0  0  0
   11.0748    3.4497   24.6357 C   0  0  0  0  0  0  0  0  0  0  0  0
   10.4294   -2.1928   24.1572 C   0  0  0  0  0  0  0  0  0  0  0  0
   12.0879   -0.7167   22.1284 C   0  0  0  0  0  0  0  0  0  0  0  0
   10.7492    2.0114   24.4286 C   0  0  0  0  0  0  0  0  0  0  0  0
   10.8354   -0.7334   24.3053 C   0  0  0  0  0  0  0  0  0  0  0  0
   11.0244   -0.0065   22.9652 C   0  0  1  0  0  0  0  0  0  0  0  0
   11.6258    3.4312   21.7014 N   0  0  0  0  0  0  0  0  0  0  0  0
   13.4885    2.7691   22.9640 N   0  0  0  0  0  0  0  0  0  0  0  0
    9.8575    2.0055   21.3797 O   0  0  0  0  0  0  0  0  0  0  0  0
   13.5860    0.6808   23.9083 O   0  0  0  0  0  0  0  0  0  0  0  0
   13.4783    4.7838   21.8566 O   0  0  0  0  0  0  0  0  0  0  0  0
   12.1614    3.5634   24.7270 H   0  0  0  0  0  0  0  0  0  0  0  0
   10.6153    3.8300   25.5542 H   0  0  0  0  0  0  0  0  0  0  0  0
   10.7399    4.0559   23.7873 H   0  0  0  0  0  0  0  0  0  0  0  0
   11.1668   -2.7268   23.5489 H   0  0  0  0  0  0  0  0  0  0  0  0
    9.4558   -2.2826   23.6650 H   0  0  0  0  0  0  0  0  0  0  0  0
   10.3764   -2.6958   25.1270 H   0  0  0  0  0  0  0  0  0  0  0  0
   13.0584   -0.7216   22.6363 H   0  0  0  0  0  0  0  0  0  0  0  0
   12.2155   -0.2251   21.1581 H   0  0  0  0  0  0  0  0  0  0  0  0
   11.7989   -1.7559   21.9390 H   0  0  0  0  0  0  0  0  0  0  0  0
    9.6718    1.8803   24.3357 H   0  0  0  0  0  0  0  0  0  0  0  0
   11.0925    1.4230   25.2785 H   0  0  0  0  0  0  0  0  0  0  0  0
   10.0872   -0.2139   24.9164 H   0  0  0  0  0  0  0  0  0  0  0  0
   11.7787   -0.6972   24.8643 H   0  0  0  0  0  0  0  0  0  0  0  0
   10.0807   -0.0331   22.4094 H   0  0  0  0  0  0  0  0  0  0  0  0
   11.1873    4.1129   21.0885 H   0  0  0  0  0  0  0  0  0  0  0  0
   14.4328    2.9593   23.2880 H   0  0  0  0  0  0  0  0  0  0  0  0
  1  4  1  0  0  0  0
  1 11  1  0  0  0  0
  1 13  2  0  0  0  0
  2  4  1  0  0  0  0
  2 12  1  0  0  0  0
  2 14  2  0  0  0  0
  3 11  1  0  0  0  0
  3 12  1  0  0  0  0
  3 15  2  0  0  0  0
  4  8  1  0  0  0  0
  4 10  1  0  0  0  0
  5  8  1  0  0  0  0
  6  9  1  0  0  0  0
  7 10  1  0  0  0  0
  9 10  1  0  0  0  0
  5 16  1  0  0  0  0
  5 17  1  0  0  0  0
  5 18  1  0  0  0  0
  6 19  1  0  0  0  0
  6 20  1  0  0  0  0
  6 21  1  0  0  0  0
  7 22  1  0  0  0  0
  7 23  1  0  0  0  0
  7 24  1  0  0  0  0
  8 25  1  0  0  0  0
  8 26  1  0  0  0  0
  9 27  1  0  0  0  0
  9 28  1  0  0  0  0
 10 29  1  0  0  0  0
 11 30  1  0  0  0  0
 12 31  1  0  0  0  0
M  END
> <Hybrid2>
-6.430714

> <docked_fragment>
x0104

> <Mpro-_dock>
0.120191

> <site>
active-noncovalent

$$$$
CHEMBL2103937
  -OEChem-04122014263D

 21 21  0     0  0  0  0  0  0999 V2000
   11.8017    1.1047   23.2385 C   0  0  0  0  0  0  0  0  0  0  0  0
   13.6399    2.3434   22.4631 C   0  0  0  0  0  0  0  0  0  0  0  0
   14.0191    0.8708   22.4972 C   0  0  0  0  0  0  0  0  0  0  0  0
   14.1045   -1.8204   22.4934 C   0  0  0  0  0  0  0  0  0  0  0  0
   11.6152   -1.7756   22.1099 C   0  0  0  0  0  0  0  0  0  0  0  0
   12.7674   -1.2658   22.9630 C   0  0  0  0  0  0  0  0  0  0  0  0
   12.3130    2.3880   23.0189 N   0  0  0  0  0  0  0  0  0  0  0  0
   12.8016    0.1848   22.8892 N   0  0  0  0  0  0  0  0  0  0  0  0
   10.2684    0.8190   23.8160 S   0  0  0  0  0  0  0  0  0  0  0  0
   14.3040    2.9637   23.0707 H   0  0  0  0  0  0  0  0  0  0  0  0
   13.5965    2.7346   21.4426 H   0  0  0  0  0  0  0  0  0  0  0  0
   14.3452    0.5079   21.5180 H   0  0  0  0  0  0  0  0  0  0  0  0
   14.7904    0.6681   23.2470 H   0  0  0  0  0  0  0  0  0  0  0  0
   14.2934   -1.5506   21.4492 H   0  0  0  0  0  0  0  0  0  0  0  0
   14.9322   -1.4364   23.1003 H   0  0  0  0  0  0  0  0  0  0  0  0
   14.1202   -2.9131   22.5695 H   0  0  0  0  0  0  0  0  0  0  0  0
   11.7614   -1.5051   21.0584 H   0  0  0  0  0  0  0  0  0  0  0  0
   10.6644   -1.3455   22.4415 H   0  0  0  0  0  0  0  0  0  0  0  0
   11.5319   -2.8670   22.1602 H   0  0  0  0  0  0  0  0  0  0  0  0
   12.5999   -1.5475   24.0083 H   0  0  0  0  0  0  0  0  0  0  0  0
   11.7894    3.2416   23.1847 H   0  0  0  0  0  0  0  0  0  0  0  0
  1  7  1  0  0  0  0
  1  8  1  0  0  0  0
  1  9  2  0  0  0  0
  2  3  1  0  0  0  0
  2  7  1  0  0  0  0
  3  8  1  0  0  0  0
  4  6  1  0  0  0  0
  5  6  1  0  0  0  0
  6  8  1  0  0  0  0
  2 10  1  0  0  0  0
  2 11  1  0  0  0  0
  3 12  1  0  0  0  0
  3 13  1  0  0  0  0
  4 14  1  0  0  0  0
  4 15  1  0  0  0  0
  4 16  1  0  0  0  0
  5 17  1  0  0  0  0
  5 18  1  0  0  0  0
  5 19  1  0  0  0  0
  6 20  1  0  0  0  0
  7 21  1  0  0  0  0
M  END
> <Hybrid2>
-6.413683

> <docked_fragment>
x0195

> <Mpro-_dock>
0.717124

> <site>
active-noncovalent

$$$$
EDRUG194
  -OEChem-04122014263D

 55 56  0     1  0  0  0  0  0999 V2000
   13.3576    0.3734   22.5582 C   0  0  0  0  0  0  0  0  0  0  0  0
   12.8180    1.2173   23.5289 C   0  0  0  0  0  0  0  0  0  0  0  0
   12.5817   -0.6507   22.0149 C   0  0  0  0  0  0  0  0  0  0  0  0
    7.7396    2.7943   22.0677 C   0  0  0  0  0  0  0  0  0  0  0  0
    6.7596    2.1556   21.3161 C   0  0  0  0  0  0  0  0  0  0  0  0
   11.5025    1.0371   23.9564 C   0  0  0  0  0  0  0  0  0  0  0  0
   11.2663   -0.8308   22.4425 C   0  0  0  0  0  0  0  0  0  0  0  0
    8.5596    2.0490   22.9076 C   0  0  0  0  0  0  0  0  0  0  0  0
    6.6411    0.7806   21.4392 C   0  0  0  0  0  0  0  0  0  0  0  0
   10.7267    0.0130   23.4132 C   0  0  0  0  0  0  0  0  0  0  0  0
    8.3605    0.6788   22.9597 C   0  0  0  0  0  0  0  0  0  0  0  0
    9.0870    0.2250   25.3886 C   0  0  0  0  0  0  0  0  0  0  0  0
    4.9268   -2.8147   25.3022 C   0  0  0  0  0  0  0  0  0  0  0  0
    6.6826   -3.9129   26.7463 C   0  0  0  0  0  0  0  0  0  0  0  0
    5.3465   -3.6689   22.6999 C   0  0  0  0  0  0  0  0  0  0  0  0
    7.1618   -5.4076   22.9363 C   0  0  0  0  0  0  0  0  0  0  0  0
    8.7987   -1.7002   23.8646 C   0  0  0  0  0  0  0  0  0  0  0  0
    7.3862   -1.9564   24.4033 C   0  0  0  0  0  0  0  0  0  0  0  0
    6.0565   -3.8301   25.3634 C   0  0  0  0  0  0  0  0  0  0  0  0
    6.8153   -3.9285   22.9938 C   0  0  0  0  0  0  0  0  0  0  0  0
    9.2602   -0.1886   23.8896 C   0  0  2  0  0  0  0  0  0  0  0  0
    7.4191    0.0230   22.2445 N   0  0  0  0  0  0  0  0  0  0  0  0
    9.8694   -0.4832   26.2806 N   0  0  0  0  0  0  0  0  0  0  0  0
    7.1229   -3.4188   24.3795 N   0  3  0  0  0  0  0  0  0  0  0  0
    8.2704    1.0618   25.7740 O   0  0  0  0  0  0  0  0  0  0  0  0
   14.3814    0.5147   22.2244 H   0  0  0  0  0  0  0  0  0  0  0  0
   13.4216    2.0154   23.9512 H   0  0  0  0  0  0  0  0  0  0  0  0
   13.0012   -1.3072   21.2584 H   0  0  0  0  0  0  0  0  0  0  0  0
    7.8639    3.8708   21.9990 H   0  0  0  0  0  0  0  0  0  0  0  0
    6.1091    2.7163   20.6548 H   0  0  0  0  0  0  0  0  0  0  0  0
   11.0905    1.6993   24.7134 H   0  0  0  0  0  0  0  0  0  0  0  0
   10.6693   -1.6314   22.0137 H   0  0  0  0  0  0  0  0  0  0  0  0
    9.3279    2.5352   23.4992 H   0  0  0  0  0  0  0  0  0  0  0  0
    5.8924    0.2349   20.8744 H   0  0  0  0  0  0  0  0  0  0  0  0
    5.2778   -1.8284   25.6233 H   0  0  0  0  0  0  0  0  0  0  0  0
    4.5285   -2.7164   24.2862 H   0  0  0  0  0  0  0  0  0  0  0  0
    4.1013   -3.1061   25.9607 H   0  0  0  0  0  0  0  0  0  0  0  0
    7.0354   -2.9275   27.0687 H   0  0  0  0  0  0  0  0  0  0  0  0
    7.5371   -4.5981   26.7610 H   0  0  0  0  0  0  0  0  0  0  0  0
    5.9552   -4.2653   27.4856 H   0  0  0  0  0  0  0  0  0  0  0  0
    4.7102   -4.2382   23.3855 H   0  0  0  0  0  0  0  0  0  0  0  0
    5.0954   -2.6080   22.8094 H   0  0  0  0  0  0  0  0  0  0  0  0
    5.0914   -3.9715   21.6784 H   0  0  0  0  0  0  0  0  0  0  0  0
    6.5273   -5.9786   23.6223 H   0  0  0  0  0  0  0  0  0  0  0  0
    8.2060   -5.5876   23.2145 H   0  0  0  0  0  0  0  0  0  0  0  0
    7.0079   -5.8075   21.9282 H   0  0  0  0  0  0  0  0  0  0  0  0
    8.8594   -2.1157   22.8525 H   0  0  0  0  0  0  0  0  0  0  0  0
    9.5005   -2.3059   24.4561 H   0  0  0  0  0  0  0  0  0  0  0  0
    7.2716   -1.6464   25.4451 H   0  0  0  0  0  0  0  0  0  0  0  0
    6.6061   -1.4926   23.7958 H   0  0  0  0  0  0  0  0  0  0  0  0
    5.7042   -4.8156   25.0422 H   0  0  0  0  0  0  0  0  0  0  0  0
    7.4503   -3.3588   22.3076 H   0  0  0  0  0  0  0  0  0  0  0  0
    9.8017   -0.2606   27.2682 H   0  0  0  0  0  0  0  0  0  0  0  0
   10.5087   -1.2159   25.9912 H   0  0  0  0  0  0  0  0  0  0  0  0
    7.9889   -3.8987   24.6767 H   0  0  0  0  0  0  0  0  0  0  0  0
  1  2  1  0  0  0  0
  1  3  2  0  0  0  0
  2  6  2  0  0  0  0
  3  7  1  0  0  0  0
  4  5  1  0  0  0  0
  4  8  2  0  0  0  0
  5  9  2  0  0  0  0
  6 10  1  0  0  0  0
  7 10  2  0  0  0  0
  8 11  1  0  0  0  0
  9 22  1  0  0  0  0
 10 21  1  0  0  0  0
 11 21  1  0  0  0  0
 11 22  2  0  0  0  0
 12 21  1  0  0  0  0
 12 23  1  0  0  0  0
 12 25  2  0  0  0  0
 13 19  1  0  0  0  0
 14 19  1  0  0  0  0
 15 20  1  0  0  0  0
 16 20  1  0  0  0  0
 17 18  1  0  0  0  0
 17 21  1  0  0  0  0
 18 24  1  0  0  0  0
 19 24  1  0  0  0  0
 20 24  1  0  0  0  0
  1 26  1  0  0  0  0
  2 27  1  0  0  0  0
  3 28  1  0  0  0  0
  4 29  1  0  0  0  0
  5 30  1  0  0  0  0
  6 31  1  0  0  0  0
  7 32  1  0  0  0  0
  8 33  1  0  0  0  0
  9 34  1  0  0  0  0
 13 35  1  0  0  0  0
 13 36  1  0  0  0  0
 13 37  1  0  0  0  0
 14 38  1  0  0  0  0
 14 39  1  0  0  0  0
 14 40  1  0  0  0  0
 15 41  1  0  0  0  0
 15 42  1  0  0  0  0
 15 43  1  0  0  0  0
 16 44  1  0  0  0  0
 16 45  1  0  0  0  0
 16 46  1  0  0  0  0
 17 47  1  0  0  0  0
 17 48  1  0  0  0  0
 18 49  1  0  0  0  0
 18 50  1  0  0  0  0
 19 51  1  0  0  0  0
 20 52  1  0  0  0  0
 23 53  1  0  0  0  0
 23 54  1  0  0  0  0
 24 55  1  0  0  0  0
M  CHG  1  24   1
M  END
> <Hybrid2>
-6.399697

> <docked_fragment>
x0874

> <Mpro-_dock>
3.095767

> <site>
active-noncovalent

$$$$
EDRUG285
  -OEChem-04122014263D

 55 59  0     0  0  0  0  0  0999 V2000
   14.9174   -3.8743   25.1991 C   0  0  0  0  0  0  0  0  0  0  0  0
   13.8468   -4.6926   24.8617 C   0  0  0  0  0  0  0  0  0  0  0  0
   14.7682   -2.4909   25.1565 C   0  0  0  0  0  0  0  0  0  0  0  0
   12.6265   -4.1281   24.4842 C   0  0  0  0  0  0  0  0  0  0  0  0
    9.5274   -3.8000   24.6403 C   0  0  0  0  0  0  0  0  0  0  0  0
    9.5004   -2.8020   22.4403 C   0  0  0  0  0  0  0  0  0  0  0  0
   11.4290    5.7042   22.8795 C   0  0  0  0  0  0  0  0  0  0  0  0
   13.2409    4.1060   22.8852 C   0  0  0  0  0  0  0  0  0  0  0  0
    8.4154   -4.5718   24.3039 C   0  0  0  0  0  0  0  0  0  0  0  0
    8.3883   -3.5738   22.1038 C   0  0  0  0  0  0  0  0  0  0  0  0
   12.2025    6.5784   22.1160 C   0  0  0  0  0  0  0  0  0  0  0  0
   14.0144    4.9803   22.1217 C   0  0  0  0  0  0  0  0  0  0  0  0
   13.5474   -1.9127   24.7787 C   0  0  0  0  0  0  0  0  0  0  0  0
   10.0699   -2.9150   23.7085 C   0  0  0  0  0  0  0  0  0  0  0  0
   12.4527   -2.7305   24.4394 C   0  0  0  0  0  0  0  0  0  0  0  0
   11.9482    4.4679   23.2642 C   0  0  0  0  0  0  0  0  0  0  0  0
    7.8458   -4.4588   23.0356 C   0  0  0  0  0  0  0  0  0  0  0  0
   13.4952    6.2165   21.7371 C   0  0  0  0  0  0  0  0  0  0  0  0
   10.0227    0.0064   23.7042 C   0  0  0  0  0  0  0  0  0  0  0  0
   12.2906    1.5191   24.3759 C   0  0  0  0  0  0  0  0  0  0  0  0
   11.1087   -0.7178   24.0243 C   0  0  0  0  0  0  0  0  0  0  0  0
   11.2036    2.2273   24.0499 C   0  0  0  0  0  0  0  0  0  0  0  0
   12.3443    0.0384   24.4003 C   0  0  0  0  0  0  0  0  0  0  0  0
    9.9619    1.4887   23.6882 C   0  0  0  0  0  0  0  0  0  0  0  0
    7.9049    4.0239   22.3197 C   0  0  0  0  0  0  0  0  0  0  0  0
    8.5052    3.9927   24.7659 C   0  0  0  0  0  0  0  0  0  0  0  0
    8.8702    3.5011   23.3732 C   0  0  0  0  0  0  0  0  0  0  0  0
   13.4667   -0.5135   24.7489 N   0  0  0  0  0  0  0  0  0  0  0  0
    8.8386    2.0478   23.3624 N   0  0  0  0  0  0  0  0  0  0  0  0
   11.2097   -2.1220   24.0552 N   0  0  0  0  0  0  0  0  0  0  0  0
   11.1725    3.5924   24.0317 N   0  0  0  0  0  0  0  0  0  0  0  0
    6.4739   -5.4112   22.6210 Cl  0  0  0  0  0  0  0  0  0  0  0  0
   14.4491    7.2954   20.7951 Cl  0  0  0  0  0  0  0  0  0  0  0  0
   15.8670   -4.3112   25.4929 H   0  0  0  0  0  0  0  0  0  0  0  0
   13.9576   -5.7729   24.8914 H   0  0  0  0  0  0  0  0  0  0  0  0
   15.6133   -1.8587   25.4195 H   0  0  0  0  0  0  0  0  0  0  0  0
   11.8139   -4.8037   24.2281 H   0  0  0  0  0  0  0  0  0  0  0  0
    9.9631   -3.8948   25.6316 H   0  0  0  0  0  0  0  0  0  0  0  0
    9.9143   -2.1143   21.7071 H   0  0  0  0  0  0  0  0  0  0  0  0
   10.4233    5.9962   23.1705 H   0  0  0  0  0  0  0  0  0  0  0  0
   13.6558    3.1457   23.1808 H   0  0  0  0  0  0  0  0  0  0  0  0
    8.0024   -5.2558   25.0410 H   0  0  0  0  0  0  0  0  0  0  0  0
    7.9543   -3.4735   21.1122 H   0  0  0  0  0  0  0  0  0  0  0  0
   11.7852    7.5392   21.8252 H   0  0  0  0  0  0  0  0  0  0  0  0
   15.0208    4.6851   21.8354 H   0  0  0  0  0  0  0  0  0  0  0  0
    9.0936   -0.4857   23.4281 H   0  0  0  0  0  0  0  0  0  0  0  0
   13.2106    2.0324   24.6459 H   0  0  0  0  0  0  0  0  0  0  0  0
    6.8790    3.7117   22.5401 H   0  0  0  0  0  0  0  0  0  0  0  0
    7.9275    5.1184   22.2841 H   0  0  0  0  0  0  0  0  0  0  0  0
    8.1672    3.6572   21.3210 H   0  0  0  0  0  0  0  0  0  0  0  0
    7.4920    3.6800   25.0380 H   0  0  0  0  0  0  0  0  0  0  0  0
    8.5483    5.0862   24.8133 H   0  0  0  0  0  0  0  0  0  0  0  0
    9.1979    3.6039   25.5207 H   0  0  0  0  0  0  0  0  0  0  0  0
    9.8864    3.8277   23.1280 H   0  0  0  0  0  0  0  0  0  0  0  0
   10.4978    4.0069   24.6572 H   0  0  0  0  0  0  0  0  0  0  0  0
  1  2  1  0  0  0  0
  1  3  2  0  0  0  0
  2  4  2  0  0  0  0
  3 13  1  0  0  0  0
  4 15  1  0  0  0  0
  5  9  2  0  0  0  0
  5 14  1  0  0  0  0
  6 10  1  0  0  0  0
  6 14  2  0  0  0  0
  7 11  2  0  0  0  0
  7 16  1  0  0  0  0
  8 12  1  0  0  0  0
  8 16  2  0  0  0  0
  9 17  1  0  0  0  0
 10 17  2  0  0  0  0
 11 18  1  0  0  0  0
 12 18  2  0  0  0  0
 13 15  2  0  0  0  0
 13 28  1  0  0  0  0
 14 30  1  0  0  0  0
 15 30  1  0  0  0  0
 16 31  1  0  0  0  0
 17 32  1  0  0  0  0
 18 33  1  0  0  0  0
 19 21  2  0  0  0  0
 19 24  1  0  0  0  0
 20 22  2  0  0  0  0
 20 23  1  0  0  0  0
 21 23  1  0  0  0  0
 21 30  1  0  0  0  0
 22 24  1  0  0  0  0
 22 31  1  0  0  0  0
 23 28  2  0  0  0  0
 24 29  2  0  0  0  0
 25 27  1  0  0  0  0
 26 27  1  0  0  0  0
 27 29  1  0  0  0  0
  1 34  1  0  0  0  0
  2 35  1  0  0  0  0
  3 36  1  0  0  0  0
  4 37  1  0  0  0  0
  5 38  1  0  0  0  0
  6 39  1  0  0  0  0
  7 40  1  0  0  0  0
  8 41  1  0  0  0  0
  9 42  1  0  0  0  0
 10 43  1  0  0  0  0
 11 44  1  0  0  0  0
 12 45  1  0  0  0  0
 19 46  1  0  0  0  0
 20 47  1  0  0  0  0
 25 48  1  0  0  0  0
 25 49  1  0  0  0  0
 25 50  1  0  0  0  0
 26 51  1  0  0  0  0
 26 52  1  0  0  0  0
 26 53  1  0  0  0  0
 27 54  1  0  0  0  0
 31 55  1  0  0  0  0
M  END
> <Hybrid2>
-6.391025

> <docked_fragment>
x0161

> <Mpro-_dock>
8.009713

> <site>
active-noncovalent

$$$$
DB00845
  -OEChem-04122014263D

 55 59  0     0  0  0  0  0  0999 V2000
   14.9174   -3.8743   25.1991 C   0  0  0  0  0  0  0  0  0  0  0  0
   13.8468   -4.6926   24.8617 C   0  0  0  0  0  0  0  0  0  0  0  0
   14.7682   -2.4909   25.1565 C   0  0  0  0  0  0  0  0  0  0  0  0
   12.6265   -4.1281   24.4842 C   0  0  0  0  0  0  0  0  0  0  0  0
    9.5274   -3.8000   24.6403 C   0  0  0  0  0  0  0  0  0  0  0  0
    9.5004   -2.8020   22.4403 C   0  0  0  0  0  0  0  0  0  0  0  0
   11.4290    5.7042   22.8795 C   0  0  0  0  0  0  0  0  0  0  0  0
   13.2409    4.1060   22.8852 C   0  0  0  0  0  0  0  0  0  0  0  0
    8.4154   -4.5718   24.3039 C   0  0  0  0  0  0  0  0  0  0  0  0
    8.3883   -3.5738   22.1038 C   0  0  0  0  0  0  0  0  0  0  0  0
   12.2025    6.5784   22.1160 C   0  0  0  0  0  0  0  0  0  0  0  0
   14.0144    4.9803   22.1217 C   0  0  0  0  0  0  0  0  0  0  0  0
   13.5474   -1.9127   24.7787 C   0  0  0  0  0  0  0  0  0  0  0  0
   10.0699   -2.9150   23.7085 C   0  0  0  0  0  0  0  0  0  0  0  0
   12.4527   -2.7305   24.4394 C   0  0  0  0  0  0  0  0  0  0  0  0
   11.9482    4.4679   23.2642 C   0  0  0  0  0  0  0  0  0  0  0  0
    7.8458   -4.4588   23.0356 C   0  0  0  0  0  0  0  0  0  0  0  0
   13.4952    6.2165   21.7371 C   0  0  0  0  0  0  0  0  0  0  0  0
   10.0227    0.0064   23.7042 C   0  0  0  0  0  0  0  0  0  0  0  0
   12.2906    1.5191   24.3759 C   0  0  0  0  0  0  0  0  0  0  0  0
   11.1087   -0.7178   24.0243 C   0  0  0  0  0  0  0  0  0  0  0  0
   11.2036    2.2273   24.0499 C   0  0  0  0  0  0  0  0  0  0  0  0
   12.3443    0.0384   24.4003 C   0  0  0  0  0  0  0  0  0  0  0  0
    9.9619    1.4887   23.6882 C   0  0  0  0  0  0  0  0  0  0  0  0
    7.9049    4.0239   22.3197 C   0  0  0  0  0  0  0  0  0  0  0  0
    8.5052    3.9927   24.7659 C   0  0  0  0  0  0  0  0  0  0  0  0
    8.8702    3.5011   23.3732 C   0  0  0  0  0  0  0  0  0  0  0  0
   13.4667   -0.5135   24.7489 N   0  0  0  0  0  0  0  0  0  0  0  0
    8.8386    2.0478   23.3624 N   0  0  0  0  0  0  0  0  0  0  0  0
   11.2097   -2.1220   24.0552 N   0  0  0  0  0  0  0  0  0  0  0  0
   11.1725    3.5924   24.0317 N   0  0  0  0  0  0  0  0  0  0  0  0
    6.4739   -5.4112   22.6210 Cl  0  0  0  0  0  0  0  0  0  0  0  0
   14.4491    7.2954   20.7951 Cl  0  0  0  0  0  0  0  0  0  0  0  0
   15.8670   -4.3112   25.4929 H   0  0  0  0  0  0  0  0  0  0  0  0
   13.9576   -5.7729   24.8914 H   0  0  0  0  0  0  0  0  0  0  0  0
   15.6133   -1.8587   25.4195 H   0  0  0  0  0  0  0  0  0  0  0  0
   11.8139   -4.8037   24.2281 H   0  0  0  0  0  0  0  0  0  0  0  0
    9.9631   -3.8948   25.6316 H   0  0  0  0  0  0  0  0  0  0  0  0
    9.9143   -2.1143   21.7071 H   0  0  0  0  0  0  0  0  0  0  0  0
   10.4233    5.9962   23.1705 H   0  0  0  0  0  0  0  0  0  0  0  0
   13.6558    3.1457   23.1808 H   0  0  0  0  0  0  0  0  0  0  0  0
    8.0024   -5.2558   25.0410 H   0  0  0  0  0  0  0  0  0  0  0  0
    7.9543   -3.4735   21.1122 H   0  0  0  0  0  0  0  0  0  0  0  0
   11.7852    7.5392   21.8252 H   0  0  0  0  0  0  0  0  0  0  0  0
   15.0208    4.6851   21.8354 H   0  0  0  0  0  0  0  0  0  0  0  0
    9.0936   -0.4857   23.4281 H   0  0  0  0  0  0  0  0  0  0  0  0
   13.2106    2.0324   24.6459 H   0  0  0  0  0  0  0  0  0  0  0  0
    6.8790    3.7117   22.5401 H   0  0  0  0  0  0  0  0  0  0  0  0
    7.9275    5.1184   22.2841 H   0  0  0  0  0  0  0  0  0  0  0  0
    8.1672    3.6572   21.3210 H   0  0  0  0  0  0  0  0  0  0  0  0
    7.4920    3.6800   25.0380 H   0  0  0  0  0  0  0  0  0  0  0  0
    8.5483    5.0862   24.8133 H   0  0  0  0  0  0  0  0  0  0  0  0
    9.1979    3.6039   25.5207 H   0  0  0  0  0  0  0  0  0  0  0  0
    9.8864    3.8277   23.1280 H   0  0  0  0  0  0  0  0  0  0  0  0
   10.4978    4.0069   24.6572 H   0  0  0  0  0  0  0  0  0  0  0  0
  1  2  1  0  0  0  0
  1  3  2  0  0  0  0
  2  4  2  0  0  0  0
  3 13  1  0  0  0  0
  4 15  1  0  0  0  0
  5  9  2  0  0  0  0
  5 14  1  0  0  0  0
  6 10  1  0  0  0  0
  6 14  2  0  0  0  0
  7 11  2  0  0  0  0
  7 16  1  0  0  0  0
  8 12  1  0  0  0  0
  8 16  2  0  0  0  0
  9 17  1  0  0  0  0
 10 17  2  0  0  0  0
 11 18  1  0  0  0  0
 12 18  2  0  0  0  0
 13 15  2  0  0  0  0
 13 28  1  0  0  0  0
 14 30  1  0  0  0  0
 15 30  1  0  0  0  0
 16 31  1  0  0  0  0
 17 32  1  0  0  0  0
 18 33  1  0  0  0  0
 19 21  2  0  0  0  0
 19 24  1  0  0  0  0
 20 22  2  0  0  0  0
 20 23  1  0  0  0  0
 21 23  1  0  0  0  0
 21 30  1  0  0  0  0
 22 24  1  0  0  0  0
 22 31  1  0  0  0  0
 23 28  2  0  0  0  0
 24 29  2  0  0  0  0
 25 27  1  0  0  0  0
 26 27  1  0  0  0  0
 27 29  1  0  0  0  0
  1 34  1  0  0  0  0
  2 35  1  0  0  0  0
  3 36  1  0  0  0  0
  4 37  1  0  0  0  0
  5 38  1  0  0  0  0
  6 39  1  0  0  0  0
  7 40  1  0  0  0  0
  8 41  1  0  0  0  0
  9 42  1  0  0  0  0
 10 43  1  0  0  0  0
 11 44  1  0  0  0  0
 12 45  1  0  0  0  0
 19 46  1  0  0  0  0
 20 47  1  0  0  0  0
 25 48  1  0  0  0  0
 25 49  1  0  0  0  0
 25 50  1  0  0  0  0
 26 51  1  0  0  0  0
 26 52  1  0  0  0  0
 26 53  1  0  0  0  0
 27 54  1  0  0  0  0
 31 55  1  0  0  0  0
M  END
> <Hybrid2>
-6.391025

> <docked_fragment>
x0161

> <Mpro-_dock>
8.009713

> <site>
active-noncovalent

$$$$
DB04251
  -OEChem-04122014263D

 15 14  0     1  0  0  0  0  0999 V2000
    5.9933    0.4980   18.1061 C   0  0  0  0  0  0  0  0  0  0  0  0
    7.1850    0.3260   20.3201 C   0  0  0  0  0  0  0  0  0  0  0  0
    7.1198   -0.1668   18.8825 C   0  0  0  0  0  0  0  0  0  0  0  0
    6.4817   -2.1982   21.3150 O   0  5  0  0  0  0  0  0  0  0  0  0
    5.3628   -3.5136   19.3572 O   0  0  0  0  0  0  0  0  0  0  0  0
    6.9229   -1.5774   18.8788 O   0  0  0  0  0  0  0  0  0  0  0  0
    5.8434   -2.1985   19.9393 P   0  0  2  0  0  0  0  0  0  0  0  0
    5.0237    0.3170   18.5799 H   0  0  0  0  0  0  0  0  0  0  0  0
    6.1576    1.5793   18.0470 H   0  0  0  0  0  0  0  0  0  0  0  0
    5.9538    0.1295   17.0750 H   0  0  0  0  0  0  0  0  0  0  0  0
    6.2438    0.1410   20.8467 H   0  0  0  0  0  0  0  0  0  0  0  0
    7.3948    1.4007   20.3455 H   0  0  0  0  0  0  0  0  0  0  0  0
    7.9959   -0.1656   20.8688 H   0  0  0  0  0  0  0  0  0  0  0  0
    8.0742    0.0325   18.3842 H   0  0  0  0  0  0  0  0  0  0  0  0
    4.8672   -1.1872   19.8123 H   0  0  0  0  0  0  0  0  0  0  0  0
  1  3  1  0  0  0  0
  2  3  1  0  0  0  0
  3  6  1  0  0  0  0
  4  7  1  0  0  0  0
  5  7  2  0  0  0  0
  6  7  1  0  0  0  0
  1  8  1  0  0  0  0
  1  9  1  0  0  0  0
  1 10  1  0  0  0  0
  2 11  1  0  0  0  0
  2 12  1  0  0  0  0
  2 13  1  0  0  0  0
  3 14  1  0  0  0  0
  7 15  1  0  0  0  0
M  CHG  1   4  -1
M  END
> <Hybrid2>
-6.340271

> <docked_fragment>
x0397

> <Mpro-_dock>
0.186126

> <site>
active-noncovalent

$$$$
DB03976
  -OEChem-04122014263D

 15 14  0     0  0  0  0  0  0999 V2000
    6.4965    0.1139   18.1390 C   0  0  0  0  0  0  0  0  0  0  0  0
    7.4717   -0.2677   20.4314 C   0  0  0  0  0  0  0  0  0  0  0  0
    7.4508   -0.7207   18.9794 C   0  0  0  0  0  0  0  0  0  0  0  0
    5.6821   -4.0734   19.5428 O   0  5  0  0  0  0  0  0  0  0  0  0
    4.6140   -1.7508   19.4325 O   0  5  0  0  0  0  0  0  0  0  0  0
    6.2761   -2.3134   21.3026 O   0  0  0  0  0  0  0  0  0  0  0  0
    7.0547   -2.0876   18.9202 O   0  0  0  0  0  0  0  0  0  0  0  0
    5.8084   -2.5900   19.8768 P   0  0  0  0  0  0  0  0  0  0  0  0
    5.4764    0.0673   18.5323 H   0  0  0  0  0  0  0  0  0  0  0  0
    6.8183    1.1607   18.1236 H   0  0  0  0  0  0  0  0  0  0  0  0
    6.4866   -0.2270   17.0978 H   0  0  0  0  0  0  0  0  0  0  0  0
    6.4749   -0.3234   20.8793 H   0  0  0  0  0  0  0  0  0  0  0  0
    7.8307    0.7645   20.5034 H   0  0  0  0  0  0  0  0  0  0  0  0
    8.1576   -0.8813   21.0258 H   0  0  0  0  0  0  0  0  0  0  0  0
    8.4604   -0.6535   18.5611 H   0  0  0  0  0  0  0  0  0  0  0  0
  1  3  1  0  0  0  0
  2  3  1  0  0  0  0
  3  7  1  0  0  0  0
  4  8  1  0  0  0  0
  5  8  1  0  0  0  0
  6  8  2  0  0  0  0
  7  8  1  0  0  0  0
  1  9  1  0  0  0  0
  1 10  1  0  0  0  0
  1 11  1  0  0  0  0
  2 12  1  0  0  0  0
  2 13  1  0  0  0  0
  2 14  1  0  0  0  0
  3 15  1  0  0  0  0
M  CHG  2   4  -1   5  -1
M  END
> <Hybrid2>
-6.332303

> <docked_fragment>
x0397

> <Mpro-_dock>
0.499868

> <site>
active-noncovalent

$$$$
CHEMBL2106026
  -OEChem-04122014263D

 34 35  0     1  0  0  0  0  0999 V2000
   13.7614    3.5443   22.1616 C   0  0  0  0  0  0  0  0  0  0  0  0
   13.7089   -1.1653   21.6257 C   0  0  0  0  0  0  0  0  0  0  0  0
   14.4254   -1.5720   22.9264 C   0  0  0  0  0  0  0  0  0  0  0  0
   14.4218    0.8009   23.6880 C   0  0  0  0  0  0  0  0  0  0  0  0
   12.8035   -0.0008   22.0857 C   0  0  2  0  0  0  0  0  0  0  0  0
   13.7571    1.1891   22.3546 C   0  0  1  0  0  0  0  0  0  0  0  0
   13.8161   -0.6036   23.9785 C   0  0  1  0  0  0  0  0  0  0  0  0
   12.3433   -0.4535   23.5020 C   0  0  0  0  0  0  0  0  0  0  0  0
   12.8957    4.7557   22.3320 C   0  0  0  0  0  0  0  0  0  0  0  0
   14.0356   -1.0604   25.4070 C   0  0  0  0  0  0  0  0  0  0  0  0
   11.5117   -1.7540   23.5021 C   0  0  0  0  0  0  0  0  0  0  0  0
   11.5032    0.5817   24.2751 C   0  0  0  0  0  0  0  0  0  0  0  0
   14.9282    3.5819   21.7951 O   0  0  0  0  0  0  0  0  0  0  0  0
   13.0540    2.4140   22.4739 O   0  0  0  0  0  0  0  0  0  0  0  0
   14.4193   -0.8659   20.8477 H   0  0  0  0  0  0  0  0  0  0  0  0
   13.1216   -1.9978   21.2245 H   0  0  0  0  0  0  0  0  0  0  0  0
   14.2279   -2.6226   23.1663 H   0  0  0  0  0  0  0  0  0  0  0  0
   15.5117   -1.4591   22.8375 H   0  0  0  0  0  0  0  0  0  0  0  0
   15.5117    0.7486   23.5838 H   0  0  0  0  0  0  0  0  0  0  0  0
   14.2059    1.5221   24.4836 H   0  0  0  0  0  0  0  0  0  0  0  0
   11.9892    0.2298   21.3943 H   0  0  0  0  0  0  0  0  0  0  0  0
   14.5031    1.3163   21.5628 H   0  0  0  0  0  0  0  0  0  0  0  0
   12.3768    4.9754   21.3957 H   0  0  0  0  0  0  0  0  0  0  0  0
   13.5062    5.6071   22.6433 H   0  0  0  0  0  0  0  0  0  0  0  0
   12.1488    4.5616   23.1073 H   0  0  0  0  0  0  0  0  0  0  0  0
   13.5905   -0.3489   26.1068 H   0  0  0  0  0  0  0  0  0  0  0  0
   15.1042   -1.1371   25.6221 H   0  0  0  0  0  0  0  0  0  0  0  0
   13.5774   -2.0393   25.5682 H   0  0  0  0  0  0  0  0  0  0  0  0
   11.2345   -1.9954   24.5212 H   0  0  0  0  0  0  0  0  0  0  0  0
   12.1089   -2.5545   23.0824 H   0  0  0  0  0  0  0  0  0  0  0  0
   10.6218   -1.6036   22.9029 H   0  0  0  0  0  0  0  0  0  0  0  0
   11.2355    0.1712   25.2422 H   0  0  0  0  0  0  0  0  0  0  0  0
   10.6056    0.8045   23.7094 H   0  0  0  0  0  0  0  0  0  0  0  0
   12.0874    1.4852   24.4083 H   0  0  0  0  0  0  0  0  0  0  0  0
  1  9  1  0  0  0  0
  1 13  2  0  0  0  0
  1 14  1  0  0  0  0
  2  3  1  0  0  0  0
  2  5  1  0  0  0  0
  3  7  1  0  0  0  0
  4  6  1  0  0  0  0
  4  7  1  0  0  0  0
  5  6  1  0  0  0  0
  5  8  1  0  0  0  0
  6 14  1  0  0  0  0
  7  8  1  0  0  0  0
  7 10  1  0  0  0  0
  8 11  1  0  0  0  0
  8 12  1  0  0  0  0
  2 15  1  0  0  0  0
  2 16  1  0  0  0  0
  3 17  1  0  0  0  0
  3 18  1  0  0  0  0
  4 19  1  0  0  0  0
  4 20  1  0  0  0  0
  5 21  1  0  0  0  0
  6 22  1  0  0  0  0
  9 23  1  0  0  0  0
  9 24  1  0  0  0  0
  9 25  1  0  0  0  0
 10 26  1  0  0  0  0
 10 27  1  0  0  0  0
 10 28  1  0  0  0  0
 11 29  1  0  0  0  0
 11 30  1  0  0  0  0
 11 31  1  0  0  0  0
 12 32  1  0  0  0  0
 12 33  1  0  0  0  0
 12 34  1  0  0  0  0
M  END
> <Hybrid2>
-6.276250

> <docked_fragment>
x0195

> <Mpro-_dock>
1.951615

> <site>
active-noncovalent

$$$$
CHEMBL12198
  -OEChem-04122014263D

 13 12  0     1  0  0  0  0  0999 V2000
    6.3645   -2.6083   20.5378 C   0  0  0  0  0  0  0  0  0  0  0  0
    8.6731   -3.2147   21.5052 C   0  0  0  0  0  0  0  0  0  0  0  0
    7.8716   -2.7746   20.2892 C   0  0  2  0  0  0  0  0  0  0  0  0
    8.5047   -1.5246   19.7649 N   0  3  0  0  0  0  0  0  0  0  0  0
    6.0292   -1.7875   21.4358 O   0  5  0  0  0  0  0  0  0  0  0  0
    5.6312   -3.3324   19.8035 O   0  0  0  0  0  0  0  0  0  0  0  0
    8.5700   -2.4921   22.3221 H   0  0  0  0  0  0  0  0  0  0  0  0
    8.3263   -4.1853   21.8770 H   0  0  0  0  0  0  0  0  0  0  0  0
    9.7401   -3.3040   21.2719 H   0  0  0  0  0  0  0  0  0  0  0  0
    7.9969   -3.5182   19.4933 H   0  0  0  0  0  0  0  0  0  0  0  0
    7.7919   -0.8174   19.5790 H   0  0  0  0  0  0  0  0  0  0  0  0
    9.0056   -1.7191   18.8964 H   0  0  0  0  0  0  0  0  0  0  0  0
    9.1664   -1.1497   20.4465 H   0  0  0  0  0  0  0  0  0  0  0  0
  1  3  1  0  0  0  0
  1  5  1  0  0  0  0
  1  6  2  0  0  0  0
  2  3  1  0  0  0  0
  3  4  1  0  0  0  0
  2  7  1  0  0  0  0
  2  8  1  0  0  0  0
  2  9  1  0  0  0  0
  3 10  1  0  0  0  0
  4 11  1  0  0  0  0
  4 12  1  0  0  0  0
  4 13  1  0  0  0  0
M  CHG  2   4   1   5  -1
M  END
> <Hybrid2>
-6.264976

> <docked_fragment>
x0397

> <Mpro-_dock>
-1.295259

> <site>
active-noncovalent

$$$$
CHEMBL2106810
  -OEChem-04122014263D

 35 35  0     0  0  0  0  0  0999 V2000
    8.9643   -0.1861   23.9892 C   0  0  0  0  0  0  0  0  0  0  0  0
   10.6292   -1.7564   22.8351 C   0  0  0  0  0  0  0  0  0  0  0  0
    9.5691    0.1198   21.5995 C   0  0  0  0  0  0  0  0  0  0  0  0
   12.4858    0.8179   22.7565 C   0  0  0  0  0  0  0  0  0  0  0  0
   11.6130    0.8714   23.7688 C   0  0  0  0  0  0  0  0  0  0  0  0
   10.1591   -1.1223   24.1404 C   0  0  0  0  0  0  0  0  0  0  0  0
    7.3521   -2.5891   25.3521 C   0  0  0  0  0  0  0  0  0  0  0  0
    8.8641   -4.5788   25.3364 C   0  0  0  0  0  0  0  0  0  0  0  0
    8.5009   -3.2583   23.2363 C   0  0  0  0  0  0  0  0  0  0  0  0
   11.3283   -0.2777   24.6778 C   0  0  0  0  0  0  0  0  0  0  0  0
    9.8218   -2.2251   25.1544 C   0  0  0  0  0  0  0  0  0  0  0  0
    8.6539   -3.1672   24.7637 C   0  0  0  0  0  0  0  0  0  0  0  0
    8.8761    0.4474   22.7587 N   0  0  0  0  0  0  0  0  0  0  0  0
   10.3994   -0.9899   21.7024 N   0  0  0  0  0  0  0  0  0  0  0  0
    8.1764    0.0452   24.9061 O   0  0  0  0  0  0  0  0  0  0  0  0
   11.2268   -2.8313   22.7917 O   0  0  0  0  0  0  0  0  0  0  0  0
    9.4225    0.7395   20.5447 O   0  0  0  0  0  0  0  0  0  0  0  0
   12.6663    1.6745   22.1167 H   0  0  0  0  0  0  0  0  0  0  0  0
   13.0369   -0.0941   22.5543 H   0  0  0  0  0  0  0  0  0  0  0  0
   11.0933    1.8069   23.9596 H   0  0  0  0  0  0  0  0  0  0  0  0
    7.1597   -1.5798   24.9711 H   0  0  0  0  0  0  0  0  0  0  0  0
    7.4037   -2.5300   26.4452 H   0  0  0  0  0  0  0  0  0  0  0  0
    6.4878   -3.2117   25.0939 H   0  0  0  0  0  0  0  0  0  0  0  0
    9.7788   -5.0411   24.9514 H   0  0  0  0  0  0  0  0  0  0  0  0
    8.9322   -4.5553   26.4297 H   0  0  0  0  0  0  0  0  0  0  0  0
    8.0313   -5.2398   25.0699 H   0  0  0  0  0  0  0  0  0  0  0  0
    9.4060   -3.6657   22.7724 H   0  0  0  0  0  0  0  0  0  0  0  0
    8.3200   -2.2695   22.7991 H   0  0  0  0  0  0  0  0  0  0  0  0
    7.6585   -3.8964   22.9501 H   0  0  0  0  0  0  0  0  0  0  0  0
   12.1956   -0.9284   24.7940 H   0  0  0  0  0  0  0  0  0  0  0  0
   11.0586    0.0969   25.6653 H   0  0  0  0  0  0  0  0  0  0  0  0
    9.5933   -1.7446   26.1148 H   0  0  0  0  0  0  0  0  0  0  0  0
   10.7282   -2.8224   25.3200 H   0  0  0  0  0  0  0  0  0  0  0  0
    8.2368    1.2350   22.6982 H   0  0  0  0  0  0  0  0  0  0  0  0
   10.8906   -1.2694   20.8577 H   0  0  0  0  0  0  0  0  0  0  0  0
  1  6  1  0  0  0  0
  1 13  1  0  0  0  0
  1 15  2  0  0  0  0
  2  6  1  0  0  0  0
  2 14  1  0  0  0  0
  2 16  2  0  0  0  0
  3 13  1  0  0  0  0
  3 14  1  0  0  0  0
  3 17  2  0  0  0  0
  4  5  2  0  0  0  0
  5 10  1  0  0  0  0
  6 10  1  0  0  0  0
  6 11  1  0  0  0  0
  7 12  1  0  0  0  0
  8 12  1  0  0  0  0
  9 12  1  0  0  0  0
 11 12  1  0  0  0  0
  4 18  1  0  0  0  0
  4 19  1  0  0  0  0
  5 20  1  0  0  0  0
  7 21  1  0  0  0  0
  7 22  1  0  0  0  0
  7 23  1  0  0  0  0
  8 24  1  0  0  0  0
  8 25  1  0  0  0  0
  8 26  1  0  0  0  0
  9 27  1  0  0  0  0
  9 28  1  0  0  0  0
  9 29  1  0  0  0  0
 10 30  1  0  0  0  0
 10 31  1  0  0  0  0
 11 32  1  0  0  0  0
 11 33  1  0  0  0  0
 13 34  1  0  0  0  0
 14 35  1  0  0  0  0
M  END
> <Hybrid2>
-6.238937

> <docked_fragment>
x0395

> <Mpro-_dock>
0.413099

> <site>
active-noncovalent

$$$$
CHEMBL2104431
  -OEChem-04122014263D

 24 24  0     1  0  0  0  0  0999 V2000
   12.4932   -2.5028   25.4445 C   0  0  0  0  0  0  0  0  0  0  0  0
   12.9615   -1.6450   24.2711 C   0  0  0  0  0  0  0  0  0  0  0  0
   11.0296   -2.2303   25.7844 C   0  0  0  0  0  0  0  0  0  0  0  0
   12.7061   -0.1594   24.5233 C   0  0  1  0  0  0  0  0  0  0  0  0
   10.7778   -0.7438   26.0344 C   0  0  2  0  0  0  0  0  0  0  0  0
   13.0511    0.6944   23.3117 C   0  0  0  0  0  0  0  0  0  0  0  0
    9.3020   -0.4415   26.2502 C   0  0  0  0  0  0  0  0  0  0  0  0
   11.2494    0.0313   24.8371 N   0  3  0  0  0  0  0  0  0  0  0  0
   12.6259   -3.5635   25.2036 H   0  0  0  0  0  0  0  0  0  0  0  0
   13.1172   -2.2934   26.3220 H   0  0  0  0  0  0  0  0  0  0  0  0
   14.0322   -1.8138   24.1055 H   0  0  0  0  0  0  0  0  0  0  0  0
   12.4463   -1.9683   23.3572 H   0  0  0  0  0  0  0  0  0  0  0  0
   10.3939   -2.5899   24.9649 H   0  0  0  0  0  0  0  0  0  0  0  0
   10.7525   -2.8077   26.6745 H   0  0  0  0  0  0  0  0  0  0  0  0
   13.2644    0.1918   25.3990 H   0  0  0  0  0  0  0  0  0  0  0  0
   11.3616   -0.3852   26.8902 H   0  0  0  0  0  0  0  0  0  0  0  0
   12.4971    0.3473   22.4388 H   0  0  0  0  0  0  0  0  0  0  0  0
   14.1190    0.6297   23.0998 H   0  0  0  0  0  0  0  0  0  0  0  0
   12.7920    1.7367   23.5020 H   0  0  0  0  0  0  0  0  0  0  0  0
    8.7186   -0.7972   25.4002 H   0  0  0  0  0  0  0  0  0  0  0  0
    9.1515    0.6336   26.3557 H   0  0  0  0  0  0  0  0  0  0  0  0
    8.9464   -0.9375   27.1541 H   0  0  0  0  0  0  0  0  0  0  0  0
   11.0707    1.0328   24.9963 H   0  0  0  0  0  0  0  0  0  0  0  0
   10.6837   -0.2263   24.0156 H   0  0  0  0  0  0  0  0  0  0  0  0
  1  2  1  0  0  0  0
  1  3  1  0  0  0  0
  2  4  1  0  0  0  0
  3  5  1  0  0  0  0
  4  6  1  0  0  0  0
  4  8  1  0  0  0  0
  5  7  1  0  0  0  0
  5  8  1  0  0  0  0
  1  9  1  0  0  0  0
  1 10  1  0  0  0  0
  2 11  1  0  0  0  0
  2 12  1  0  0  0  0
  3 13  1  0  0  0  0
  3 14  1  0  0  0  0
  4 15  1  0  0  0  0
  5 16  1  0  0  0  0
  6 17  1  0  0  0  0
  6 18  1  0  0  0  0
  6 19  1  0  0  0  0
  7 20  1  0  0  0  0
  7 21  1  0  0  0  0
  7 22  1  0  0  0  0
  8 23  1  0  0  0  0
  8 24  1  0  0  0  0
M  CHG  1   8   1
M  END
> <Hybrid2>
-6.217931

> <docked_fragment>
x0354

> <Mpro-_dock>
2.081057

> <site>
active-noncovalent

$$$$
DB03387
  -OEChem-04122014263D

 18 17  0     0  0  0  0  0  0999 V2000
    5.6957   -5.0289   22.2514 C   0  0  0  0  0  0  0  0  0  0  0  0
    6.5160   -5.0465   20.9887 C   0  0  0  0  0  0  0  0  0  0  0  0
    4.8086   -3.8970   24.9179 C   0  0  0  0  0  0  0  0  0  0  0  0
    6.5231   -5.4774   25.8713 C   0  0  0  0  0  0  0  0  0  0  0  0
    5.5353   -5.2225   24.7422 C   0  0  0  0  0  0  0  0  0  0  0  0
    6.2714   -5.2060   23.4546 N   0  0  0  0  0  0  0  0  0  0  0  0
    5.8643   -4.8852   19.9155 O   0  5  0  0  0  0  0  0  0  0  0  0
    4.5031   -4.8567   22.0231 O   0  0  0  0  0  0  0  0  0  0  0  0
    7.7578   -5.2364   21.1358 O   0  0  0  0  0  0  0  0  0  0  0  0
    7.6294   -5.3967   23.6529 O   0  0  0  0  0  0  0  0  0  0  0  0
    5.5192   -3.0651   24.9584 H   0  0  0  0  0  0  0  0  0  0  0  0
    4.1115   -3.7107   24.0932 H   0  0  0  0  0  0  0  0  0  0  0  0
    4.2279   -3.8925   25.8468 H   0  0  0  0  0  0  0  0  0  0  0  0
    7.2636   -4.6721   25.9284 H   0  0  0  0  0  0  0  0  0  0  0  0
    7.0584   -6.4198   25.7157 H   0  0  0  0  0  0  0  0  0  0  0  0
    6.0172   -5.5285   26.8419 H   0  0  0  0  0  0  0  0  0  0  0  0
    4.8059   -6.0390   24.7044 H   0  0  0  0  0  0  0  0  0  0  0  0
    7.9467   -5.3583   22.7344 H   0  0  0  0  0  0  0  0  0  0  0  0
  1  2  1  0  0  0  0
  1  6  1  0  0  0  0
  1  8  2  0  0  0  0
  2  7  1  0  0  0  0
  2  9  2  0  0  0  0
  3  5  1  0  0  0  0
  4  5  1  0  0  0  0
  5  6  1  0  0  0  0
  6 10  1  0  0  0  0
  3 11  1  0  0  0  0
  3 12  1  0  0  0  0
  3 13  1  0  0  0  0
  4 14  1  0  0  0  0
  4 15  1  0  0  0  0
  4 16  1  0  0  0  0
  5 17  1  0  0  0  0
 10 18  1  0  0  0  0
M  CHG  1   7  -1
M  END
> <Hybrid2>
-6.206164

> <docked_fragment>
x0689

> <Mpro-_dock>
-0.001858

> <site>
active-covalent

$$$$
DB02664
  -OEChem-04122014263D

 18 17  0     0  0  0  0  0  0999 V2000
   13.4852   -1.2339   22.3935 B   0  0  0  0  0  0  0  0  0  0  0  0
   13.7029    3.2734   22.0999 C   0  0  0  0  0  0  0  0  0  0  0  0
   13.7183    0.3158   22.7139 C   0  0  0  0  0  0  0  0  0  0  0  0
   12.8760    2.6463   23.2111 C   0  0  0  0  0  0  0  0  0  0  0  0
   12.4854    1.2052   22.8751 C   0  0  0  0  0  0  0  0  0  0  0  0
   14.5621   -2.0828   22.3532 O   0  0  0  0  0  0  0  0  0  0  0  0
   12.2140   -1.6901   22.1538 O   0  0  0  0  0  0  0  0  0  0  0  0
   13.1555    3.2671   21.1520 H   0  0  0  0  0  0  0  0  0  0  0  0
   14.6334    2.7145   21.9585 H   0  0  0  0  0  0  0  0  0  0  0  0
   13.9621    4.3094   22.3404 H   0  0  0  0  0  0  0  0  0  0  0  0
   14.3812    0.7217   21.9366 H   0  0  0  0  0  0  0  0  0  0  0  0
   14.3543    0.3808   23.6081 H   0  0  0  0  0  0  0  0  0  0  0  0
   13.4516    2.6686   24.1436 H   0  0  0  0  0  0  0  0  0  0  0  0
   11.9742    3.2486   23.3712 H   0  0  0  0  0  0  0  0  0  0  0  0
   11.8924    1.1956   21.9510 H   0  0  0  0  0  0  0  0  0  0  0  0
   11.8393    0.8097   23.6699 H   0  0  0  0  0  0  0  0  0  0  0  0
   14.2967   -2.9952   22.1502 H   0  0  0  0  0  0  0  0  0  0  0  0
   12.2002   -2.6447   21.9721 H   0  0  0  0  0  0  0  0  0  0  0  0
  1  3  1  0  0  0  0
  1  6  1  0  0  0  0
  1  7  1  0  0  0  0
  2  4  1  0  0  0  0
  3  5  1  0  0  0  0
  4  5  1  0  0  0  0
  2  8  1  0  0  0  0
  2  9  1  0  0  0  0
  2 10  1  0  0  0  0
  3 11  1  0  0  0  0
  3 12  1  0  0  0  0
  4 13  1  0  0  0  0
  4 14  1  0  0  0  0
  5 15  1  0  0  0  0
  5 16  1  0  0  0  0
  6 17  1  0  0  0  0
  7 18  1  0  0  0  0
M  END
> <Hybrid2>
-6.206142

> <docked_fragment>
x0195

> <Mpro-_dock>
0.738581

> <site>
active-noncovalent

$$$$
CHEMBL43068
  -OEChem-04122014263D

 19 18  0     1  0  0  0  0  0999 V2000
    6.5483   -5.0785   20.9808 C   0  0  0  0  0  0  0  0  0  0  0  0
    7.7357   -4.7370   23.9452 C   0  0  0  0  0  0  0  0  0  0  0  0
    5.6232   -5.8743   24.6717 C   0  0  0  0  0  0  0  0  0  0  0  0
    5.7863   -4.8858   22.3031 C   0  0  2  0  0  0  0  0  0  0  0  0
    6.5309   -5.5607   23.4769 C   0  0  0  0  0  0  0  0  0  0  0  0
    4.3592   -5.3279   22.2586 N   0  3  0  0  0  0  0  0  0  0  0  0
    5.8414   -5.0883   19.9341 O   0  5  0  0  0  0  0  0  0  0  0  0
    7.8020   -5.1925   21.1001 O   0  0  0  0  0  0  0  0  0  0  0  0
    7.4088   -3.7600   24.3181 H   0  0  0  0  0  0  0  0  0  0  0  0
    8.4496   -4.5570   23.1352 H   0  0  0  0  0  0  0  0  0  0  0  0
    8.2614   -5.2438   24.7610 H   0  0  0  0  0  0  0  0  0  0  0  0
    5.1929   -4.9511   25.0757 H   0  0  0  0  0  0  0  0  0  0  0  0
    6.1814   -6.3564   25.4804 H   0  0  0  0  0  0  0  0  0  0  0  0
    4.7914   -6.5284   24.3915 H   0  0  0  0  0  0  0  0  0  0  0  0
    5.7346   -3.8042   22.4802 H   0  0  0  0  0  0  0  0  0  0  0  0
    6.9290   -6.5198   23.1189 H   0  0  0  0  0  0  0  0  0  0  0  0
    3.7430   -4.5268   22.1091 H   0  0  0  0  0  0  0  0  0  0  0  0
    4.0992   -5.7783   23.1382 H   0  0  0  0  0  0  0  0  0  0  0  0
    4.2167   -5.9944   21.4974 H   0  0  0  0  0  0  0  0  0  0  0  0
  1  4  1  0  0  0  0
  1  7  1  0  0  0  0
  1  8  2  0  0  0  0
  2  5  1  0  0  0  0
  3  5  1  0  0  0  0
  4  5  1  0  0  0  0
  4  6  1  0  0  0  0
  2  9  1  0  0  0  0
  2 10  1  0  0  0  0
  2 11  1  0  0  0  0
  3 12  1  0  0  0  0
  3 13  1  0  0  0  0
  3 14  1  0  0  0  0
  4 15  1  0  0  0  0
  5 16  1  0  0  0  0
  6 17  1  0  0  0  0
  6 18  1  0  0  0  0
  6 19  1  0  0  0  0
M  CHG  2   6   1   7  -1
M  END
> <Hybrid2>
-6.202316

> <docked_fragment>
x0689

> <Mpro-_dock>
-0.760715

> <site>
active-covalent

$$$$
CHEMBL7863
  -OEChem-04122014263D

 29 29  0     0  0  0  0  0  0999 V2000
    8.8197   -5.5314   25.4039 C   0  0  0  0  0  0  0  0  0  0  0  0
    7.8528   -3.1603   25.2913 C   0  0  0  0  0  0  0  0  0  0  0  0
    7.0316   -4.8010   26.9658 C   0  0  0  0  0  0  0  0  0  0  0  0
    9.9312   -1.6138   22.7125 C   0  0  0  0  0  0  0  0  0  0  0  0
    9.5390   -2.8919   22.7587 C   0  0  0  0  0  0  0  0  0  0  0  0
    8.5263   -4.3065   24.5434 C   0  0  0  0  0  0  0  0  0  0  0  0
    8.2006   -5.8307   22.5712 C   0  0  0  0  0  0  0  0  0  0  0  0
    6.2533   -5.2587   24.0492 C   0  0  0  0  0  0  0  0  0  0  0  0
    9.8289   -3.8059   23.9024 C   0  0  0  0  0  0  0  0  0  0  0  0
    7.5549   -4.7553   23.4370 C   0  0  0  0  0  0  0  0  0  0  0  0
    7.9413   -5.7219   26.4602 N   0  0  0  0  0  0  0  0  0  0  0  0
    7.0562   -3.5521   26.3568 N   0  0  0  0  0  0  0  0  0  0  0  0
    9.7210   -6.3288   25.1461 O   0  0  0  0  0  0  0  0  0  0  0  0
    7.9499   -1.9848   24.9399 O   0  0  0  0  0  0  0  0  0  0  0  0
    6.2900   -5.0583   27.9156 O   0  0  0  0  0  0  0  0  0  0  0  0
    9.7015   -0.9798   21.8634 H   0  0  0  0  0  0  0  0  0  0  0  0
   10.4927   -1.1818   23.5337 H   0  0  0  0  0  0  0  0  0  0  0  0
    8.9581   -3.2887   21.9299 H   0  0  0  0  0  0  0  0  0  0  0  0
    8.4413   -6.7253   23.1559 H   0  0  0  0  0  0  0  0  0  0  0  0
    9.1270   -5.4637   22.1171 H   0  0  0  0  0  0  0  0  0  0  0  0
    7.5254   -6.1270   21.7615 H   0  0  0  0  0  0  0  0  0  0  0  0
    6.4219   -6.1321   24.6884 H   0  0  0  0  0  0  0  0  0  0  0  0
    5.5460   -5.5453   23.2637 H   0  0  0  0  0  0  0  0  0  0  0  0
    5.7802   -4.4805   24.6575 H   0  0  0  0  0  0  0  0  0  0  0  0
   10.4129   -4.6728   23.5917 H   0  0  0  0  0  0  0  0  0  0  0  0
   10.4033   -3.2717   24.6593 H   0  0  0  0  0  0  0  0  0  0  0  0
    7.3344   -3.8861   22.8101 H   0  0  0  0  0  0  0  0  0  0  0  0
    7.9656   -6.6315   26.9125 H   0  0  0  0  0  0  0  0  0  0  0  0
    6.4232   -2.8513   26.7322 H   0  0  0  0  0  0  0  0  0  0  0  0
  1  6  1  0  0  0  0
  1 11  1  0  0  0  0
  1 13  2  0  0  0  0
  2  6  1  0  0  0  0
  2 12  1  0  0  0  0
  2 14  2  0  0  0  0
  3 11  1  0  0  0  0
  3 12  1  0  0  0  0
  3 15  2  0  0  0  0
  4  5  2  0  0  0  0
  5  9  1  0  0  0  0
  6  9  1  0  0  0  0
  6 10  1  0  0  0  0
  7 10  1  0  0  0  0
  8 10  1  0  0  0  0
  4 16  1  0  0  0  0
  4 17  1  0  0  0  0
  5 18  1  0  0  0  0
  7 19  1  0  0  0  0
  7 20  1  0  0  0  0
  7 21  1  0  0  0  0
  8 22  1  0  0  0  0
  8 23  1  0  0  0  0
  8 24  1  0  0  0  0
  9 25  1  0  0  0  0
  9 26  1  0  0  0  0
 10 27  1  0  0  0  0
 11 28  1  0  0  0  0
 12 29  1  0  0  0  0
M  END
> <Hybrid2>
-6.201305

> <docked_fragment>
x1077

> <Mpro-_dock>
0.889848

> <site>
active-noncovalent

$$$$
CHEMBL1201270
  -OEChem-04122014263D

 23 25  0     0  0  0  0  0  0999 V2000
   13.4852   -1.4742   22.5866 C   0  0  0  0  0  0  0  0  0  0  0  0
   13.6856   -1.2363   24.9739 C   0  0  0  0  0  0  0  0  0  0  0  0
   12.1681   -2.8606   24.0492 C   0  0  0  0  0  0  0  0  0  0  0  0
   12.6559    0.5033   23.6731 C   0  0  0  0  0  0  0  0  0  0  0  0
   11.1070   -1.1546   22.7293 C   0  0  0  0  0  0  0  0  0  0  0  0
   11.3115   -0.9118   25.1660 C   0  0  0  0  0  0  0  0  0  0  0  0
   13.7416   -0.5009   23.6820 N   0  0  0  0  0  0  0  0  0  0  0  0
   12.1797   -2.1727   22.7302 N   0  0  0  0  0  0  0  0  0  0  0  0
   12.3859   -1.9279   25.1874 N   0  0  0  0  0  0  0  0  0  0  0  0
   11.2959   -0.1493   23.8522 N   0  3  0  0  0  0  0  0  0  0  0  0
   13.5272   -0.9610   21.6167 H   0  0  0  0  0  0  0  0  0  0  0  0
   14.2961   -2.2138   22.5549 H   0  0  0  0  0  0  0  0  0  0  0  0
   14.5028   -1.9684   25.0154 H   0  0  0  0  0  0  0  0  0  0  0  0
   13.8789   -0.5439   25.8039 H   0  0  0  0  0  0  0  0  0  0  0  0
   11.2166   -3.3921   24.1818 H   0  0  0  0  0  0  0  0  0  0  0  0
   12.9380   -3.6434   24.0623 H   0  0  0  0  0  0  0  0  0  0  0  0
   12.7767    1.2343   24.4818 H   0  0  0  0  0  0  0  0  0  0  0  0
   12.6292    1.0604   22.7288 H   0  0  0  0  0  0  0  0  0  0  0  0
   11.0847   -0.5927   21.7877 H   0  0  0  0  0  0  0  0  0  0  0  0
   10.1185   -1.6108   22.8621 H   0  0  0  0  0  0  0  0  0  0  0  0
   10.3218   -1.3678   25.2913 H   0  0  0  0  0  0  0  0  0  0  0  0
   11.4374   -0.1757   25.9693 H   0  0  0  0  0  0  0  0  0  0  0  0
   10.5463    0.5553   23.8453 H   0  0  0  0  0  0  0  0  0  0  0  0
  1  7  1  0  0  0  0
  1  8  1  0  0  0  0
  2  7  1  0  0  0  0
  2  9  1  0  0  0  0
  3  8  1  0  0  0  0
  3  9  1  0  0  0  0
  4  7  1  0  0  0  0
  4 10  1  0  0  0  0
  5  8  1  0  0  0  0
  5 10  1  0  0  0  0
  6  9  1  0  0  0  0
  6 10  1  0  0  0  0
  1 11  1  0  0  0  0
  1 12  1  0  0  0  0
  2 13  1  0  0  0  0
  2 14  1  0  0  0  0
  3 15  1  0  0  0  0
  3 16  1  0  0  0  0
  4 17  1  0  0  0  0
  4 18  1  0  0  0  0
  5 19  1  0  0  0  0
  5 20  1  0  0  0  0
  6 21  1  0  0  0  0
  6 22  1  0  0  0  0
 10 23  1  0  0  0  0
M  CHG  1  10   1
M  END
> <Hybrid2>
-6.170158

> <docked_fragment>
x0354

> <Mpro-_dock>
-0.878579

> <site>
active-noncovalent

$$$$
CHEMBL3707255
  -OEChem-04122014263D

 31 32  0     1  0  0  0  0  0999 V2000
   12.4634    0.8828   21.8210 C   0  0  0  0  0  0  0  0  0  0  0  0
   12.0523    0.2318   24.1572 C   0  0  0  0  0  0  0  0  0  0  0  0
   13.1274    0.2328   23.0518 C   0  0  0  0  0  0  0  0  0  0  0  0
   11.3461   -0.0416   21.3139 C   0  0  1  0  0  0  0  0  0  0  0  0
   10.9185   -0.7216   23.7497 C   0  0  2  0  0  0  0  0  0  0  0  0
   11.1554   -1.2189   22.3027 C   0  0  0  0  0  0  0  0  0  0  0  0
   13.5364   -1.2317   22.7166 C   0  0  0  0  0  0  0  0  0  0  0  0
   10.0466   -2.1677   21.8430 C   0  0  0  0  0  0  0  0  0  0  0  0
   14.5572   -1.2997   21.5704 C   0  0  0  0  0  0  0  0  0  0  0  0
   14.1426   -1.9552   23.9289 C   0  0  0  0  0  0  0  0  0  0  0  0
   12.3791   -1.9890   22.3030 O   0  0  0  0  0  0  0  0  0  0  0  0
   10.1616    0.7269   21.1504 O   0  0  0  0  0  0  0  0  0  0  0  0
    9.6795   -0.0401   23.8938 O   0  0  0  0  0  0  0  0  0  0  0  0
   12.0755    1.8773   22.0749 H   0  0  0  0  0  0  0  0  0  0  0  0
   13.2014    1.0468   21.0277 H   0  0  0  0  0  0  0  0  0  0  0  0
   12.4837   -0.0882   25.1124 H   0  0  0  0  0  0  0  0  0  0  0  0
   11.6777    1.2490   24.3281 H   0  0  0  0  0  0  0  0  0  0  0  0
   13.9926    0.8256   23.3692 H   0  0  0  0  0  0  0  0  0  0  0  0
   11.6355   -0.4231   20.3266 H   0  0  0  0  0  0  0  0  0  0  0  0
   10.9153   -1.5711   24.4442 H   0  0  0  0  0  0  0  0  0  0  0  0
    9.9399   -2.9803   22.5582 H   0  0  0  0  0  0  0  0  0  0  0  0
   10.2974   -2.5788   20.8676 H   0  0  0  0  0  0  0  0  0  0  0  0
    9.1061   -1.6254   21.7730 H   0  0  0  0  0  0  0  0  0  0  0  0
   14.8101   -2.3372   21.3745 H   0  0  0  0  0  0  0  0  0  0  0  0
   15.4524   -0.7542   21.8528 H   0  0  0  0  0  0  0  0  0  0  0  0
   14.1267   -0.8554   20.6781 H   0  0  0  0  0  0  0  0  0  0  0  0
   14.4107   -2.9687   23.6463 H   0  0  0  0  0  0  0  0  0  0  0  0
   13.4137   -1.9827   24.7331 H   0  0  0  0  0  0  0  0  0  0  0  0
   15.0293   -1.4230   24.2594 H   0  0  0  0  0  0  0  0  0  0  0  0
    9.4754    0.1191   20.8304 H   0  0  0  0  0  0  0  0  0  0  0  0
    8.9842   -0.6644   23.6304 H   0  0  0  0  0  0  0  0  0  0  0  0
  1  3  1  0  0  0  0
  1  4  1  0  0  0  0
  2  3  1  0  0  0  0
  2  5  1  0  0  0  0
  3  7  1  0  0  0  0
  4  6  1  0  0  0  0
  4 12  1  0  0  0  0
  5  6  1  0  0  0  0
  5 13  1  0  0  0  0
  6  8  1  0  0  0  0
  6 11  1  0  0  0  0
  7  9  1  0  0  0  0
  7 10  1  0  0  0  0
  7 11  1  0  0  0  0
  1 14  1  0  0  0  0
  1 15  1  0  0  0  0
  2 16  1  0  0  0  0
  2 17  1  0  0  0  0
  3 18  1  0  0  0  0
  4 19  1  0  0  0  0
  5 20  1  0  0  0  0
  8 21  1  0  0  0  0
  8 22  1  0  0  0  0
  8 23  1  0  0  0  0
  9 24  1  0  0  0  0
  9 25  1  0  0  0  0
  9 26  1  0  0  0  0
 10 27  1  0  0  0  0
 10 28  1  0  0  0  0
 10 29  1  0  0  0  0
 12 30  1  0  0  0  0
 13 31  1  0  0  0  0
M  END
> <Hybrid2>
-6.163589

> <docked_fragment>
x0678

> <Mpro-_dock>
2.962924

> <site>
active-noncovalent

$$$$
DB04074
  -OEChem-04122014263D

 15 14  0     0  0  0  0  0  0999 V2000
    7.3454   -1.7734   19.4208 C   0  0  0  0  0  0  0  0  0  0  0  0
    6.1168   -2.4238   19.9977 C   0  0  0  0  0  0  0  0  0  0  0  0
    8.4922   -0.9668   21.4927 C   0  0  0  0  0  0  0  0  0  0  0  0
    7.0007    0.5680   20.1777 C   0  0  0  0  0  0  0  0  0  0  0  0
    7.9960   -0.5838   20.1006 C   0  0  0  0  0  0  0  0  0  0  0  0
    5.6668   -3.4195   19.3584 O   0  5  0  0  0  0  0  0  0  0  0  0
    7.7500   -2.3042   18.3947 O   0  0  0  0  0  0  0  0  0  0  0  0
    5.6662   -1.9038   21.0589 O   0  0  0  0  0  0  0  0  0  0  0  0
    7.6587   -1.2800   22.1302 H   0  0  0  0  0  0  0  0  0  0  0  0
    9.2140   -1.7900   21.4499 H   0  0  0  0  0  0  0  0  0  0  0  0
    8.9878   -0.1175   21.9757 H   0  0  0  0  0  0  0  0  0  0  0  0
    6.1181    0.2916   20.7655 H   0  0  0  0  0  0  0  0  0  0  0  0
    7.4578    1.4483   20.6417 H   0  0  0  0  0  0  0  0  0  0  0  0
    6.6514    0.8568   19.1809 H   0  0  0  0  0  0  0  0  0  0  0  0
    8.8667   -0.2803   19.5084 H   0  0  0  0  0  0  0  0  0  0  0  0
  1  2  1  0  0  0  0
  1  5  1  0  0  0  0
  1  7  2  0  0  0  0
  2  6  1  0  0  0  0
  2  8  2  0  0  0  0
  3  5  1  0  0  0  0
  4  5  1  0  0  0  0
  3  9  1  0  0  0  0
  3 10  1  0  0  0  0
  3 11  1  0  0  0  0
  4 12  1  0  0  0  0
  4 13  1  0  0  0  0
  4 14  1  0  0  0  0
  5 15  1  0  0  0  0
M  CHG  1   6  -1
M  END
> <Hybrid2>
-6.141923

> <docked_fragment>
x0397

> <Mpro-_dock>
0.170242

> <site>
active-noncovalent

$$$$
CHEMBL2105621
  -OEChem-04122014263D

 22 22  0     1  0  0  0  0  0999 V2000
    6.8799   -1.0492   18.6404 C   0  0  0  0  0  0  0  0  0  0  0  0
    6.2485   -2.9667   21.0060 C   0  0  0  0  0  0  0  0  0  0  0  0
    8.3290    0.0137   20.2978 C   0  0  0  0  0  0  0  0  0  0  0  0
    8.4606   -1.9250   21.6790 C   0  0  0  0  0  0  0  0  0  0  0  0
    7.0324   -0.7710   20.1208 C   0  0  2  0  0  0  0  0  0  0  0  0
    8.8524   -0.4560   21.6508 C   0  0  1  0  0  0  0  0  0  0  0  0
    6.7483   -4.3420   21.3698 C   0  0  0  0  0  0  0  0  0  0  0  0
    7.2166   -1.9795   20.9203 N   0  0  0  0  0  0  0  0  0  0  0  0
    6.2828   -2.1233   18.3524 O   0  5  0  0  0  0  0  0  0  0  0  0
    7.3720   -0.1669   17.8823 O   0  0  0  0  0  0  0  0  0  0  0  0
    5.0476   -2.7755   20.8068 O   0  0  0  0  0  0  0  0  0  0  0  0
   10.2522   -0.2825   21.7342 O   0  0  0  0  0  0  0  0  0  0  0  0
    9.0493   -0.1634   19.4926 H   0  0  0  0  0  0  0  0  0  0  0  0
    8.1011    1.0853   20.3427 H   0  0  0  0  0  0  0  0  0  0  0  0
    9.2065   -2.5851   21.2318 H   0  0  0  0  0  0  0  0  0  0  0  0
    8.2342   -2.2546   22.6970 H   0  0  0  0  0  0  0  0  0  0  0  0
    6.1669   -0.2065   20.4579 H   0  0  0  0  0  0  0  0  0  0  0  0
    8.3848    0.1118   22.4761 H   0  0  0  0  0  0  0  0  0  0  0  0
    6.7345   -4.4507   22.4492 H   0  0  0  0  0  0  0  0  0  0  0  0
    7.7608   -4.4623   20.9979 H   0  0  0  0  0  0  0  0  0  0  0  0
    6.1034   -5.0864   20.9138 H   0  0  0  0  0  0  0  0  0  0  0  0
   10.6428   -0.8128   21.0210 H   0  0  0  0  0  0  0  0  0  0  0  0
  1  5  1  0  0  0  0
  1  9  1  0  0  0  0
  1 10  2  0  0  0  0
  2  7  1  0  0  0  0
  2  8  1  0  0  0  0
  2 11  2  0  0  0  0
  3  5  1  0  0  0  0
  3  6  1  0  0  0  0
  4  6  1  0  0  0  0
  4  8  1  0  0  0  0
  5  8  1  0  0  0  0
  6 12  1  0  0  0  0
  3 13  1  0  0  0  0
  3 14  1  0  0  0  0
  4 15  1  0  0  0  0
  4 16  1  0  0  0  0
  5 17  1  0  0  0  0
  6 18  1  0  0  0  0
  7 19  1  0  0  0  0
  7 20  1  0  0  0  0
  7 21  1  0  0  0  0
 12 22  1  0  0  0  0
M  CHG  1   9  -1
M  END
> <Hybrid2>
-6.136436

> <docked_fragment>
x0397

> <Mpro-_dock>
1.886693

> <site>
active-noncovalent

$$$$
DB02005
  -OEChem-04122014263D

 13 12  0     0  0  0  0  0  0999 V2000
    6.6637   -5.4664   23.7253 C   0  0  0  0  0  0  0  0  0  0  0  0
    6.0598   -5.4333   24.9204 C   0  0  0  0  0  0  0  0  0  0  0  0
    5.8712   -5.2604   22.4910 C   0  0  0  0  0  0  0  0  0  0  0  0
    6.5219   -5.2921   21.1354 C   0  0  0  0  0  0  0  0  0  0  0  0
    6.7835   -5.6305   26.2121 C   0  0  0  0  0  0  0  0  0  0  0  0
    5.7484   -5.1036   20.1505 O   0  5  0  0  0  0  0  0  0  0  0  0
    4.6663   -5.0543   22.4627 O   0  0  0  0  0  0  0  0  0  0  0  0
    7.7694   -5.5030   21.1200 O   0  0  0  0  0  0  0  0  0  0  0  0
    7.7295   -5.6418   23.6402 H   0  0  0  0  0  0  0  0  0  0  0  0
    4.9902   -5.2564   24.9957 H   0  0  0  0  0  0  0  0  0  0  0  0
    6.7923   -6.6925   26.4756 H   0  0  0  0  0  0  0  0  0  0  0  0
    6.3206   -5.0785   27.0363 H   0  0  0  0  0  0  0  0  0  0  0  0
    7.8194   -5.2919   26.1140 H   0  0  0  0  0  0  0  0  0  0  0  0
  1  2  2  0  0  0  0
  1  3  1  0  0  0  0
  2  5  1  0  0  0  0
  3  4  1  0  0  0  0
  3  7  2  0  0  0  0
  4  6  1  0  0  0  0
  4  8  2  0  0  0  0
  1  9  1  0  0  0  0
  2 10  1  0  0  0  0
  5 11  1  0  0  0  0
  5 12  1  0  0  0  0
  5 13  1  0  0  0  0
M  CHG  1   6  -1
M  END
> <Hybrid2>
-6.134789

> <docked_fragment>
x0689

> <Mpro-_dock>
-0.527026

> <site>
active-covalent

$$$$
DB03229
  -OEChem-04122014263D

 18 17  0     0  0  0  0  0  0999 V2000
    5.6212   -5.5058   22.4837 C   0  0  0  0  0  0  0  0  0  0  0  0
    6.4874   -5.3633   21.2629 C   0  0  0  0  0  0  0  0  0  0  0  0
    7.5557   -3.5766   23.7518 C   0  0  0  0  0  0  0  0  0  0  0  0
    5.3087   -3.5968   24.8532 C   0  0  0  0  0  0  0  0  0  0  0  0
    6.2504   -5.7214   23.8423 C   0  0  0  0  0  0  0  0  0  0  0  0
    6.5749   -4.4119   24.5771 C   0  0  0  0  0  0  0  0  0  0  0  0
    5.8767   -5.2144   20.1642 O   0  5  0  0  0  0  0  0  0  0  0  0
    4.4216   -5.4583   22.2504 O   0  0  0  0  0  0  0  0  0  0  0  0
    7.7344   -5.4094   21.4703 O   0  0  0  0  0  0  0  0  0  0  0  0
    7.1252   -3.3204   22.7779 H   0  0  0  0  0  0  0  0  0  0  0  0
    8.4911   -4.1191   23.5769 H   0  0  0  0  0  0  0  0  0  0  0  0
    7.7977   -2.6402   24.2659 H   0  0  0  0  0  0  0  0  0  0  0  0
    4.7888   -3.3391   23.9254 H   0  0  0  0  0  0  0  0  0  0  0  0
    4.6101   -4.1673   25.4750 H   0  0  0  0  0  0  0  0  0  0  0  0
    5.5430   -2.6648   25.3791 H   0  0  0  0  0  0  0  0  0  0  0  0
    5.5351   -6.3102   24.4289 H   0  0  0  0  0  0  0  0  0  0  0  0
    7.1621   -6.3172   23.7187 H   0  0  0  0  0  0  0  0  0  0  0  0
    7.0523   -4.6405   25.5382 H   0  0  0  0  0  0  0  0  0  0  0  0
  1  2  1  0  0  0  0
  1  5  1  0  0  0  0
  1  8  2  0  0  0  0
  2  7  1  0  0  0  0
  2  9  2  0  0  0  0
  3  6  1  0  0  0  0
  4  6  1  0  0  0  0
  5  6  1  0  0  0  0
  3 10  1  0  0  0  0
  3 11  1  0  0  0  0
  3 12  1  0  0  0  0
  4 13  1  0  0  0  0
  4 14  1  0  0  0  0
  4 15  1  0  0  0  0
  5 16  1  0  0  0  0
  5 17  1  0  0  0  0
  6 18  1  0  0  0  0
M  CHG  1   7  -1
M  END
> <Hybrid2>
-6.131216

> <docked_fragment>
x0689

> <Mpro-_dock>
-0.917762

> <site>
active-covalent

$$$$
DB02952
  -OEChem-04122014263D

 16 15  0     0  0  0  0  0  0999 V2000
    7.2608   -1.3933   18.7589 C   0  0  0  0  0  0  0  0  0  0  0  0
    6.5739   -0.6702   21.1287 C   0  0  0  0  0  0  0  0  0  0  0  0
    7.4691   -2.9687   20.6500 C   0  0  0  0  0  0  0  0  0  0  0  0
    7.5455   -1.4865   20.2774 C   0  0  0  0  0  0  0  0  0  0  0  0
    8.9288   -1.0129   20.6244 N   0  3  0  0  0  0  0  0  0  0  0  0
    6.4688   -2.2563   18.2864 O   0  5  0  0  0  0  0  0  0  0  0  0
    7.8594   -0.4531   18.1590 O   0  0  0  0  0  0  0  0  0  0  0  0
    6.8059   -0.7603   22.1961 H   0  0  0  0  0  0  0  0  0  0  0  0
    6.6134    0.3954   20.8749 H   0  0  0  0  0  0  0  0  0  0  0  0
    5.5412   -1.0095   20.9869 H   0  0  0  0  0  0  0  0  0  0  0  0
    7.6615   -3.1154   21.7193 H   0  0  0  0  0  0  0  0  0  0  0  0
    8.2088   -3.5584   20.0962 H   0  0  0  0  0  0  0  0  0  0  0  0
    6.4817   -3.3940   20.4357 H   0  0  0  0  0  0  0  0  0  0  0  0
    9.3370   -0.5207   19.8313 H   0  0  0  0  0  0  0  0  0  0  0  0
    9.5194   -1.8092   20.8602 H   0  0  0  0  0  0  0  0  0  0  0  0
    8.8898   -0.3809   21.4227 H   0  0  0  0  0  0  0  0  0  0  0  0
  1  4  1  0  0  0  0
  1  6  1  0  0  0  0
  1  7  2  0  0  0  0
  2  4  1  0  0  0  0
  3  4  1  0  0  0  0
  4  5  1  0  0  0  0
  2  8  1  0  0  0  0
  2  9  1  0  0  0  0
  2 10  1  0  0  0  0
  3 11  1  0  0  0  0
  3 12  1  0  0  0  0
  3 13  1  0  0  0  0
  5 14  1  0  0  0  0
  5 15  1  0  0  0  0
  5 16  1  0  0  0  0
M  CHG  2   5   1   6  -1
M  END
> <Hybrid2>
-6.127037

> <docked_fragment>
x0397

> <Mpro-_dock>
-0.190521

> <site>
active-noncovalent

$$$$
CHEMBL2104457
  -OEChem-04122014263D

 19 19  0     1  0  0  0  0  0999 V2000
   12.3466   -0.1117   22.5303 C   0  0  0  0  0  0  0  0  0  0  0  0
    9.6466   -1.6353   21.5656 C   0  0  0  0  0  0  0  0  0  0  0  0
   13.3560   -2.1227   21.6277 C   0  0  0  0  0  0  0  0  0  0  0  0
   14.4784   -1.6247   22.5201 C   0  0  0  0  0  0  0  0  0  0  0  0
   12.0550   -1.5502   22.1782 C   0  0  2  0  0  0  0  0  0  0  0  0
    8.7100   -1.6671   20.4037 C   0  0  0  0  0  0  0  0  0  0  0  0
   10.9901   -1.5884   21.2190 N   0  0  0  0  0  0  0  0  0  0  0  0
   11.5234    0.7771   22.6846 O   0  0  0  0  0  0  0  0  0  0  0  0
    9.1963   -1.6501   22.7052 O   0  0  0  0  0  0  0  0  0  0  0  0
   14.0780    0.1277   22.7754 S   0  0  0  0  0  0  0  0  0  0  0  0
   13.5302   -1.7828   20.5971 H   0  0  0  0  0  0  0  0  0  0  0  0
   13.3305   -3.2176   21.6044 H   0  0  0  0  0  0  0  0  0  0  0  0
   14.4757   -2.1404   23.4854 H   0  0  0  0  0  0  0  0  0  0  0  0
   15.4594   -1.7414   22.0524 H   0  0  0  0  0  0  0  0  0  0  0  0
   11.7342   -2.0790   23.0804 H   0  0  0  0  0  0  0  0  0  0  0  0
    8.4815   -2.6939   20.0757 H   0  0  0  0  0  0  0  0  0  0  0  0
    7.7340   -1.2123   20.6377 H   0  0  0  0  0  0  0  0  0  0  0  0
    9.0629   -1.1459   19.4994 H   0  0  0  0  0  0  0  0  0  0  0  0
   11.2330   -1.5807   20.2273 H   0  0  0  0  0  0  0  0  0  0  0  0
  1  5  1  0  0  0  0
  1  8  2  0  0  0  0
  1 10  1  0  0  0  0
  2  6  1  0  0  0  0
  2  7  1  0  0  0  0
  2  9  2  0  0  0  0
  3  4  1  0  0  0  0
  3  5  1  0  0  0  0
  4 10  1  0  0  0  0
  5  7  1  0  0  0  0
  3 11  1  0  0  0  0
  3 12  1  0  0  0  0
  4 13  1  0  0  0  0
  4 14  1  0  0  0  0
  5 15  1  0  0  0  0
  6 16  1  0  0  0  0
  6 17  1  0  0  0  0
  6 18  1  0  0  0  0
  7 19  1  0  0  0  0
M  END
> <Hybrid2>
-6.117666

> <docked_fragment>
x1382

> <Mpro-_dock>
-0.529985

> <site>
active-covalent

$$$$
DB03214
  -OEChem-04122014263D

 14 13  0     1  0  0  0  0  0999 V2000
    7.6189   -1.3775   20.7438 C   0  0  0  0  0  0  0  0  0  0  0  0
    7.2608   -0.8112   19.5856 C   0  0  0  0  0  0  0  0  0  0  0  0
    5.8056    0.6634   18.3052 C   0  0  0  0  0  0  0  0  0  0  0  0
    5.8350   -0.6090   19.1588 C   0  0  1  0  0  0  0  0  0  0  0  0
    5.2881   -1.8157   18.4650 N   0  3  0  0  0  0  0  0  0  0  0  0
    6.5181    0.6429   17.2620 O   0  5  0  0  0  0  0  0  0  0  0  0
    5.0624    1.5845   18.7514 O   0  0  0  0  0  0  0  0  0  0  0  0
    8.6670   -1.4997   20.9946 H   0  0  0  0  0  0  0  0  0  0  0  0
    6.8804   -1.7260   21.4572 H   0  0  0  0  0  0  0  0  0  0  0  0
    8.0447   -0.4838   18.9064 H   0  0  0  0  0  0  0  0  0  0  0  0
    5.1790   -0.4681   20.0263 H   0  0  0  0  0  0  0  0  0  0  0  0
    4.6970   -1.5365   17.6803 H   0  0  0  0  0  0  0  0  0  0  0  0
    4.7282   -2.3734   19.1124 H   0  0  0  0  0  0  0  0  0  0  0  0
    6.0496   -2.3961   18.1091 H   0  0  0  0  0  0  0  0  0  0  0  0
  1  2  2  0  0  0  0
  2  4  1  0  0  0  0
  3  4  1  0  0  0  0
  3  6  1  0  0  0  0
  3  7  2  0  0  0  0
  4  5  1  0  0  0  0
  1  8  1  0  0  0  0
  1  9  1  0  0  0  0
  2 10  1  0  0  0  0
  4 11  1  0  0  0  0
  5 12  1  0  0  0  0
  5 13  1  0  0  0  0
  5 14  1  0  0  0  0
M  CHG  2   5   1   6  -1
M  END
> <Hybrid2>
-6.116640

> <docked_fragment>
x0397

> <Mpro-_dock>
-0.895869

> <site>
active-noncovalent

$$$$
CHEMBL444
  -OEChem-04122014263D

 25 25  0     0  0  0  0  0  0999 V2000
   12.1161    0.2267   24.4008 C   0  0  0  0  0  0  0  0  0  0  0  0
   11.3763   -2.2264   24.4686 C   0  0  0  0  0  0  0  0  0  0  0  0
    9.9082   -0.4206   25.3369 C   0  0  0  0  0  0  0  0  0  0  0  0
   12.5380   -1.2378   24.4634 C   0  0  0  0  0  0  0  0  0  0  0  0
   12.8023   -1.3090   21.9817 C   0  0  0  0  0  0  0  0  0  0  0  0
   13.7603   -2.8394   25.9481 C   0  0  0  0  0  0  0  0  0  0  0  0
   13.4746   -1.5527   23.2879 C   0  0  0  0  0  0  0  0  0  0  0  0
   13.3001   -1.4310   25.7866 C   0  0  0  0  0  0  0  0  0  0  0  0
   10.8843    0.5005   24.9764 N   0  0  0  0  0  0  0  0  0  0  0  0
   10.2075   -1.7446   25.0388 N   0  0  0  0  0  0  0  0  0  0  0  0
   12.8372    1.1106   23.9389 O   0  0  0  0  0  0  0  0  0  0  0  0
   11.4818   -3.3835   24.0627 O   0  0  0  0  0  0  0  0  0  0  0  0
    8.8358   -0.0833   25.8414 O   0  0  0  0  0  0  0  0  0  0  0  0
   11.9130   -1.9461   21.9100 H   0  0  0  0  0  0  0  0  0  0  0  0
   13.4647   -1.5552   21.1450 H   0  0  0  0  0  0  0  0  0  0  0  0
   12.4810   -0.2659   21.8922 H   0  0  0  0  0  0  0  0  0  0  0  0
   12.8916   -3.5082   25.9351 H   0  0  0  0  0  0  0  0  0  0  0  0
   14.2800   -2.9766   26.9023 H   0  0  0  0  0  0  0  0  0  0  0  0
   14.4264   -3.1318   25.1295 H   0  0  0  0  0  0  0  0  0  0  0  0
   14.3617   -0.9267   23.3759 H   0  0  0  0  0  0  0  0  0  0  0  0
   13.7835   -2.5946   23.3620 H   0  0  0  0  0  0  0  0  0  0  0  0
   14.1561   -0.7556   25.7980 H   0  0  0  0  0  0  0  0  0  0  0  0
   12.6417   -1.1573   26.6116 H   0  0  0  0  0  0  0  0  0  0  0  0
   10.6732    1.4786   25.1533 H   0  0  0  0  0  0  0  0  0  0  0  0
    9.4941   -2.4329   25.2625 H   0  0  0  0  0  0  0  0  0  0  0  0
  1  4  1  0  0  0  0
  1  9  1  0  0  0  0
  1 11  2  0  0  0  0
  2  4  1  0  0  0  0
  2 10  1  0  0  0  0
  2 12  2  0  0  0  0
  3  9  1  0  0  0  0
  3 10  1  0  0  0  0
  3 13  2  0  0  0  0
  4  7  1  0  0  0  0
  4  8  1  0  0  0  0
  5  7  1  0  0  0  0
  6  8  1  0  0  0  0
  5 14  1  0  0  0  0
  5 15  1  0  0  0  0
  5 16  1  0  0  0  0
  6 17  1  0  0  0  0
  6 18  1  0  0  0  0
  6 19  1  0  0  0  0
  7 20  1  0  0  0  0
  7 21  1  0  0  0  0
  8 22  1  0  0  0  0
  8 23  1  0  0  0  0
  9 24  1  0  0  0  0
 10 25  1  0  0  0  0
M  END
> <Hybrid2>
-6.082006

> <docked_fragment>
x0354

> <Mpro-_dock>
0.37771

> <site>
active-noncovalent

$$$$
DB03360
  -OEChem-04122014263D

 21 21  0     1  0  0  0  0  0999 V2000
   11.6443    0.4768   24.2538 C   0  0  0  0  0  0  0  0  0  0  0  0
   10.8828   -0.4929   21.4486 C   0  0  0  0  0  0  0  0  0  0  0  0
   14.0715   -1.6998   22.7060 C   0  0  0  0  0  0  0  0  0  0  0  0
   13.8351   -0.5619   23.6908 C   0  0  0  0  0  0  0  0  0  0  0  0
   12.6658   -2.0930   22.2854 C   0  0  0  0  0  0  0  0  0  0  0  0
   12.5964    0.1492   23.1456 C   0  0  1  0  0  0  0  0  0  0  0  0
   10.0093   -1.6388   21.0045 C   0  0  0  0  0  0  0  0  0  0  0  0
   11.9406   -0.8275   22.2804 N   0  0  0  0  0  0  0  0  0  0  0  0
   12.1824    0.8055   25.3473 O   0  5  0  0  0  0  0  0  0  0  0  0
   10.4226    0.3810   23.9482 O   0  0  0  0  0  0  0  0  0  0  0  0
   10.6342    0.6554   21.0763 O   0  0  0  0  0  0  0  0  0  0  0  0
   14.6909   -1.3927   21.8580 H   0  0  0  0  0  0  0  0  0  0  0  0
   14.5666   -2.5401   23.2074 H   0  0  0  0  0  0  0  0  0  0  0  0
   13.7150   -0.9356   24.7153 H   0  0  0  0  0  0  0  0  0  0  0  0
   14.6931    0.1246   23.6778 H   0  0  0  0  0  0  0  0  0  0  0  0
   12.6514   -2.4920   21.2697 H   0  0  0  0  0  0  0  0  0  0  0  0
   12.2061   -2.8077   22.9664 H   0  0  0  0  0  0  0  0  0  0  0  0
   12.8202    1.0509   22.5880 H   0  0  0  0  0  0  0  0  0  0  0  0
    9.2035   -1.7687   21.7194 H   0  0  0  0  0  0  0  0  0  0  0  0
   10.6079   -2.5428   20.9523 H   0  0  0  0  0  0  0  0  0  0  0  0
    9.6024   -1.4159   20.0234 H   0  0  0  0  0  0  0  0  0  0  0  0
  1  6  1  0  0  0  0
  1  9  1  0  0  0  0
  1 10  2  0  0  0  0
  2  7  1  0  0  0  0
  2  8  1  0  0  0  0
  2 11  2  0  0  0  0
  3  4  1  0  0  0  0
  3  5  1  0  0  0  0
  4  6  1  0  0  0  0
  5  8  1  0  0  0  0
  6  8  1  0  0  0  0
  3 12  1  0  0  0  0
  3 13  1  0  0  0  0
  4 14  1  0  0  0  0
  4 15  1  0  0  0  0
  5 16  1  0  0  0  0
  5 17  1  0  0  0  0
  6 18  1  0  0  0  0
  7 19  1  0  0  0  0
  7 20  1  0  0  0  0
  7 21  1  0  0  0  0
M  CHG  1   9  -1
M  END
> <Hybrid2>
-6.076420

> <docked_fragment>
x0678

> <Mpro-_dock>
1.30775

> <site>
active-noncovalent

$$$$
CHEMBL2104208
  -OEChem-04122014263D

 25 24  0     0  0  0  0  0  0999 V2000
   10.2112   -4.4431   25.6787 C   0  0  0  0  0  0  0  0  0  0  0  0
   11.0001   -1.0268   25.8880 C   0  0  0  0  0  0  0  0  0  0  0  0
   10.7510   -1.0903   22.1042 C   0  0  0  0  0  0  0  0  0  0  0  0
    9.1103   -3.3328   23.3269 C   0  0  0  0  0  0  0  0  0  0  0  0
    9.8735   -1.6901   25.1097 C   0  0  0  0  0  0  0  0  0  0  0  0
   11.3161   -2.1757   23.0141 C   0  0  0  0  0  0  0  0  0  0  0  0
   10.3168   -2.7242   24.0534 C   0  0  0  0  0  0  0  0  0  0  0  0
   10.6102   -5.7522   25.7888 N   0  0  0  0  0  0  0  0  0  0  0  0
    9.3000   -3.9414   26.3283 O   0  0  0  0  0  0  0  0  0  0  0  0
   10.9705   -3.7943   24.7512 O   0  0  0  0  0  0  0  0  0  0  0  0
   11.6244   -1.7643   26.4002 H   0  0  0  0  0  0  0  0  0  0  0  0
   11.6455   -0.4678   25.2026 H   0  0  0  0  0  0  0  0  0  0  0  0
   10.6167   -0.3198   26.6290 H   0  0  0  0  0  0  0  0  0  0  0  0
   10.3437   -0.2554   22.6822 H   0  0  0  0  0  0  0  0  0  0  0  0
   11.5430   -0.6957   21.4595 H   0  0  0  0  0  0  0  0  0  0  0  0
    9.9628   -1.4808   21.4543 H   0  0  0  0  0  0  0  0  0  0  0  0
    9.4370   -4.0653   22.5796 H   0  0  0  0  0  0  0  0  0  0  0  0
    8.5087   -2.5728   22.8194 H   0  0  0  0  0  0  0  0  0  0  0  0
    8.4652   -3.8761   24.0270 H   0  0  0  0  0  0  0  0  0  0  0  0
    9.2809   -0.9072   24.6174 H   0  0  0  0  0  0  0  0  0  0  0  0
    9.1760   -2.1583   25.8155 H   0  0  0  0  0  0  0  0  0  0  0  0
   11.7119   -2.9895   22.3953 H   0  0  0  0  0  0  0  0  0  0  0  0
   12.1728   -1.7378   23.5434 H   0  0  0  0  0  0  0  0  0  0  0  0
   10.1342   -6.3630   26.4441 H   0  0  0  0  0  0  0  0  0  0  0  0
   11.3710   -6.1215   25.2285 H   0  0  0  0  0  0  0  0  0  0  0  0
  1  8  1  0  0  0  0
  1  9  2  0  0  0  0
  1 10  1  0  0  0  0
  2  5  1  0  0  0  0
  3  6  1  0  0  0  0
  4  7  1  0  0  0  0
  5  7  1  0  0  0  0
  6  7  1  0  0  0  0
  7 10  1  0  0  0  0
  2 11  1  0  0  0  0
  2 12  1  0  0  0  0
  2 13  1  0  0  0  0
  3 14  1  0  0  0  0
  3 15  1  0  0  0  0
  3 16  1  0  0  0  0
  4 17  1  0  0  0  0
  4 18  1  0  0  0  0
  4 19  1  0  0  0  0
  5 20  1  0  0  0  0
  5 21  1  0  0  0  0
  6 22  1  0  0  0  0
  6 23  1  0  0  0  0
  8 24  1  0  0  0  0
  8 25  1  0  0  0  0
M  END
> <Hybrid2>
-6.064270

> <docked_fragment>
x0387

> <Mpro-_dock>
1.029116

> <site>
active-noncovalent

$$$$
CHEMBL1988479
  -OEChem-04122014263D

 26 26  0     0  0  0  0  0  0999 V2000
   10.0179   -0.3354   23.0030 C   0  0  0  0  0  0  0  0  0  0  0  0
   11.6417   -1.6808   21.5461 C   0  0  0  0  0  0  0  0  0  0  0  0
    9.4891   -0.8456   20.6302 C   0  0  0  0  0  0  0  0  0  0  0  0
   14.4047   -0.0028   22.9022 C   0  0  0  0  0  0  0  0  0  0  0  0
   13.1007    0.1187   23.1745 C   0  0  0  0  0  0  0  0  0  0  0  0
   11.1248   -1.3837   22.9501 C   0  0  0  0  0  0  0  0  0  0  0  0
   10.0580   -2.5302   24.9023 C   0  0  0  0  0  0  0  0  0  0  0  0
   12.2926   -0.9424   23.8443 C   0  0  0  0  0  0  0  0  0  0  0  0
   10.5313   -2.6937   23.4985 C   0  0  0  0  0  0  0  0  0  0  0  0
    9.2224   -0.2743   21.8686 N   0  0  0  0  0  0  0  0  0  0  0  0
   10.7083   -1.5059   20.5354 N   0  0  0  0  0  0  0  0  0  0  0  0
    9.8002    0.3568   23.9971 O   0  0  0  0  0  0  0  0  0  0  0  0
   12.7753   -2.1077   21.3279 O   0  0  0  0  0  0  0  0  0  0  0  0
    8.7217   -0.7348   19.6726 O   0  0  0  0  0  0  0  0  0  0  0  0
   14.9590    0.7908   22.4138 H   0  0  0  0  0  0  0  0  0  0  0  0
   14.9393   -0.9081   23.1687 H   0  0  0  0  0  0  0  0  0  0  0  0
   12.5988    1.0476   22.9153 H   0  0  0  0  0  0  0  0  0  0  0  0
   10.9000   -2.2268   25.5355 H   0  0  0  0  0  0  0  0  0  0  0  0
    9.6596   -3.4716   25.2954 H   0  0  0  0  0  0  0  0  0  0  0  0
    9.2863   -1.7561   24.9694 H   0  0  0  0  0  0  0  0  0  0  0  0
   12.8931   -1.8212   24.0818 H   0  0  0  0  0  0  0  0  0  0  0  0
   11.8854   -0.5553   24.7784 H   0  0  0  0  0  0  0  0  0  0  0  0
    9.7018   -2.9957   22.8583 H   0  0  0  0  0  0  0  0  0  0  0  0
   11.2957   -3.4698   23.4510 H   0  0  0  0  0  0  0  0  0  0  0  0
    8.3519    0.2433   21.9519 H   0  0  0  0  0  0  0  0  0  0  0  0
   10.9405   -1.9028   19.6292 H   0  0  0  0  0  0  0  0  0  0  0  0
  1  6  1  0  0  0  0
  1 10  1  0  0  0  0
  1 12  2  0  0  0  0
  2  6  1  0  0  0  0
  2 11  1  0  0  0  0
  2 13  2  0  0  0  0
  3 10  1  0  0  0  0
  3 11  1  0  0  0  0
  3 14  2  0  0  0  0
  4  5  2  0  0  0  0
  5  8  1  0  0  0  0
  6  8  1  0  0  0  0
  6  9  1  0  0  0  0
  7  9  1  0  0  0  0
  4 15  1  0  0  0  0
  4 16  1  0  0  0  0
  5 17  1  0  0  0  0
  7 18  1  0  0  0  0
  7 19  1  0  0  0  0
  7 20  1  0  0  0  0
  8 21  1  0  0  0  0
  8 22  1  0  0  0  0
  9 23  1  0  0  0  0
  9 24  1  0  0  0  0
 10 25  1  0  0  0  0
 11 26  1  0  0  0  0
M  END
> <Hybrid2>
-6.054186

> <docked_fragment>
x1382

> <Mpro-_dock>
0.631491

> <site>
active-covalent

$$$$
DB01762
  -OEChem-04122014263D

 12 11  0     0  0  0  0  0  0999 V2000
    6.7611   -0.3860   18.9516 C   0  0  0  0  0  0  0  0  0  0  0  0
    6.5010   -1.7007   19.0501 C   0  0  0  0  0  0  0  0  0  0  0  0
    5.9723    0.6382   18.1163 C   0  0  0  0  0  0  0  0  0  0  0  0
    7.3319   -2.6182   19.8931 C   0  0  0  0  0  0  0  0  0  0  0  0
    5.0058    1.2198   18.6816 O   0  5  0  0  0  0  0  0  0  0  0  0
    6.4046    0.7785   16.9339 O   0  0  0  0  0  0  0  0  0  0  0  0
    5.4692   -2.3451   18.4028 O   0  0  0  0  0  0  0  0  0  0  0  0
    7.6152    0.0010   19.5119 H   0  0  0  0  0  0  0  0  0  0  0  0
    6.9267   -2.6675   20.9090 H   0  0  0  0  0  0  0  0  0  0  0  0
    7.3627   -3.6375   19.4946 H   0  0  0  0  0  0  0  0  0  0  0  0
    8.3610   -2.2491   19.9497 H   0  0  0  0  0  0  0  0  0  0  0  0
    5.4781   -3.2829   18.6226 H   0  0  0  0  0  0  0  0  0  0  0  0
  1  2  2  0  0  0  0
  1  3  1  0  0  0  0
  2  4  1  0  0  0  0
  2  7  1  0  0  0  0
  3  5  1  0  0  0  0
  3  6  2  0  0  0  0
  1  8  1  0  0  0  0
  4  9  1  0  0  0  0
  4 10  1  0  0  0  0
  4 11  1  0  0  0  0
  7 12  1  0  0  0  0
M  CHG  1   5  -1
M  END
> <Hybrid2>
-6.053140

> <docked_fragment>
x0397

> <Mpro-_dock>
-0.746124

> <site>
active-noncovalent

$$$$
DB04217
  -OEChem-04122014263D

 12 11  0     1  0  0  0  0  0999 V2000
    6.5383    0.9757   20.9603 C   0  0  0  0  0  0  0  0  0  0  0  0
    6.8609   -0.1017   20.5393 C   0  0  0  0  0  0  0  0  0  0  0  0
    7.0171   -1.4981   18.5185 C   0  0  0  0  0  0  0  0  0  0  0  0
    7.2536   -1.4230   20.0291 C   0  0  1  0  0  0  0  0  0  0  0  0
    8.6674   -1.6875   20.4343 N   0  3  0  0  0  0  0  0  0  0  0  0
    7.6468   -0.6358   17.8409 O   0  5  0  0  0  0  0  0  0  0  0  0
    6.2272   -2.4038   18.1290 O   0  0  0  0  0  0  0  0  0  0  0  0
    6.2522    1.9312   21.3336 H   0  0  0  0  0  0  0  0  0  0  0  0
    6.6666   -2.2061   20.5225 H   0  0  0  0  0  0  0  0  0  0  0  0
    8.9662   -2.6073   20.1047 H   0  0  0  0  0  0  0  0  0  0  0  0
    8.7562   -1.6624   21.4521 H   0  0  0  0  0  0  0  0  0  0  0  0
    9.2899   -0.9816   20.0363 H   0  0  0  0  0  0  0  0  0  0  0  0
  1  2  3  0  0  0  0
  2  4  1  0  0  0  0
  3  4  1  0  0  0  0
  3  6  1  0  0  0  0
  3  7  2  0  0  0  0
  4  5  1  0  0  0  0
  1  8  1  0  0  0  0
  4  9  1  0  0  0  0
  5 10  1  0  0  0  0
  5 11  1  0  0  0  0
  5 12  1  0  0  0  0
M  CHG  2   5   1   6  -1
M  END
> <Hybrid2>
-6.028115

> <docked_fragment>
x0397

> <Mpro-_dock>
-1.282466

> <site>
active-noncovalent

$$$$
CHEMBL2110720
  -OEChem-04122014263D

 36 38  0     1  0  0  0  0  0999 V2000
    7.0158   -2.6923   21.7220 C   0  0  0  0  0  0  0  0  0  0  0  0
   11.3623   -1.2682   21.9968 C   0  0  0  0  0  0  0  0  0  0  0  0
   10.4364   -2.2689   22.6656 C   0  0  1  0  0  0  0  0  0  0  0  0
    9.7867   -1.7203   23.9304 C   0  0  2  0  0  0  0  0  0  0  0  0
    8.3346   -2.1609   23.8369 C   0  0  1  0  0  0  0  0  0  0  0  0
    8.2424   -2.9590   22.5618 C   0  0  2  0  0  0  0  0  0  0  0  0
   11.1742    0.2218   23.8296 C   0  0  0  0  0  0  0  0  0  0  0  0
    7.9952   -4.3736   24.3406 C   0  0  0  0  0  0  0  0  0  0  0  0
   11.7899    0.2889   25.2278 C   0  0  0  0  0  0  0  0  0  0  0  0
   11.0706    1.6353   23.2537 C   0  0  0  0  0  0  0  0  0  0  0  0
    9.1011   -5.1903   24.9969 C   0  0  0  0  0  0  0  0  0  0  0  0
    6.6297   -5.0004   24.5959 C   0  0  0  0  0  0  0  0  0  0  0  0
    6.0179   -3.4213   21.9786 O   0  5  0  0  0  0  0  0  0  0  0  0
    7.1483   -1.7708   20.8686 O   0  0  0  0  0  0  0  0  0  0  0  0
   12.0638   -0.5442   23.0008 O   0  0  0  0  0  0  0  0  0  0  0  0
    9.3812   -2.6257   21.7678 O   0  0  0  0  0  0  0  0  0  0  0  0
    9.8354   -0.2929   23.9146 O   0  0  0  0  0  0  0  0  0  0  0  0
    7.9966   -3.0551   24.8916 O   0  0  0  0  0  0  0  0  0  0  0  0
    8.2273   -4.3340   22.9316 O   0  0  0  0  0  0  0  0  0  0  0  0
   12.0733   -1.7645   21.3451 H   0  0  0  0  0  0  0  0  0  0  0  0
   10.7935   -0.5493   21.4157 H   0  0  0  0  0  0  0  0  0  0  0  0
   10.9998   -3.1904   22.8790 H   0  0  0  0  0  0  0  0  0  0  0  0
   10.2929   -2.0872   24.8406 H   0  0  0  0  0  0  0  0  0  0  0  0
    7.6225   -1.2997   23.8699 H   0  0  0  0  0  0  0  0  0  0  0  0
   11.8652   -0.7138   25.6403 H   0  0  0  0  0  0  0  0  0  0  0  0
   11.1621    0.8984   25.8725 H   0  0  0  0  0  0  0  0  0  0  0  0
   12.7815    0.7300   25.1675 H   0  0  0  0  0  0  0  0  0  0  0  0
   10.6332    1.5934   22.2589 H   0  0  0  0  0  0  0  0  0  0  0  0
   12.0619    2.0783   23.1922 H   0  0  0  0  0  0  0  0  0  0  0  0
   10.4426    2.2469   23.8973 H   0  0  0  0  0  0  0  0  0  0  0  0
   10.0708   -4.7295   24.8054 H   0  0  0  0  0  0  0  0  0  0  0  0
    9.1069   -6.2039   24.5945 H   0  0  0  0  0  0  0  0  0  0  0  0
    8.9408   -5.2396   26.0745 H   0  0  0  0  0  0  0  0  0  0  0  0
    5.8522   -4.4037   24.1198 H   0  0  0  0  0  0  0  0  0  0  0  0
    6.4362   -5.0455   25.6671 H   0  0  0  0  0  0  0  0  0  0  0  0
    6.6022   -6.0101   24.1873 H   0  0  0  0  0  0  0  0  0  0  0  0
  1  6  1  0  0  0  0
  1 13  1  0  0  0  0
  1 14  2  0  0  0  0
  2  3  1  0  0  0  0
  2 15  1  0  0  0  0
  3  4  1  0  0  0  0
  3 16  1  0  0  0  0
  4  5  1  0  0  0  0
  4 17  1  0  0  0  0
  5  6  1  0  0  0  0
  5 18  1  0  0  0  0
  6 16  1  0  0  0  0
  6 19  1  0  0  0  0
  7  9  1  0  0  0  0
  7 10  1  0  0  0  0
  7 15  1  0  0  0  0
  7 17  1  0  0  0  0
  8 11  1  0  0  0  0
  8 12  1  0  0  0  0
  8 18  1  0  0  0  0
  8 19  1  0  0  0  0
  2 20  1  0  0  0  0
  2 21  1  0  0  0  0
  3 22  1  0  0  0  0
  4 23  1  0  0  0  0
  5 24  1  0  0  0  0
  9 25  1  0  0  0  0
  9 26  1  0  0  0  0
  9 27  1  0  0  0  0
 10 28  1  0  0  0  0
 10 29  1  0  0  0  0
 10 30  1  0  0  0  0
 11 31  1  0  0  0  0
 11 32  1  0  0  0  0
 11 33  1  0  0  0  0
 12 34  1  0  0  0  0
 12 35  1  0  0  0  0
 12 36  1  0  0  0  0
M  CHG  1  13  -1
M  END
> <Hybrid2>
-6.016234

> <docked_fragment>
x1392

> <Mpro-_dock>
0.898588

> <site>
active-covalent

$$$$
CHEMBL141446
  -OEChem-04122014263D

 13 12  0     0  0  0  0  0  0999 V2000
   12.9819    1.8384   22.6792 C   0  0  0  0  0  0  0  0  0  0  0  0
   12.3764    0.7327   23.1177 C   0  0  0  0  0  0  0  0  0  0  0  0
   12.3915   -1.4979   22.4840 C   0  0  0  0  0  0  0  0  0  0  0  0
   13.8838   -1.3806   22.6548 C   0  0  0  0  0  0  0  0  0  0  0  0
   11.8374   -0.1989   22.3404 O   0  0  0  0  0  0  0  0  0  0  0  0
   14.4385   -0.7705   21.5845 F   0  0  0  0  0  0  0  0  0  0  0  0
   14.4594   -2.5951   22.7798 F   0  0  0  0  0  0  0  0  0  0  0  0
   14.1958   -0.6542   23.7488 F   0  0  0  0  0  0  0  0  0  0  0  0
   13.3971    2.5521   23.3818 H   0  0  0  0  0  0  0  0  0  0  0  0
   13.0740    2.0497   21.6198 H   0  0  0  0  0  0  0  0  0  0  0  0
   12.2631    0.4847   24.1628 H   0  0  0  0  0  0  0  0  0  0  0  0
   12.1519   -2.0835   21.5916 H   0  0  0  0  0  0  0  0  0  0  0  0
   11.9413   -1.9783   23.3578 H   0  0  0  0  0  0  0  0  0  0  0  0
  1  2  2  0  0  0  0
  2  5  1  0  0  0  0
  3  4  1  0  0  0  0
  3  5  1  0  0  0  0
  4  6  1  0  0  0  0
  4  7  1  0  0  0  0
  4  8  1  0  0  0  0
  1  9  1  0  0  0  0
  1 10  1  0  0  0  0
  2 11  1  0  0  0  0
  3 12  1  0  0  0  0
  3 13  1  0  0  0  0
M  END
> <Hybrid2>
-6.008831

> <docked_fragment>
x0195

> <Mpro-_dock>
0.996836

> <site>
active-noncovalent

$$$$
DB02897
  -OEChem-04122014263D

 11 10  0     0  0  0  0  0  0999 V2000
    5.9261    0.3724   18.5897 C   0  0  0  0  0  0  0  0  0  0  0  0
    5.4196    1.3088   19.6419 C   0  0  0  0  0  0  0  0  0  0  0  0
    5.5746   -3.3545   19.3585 O   0  5  0  0  0  0  0  0  0  0  0  0
    7.3445   -1.7686   20.3250 O   0  5  0  0  0  0  0  0  0  0  0  0
    6.6168    0.7063   17.6377 O   0  0  0  0  0  0  0  0  0  0  0  0
    7.3105   -2.2771   17.8167 O   0  0  0  0  0  0  0  0  0  0  0  0
    5.5061   -0.8941   18.8519 O   0  0  0  0  0  0  0  0  0  0  0  0
    6.5123   -2.1762   19.1128 P   0  0  0  0  0  0  0  0  0  0  0  0
    4.4460    1.7077   19.3457 H   0  0  0  0  0  0  0  0  0  0  0  0
    6.1184    2.1432   19.7515 H   0  0  0  0  0  0  0  0  0  0  0  0
    5.3471    0.7867   20.5992 H   0  0  0  0  0  0  0  0  0  0  0  0
  1  2  1  0  0  0  0
  1  5  2  0  0  0  0
  1  7  1  0  0  0  0
  3  8  1  0  0  0  0
  4  8  1  0  0  0  0
  6  8  2  0  0  0  0
  7  8  1  0  0  0  0
  2  9  1  0  0  0  0
  2 10  1  0  0  0  0
  2 11  1  0  0  0  0
M  CHG  2   3  -1   4  -1
M  END
> <Hybrid2>
-5.996526

> <docked_fragment>
x0397

> <Mpro-_dock>
0.449779

> <site>
active-noncovalent

$$$$
CHEMBL2104389
  -OEChem-04122014263D

 31 30  0     1  0  0  0  0  0999 V2000
   13.7397   -1.2515   22.2020 C   0  0  0  0  0  0  0  0  0  0  0  0
   13.3958   -0.9310   23.3070 C   0  0  0  0  0  0  0  0  0  0  0  0
   13.2313    0.9499   24.9027 C   0  0  0  0  0  0  0  0  0  0  0  0
   13.6681   -1.3954   25.7198 C   0  0  0  0  0  0  0  0  0  0  0  0
   10.7747   -1.6083   22.6075 C   0  0  0  0  0  0  0  0  0  0  0  0
   12.1882   -3.0222   24.1438 C   0  0  0  0  0  0  0  0  0  0  0  0
    9.7912   -2.5194   24.7429 C   0  0  0  0  0  0  0  0  0  0  0  0
   11.0484   -0.7697   26.2217 C   0  0  0  0  0  0  0  0  0  0  0  0
   12.9757   -0.5372   24.6622 C   0  0  0  0  0  0  0  0  0  0  0  0
   11.0546   -2.0014   24.0572 C   0  0  0  0  0  0  0  0  0  0  0  0
   11.4948   -0.7700   24.7854 N   0  3  1  0  0  0  0  0  0  0  0  0
   14.0447   -1.5357   21.2221 H   0  0  0  0  0  0  0  0  0  0  0  0
   12.9214    1.2521   25.9097 H   0  0  0  0  0  0  0  0  0  0  0  0
   14.2963    1.1889   24.7971 H   0  0  0  0  0  0  0  0  0  0  0  0
   12.6862    1.5739   24.1841 H   0  0  0  0  0  0  0  0  0  0  0  0
   13.3611   -1.1090   26.7323 H   0  0  0  0  0  0  0  0  0  0  0  0
   13.4374   -2.4596   25.5892 H   0  0  0  0  0  0  0  0  0  0  0  0
   14.7580   -1.2905   25.6609 H   0  0  0  0  0  0  0  0  0  0  0  0
    9.9619   -0.8760   22.5416 H   0  0  0  0  0  0  0  0  0  0  0  0
   11.6622   -1.1618   22.1452 H   0  0  0  0  0  0  0  0  0  0  0  0
   10.4886   -2.4783   22.0054 H   0  0  0  0  0  0  0  0  0  0  0  0
   12.3918   -3.3066   25.1825 H   0  0  0  0  0  0  0  0  0  0  0  0
   13.1173   -2.6252   23.7193 H   0  0  0  0  0  0  0  0  0  0  0  0
   11.9351   -3.9351   23.5931 H   0  0  0  0  0  0  0  0  0  0  0  0
    9.9882   -2.8025   25.7833 H   0  0  0  0  0  0  0  0  0  0  0  0
    9.0081   -1.7530   24.7499 H   0  0  0  0  0  0  0  0  0  0  0  0
    9.3897   -3.4001   24.2286 H   0  0  0  0  0  0  0  0  0  0  0  0
   11.5284   -1.6135   26.7207 H   0  0  0  0  0  0  0  0  0  0  0  0
   11.3573    0.1777   26.6675 H   0  0  0  0  0  0  0  0  0  0  0  0
    9.9617   -0.8733   26.2337 H   0  0  0  0  0  0  0  0  0  0  0  0
   11.0319    0.0318   24.3328 H   0  0  0  0  0  0  0  0  0  0  0  0
  1  2  3  0  0  0  0
  2  9  1  0  0  0  0
  3  9  1  0  0  0  0
  4  9  1  0  0  0  0
  5 10  1  0  0  0  0
  6 10  1  0  0  0  0
  7 10  1  0  0  0  0
  8 11  1  0  0  0  0
  9 11  1  0  0  0  0
 10 11  1  0  0  0  0
  1 12  1  0  0  0  0
  3 13  1  0  0  0  0
  3 14  1  0  0  0  0
  3 15  1  0  0  0  0
  4 16  1  0  0  0  0
  4 17  1  0  0  0  0
  4 18  1  0  0  0  0
  5 19  1  0  0  0  0
  5 20  1  0  0  0  0
  5 21  1  0  0  0  0
  6 22  1  0  0  0  0
  6 23  1  0  0  0  0
  6 24  1  0  0  0  0
  7 25  1  0  0  0  0
  7 26  1  0  0  0  0
  7 27  1  0  0  0  0
  8 28  1  0  0  0  0
  8 29  1  0  0  0  0
  8 30  1  0  0  0  0
 11 31  1  0  0  0  0
M  CHG  1  11   1
M  END
> <Hybrid2>
-5.992215

> <docked_fragment>
x0354

> <Mpro-_dock>
2.91408

> <site>
active-noncovalent

$$$$
DB03993
  -OEChem-04122014263D

 19 18  0     0  0  0  0  0  0999 V2000
    6.3652   -2.6391   19.8180 C   0  0  0  0  0  0  0  0  0  0  0  0
    6.3851    1.3912   17.6305 C   0  0  0  0  0  0  0  0  0  0  0  0
    6.2258    1.0739   20.1076 C   0  0  0  0  0  0  0  0  0  0  0  0
    7.5278   -1.6435   19.8623 C   0  0  0  0  0  0  0  0  0  0  0  0
    7.5375   -0.5894   18.7567 C   0  0  0  0  0  0  0  0  0  0  0  0
    6.3218    0.3588   18.7570 C   0  0  0  0  0  0  0  0  0  0  0  0
    5.9183   -3.0202   20.9352 O   0  5  0  0  0  0  0  0  0  0  0  0
    6.0048   -2.9719   18.6528 O   0  0  0  0  0  0  0  0  0  0  0  0
    7.2883    2.0051   17.7169 H   0  0  0  0  0  0  0  0  0  0  0  0
    5.5287    2.0713   17.6647 H   0  0  0  0  0  0  0  0  0  0  0  0
    6.3991    0.9070   16.6482 H   0  0  0  0  0  0  0  0  0  0  0  0
    7.1191    1.6804   20.2911 H   0  0  0  0  0  0  0  0  0  0  0  0
    6.1412    0.3510   20.9260 H   0  0  0  0  0  0  0  0  0  0  0  0
    5.3528    1.7343   20.1470 H   0  0  0  0  0  0  0  0  0  0  0  0
    8.4788   -2.1880   19.8741 H   0  0  0  0  0  0  0  0  0  0  0  0
    7.4584   -1.1303   20.8300 H   0  0  0  0  0  0  0  0  0  0  0  0
    7.5934   -1.1053   17.7893 H   0  0  0  0  0  0  0  0  0  0  0  0
    8.4558    0.0063   18.8378 H   0  0  0  0  0  0  0  0  0  0  0  0
    5.4051   -0.2292   18.6291 H   0  0  0  0  0  0  0  0  0  0  0  0
  1  4  1  0  0  0  0
  1  7  1  0  0  0  0
  1  8  2  0  0  0  0
  2  6  1  0  0  0  0
  3  6  1  0  0  0  0
  4  5  1  0  0  0  0
  5  6  1  0  0  0  0
  2  9  1  0  0  0  0
  2 10  1  0  0  0  0
  2 11  1  0  0  0  0
  3 12  1  0  0  0  0
  3 13  1  0  0  0  0
  3 14  1  0  0  0  0
  4 15  1  0  0  0  0
  4 16  1  0  0  0  0
  5 17  1  0  0  0  0
  5 18  1  0  0  0  0
  6 19  1  0  0  0  0
M  CHG  1   7  -1
M  END
> <Hybrid2>
-5.967275

> <docked_fragment>
x0397

> <Mpro-_dock>
0.283622

> <site>
active-noncovalent

$$$$
DB02518
  -OEChem-04122014263D

 17 16  0     1  0  0  0  0  0999 V2000
    6.4555    0.1589   18.3804 C   0  0  0  0  0  0  0  0  0  0  0  0
    6.0984   -2.6070   19.6915 C   0  0  0  0  0  0  0  0  0  0  0  0
    5.9156    1.5277   18.1287 C   0  0  0  0  0  0  0  0  0  0  0  0
    8.4684   -1.6243   19.8107 C   0  0  0  0  0  0  0  0  0  0  0  0
    7.0019   -1.4639   20.1833 C   0  0  1  0  0  0  0  0  0  0  0  0
    6.5139   -0.1859   19.7174 N   0  0  0  0  0  0  0  0  0  0  0  0
    6.0560   -2.7942   18.4440 O   0  5  0  0  0  0  0  0  0  0  0  0
    6.7952   -0.5402   17.4331 O   0  0  0  0  0  0  0  0  0  0  0  0
    5.4986   -3.2333   20.6136 O   0  0  0  0  0  0  0  0  0  0  0  0
    6.7058    2.2955   18.1152 H   0  0  0  0  0  0  0  0  0  0  0  0
    5.4143    1.6086   17.1508 H   0  0  0  0  0  0  0  0  0  0  0  0
    5.1767    1.8853   18.8634 H   0  0  0  0  0  0  0  0  0  0  0  0
    8.5984   -1.6543   18.7236 H   0  0  0  0  0  0  0  0  0  0  0  0
    9.0735   -0.7986   20.2022 H   0  0  0  0  0  0  0  0  0  0  0  0
    8.8756   -2.5532   20.2254 H   0  0  0  0  0  0  0  0  0  0  0  0
    6.9259   -1.4396   21.2774 H   0  0  0  0  0  0  0  0  0  0  0  0
    6.1987    0.4913   20.4055 H   0  0  0  0  0  0  0  0  0  0  0  0
  1  3  1  0  0  0  0
  1  6  1  0  0  0  0
  1  8  2  0  0  0  0
  2  5  1  0  0  0  0
  2  7  1  0  0  0  0
  2  9  2  0  0  0  0
  4  5  1  0  0  0  0
  5  6  1  0  0  0  0
  3 10  1  0  0  0  0
  3 11  1  0  0  0  0
  3 12  1  0  0  0  0
  4 13  1  0  0  0  0
  4 14  1  0  0  0  0
  4 15  1  0  0  0  0
  5 16  1  0  0  0  0
  6 17  1  0  0  0  0
M  CHG  1   7  -1
M  END
> <Hybrid2>
-5.940798

> <docked_fragment>
x0397

> <Mpro-_dock>
-0.939025

> <site>
active-noncovalent

$$$$
DB04225
  -OEChem-04122014263D

 16 15  0     0  0  0  0  0  0999 V2000
    5.8907   -5.4212   22.2737 C   0  0  0  0  0  0  0  0  0  0  0  0
    6.5436   -5.3846   20.9106 C   0  0  0  0  0  0  0  0  0  0  0  0
    7.2221   -4.4014   24.1211 C   0  0  0  0  0  0  0  0  0  0  0  0
    3.8692   -5.2482   23.4937 C   0  0  0  0  0  0  0  0  0  0  0  0
    6.7311   -5.6988   23.5031 C   0  0  0  0  0  0  0  0  0  0  0  0
    4.6174   -5.2241   22.2483 N   0  0  0  0  0  0  0  0  0  0  0  0
    7.7909   -5.5962   20.8929 O   0  5  0  0  0  0  0  0  0  0  0  0
    5.7777   -5.1466   19.9304 O   0  0  0  0  0  0  0  0  0  0  0  0
    6.3750   -3.7565   24.3745 H   0  0  0  0  0  0  0  0  0  0  0  0
    7.7946   -4.5888   25.0348 H   0  0  0  0  0  0  0  0  0  0  0  0
    7.8724   -3.8536   23.4314 H   0  0  0  0  0  0  0  0  0  0  0  0
    3.8297   -4.2457   23.9277 H   0  0  0  0  0  0  0  0  0  0  0  0
    4.3473   -5.9253   24.2064 H   0  0  0  0  0  0  0  0  0  0  0  0
    2.8489   -5.5936   23.3085 H   0  0  0  0  0  0  0  0  0  0  0  0
    7.5811   -6.3391   23.2519 H   0  0  0  0  0  0  0  0  0  0  0  0
    6.1322   -6.2544   24.2325 H   0  0  0  0  0  0  0  0  0  0  0  0
  1  2  1  0  0  0  0
  1  5  1  0  0  0  0
  1  6  2  0  0  0  0
  2  7  1  0  0  0  0
  2  8  2  0  0  0  0
  3  5  1  0  0  0  0
  4  6  1  0  0  0  0
  3  9  1  0  0  0  0
  3 10  1  0  0  0  0
  3 11  1  0  0  0  0
  4 12  1  0  0  0  0
  4 13  1  0  0  0  0
  4 14  1  0  0  0  0
  5 15  1  0  0  0  0
  5 16  1  0  0  0  0
M  CHG  1   7  -1
M  END
> <Hybrid2>
-5.918810

> <docked_fragment>
x1402

> <Mpro-_dock>
0.029651

> <site>
active-covalent

$$$$
CHEMBL591
  -OEChem-04122014263D

 18 17  0     1  0  0  0  0  0999 V2000
   13.6407   -1.9205   22.4604 C   0  0  0  0  0  0  0  0  0  0  0  0
   12.5562   -1.4055   22.4943 C   0  0  0  0  0  0  0  0  0  0  0  0
   10.1698   -1.8505   22.6122 C   0  0  0  0  0  0  0  0  0  0  0  0
    9.1951   -2.0653   21.7215 C   0  0  0  0  0  0  0  0  0  0  0  0
   12.1079    1.3951   23.6805 C   0  0  0  0  0  0  0  0  0  0  0  0
   11.1147    0.2378   23.6981 C   0  0  0  0  0  0  0  0  0  0  0  0
   11.2250   -0.7671   22.5298 C   0  0  1  0  0  0  0  0  0  0  0  0
   11.0564   -0.0200   21.3186 O   0  0  0  0  0  0  0  0  0  0  0  0
    8.0393   -3.3202   21.8919 Cl  0  0  0  0  0  0  0  0  0  0  0  0
   14.6022   -2.3771   22.4306 H   0  0  0  0  0  0  0  0  0  0  0  0
   10.2232   -2.5094   23.4786 H   0  0  0  0  0  0  0  0  0  0  0  0
    9.0352   -1.4842   20.8240 H   0  0  0  0  0  0  0  0  0  0  0  0
   12.0168    1.9468   22.7389 H   0  0  0  0  0  0  0  0  0  0  0  0
   13.1404    1.0426   23.7593 H   0  0  0  0  0  0  0  0  0  0  0  0
   11.9179    2.1024   24.4931 H   0  0  0  0  0  0  0  0  0  0  0  0
   11.2224   -0.3014   24.6493 H   0  0  0  0  0  0  0  0  0  0  0  0
   10.0990    0.6566   23.7211 H   0  0  0  0  0  0  0  0  0  0  0  0
   11.7680    0.6356   21.3064 H   0  0  0  0  0  0  0  0  0  0  0  0
  1  2  3  0  0  0  0
  2  7  1  0  0  0  0
  3  4  2  0  0  0  0
  3  7  1  0  0  0  0
  4  9  1  0  0  0  0
  5  6  1  0  0  0  0
  6  7  1  0  0  0  0
  7  8  1  0  0  0  0
  1 10  1  0  0  0  0
  3 11  1  0  0  0  0
  4 12  1  0  0  0  0
  5 13  1  0  0  0  0
  5 14  1  0  0  0  0
  5 15  1  0  0  0  0
  6 16  1  0  0  0  0
  6 17  1  0  0  0  0
  8 18  1  0  0  0  0
M  END
> <Hybrid2>
-5.865373

> <docked_fragment>
x0708

> <Mpro-_dock>
0.646868

> <site>
active-covalent

$$$$
EDRUG524
  -OEChem-04122014263D

 18 17  0     1  0  0  0  0  0999 V2000
   13.6407   -1.9205   22.4604 C   0  0  0  0  0  0  0  0  0  0  0  0
   12.5562   -1.4055   22.4943 C   0  0  0  0  0  0  0  0  0  0  0  0
   10.1698   -1.8505   22.6122 C   0  0  0  0  0  0  0  0  0  0  0  0
    9.1951   -2.0653   21.7215 C   0  0  0  0  0  0  0  0  0  0  0  0
   12.1079    1.3951   23.6805 C   0  0  0  0  0  0  0  0  0  0  0  0
   11.1147    0.2378   23.6981 C   0  0  0  0  0  0  0  0  0  0  0  0
   11.2250   -0.7671   22.5298 C   0  0  1  0  0  0  0  0  0  0  0  0
   11.0564   -0.0200   21.3186 O   0  0  0  0  0  0  0  0  0  0  0  0
    8.0393   -3.3202   21.8919 Cl  0  0  0  0  0  0  0  0  0  0  0  0
   14.6022   -2.3771   22.4306 H   0  0  0  0  0  0  0  0  0  0  0  0
   10.2232   -2.5094   23.4786 H   0  0  0  0  0  0  0  0  0  0  0  0
    9.0352   -1.4842   20.8240 H   0  0  0  0  0  0  0  0  0  0  0  0
   12.0168    1.9468   22.7389 H   0  0  0  0  0  0  0  0  0  0  0  0
   13.1404    1.0426   23.7593 H   0  0  0  0  0  0  0  0  0  0  0  0
   11.9179    2.1024   24.4931 H   0  0  0  0  0  0  0  0  0  0  0  0
   11.2224   -0.3014   24.6493 H   0  0  0  0  0  0  0  0  0  0  0  0
   10.0990    0.6566   23.7211 H   0  0  0  0  0  0  0  0  0  0  0  0
   11.7680    0.6356   21.3064 H   0  0  0  0  0  0  0  0  0  0  0  0
  1  2  3  0  0  0  0
  2  7  1  0  0  0  0
  3  4  2  0  0  0  0
  3  7  1  0  0  0  0
  4  9  1  0  0  0  0
  5  6  1  0  0  0  0
  6  7  1  0  0  0  0
  7  8  1  0  0  0  0
  1 10  1  0  0  0  0
  3 11  1  0  0  0  0
  4 12  1  0  0  0  0
  5 13  1  0  0  0  0
  5 14  1  0  0  0  0
  5 15  1  0  0  0  0
  6 16  1  0  0  0  0
  6 17  1  0  0  0  0
  8 18  1  0  0  0  0
M  END
> <Hybrid2>
-5.865373

> <docked_fragment>
x0708

> <Mpro-_dock>
0.646868

> <site>
active-covalent

$$$$
CHEMBL250212
  -OEChem-04122014263D

 15 14  0     0  0  0  0  0  0999 V2000
    6.4258   -5.4524   23.5445 C   0  0  0  0  0  0  0  0  0  0  0  0
    5.7451   -5.2801   22.4029 C   0  0  0  0  0  0  0  0  0  0  0  0
    5.7830   -5.5105   24.8394 C   0  0  0  0  0  0  0  0  0  0  0  0
    6.4567   -5.6827   25.9862 C   0  0  0  0  0  0  0  0  0  0  0  0
    6.4525   -5.2213   21.0409 C   0  0  0  0  0  0  0  0  0  0  0  0
    5.8047   -5.7437   27.3285 C   0  0  0  0  0  0  0  0  0  0  0  0
    7.7094   -5.3428   21.0409 O   0  5  0  0  0  0  0  0  0  0  0  0
    5.6682   -5.0537   20.0609 O   0  0  0  0  0  0  0  0  0  0  0  0
    7.5075   -5.5561   23.5336 H   0  0  0  0  0  0  0  0  0  0  0  0
    4.6603   -5.1783   22.4361 H   0  0  0  0  0  0  0  0  0  0  0  0
    4.7011   -5.4077   24.8649 H   0  0  0  0  0  0  0  0  0  0  0  0
    7.5391   -5.7869   25.9722 H   0  0  0  0  0  0  0  0  0  0  0  0
    5.7415   -4.7391   27.7578 H   0  0  0  0  0  0  0  0  0  0  0  0
    4.7927   -6.1582   27.2804 H   0  0  0  0  0  0  0  0  0  0  0  0
    6.3977   -6.3693   28.0024 H   0  0  0  0  0  0  0  0  0  0  0  0
  1  2  2  0  0  0  0
  1  3  1  0  0  0  0
  2  5  1  0  0  0  0
  3  4  2  0  0  0  0
  4  6  1  0  0  0  0
  5  7  1  0  0  0  0
  5  8  2  0  0  0  0
  1  9  1  0  0  0  0
  2 10  1  0  0  0  0
  3 11  1  0  0  0  0
  4 12  1  0  0  0  0
  6 13  1  0  0  0  0
  6 14  1  0  0  0  0
  6 15  1  0  0  0  0
M  CHG  1   7  -1
M  END
> <Hybrid2>
-5.865325

> <docked_fragment>
x1402

> <Mpro-_dock>
-1.768781

> <site>
active-covalent

$$$$
DB04553
  -OEChem-04122014263D

 12 11  0     0  0  0  0  0  0999 V2000
    7.2678   -1.7810   20.0697 C   0  0  0  0  0  0  0  0  0  0  0  0
    6.0876   -2.6039   19.6343 C   0  0  0  0  0  0  0  0  0  0  0  0
    7.4429    0.4477   18.9247 C   0  0  0  0  0  0  0  0  0  0  0  0
    8.0247   -0.9475   19.0645 C   0  0  0  0  0  0  0  0  0  0  0  0
    5.5183   -3.2665   20.5490 O   0  5  0  0  0  0  0  0  0  0  0  0
    7.5216   -1.8639   21.2633 O   0  0  0  0  0  0  0  0  0  0  0  0
    5.7937   -2.5448   18.4045 O   0  0  0  0  0  0  0  0  0  0  0  0
    6.3975    0.4071   18.6011 H   0  0  0  0  0  0  0  0  0  0  0  0
    7.4846    0.9759   19.8821 H   0  0  0  0  0  0  0  0  0  0  0  0
    7.9994    1.0336   18.1857 H   0  0  0  0  0  0  0  0  0  0  0  0
    9.0682   -0.8771   19.3884 H   0  0  0  0  0  0  0  0  0  0  0  0
    7.9897   -1.4568   18.0958 H   0  0  0  0  0  0  0  0  0  0  0  0
  1  2  1  0  0  0  0
  1  4  1  0  0  0  0
  1  6  2  0  0  0  0
  2  5  1  0  0  0  0
  2  7  2  0  0  0  0
  3  4  1  0  0  0  0
  3  8  1  0  0  0  0
  3  9  1  0  0  0  0
  3 10  1  0  0  0  0
  4 11  1  0  0  0  0
  4 12  1  0  0  0  0
M  CHG  1   5  -1
M  END
> <Hybrid2>
-5.855773

> <docked_fragment>
x0397

> <Mpro-_dock>
-0.551192

> <site>
active-noncovalent

$$$$
EDRUG72
  -OEChem-04122014263D

 18 17  0     1  0  0  0  0  0999 V2000
    7.5562   -4.6289   26.9082 C   0  0  0  0  0  0  0  0  0  0  0  0
    8.4081   -4.6642   26.0623 C   0  0  0  0  0  0  0  0  0  0  0  0
    9.6762   -3.3132   24.4896 C   0  0  0  0  0  0  0  0  0  0  0  0
   10.0649   -2.9962   23.2494 C   0  0  0  0  0  0  0  0  0  0  0  0
    7.7815   -5.4038   23.1448 C   0  0  0  0  0  0  0  0  0  0  0  0
    9.0753   -5.7045   23.8943 C   0  0  0  0  0  0  0  0  0  0  0  0
    9.4521   -4.7145   25.0190 C   0  0  2  0  0  0  0  0  0  0  0  0
   10.6585   -5.2032   25.6183 O   0  0  0  0  0  0  0  0  0  0  0  0
   10.2937   -1.3779   22.7314 Cl  0  0  0  0  0  0  0  0  0  0  0  0
    6.8011   -4.5974   27.6583 H   0  0  0  0  0  0  0  0  0  0  0  0
    9.4979   -2.4992   25.1919 H   0  0  0  0  0  0  0  0  0  0  0  0
   10.2730   -3.7083   22.4630 H   0  0  0  0  0  0  0  0  0  0  0  0
    7.8260   -4.3959   22.7189 H   0  0  0  0  0  0  0  0  0  0  0  0
    6.9119   -5.4455   23.8071 H   0  0  0  0  0  0  0  0  0  0  0  0
    7.6232   -6.1013   22.3171 H   0  0  0  0  0  0  0  0  0  0  0  0
    9.0100   -6.7182   24.3128 H   0  0  0  0  0  0  0  0  0  0  0  0
    9.8939   -5.7501   23.1626 H   0  0  0  0  0  0  0  0  0  0  0  0
   11.3196   -5.2242   24.9121 H   0  0  0  0  0  0  0  0  0  0  0  0
  1  2  3  0  0  0  0
  2  7  1  0  0  0  0
  3  4  2  0  0  0  0
  3  7  1  0  0  0  0
  4  9  1  0  0  0  0
  5  6  1  0  0  0  0
  6  7  1  0  0  0  0
  7  8  1  0  0  0  0
  1 10  1  0  0  0  0
  3 11  1  0  0  0  0
  4 12  1  0  0  0  0
  5 13  1  0  0  0  0
  5 14  1  0  0  0  0
  5 15  1  0  0  0  0
  6 16  1  0  0  0  0
  6 17  1  0  0  0  0
  8 18  1  0  0  0  0
M  END
> <Hybrid2>
-5.820518

> <docked_fragment>
x1077

> <Mpro-_dock>
0.622705

> <site>
active-noncovalent

$$$$
DB02697
  -OEChem-04122014263D

 22 21  0     1  0  0  0  0  0999 V2000
   11.7609    2.0224   22.9602 C   0  0  0  0  0  0  0  0  0  0  0  0
   12.6850    5.6710   23.9946 C   0  0  0  0  0  0  0  0  0  0  0  0
   13.2325    4.4682   21.8651 C   0  0  0  0  0  0  0  0  0  0  0  0
   11.5892    3.4166   23.5456 C   0  0  1  0  0  0  0  0  0  0  0  0
   12.8420    4.2959   23.3371 C   0  0  0  0  0  0  0  0  0  0  0  0
   13.0648    1.5921   23.0063 N   0  0  0  0  0  0  0  0  0  0  0  0
   10.3726    4.0625   22.9747 N   0  3  0  0  0  0  0  0  0  0  0  0
   10.8209    1.3702   22.5105 O   0  0  0  0  0  0  0  0  0  0  0  0
   13.3054    0.3103   22.4945 O   0  0  0  0  0  0  0  0  0  0  0  0
   11.8581    6.2406   23.5589 H   0  0  0  0  0  0  0  0  0  0  0  0
   12.5031    5.5703   25.0697 H   0  0  0  0  0  0  0  0  0  0  0  0
   13.5976    6.2633   23.8673 H   0  0  0  0  0  0  0  0  0  0  0  0
   12.4415    4.9563   21.2871 H   0  0  0  0  0  0  0  0  0  0  0  0
   14.1312    5.0890   21.7798 H   0  0  0  0  0  0  0  0  0  0  0  0
   13.4554    3.5043   21.3972 H   0  0  0  0  0  0  0  0  0  0  0  0
   11.3802    3.3108   24.6174 H   0  0  0  0  0  0  0  0  0  0  0  0
   13.6875    3.8024   23.8347 H   0  0  0  0  0  0  0  0  0  0  0  0
   13.8075    2.1670   23.3874 H   0  0  0  0  0  0  0  0  0  0  0  0
    9.8291    4.5195   23.7110 H   0  0  0  0  0  0  0  0  0  0  0  0
    9.7768    3.3664   22.5195 H   0  0  0  0  0  0  0  0  0  0  0  0
   10.6322    4.7678   22.2808 H   0  0  0  0  0  0  0  0  0  0  0  0
   12.4048    0.0608   22.2261 H   0  0  0  0  0  0  0  0  0  0  0  0
  1  4  1  0  0  0  0
  1  6  1  0  0  0  0
  1  8  2  0  0  0  0
  2  5  1  0  0  0  0
  3  5  1  0  0  0  0
  4  5  1  0  0  0  0
  4  7  1  0  0  0  0
  6  9  1  0  0  0  0
  2 10  1  0  0  0  0
  2 11  1  0  0  0  0
  2 12  1  0  0  0  0
  3 13  1  0  0  0  0
  3 14  1  0  0  0  0
  3 15  1  0  0  0  0
  4 16  1  0  0  0  0
  5 17  1  0  0  0  0
  6 18  1  0  0  0  0
  7 19  1  0  0  0  0
  7 20  1  0  0  0  0
  7 21  1  0  0  0  0
  9 22  1  0  0  0  0
M  CHG  1   7   1
M  END
> <Hybrid2>
-5.805089

> <docked_fragment>
x0946

> <Mpro-_dock>
-0.29015

> <site>
active-noncovalent

$$$$
DB03750
  -OEChem-04122014263D

 16 15  0     0  0  0  0  0  0999 V2000
    6.6261   -5.4481   21.1619 C   0  0  0  0  0  0  0  0  0  0  0  0
    8.0701   -4.8846   23.8478 C   0  0  0  0  0  0  0  0  0  0  0  0
    5.9058   -5.3479   25.0183 C   0  0  0  0  0  0  0  0  0  0  0  0
    6.1005   -5.8087   22.5564 C   0  0  0  0  0  0  0  0  0  0  0  0
    6.5464   -4.8947   23.7047 C   0  0  0  0  0  0  0  0  0  0  0  0
    7.8750   -5.5240   20.9990 O   0  5  0  0  0  0  0  0  0  0  0  0
    5.7297   -5.0980   20.3414 O   0  0  0  0  0  0  0  0  0  0  0  0
    8.4465   -5.8936   24.0473 H   0  0  0  0  0  0  0  0  0  0  0  0
    8.3887   -4.2446   24.6765 H   0  0  0  0  0  0  0  0  0  0  0  0
    8.5525   -4.5195   22.9345 H   0  0  0  0  0  0  0  0  0  0  0  0
    6.2064   -6.3719   25.2645 H   0  0  0  0  0  0  0  0  0  0  0  0
    4.8123   -5.3207   24.9585 H   0  0  0  0  0  0  0  0  0  0  0  0
    6.2166   -4.7015   25.8459 H   0  0  0  0  0  0  0  0  0  0  0  0
    6.3796   -6.8461   22.7821 H   0  0  0  0  0  0  0  0  0  0  0  0
    5.0055   -5.7872   22.4793 H   0  0  0  0  0  0  0  0  0  0  0  0
    6.2138   -3.8682   23.5066 H   0  0  0  0  0  0  0  0  0  0  0  0
  1  4  1  0  0  0  0
  1  6  1  0  0  0  0
  1  7  2  0  0  0  0
  2  5  1  0  0  0  0
  3  5  1  0  0  0  0
  4  5  1  0  0  0  0
  2  8  1  0  0  0  0
  2  9  1  0  0  0  0
  2 10  1  0  0  0  0
  3 11  1  0  0  0  0
  3 12  1  0  0  0  0
  3 13  1  0  0  0  0
  4 14  1  0  0  0  0
  4 15  1  0  0  0  0
  5 16  1  0  0  0  0
M  CHG  1   6  -1
M  END
> <Hybrid2>
-5.773857

> <docked_fragment>
x0689

> <Mpro-_dock>
-1.170628

> <site>
active-covalent

$$$$
CHEMBL1733973
  -OEChem-04122014263D

 13 13  0     1  0  0  0  0  0999 V2000
   13.8802   -1.1420   22.8061 C   0  0  0  0  0  0  0  0  0  0  0  0
   13.7031    1.0834   22.5948 C   0  0  0  0  0  0  0  0  0  0  0  0
   12.7890    0.6084   23.6851 C   0  0  1  0  0  0  0  0  0  0  0  0
   11.4102    1.2345   23.6393 C   0  0  0  0  0  0  0  0  0  0  0  0
   14.2488   -2.2914   22.6165 O   0  0  0  0  0  0  0  0  0  0  0  0
   14.5722   -0.0271   22.4161 O   0  0  0  0  0  0  0  0  0  0  0  0
   12.7165   -0.7907   23.4352 O   0  0  0  0  0  0  0  0  0  0  0  0
   13.1904    1.2768   21.6462 H   0  0  0  0  0  0  0  0  0  0  0  0
   14.2710    1.9725   22.8826 H   0  0  0  0  0  0  0  0  0  0  0  0
   13.2366    0.7495   24.6760 H   0  0  0  0  0  0  0  0  0  0  0  0
   10.9608    1.0956   22.6527 H   0  0  0  0  0  0  0  0  0  0  0  0
   11.4710    2.3062   23.8450 H   0  0  0  0  0  0  0  0  0  0  0  0
   10.7575    0.7744   24.3857 H   0  0  0  0  0  0  0  0  0  0  0  0
  1  5  2  0  0  0  0
  1  6  1  0  0  0  0
  1  7  1  0  0  0  0
  2  3  1  0  0  0  0
  2  6  1  0  0  0  0
  3  4  1  0  0  0  0
  3  7  1  0  0  0  0
  2  8  1  0  0  0  0
  2  9  1  0  0  0  0
  3 10  1  0  0  0  0
  4 11  1  0  0  0  0
  4 12  1  0  0  0  0
  4 13  1  0  0  0  0
M  END
> <Hybrid2>
-5.766613

> <docked_fragment>
x0195

> <Mpro-_dock>
2.179425

> <site>
active-noncovalent

$$$$
DB04212
  -OEChem-04122014263D

 10  9  0     0  0  0  0  0  0999 V2000
    5.6613    0.8936   19.4086 C   0  0  0  0  0  0  0  0  0  0  0  0
    5.9438    0.0518   18.1996 C   0  0  0  0  0  0  0  0  0  0  0  0
    4.4043    1.7046   19.5108 C   0  0  0  0  0  0  0  0  0  0  0  0
    6.5580    0.8723   20.3383 N   0  0  0  0  0  0  0  0  0  0  0  0
    5.1011   -0.8566   17.9412 O   0  5  0  0  0  0  0  0  0  0  0  0
    7.0003    0.3467   17.5695 O   0  0  0  0  0  0  0  0  0  0  0  0
    3.6206    1.1033   19.9793 H   0  0  0  0  0  0  0  0  0  0  0  0
    4.0796    1.9988   18.5091 H   0  0  0  0  0  0  0  0  0  0  0  0
    4.5658    2.6047   20.1094 H   0  0  0  0  0  0  0  0  0  0  0  0
    6.2808    1.4738   21.1208 H   0  0  0  0  0  0  0  0  0  0  0  0
  1  2  1  0  0  0  0
  1  3  1  0  0  0  0
  1  4  2  0  0  0  0
  2  5  1  0  0  0  0
  2  6  2  0  0  0  0
  3  7  1  0  0  0  0
  3  8  1  0  0  0  0
  3  9  1  0  0  0  0
  4 10  1  0  0  0  0
M  CHG  1   5  -1
M  END
> <Hybrid2>
-5.745897

> <docked_fragment>
x0397

> <Mpro-_dock>
-0.389232

> <site>
active-noncovalent

$$$$
DB02688
  -OEChem-04122014263D

 10  9  0     0  0  0  0  0  0999 V2000
    5.6613    0.8936   19.4086 C   0  0  0  0  0  0  0  0  0  0  0  0
    5.9438    0.0518   18.1996 C   0  0  0  0  0  0  0  0  0  0  0  0
    4.4043    1.7046   19.5108 C   0  0  0  0  0  0  0  0  0  0  0  0
    6.5580    0.8723   20.3383 N   0  0  0  0  0  0  0  0  0  0  0  0
    5.1011   -0.8566   17.9412 O   0  5  0  0  0  0  0  0  0  0  0  0
    7.0003    0.3467   17.5695 O   0  0  0  0  0  0  0  0  0  0  0  0
    3.6206    1.1033   19.9793 H   0  0  0  0  0  0  0  0  0  0  0  0
    4.0796    1.9988   18.5091 H   0  0  0  0  0  0  0  0  0  0  0  0
    4.5658    2.6047   20.1094 H   0  0  0  0  0  0  0  0  0  0  0  0
    6.2808    1.4738   21.1208 H   0  0  0  0  0  0  0  0  0  0  0  0
  1  2  1  0  0  0  0
  1  3  1  0  0  0  0
  1  4  2  0  0  0  0
  2  5  1  0  0  0  0
  2  6  2  0  0  0  0
  3  7  1  0  0  0  0
  3  8  1  0  0  0  0
  3  9  1  0  0  0  0
  4 10  1  0  0  0  0
M  CHG  1   5  -1
M  END
> <Hybrid2>
-5.745897

> <docked_fragment>
x0397

> <Mpro-_dock>
-0.389232

> <site>
active-noncovalent

$$$$
DB01635
  -OEChem-04122014263D

 21 21  0     1  0  0  0  0  0999 V2000
    6.5928   -3.8027   20.6428 C   0  0  0  0  0  0  0  0  0  0  0  0
    6.8093   -1.8352   22.1573 C   0  0  0  0  0  0  0  0  0  0  0  0
    6.0520   -3.1171   21.8784 C   0  0  2  0  0  0  0  0  0  0  0  0
    5.9321   -3.1103   24.3475 C   0  0  0  0  0  0  0  0  0  0  0  0
    4.4430   -3.1434   24.6824 C   0  0  0  0  0  0  0  0  0  0  0  0
    6.7847   -3.6497   25.4906 C   0  0  0  0  0  0  0  0  0  0  0  0
    6.1814   -3.9467   23.1228 N   0  3  0  0  0  0  0  0  0  0  0  0
    7.8256   -4.0720   20.6717 O   0  5  0  0  0  0  0  0  0  0  0  0
    5.7372   -4.0175   19.7389 O   0  0  0  0  0  0  0  0  0  0  0  0
    6.4495   -1.4272   23.8836 S   0  0  0  0  0  0  0  0  0  0  0  0
    7.8917   -1.9530   22.0366 H   0  0  0  0  0  0  0  0  0  0  0  0
    6.4793   -1.0212   21.5046 H   0  0  0  0  0  0  0  0  0  0  0  0
    4.9690   -2.9315   21.7407 H   0  0  0  0  0  0  0  0  0  0  0  0
    3.8670   -2.7518   23.8453 H   0  0  0  0  0  0  0  0  0  0  0  0
    4.2488   -2.5345   25.5641 H   0  0  0  0  0  0  0  0  0  0  0  0
    4.1315   -4.1678   24.8810 H   0  0  0  0  0  0  0  0  0  0  0  0
    7.8391   -3.6115   25.2182 H   0  0  0  0  0  0  0  0  0  0  0  0
    6.5108   -4.6828   25.7033 H   0  0  0  0  0  0  0  0  0  0  0  0
    6.6280   -3.0496   26.3866 H   0  0  0  0  0  0  0  0  0  0  0  0
    5.5518   -4.7605   23.0871 H   0  0  0  0  0  0  0  0  0  0  0  0
    7.1355   -4.3324   23.1583 H   0  0  0  0  0  0  0  0  0  0  0  0
  1  3  1  0  0  0  0
  1  8  1  0  0  0  0
  1  9  2  0  0  0  0
  2  3  1  0  0  0  0
  2 10  1  0  0  0  0
  3  7  1  0  0  0  0
  4  5  1  0  0  0  0
  4  6  1  0  0  0  0
  4  7  1  0  0  0  0
  4 10  1  0  0  0  0
  2 11  1  0  0  0  0
  2 12  1  0  0  0  0
  3 13  1  0  0  0  0
  5 14  1  0  0  0  0
  5 15  1  0  0  0  0
  5 16  1  0  0  0  0
  6 17  1  0  0  0  0
  6 18  1  0  0  0  0
  6 19  1  0  0  0  0
  7 20  1  0  0  0  0
  7 21  1  0  0  0  0
M  CHG  2   7   1   8  -1
M  END
> <Hybrid2>
-5.732477

> <docked_fragment>
x1478

> <Mpro-_dock>
0.810084

> <site>
active-covalent

$$$$
CHEMBL2106510
  -OEChem-04122014263D

 16 15  0     0  0  0  0  0  0999 V2000
    6.5678   -5.3456   21.1286 C   0  0  0  0  0  0  0  0  0  0  0  0
    6.2691   -5.7031   26.2279 C   0  0  0  0  0  0  0  0  0  0  0  0
    5.7108   -5.5147   22.3876 C   0  0  0  0  0  0  0  0  0  0  0  0
    5.5085   -5.7014   24.9110 C   0  0  0  0  0  0  0  0  0  0  0  0
    6.4524   -5.5137   23.7213 C   0  0  0  0  0  0  0  0  0  0  0  0
    5.9456   -5.2606   20.0343 O   0  5  0  0  0  0  0  0  0  0  0  0
    7.8135   -5.3267   21.3468 O   0  0  0  0  0  0  0  0  0  0  0  0
    6.8322   -4.7732   26.3563 H   0  0  0  0  0  0  0  0  0  0  0  0
    5.5857   -5.8116   27.0761 H   0  0  0  0  0  0  0  0  0  0  0  0
    6.9786   -6.5361   26.2548 H   0  0  0  0  0  0  0  0  0  0  0  0
    5.1224   -6.4363   22.2973 H   0  0  0  0  0  0  0  0  0  0  0  0
    4.9962   -4.6819   22.3866 H   0  0  0  0  0  0  0  0  0  0  0  0
    4.9586   -6.6443   24.8172 H   0  0  0  0  0  0  0  0  0  0  0  0
    4.7663   -4.8946   24.9268 H   0  0  0  0  0  0  0  0  0  0  0  0
    6.9748   -4.5550   23.8280 H   0  0  0  0  0  0  0  0  0  0  0  0
    7.2222   -6.2943   23.7298 H   0  0  0  0  0  0  0  0  0  0  0  0
  1  3  1  0  0  0  0
  1  6  1  0  0  0  0
  1  7  2  0  0  0  0
  2  4  1  0  0  0  0
  3  5  1  0  0  0  0
  4  5  1  0  0  0  0
  2  8  1  0  0  0  0
  2  9  1  0  0  0  0
  2 10  1  0  0  0  0
  3 11  1  0  0  0  0
  3 12  1  0  0  0  0
  4 13  1  0  0  0  0
  4 14  1  0  0  0  0
  5 15  1  0  0  0  0
  5 16  1  0  0  0  0
M  CHG  1   6  -1
M  END
> <Hybrid2>
-5.724632

> <docked_fragment>
x0689

> <Mpro-_dock>
-1.178439

> <site>
active-covalent

$$$$
CHEMBL1200559
  -OEChem-04122014263D

 11 10  0     0  0  0  0  0  0999 V2000
    6.4350   -1.4423   19.1278 C   0  0  0  0  0  0  0  0  0  0  0  0
    5.3934    0.9155   19.1258 C   0  0  0  0  0  0  0  0  0  0  0  0
    6.1675   -0.1411   18.3604 C   0  0  1  0  0  0  0  0  0  0  0  0
    7.0445   -1.3310   20.2273 O   0  5  0  0  0  0  0  0  0  0  0  0
    5.9972   -2.4841   18.5585 O   0  0  0  0  0  0  0  0  0  0  0  0
    7.4331    0.4119   18.0042 O   0  0  0  0  0  0  0  0  0  0  0  0
    5.9034    1.1809   20.0588 H   0  0  0  0  0  0  0  0  0  0  0  0
    5.3186    1.8367   18.5378 H   0  0  0  0  0  0  0  0  0  0  0  0
    4.3826    0.5736   19.3683 H   0  0  0  0  0  0  0  0  0  0  0  0
    5.6297   -0.3812   17.4359 H   0  0  0  0  0  0  0  0  0  0  0  0
    7.8763   -0.2493   17.4509 H   0  0  0  0  0  0  0  0  0  0  0  0
  1  3  1  0  0  0  0
  1  4  1  0  0  0  0
  1  5  2  0  0  0  0
  2  3  1  0  0  0  0
  3  6  1  0  0  0  0
  2  7  1  0  0  0  0
  2  8  1  0  0  0  0
  2  9  1  0  0  0  0
  3 10  1  0  0  0  0
  6 11  1  0  0  0  0
M  CHG  1   4  -1
M  END
> <Hybrid2>
-5.675188

> <docked_fragment>
x0397

> <Mpro-_dock>
-0.179049

> <site>
active-noncovalent

$$$$
CHEMBL2106424
  -OEChem-04122014263D

 13 12  0     0  0  0  0  0  0999 V2000
   12.0047   -1.8208   22.8177 C   0  0  0  0  0  0  0  0  0  0  0  0
   14.3721   -2.1839   22.8965 C   0  0  0  0  0  0  0  0  0  0  0  0
   13.3427   -1.3335   22.7803 C   0  0  0  0  0  0  0  0  0  0  0  0
   13.6537    0.1133   22.6119 C   0  0  0  0  0  0  0  0  0  0  0  0
   12.6426    2.2336   22.3393 C   0  0  0  0  0  0  0  0  0  0  0  0
   10.9140   -2.2162   22.8469 N   0  0  0  0  0  0  0  0  0  0  0  0
   14.7836    0.5796   22.5737 O   0  0  0  0  0  0  0  0  0  0  0  0
   12.4941    0.8197   22.5078 O   0  0  0  0  0  0  0  0  0  0  0  0
   15.4056   -1.8541   22.8720 H   0  0  0  0  0  0  0  0  0  0  0  0
   14.2105   -3.2510   23.0211 H   0  0  0  0  0  0  0  0  0  0  0  0
   11.6562    2.6983   22.2672 H   0  0  0  0  0  0  0  0  0  0  0  0
   13.2191    2.4349   21.4328 H   0  0  0  0  0  0  0  0  0  0  0  0
   13.1725    2.6409   23.2036 H   0  0  0  0  0  0  0  0  0  0  0  0
  1  3  1  0  0  0  0
  1  6  3  0  0  0  0
  2  3  2  0  0  0  0
  3  4  1  0  0  0  0
  4  7  2  0  0  0  0
  4  8  1  0  0  0  0
  5  8  1  0  0  0  0
  2  9  1  0  0  0  0
  2 10  1  0  0  0  0
  5 11  1  0  0  0  0
  5 12  1  0  0  0  0
  5 13  1  0  0  0  0
M  END
> <Hybrid2>
-5.671869

> <docked_fragment>
x0195

> <Mpro-_dock>
-0.946388

> <site>
active-noncovalent

$$$$
CHEMBL285323
  -OEChem-04122014263D

 19 18  0     0  0  0  0  0  0999 V2000
   12.9127    1.0807   23.2318 C   0  0  0  0  0  0  0  0  0  0  0  0
   13.5155    2.1365   22.3414 C   0  0  0  0  0  0  0  0  0  0  0  0
   14.1205   -0.8693   21.2156 C   0  0  0  0  0  0  0  0  0  0  0  0
   12.3167   -1.8474   22.6483 C   0  0  0  0  0  0  0  0  0  0  0  0
   13.8229   -0.0793   23.6047 C   0  0  0  0  0  0  0  0  0  0  0  0
   13.7345   -1.2721   22.6411 C   0  0  0  0  0  0  0  0  0  0  0  0
   11.7401    1.1546   23.5953 O   0  0  0  0  0  0  0  0  0  0  0  0
   13.3420    1.8749   21.2948 H   0  0  0  0  0  0  0  0  0  0  0  0
   13.0489    3.1038   22.5476 H   0  0  0  0  0  0  0  0  0  0  0  0
   14.5873    2.2145   22.5389 H   0  0  0  0  0  0  0  0  0  0  0  0
   13.4584   -0.0795   20.8447 H   0  0  0  0  0  0  0  0  0  0  0  0
   15.1487   -0.4937   21.1731 H   0  0  0  0  0  0  0  0  0  0  0  0
   14.0419   -1.7155   20.5261 H   0  0  0  0  0  0  0  0  0  0  0  0
   11.5898   -1.0953   22.3237 H   0  0  0  0  0  0  0  0  0  0  0  0
   12.0299   -2.1866   23.6497 H   0  0  0  0  0  0  0  0  0  0  0  0
   12.2396   -2.7008   21.9661 H   0  0  0  0  0  0  0  0  0  0  0  0
   14.8445    0.3191   23.6149 H   0  0  0  0  0  0  0  0  0  0  0  0
   13.5750   -0.4005   24.6230 H   0  0  0  0  0  0  0  0  0  0  0  0
   14.4200   -2.0621   22.9725 H   0  0  0  0  0  0  0  0  0  0  0  0
  1  2  1  0  0  0  0
  1  5  1  0  0  0  0
  1  7  2  0  0  0  0
  3  6  1  0  0  0  0
  4  6  1  0  0  0  0
  5  6  1  0  0  0  0
  2  8  1  0  0  0  0
  2  9  1  0  0  0  0
  2 10  1  0  0  0  0
  3 11  1  0  0  0  0
  3 12  1  0  0  0  0
  3 13  1  0  0  0  0
  4 14  1  0  0  0  0
  4 15  1  0  0  0  0
  4 16  1  0  0  0  0
  5 17  1  0  0  0  0
  5 18  1  0  0  0  0
  6 19  1  0  0  0  0
M  END
> <Hybrid2>
-5.667979

> <docked_fragment>
x0195

> <Mpro-_dock>
0.92551

> <site>
active-noncovalent

$$$$
DB01670
  -OEChem-04122014263D

 17 16  0     0  0  0  0  0  0999 V2000
   13.6204   -1.5274   22.6783 C   0  0  0  0  0  0  0  0  0  0  0  0
   12.2746   -2.0860   23.0288 C   0  0  0  0  0  0  0  0  0  0  0  0
   11.9619    1.9334   23.2971 C   0  0  0  0  0  0  0  0  0  0  0  0
   13.4494    2.0511   23.0179 C   0  0  0  0  0  0  0  0  0  0  0  0
   14.0085    0.7852   22.3867 C   0  0  0  0  0  0  0  0  0  0  0  0
   14.4350   -2.0986   21.9660 O   0  0  0  0  0  0  0  0  0  0  0  0
   13.7863   -0.3053   23.2700 O   0  0  0  0  0  0  0  0  0  0  0  0
   12.3462   -2.6796   23.9435 H   0  0  0  0  0  0  0  0  0  0  0  0
   11.8990   -2.6948   22.2025 H   0  0  0  0  0  0  0  0  0  0  0  0
   11.5742   -1.2635   23.2008 H   0  0  0  0  0  0  0  0  0  0  0  0
   11.4064    1.7184   22.3787 H   0  0  0  0  0  0  0  0  0  0  0  0
   11.7717    1.1221   24.0067 H   0  0  0  0  0  0  0  0  0  0  0  0
   11.5691    2.8600   23.7276 H   0  0  0  0  0  0  0  0  0  0  0  0
   13.9871    2.2662   23.9491 H   0  0  0  0  0  0  0  0  0  0  0  0
   13.6379    2.9058   22.3573 H   0  0  0  0  0  0  0  0  0  0  0  0
   13.5111    0.5701   21.4355 H   0  0  0  0  0  0  0  0  0  0  0  0
   15.0852    0.8783   22.2121 H   0  0  0  0  0  0  0  0  0  0  0  0
  1  2  1  0  0  0  0
  1  6  2  0  0  0  0
  1  7  1  0  0  0  0
  3  4  1  0  0  0  0
  4  5  1  0  0  0  0
  5  7  1  0  0  0  0
  2  8  1  0  0  0  0
  2  9  1  0  0  0  0
  2 10  1  0  0  0  0
  3 11  1  0  0  0  0
  3 12  1  0  0  0  0
  3 13  1  0  0  0  0
  4 14  1  0  0  0  0
  4 15  1  0  0  0  0
  5 16  1  0  0  0  0
  5 17  1  0  0  0  0
M  END
> <Hybrid2>
-5.656629

> <docked_fragment>
x0195

> <Mpro-_dock>
0.238669

> <site>
active-noncovalent

$$$$
DB03920
  -OEChem-04122014263D

 13 12  0     0  0  0  0  0  0999 V2000
    5.6984   -5.1203   22.5652 C   0  0  0  0  0  0  0  0  0  0  0  0
    6.3444   -5.2552   21.2090 C   0  0  0  0  0  0  0  0  0  0  0  0
    6.4957   -5.3940   23.8134 C   0  0  0  0  0  0  0  0  0  0  0  0
    3.7238   -4.6880   23.7808 C   0  0  0  0  0  0  0  0  0  0  0  0
    4.4501   -4.8007   22.5253 N   0  0  0  0  0  0  0  0  0  0  0  0
    7.5607   -5.6031   21.2129 O   0  5  0  0  0  0  0  0  0  0  0  0
    5.6032   -5.0109   20.2116 O   0  0  0  0  0  0  0  0  0  0  0  0
    6.9686   -4.4657   24.1456 H   0  0  0  0  0  0  0  0  0  0  0  0
    5.8584   -5.7737   24.6155 H   0  0  0  0  0  0  0  0  0  0  0  0
    7.2677   -6.1432   23.6216 H   0  0  0  0  0  0  0  0  0  0  0  0
    3.7887   -3.6656   24.1619 H   0  0  0  0  0  0  0  0  0  0  0  0
    4.1466   -5.3711   24.5222 H   0  0  0  0  0  0  0  0  0  0  0  0
    2.6719   -4.9416   23.6265 H   0  0  0  0  0  0  0  0  0  0  0  0
  1  2  1  0  0  0  0
  1  3  1  0  0  0  0
  1  5  2  0  0  0  0
  2  6  1  0  0  0  0
  2  7  2  0  0  0  0
  4  5  1  0  0  0  0
  3  8  1  0  0  0  0
  3  9  1  0  0  0  0
  3 10  1  0  0  0  0
  4 11  1  0  0  0  0
  4 12  1  0  0  0  0
  4 13  1  0  0  0  0
M  CHG  1   6  -1
M  END
> <Hybrid2>
-5.653899

> <docked_fragment>
x0689

> <Mpro-_dock>
-0.81166

> <site>
active-covalent

$$$$
DB03561
  -OEChem-04122014263D

 18 18  0     0  0  0  0  0  0999 V2000
   13.0774   -0.2931   24.3193 C   0  0  0  0  0  0  0  0  0  0  0  0
   11.6438   -0.5939   23.8768 C   0  0  0  0  0  0  0  0  0  0  0  0
   14.0387   -1.4055   23.9229 C   0  0  0  0  0  0  0  0  0  0  0  0
   11.5603   -1.4608   22.6186 C   0  0  0  0  0  0  0  0  0  0  0  0
   14.0759   -1.6136   22.4074 C   0  0  0  0  0  0  0  0  0  0  0  0
   12.7630   -1.2558   21.7076 C   0  0  0  0  0  0  0  0  0  0  0  0
   13.4042    0.6525   23.8667 H   0  0  0  0  0  0  0  0  0  0  0  0
   13.1019   -0.1504   25.4066 H   0  0  0  0  0  0  0  0  0  0  0  0
   11.1089   -1.0991   24.7010 H   0  0  0  0  0  0  0  0  0  0  0  0
   11.1067    0.3549   23.7049 H   0  0  0  0  0  0  0  0  0  0  0  0
   15.0474   -1.1716   24.2847 H   0  0  0  0  0  0  0  0  0  0  0  0
   13.7358   -2.3424   24.4089 H   0  0  0  0  0  0  0  0  0  0  0  0
   11.4882   -2.5171   22.9055 H   0  0  0  0  0  0  0  0  0  0  0  0
   10.6399   -1.2166   22.0717 H   0  0  0  0  0  0  0  0  0  0  0  0
   14.8925   -1.0056   21.9783 H   0  0  0  0  0  0  0  0  0  0  0  0
   14.3339   -2.6641   22.1877 H   0  0  0  0  0  0  0  0  0  0  0  0
   12.6520   -1.8759   20.8082 H   0  0  0  0  0  0  0  0  0  0  0  0
   12.8000   -0.2124   21.3709 H   0  0  0  0  0  0  0  0  0  0  0  0
  1  2  1  0  0  0  0
  1  3  1  0  0  0  0
  2  4  1  0  0  0  0
  3  5  1  0  0  0  0
  4  6  1  0  0  0  0
  5  6  1  0  0  0  0
  1  7  1  0  0  0  0
  1  8  1  0  0  0  0
  2  9  1  0  0  0  0
  2 10  1  0  0  0  0
  3 11  1  0  0  0  0
  3 12  1  0  0  0  0
  4 13  1  0  0  0  0
  4 14  1  0  0  0  0
  5 15  1  0  0  0  0
  5 16  1  0  0  0  0
  6 17  1  0  0  0  0
  6 18  1  0  0  0  0
M  END
> <Hybrid2>
-5.616863

> <docked_fragment>
x0678

> <Mpro-_dock>
1.903242

> <site>
active-noncovalent

$$$$
CHEMBL1201220
  -OEChem-04122014263D

 28 28  0     0  0  0  0  0  0999 V2000
   13.0030    0.0494   23.3452 C   0  0  0  0  0  0  0  0  0  0  0  0
   11.2483    1.2775   24.4630 C   0  0  0  0  0  0  0  0  0  0  0  0
   12.5710    2.3506   22.7496 C   0  0  0  0  0  0  0  0  0  0  0  0
   11.9773    0.1011   24.2889 C   0  0  0  0  0  0  0  0  0  0  0  0
   13.3000    1.1742   22.5755 C   0  0  0  0  0  0  0  0  0  0  0  0
   11.5452    2.4023   23.6933 C   0  0  0  0  0  0  0  0  0  0  0  0
   13.7756   -1.2008   23.1580 C   0  0  0  0  0  0  0  0  0  0  0  0
    8.8658    1.0288   25.2287 C   0  0  0  0  0  0  0  0  0  0  0  0
   13.7708    4.5076   22.2674 C   0  0  0  0  0  0  0  0  0  0  0  0
    8.0800    1.2118   26.5028 C   0  0  0  0  0  0  0  0  0  0  0  0
   13.7997    5.5464   21.1745 C   0  0  0  0  0  0  0  0  0  0  0  0
   10.2174    1.3302   25.4122 N   0  0  0  0  0  0  0  0  0  0  0  0
   12.8683    3.4820   21.9760 N   0  0  0  0  0  0  0  0  0  0  0  0
   14.8322   -1.3766   23.8647 O   0  5  0  0  0  0  0  0  0  0  0  0
   13.3554   -2.0546   22.2970 O   0  0  0  0  0  0  0  0  0  0  0  0
    8.3143    0.6548   24.1988 O   0  0  0  0  0  0  0  0  0  0  0  0
   14.4849    4.6186   23.2586 O   0  0  0  0  0  0  0  0  0  0  0  0
   11.5222   -1.6152   25.4629 I   0  0  0  0  0  0  0  0  0  0  0  0
   14.8637    1.0965   21.1335 I   0  0  0  0  0  0  0  0  0  0  0  0
   10.4325    4.1998   23.9613 I   0  0  0  0  0  0  0  0  0  0  0  0
    7.7031    2.2367   26.5614 H   0  0  0  0  0  0  0  0  0  0  0  0
    8.7244    1.0213   27.3658 H   0  0  0  0  0  0  0  0  0  0  0  0
    7.2404    0.5108   26.5275 H   0  0  0  0  0  0  0  0  0  0  0  0
   13.0593    6.3238   21.3831 H   0  0  0  0  0  0  0  0  0  0  0  0
   13.5629    5.0799   20.2140 H   0  0  0  0  0  0  0  0  0  0  0  0
   14.7952    5.9958   21.1129 H   0  0  0  0  0  0  0  0  0  0  0  0
   10.4893    1.6246   26.3539 H   0  0  0  0  0  0  0  0  0  0  0  0
   12.3626    3.5653   21.0902 H   0  0  0  0  0  0  0  0  0  0  0  0
  1  4  2  0  0  0  0
  1  5  1  0  0  0  0
  1  7  1  0  0  0  0
  2  4  1  0  0  0  0
  2  6  2  0  0  0  0
  2 12  1  0  0  0  0
  3  5  2  0  0  0  0
  3  6  1  0  0  0  0
  3 13  1  0  0  0  0
  4 18  1  0  0  0  0
  5 19  1  0  0  0  0
  6 20  1  0  0  0  0
  7 14  1  0  0  0  0
  7 15  2  0  0  0  0
  8 10  1  0  0  0  0
  8 12  1  0  0  0  0
  8 16  2  0  0  0  0
  9 11  1  0  0  0  0
  9 13  1  0  0  0  0
  9 17  2  0  0  0  0
 10 21  1  0  0  0  0
 10 22  1  0  0  0  0
 10 23  1  0  0  0  0
 11 24  1  0  0  0  0
 11 25  1  0  0  0  0
 11 26  1  0  0  0  0
 12 27  1  0  0  0  0
 13 28  1  0  0  0  0
M  CHG  1  14  -1
M  END
> <Hybrid2>
-5.603374

> <docked_fragment>
x0195

> <Mpro-_dock>
1.022403

> <site>
active-noncovalent

$$$$
CHEMBL2104044
  -OEChem-04122014263D

 20 19  0     0  0  0  0  0  0999 V2000
   13.2896    1.6080   22.5019 C   0  0  0  0  0  0  0  0  0  0  0  0
   11.3914   -2.0351   23.2584 C   0  0  0  0  0  0  0  0  0  0  0  0
   13.6419   -1.1519   21.3315 C   0  0  0  0  0  0  0  0  0  0  0  0
   14.4093   -1.6471   23.6623 C   0  0  0  0  0  0  0  0  0  0  0  0
   12.1073   -0.6905   23.3170 C   0  0  0  0  0  0  0  0  0  0  0  0
   13.5574   -0.7149   22.7948 C   0  0  0  0  0  0  0  0  0  0  0  0
   12.2084    1.9068   22.9843 O   0  0  0  0  0  0  0  0  0  0  0  0
   14.1153    0.5980   22.8817 O   0  0  0  0  0  0  0  0  0  0  0  0
   13.7556    2.1429   21.6599 H   0  0  0  0  0  0  0  0  0  0  0  0
   11.4017   -2.4182   22.2326 H   0  0  0  0  0  0  0  0  0  0  0  0
   10.3453   -1.9456   23.5648 H   0  0  0  0  0  0  0  0  0  0  0  0
   11.8795   -2.7770   23.8977 H   0  0  0  0  0  0  0  0  0  0  0  0
   13.0429   -0.5050   20.6826 H   0  0  0  0  0  0  0  0  0  0  0  0
   14.6762   -1.1511   20.9718 H   0  0  0  0  0  0  0  0  0  0  0  0
   13.2860   -2.1823   21.2135 H   0  0  0  0  0  0  0  0  0  0  0  0
   14.3709   -1.3616   24.7185 H   0  0  0  0  0  0  0  0  0  0  0  0
   14.0701   -2.6852   23.5695 H   0  0  0  0  0  0  0  0  0  0  0  0
   15.4562   -1.6356   23.3380 H   0  0  0  0  0  0  0  0  0  0  0  0
   12.0874   -0.3224   24.3501 H   0  0  0  0  0  0  0  0  0  0  0  0
   11.5215    0.0156   22.7141 H   0  0  0  0  0  0  0  0  0  0  0  0
  1  7  2  0  0  0  0
  1  8  1  0  0  0  0
  2  5  1  0  0  0  0
  3  6  1  0  0  0  0
  4  6  1  0  0  0  0
  5  6  1  0  0  0  0
  6  8  1  0  0  0  0
  1  9  1  0  0  0  0
  2 10  1  0  0  0  0
  2 11  1  0  0  0  0
  2 12  1  0  0  0  0
  3 13  1  0  0  0  0
  3 14  1  0  0  0  0
  3 15  1  0  0  0  0
  4 16  1  0  0  0  0
  4 17  1  0  0  0  0
  4 18  1  0  0  0  0
  5 19  1  0  0  0  0
  5 20  1  0  0  0  0
M  END
> <Hybrid2>
-5.599832

> <docked_fragment>
x0195

> <Mpro-_dock>
1.895196

> <site>
active-noncovalent

$$$$
CHEMBL871
  -OEChem-04122014263D

 15 14  0     0  0  0  0  0  0999 V2000
    7.2231    0.2920   20.7513 C   0  0  0  0  0  0  0  0  0  0  0  0
    6.1538   -0.3860   19.8981 C   0  0  0  0  0  0  0  0  0  0  0  0
    7.4259    0.8115   17.8279 O   0  5  0  0  0  0  0  0  0  0  0  0
    5.2993   -0.5578   17.3288 O   0  5  0  0  0  0  0  0  0  0  0  0
    5.6033   -2.7332   18.6613 O   0  5  0  0  0  0  0  0  0  0  0  0
    7.8854   -2.4647   19.8299 O   0  5  0  0  0  0  0  0  0  0  0  0
    5.1190    1.7083   18.5499 O   0  0  0  0  0  0  0  0  0  0  0  0
    5.7368   -2.6868   21.2378 O   0  0  0  0  0  0  0  0  0  0  0  0
    4.8661   -0.2006   20.4789 O   0  0  0  0  0  0  0  0  0  0  0  0
    5.9779    0.5026   18.1880 P   0  0  0  0  0  0  0  0  0  0  0  0
    6.3719   -2.3053   19.9060 P   0  0  0  0  0  0  0  0  0  0  0  0
    8.2148    0.1542   20.3119 H   0  0  0  0  0  0  0  0  0  0  0  0
    7.0299    1.3651   20.8425 H   0  0  0  0  0  0  0  0  0  0  0  0
    7.2351   -0.1175   21.7661 H   0  0  0  0  0  0  0  0  0  0  0  0
    4.2192   -0.6462   19.9059 H   0  0  0  0  0  0  0  0  0  0  0  0
  1  2  1  0  0  0  0
  2  9  1  0  0  0  0
  2 10  1  0  0  0  0
  2 11  1  0  0  0  0
  3 10  1  0  0  0  0
  4 10  1  0  0  0  0
  5 11  1  0  0  0  0
  6 11  1  0  0  0  0
  7 10  2  0  0  0  0
  8 11  2  0  0  0  0
  1 12  1  0  0  0  0
  1 13  1  0  0  0  0
  1 14  1  0  0  0  0
  9 15  1  0  0  0  0
M  CHG  4   3  -1   4  -1   5  -1   6  -1
M  END
> <Hybrid2>
-5.594781

> <docked_fragment>
x0397

> <Mpro-_dock>
2.036419

> <site>
active-noncovalent

$$$$
DB02531
  -OEChem-04122014263D

 13 12  0     0  0  0  0  0  0999 V2000
    5.8994   -2.6050   19.8206 C   0  0  0  0  0  0  0  0  0  0  0  0
    8.2526   -2.5412   20.5683 C   0  0  0  0  0  0  0  0  0  0  0  0
    7.5616   -0.9795   18.7306 C   0  0  0  0  0  0  0  0  0  0  0  0
    7.3466   -2.3513   19.3561 C   0  0  0  0  0  0  0  0  0  0  0  0
    5.4807   -1.7991   20.7020 O   0  5  0  0  0  0  0  0  0  0  0  0
    5.3013   -3.5793   19.2852 O   0  0  0  0  0  0  0  0  0  0  0  0
    8.0402   -1.7993   21.3460 H   0  0  0  0  0  0  0  0  0  0  0  0
    8.1088   -3.5333   21.0095 H   0  0  0  0  0  0  0  0  0  0  0  0
    9.3093   -2.4407   20.2954 H   0  0  0  0  0  0  0  0  0  0  0  0
    7.3280   -0.1842   19.4465 H   0  0  0  0  0  0  0  0  0  0  0  0
    6.9144   -0.8459   17.8572 H   0  0  0  0  0  0  0  0  0  0  0  0
    8.5984   -0.8418   18.4043 H   0  0  0  0  0  0  0  0  0  0  0  0
    7.5923   -3.1123   18.6045 H   0  0  0  0  0  0  0  0  0  0  0  0
  1  4  1  0  0  0  0
  1  5  1  0  0  0  0
  1  6  2  0  0  0  0
  2  4  1  0  0  0  0
  3  4  1  0  0  0  0
  2  7  1  0  0  0  0
  2  8  1  0  0  0  0
  2  9  1  0  0  0  0
  3 10  1  0  0  0  0
  3 11  1  0  0  0  0
  3 12  1  0  0  0  0
  4 13  1  0  0  0  0
M  CHG  1   5  -1
M  END
> <Hybrid2>
-5.586948

> <docked_fragment>
x0397

> <Mpro-_dock>
-0.37472

> <site>
active-noncovalent

$$$$
DB03999
  -OEChem-04122014263D

 17 16  0     0  0  0  0  0  0999 V2000
    7.1414   -5.0112   21.9953 C   0  0  0  0  0  0  0  0  0  0  0  0
    6.5840   -3.6281   22.2943 C   0  0  0  0  0  0  0  0  0  0  0  0
    7.4716   -2.5305   21.7083 C   0  0  0  0  0  0  0  0  0  0  0  0
    7.5821   -2.6285   20.1925 C   0  0  0  0  0  0  0  0  0  0  0  0
    5.3275   -3.7880   19.4630 O   0  5  0  0  0  0  0  0  0  0  0  0
    5.3086   -1.2930   20.1117 O   0  5  0  0  0  0  0  0  0  0  0  0
    6.4084   -2.0425   17.9038 O   0  0  0  0  0  0  0  0  0  0  0  0
    6.0056   -2.4178   19.3357 P   0  0  0  0  0  0  0  0  0  0  0  0
    7.2359   -5.1562   20.9145 H   0  0  0  0  0  0  0  0  0  0  0  0
    8.1320   -5.1404   22.4430 H   0  0  0  0  0  0  0  0  0  0  0  0
    6.4822   -5.7927   22.3868 H   0  0  0  0  0  0  0  0  0  0  0  0
    6.4990   -3.5074   23.3797 H   0  0  0  0  0  0  0  0  0  0  0  0
    5.5727   -3.5512   21.8785 H   0  0  0  0  0  0  0  0  0  0  0  0
    8.4757   -2.6025   22.1427 H   0  0  0  0  0  0  0  0  0  0  0  0
    7.0670   -1.5482   21.9790 H   0  0  0  0  0  0  0  0  0  0  0  0
    8.0127   -3.5917   19.8994 H   0  0  0  0  0  0  0  0  0  0  0  0
    8.2556   -1.8448   19.8295 H   0  0  0  0  0  0  0  0  0  0  0  0
  1  2  1  0  0  0  0
  2  3  1  0  0  0  0
  3  4  1  0  0  0  0
  4  8  1  0  0  0  0
  5  8  1  0  0  0  0
  6  8  1  0  0  0  0
  7  8  2  0  0  0  0
  1  9  1  0  0  0  0
  1 10  1  0  0  0  0
  1 11  1  0  0  0  0
  2 12  1  0  0  0  0
  2 13  1  0  0  0  0
  3 14  1  0  0  0  0
  3 15  1  0  0  0  0
  4 16  1  0  0  0  0
  4 17  1  0  0  0  0
M  CHG  2   5  -1   6  -1
M  END
> <Hybrid2>
-5.564268

> <docked_fragment>
x0397

> <Mpro-_dock>
1.030449

> <site>
active-noncovalent

$$$$
CHEMBL20
  -OEChem-04122014263D

 19 19  0     0  0  0  0  0  0999 V2000
   12.9234    2.4207   22.9943 C   0  0  0  0  0  0  0  0  0  0  0  0
   13.6492    0.2189   22.5556 C   0  0  0  0  0  0  0  0  0  0  0  0
   10.8582    3.5372   23.8957 C   0  0  0  0  0  0  0  0  0  0  0  0
   10.3858    4.9399   24.1851 C   0  0  0  0  0  0  0  0  0  0  0  0
   14.1448    2.3982   22.5048 N   0  0  0  0  0  0  0  0  0  0  0  0
   14.5701    1.1067   22.2465 N   0  0  0  0  0  0  0  0  0  0  0  0
   12.2555   -2.0162   22.9636 N   0  0  0  0  0  0  0  0  0  0  0  0
   12.1481    3.5398   23.3804 N   0  0  0  0  0  0  0  0  0  0  0  0
   10.1345    2.5721   24.1189 O   0  0  0  0  0  0  0  0  0  0  0  0
   13.8763   -1.8304   20.9676 O   0  0  0  0  0  0  0  0  0  0  0  0
   14.8091   -1.9904   23.3025 O   0  0  0  0  0  0  0  0  0  0  0  0
   12.1956    0.8791   23.1824 S   0  0  0  0  0  0  0  0  0  0  0  0
   13.7820   -1.5025   22.3870 S   0  0  0  0  0  0  0  0  0  0  0  0
    9.8889    5.3526   23.3026 H   0  0  0  0  0  0  0  0  0  0  0  0
   11.2406    5.5732   24.4392 H   0  0  0  0  0  0  0  0  0  0  0  0
    9.6887    4.9325   25.0282 H   0  0  0  0  0  0  0  0  0  0  0  0
   12.0702   -1.9452   23.9716 H   0  0  0  0  0  0  0  0  0  0  0  0
   11.4315   -1.8382   22.3765 H   0  0  0  0  0  0  0  0  0  0  0  0
   12.5997    4.4444   23.2627 H   0  0  0  0  0  0  0  0  0  0  0  0
  1  5  2  0  0  0  0
  1  8  1  0  0  0  0
  1 12  1  0  0  0  0
  2  6  2  0  0  0  0
  2 12  1  0  0  0  0
  2 13  1  0  0  0  0
  3  4  1  0  0  0  0
  3  8  1  0  0  0  0
  3  9  2  0  0  0  0
  5  6  1  0  0  0  0
  7 13  1  0  0  0  0
 10 13  2  0  0  0  0
 11 13  2  0  0  0  0
  4 14  1  0  0  0  0
  4 15  1  0  0  0  0
  4 16  1  0  0  0  0
  7 17  1  0  0  0  0
  7 18  1  0  0  0  0
  8 19  1  0  0  0  0
M  END
> <Hybrid2>
-5.539082

> <docked_fragment>
x0195

> <Mpro-_dock>
-0.839371

> <site>
active-noncovalent

$$$$
DB01826
  -OEChem-04122014263D

 17 16  0     0  0  0  0  0  0999 V2000
   12.9927    2.9623   22.3476 C   0  0  0  0  0  0  0  0  0  0  0  0
   12.1429   -2.0203   22.8036 C   0  0  0  0  0  0  0  0  0  0  0  0
   13.6561   -1.8760   22.7572 C   0  0  0  0  0  0  0  0  0  0  0  0
   14.0701   -0.4953   22.2430 C   0  0  0  0  0  0  0  0  0  0  0  0
   13.4955    0.6397   23.0840 C   0  0  0  0  0  0  0  0  0  0  0  0
   13.8652    1.9345   22.5831 N   0  0  0  0  0  0  0  0  0  0  0  0
   12.2936    3.7462   22.1723 H   0  0  0  0  0  0  0  0  0  0  0  0
   11.7038   -1.8662   21.8126 H   0  0  0  0  0  0  0  0  0  0  0  0
   11.8682   -3.0234   23.1447 H   0  0  0  0  0  0  0  0  0  0  0  0
   11.7001   -1.2942   23.4928 H   0  0  0  0  0  0  0  0  0  0  0  0
   14.0628   -2.0358   23.7625 H   0  0  0  0  0  0  0  0  0  0  0  0
   14.0674   -2.6601   22.1117 H   0  0  0  0  0  0  0  0  0  0  0  0
   15.1647   -0.4241   22.2219 H   0  0  0  0  0  0  0  0  0  0  0  0
   13.7188   -0.3766   21.2108 H   0  0  0  0  0  0  0  0  0  0  0  0
   13.8315    0.5736   24.1236 H   0  0  0  0  0  0  0  0  0  0  0  0
   12.4018    0.5945   23.0760 H   0  0  0  0  0  0  0  0  0  0  0  0
   14.7659    1.9504   22.0522 H   0  0  0  0  0  0  0  0  0  0  0  0
  1  6  3  0  0  0  0
  2  3  1  0  0  0  0
  3  4  1  0  0  0  0
  4  5  1  0  0  0  0
  5  6  1  0  0  0  0
  1  7  1  0  0  0  0
  2  8  1  0  0  0  0
  2  9  1  0  0  0  0
  2 10  1  0  0  0  0
  3 11  1  0  0  0  0
  3 12  1  0  0  0  0
  4 13  1  0  0  0  0
  4 14  1  0  0  0  0
  5 15  1  0  0  0  0
  5 16  1  0  0  0  0
  6 17  1  0  0  0  0
M  END
> <Hybrid2>
-5.524861

> <docked_fragment>
x0195

> <Mpro-_dock>
0.002913

> <site>
active-noncovalent

$$$$
DB03659
  -OEChem-04122014263D

 17 16  0     0  0  0  0  0  0999 V2000
   13.8099   -1.2733   24.3687 C   0  0  0  0  0  0  0  0  0  0  0  0
   14.0616   -1.7909   22.9615 C   0  0  0  0  0  0  0  0  0  0  0  0
   13.2756   -0.9929   21.9218 C   0  0  0  0  0  0  0  0  0  0  0  0
   11.7778   -1.1095   22.1620 C   0  0  0  0  0  0  0  0  0  0  0  0
   11.0566   -0.3588   21.1061 N   0  3  0  0  0  0  0  0  0  0  0  0
   12.7451   -1.3191   24.6190 H   0  0  0  0  0  0  0  0  0  0  0  0
   14.1428   -0.2354   24.4704 H   0  0  0  0  0  0  0  0  0  0  0  0
   14.3566   -1.8786   25.0985 H   0  0  0  0  0  0  0  0  0  0  0  0
   15.1343   -1.7316   22.7431 H   0  0  0  0  0  0  0  0  0  0  0  0
   13.7782   -2.8487   22.9113 H   0  0  0  0  0  0  0  0  0  0  0  0
   13.5779    0.0610   21.9622 H   0  0  0  0  0  0  0  0  0  0  0  0
   13.5206   -1.3582   20.9166 H   0  0  0  0  0  0  0  0  0  0  0  0
   11.4330   -2.1462   22.1062 H   0  0  0  0  0  0  0  0  0  0  0  0
   11.4810   -0.6734   23.1203 H   0  0  0  0  0  0  0  0  0  0  0  0
   11.6552   -0.2104   20.2863 H   0  0  0  0  0  0  0  0  0  0  0  0
   10.7574    0.5609   21.4487 H   0  0  0  0  0  0  0  0  0  0  0  0
   10.2208   -0.8681   20.7985 H   0  0  0  0  0  0  0  0  0  0  0  0
  1  2  1  0  0  0  0
  2  3  1  0  0  0  0
  3  4  1  0  0  0  0
  4  5  1  0  0  0  0
  1  6  1  0  0  0  0
  1  7  1  0  0  0  0
  1  8  1  0  0  0  0
  2  9  1  0  0  0  0
  2 10  1  0  0  0  0
  3 11  1  0  0  0  0
  3 12  1  0  0  0  0
  4 13  1  0  0  0  0
  4 14  1  0  0  0  0
  5 15  1  0  0  0  0
  5 16  1  0  0  0  0
  5 17  1  0  0  0  0
M  CHG  1   5   1
M  END
> <Hybrid2>
-5.485808

> <docked_fragment>
x0678

> <Mpro-_dock>
-0.290277

> <site>
active-noncovalent

$$$$
DB02074
  -OEChem-04122014263D

 11 10  0     0  0  0  0  0  0999 V2000
    5.6898    0.9453   19.7341 C   0  0  0  0  0  0  0  0  0  0  0  0
    4.6126    0.8216   20.5211 C   0  0  0  0  0  0  0  0  0  0  0  0
    5.8299    0.1608   18.4216 C   0  0  0  0  0  0  0  0  0  0  0  0
    4.4394    1.5663   21.8048 C   0  0  0  0  0  0  0  0  0  0  0  0
    4.8466   -0.5958   18.1671 O   0  5  0  0  0  0  0  0  0  0  0  0
    6.8834    0.3476   17.7510 O   0  0  0  0  0  0  0  0  0  0  0  0
    6.4884    1.6218   20.0361 H   0  0  0  0  0  0  0  0  0  0  0  0
    3.7994    0.1550   20.2483 H   0  0  0  0  0  0  0  0  0  0  0  0
    4.8557    0.9833   22.6320 H   0  0  0  0  0  0  0  0  0  0  0  0
    4.9364    2.5414   21.7910 H   0  0  0  0  0  0  0  0  0  0  0  0
    3.3750    1.7288   22.0001 H   0  0  0  0  0  0  0  0  0  0  0  0
  1  2  2  0  0  0  0
  1  3  1  0  0  0  0
  2  4  1  0  0  0  0
  3  5  1  0  0  0  0
  3  6  2  0  0  0  0
  1  7  1  0  0  0  0
  2  8  1  0  0  0  0
  4  9  1  0  0  0  0
  4 10  1  0  0  0  0
  4 11  1  0  0  0  0
M  CHG  1   5  -1
M  END
> <Hybrid2>
-5.472266

> <docked_fragment>
x0426

> <Mpro-_dock>
-1.243621

> <site>
active-noncovalent

$$$$
CHEMBL15487
  -OEChem-04122014263D

 18 18  0     0  0  0  0  0  0999 V2000
   12.7391   -2.2942   24.2025 C   0  0  0  0  0  0  0  0  0  0  0  0
   13.4522   -1.0305   23.7138 C   0  0  0  0  0  0  0  0  0  0  0  0
   12.2613   -2.1482   25.6419 C   0  0  0  0  0  0  0  0  0  0  0  0
   12.9825    0.2419   24.4092 C   0  0  0  0  0  0  0  0  0  0  0  0
   11.3037   -0.9738   25.8211 C   0  0  0  0  0  0  0  0  0  0  0  0
   11.5536    0.0912   24.8006 N   0  3  0  0  0  0  0  0  0  0  0  0
   11.8799   -2.4980   23.5509 H   0  0  0  0  0  0  0  0  0  0  0  0
   13.4140   -3.1536   24.1183 H   0  0  0  0  0  0  0  0  0  0  0  0
   14.5404   -1.1481   23.8618 H   0  0  0  0  0  0  0  0  0  0  0  0
   13.3067   -0.9273   22.6252 H   0  0  0  0  0  0  0  0  0  0  0  0
   11.7651   -3.0745   25.9623 H   0  0  0  0  0  0  0  0  0  0  0  0
   13.1289   -2.0150   26.3050 H   0  0  0  0  0  0  0  0  0  0  0  0
   13.5502    0.4297   25.3257 H   0  0  0  0  0  0  0  0  0  0  0  0
   13.0536    1.1164   23.7538 H   0  0  0  0  0  0  0  0  0  0  0  0
   10.2510   -1.2838   25.7154 H   0  0  0  0  0  0  0  0  0  0  0  0
   11.4270   -0.5035   26.8090 H   0  0  0  0  0  0  0  0  0  0  0  0
   11.1972    0.9912   25.1552 H   0  0  0  0  0  0  0  0  0  0  0  0
   10.9924   -0.1132   23.9608 H   0  0  0  0  0  0  0  0  0  0  0  0
  1  2  1  0  0  0  0
  1  3  1  0  0  0  0
  2  4  1  0  0  0  0
  3  5  1  0  0  0  0
  4  6  1  0  0  0  0
  5  6  1  0  0  0  0
  1  7  1  0  0  0  0
  1  8  1  0  0  0  0
  2  9  1  0  0  0  0
  2 10  1  0  0  0  0
  3 11  1  0  0  0  0
  3 12  1  0  0  0  0
  4 13  1  0  0  0  0
  4 14  1  0  0  0  0
  5 15  1  0  0  0  0
  5 16  1  0  0  0  0
  6 17  1  0  0  0  0
  6 18  1  0  0  0  0
M  CHG  1   6   1
M  END
> <Hybrid2>
-5.472158

> <docked_fragment>
x0354

> <Mpro-_dock>
1.869035

> <site>
active-noncovalent

$$$$
CHEMBL19
  -OEChem-04122014263D

 22 22  0     0  0  0  0  0  0999 V2000
    8.9395   -0.1201   20.4678 C   0  0  0  0  0  0  0  0  0  0  0  0
   10.5057   -0.7767   22.1905 C   0  0  0  0  0  0  0  0  0  0  0  0
   12.3566   -0.8115   23.5239 C   0  0  0  0  0  0  0  0  0  0  0  0
   13.5165   -1.3773   22.7469 C   0  0  0  0  0  0  0  0  0  0  0  0
   12.0278    1.1054   21.5705 C   0  0  0  0  0  0  0  0  0  0  0  0
    9.9305    0.7146   20.4610 N   0  0  0  0  0  0  0  0  0  0  0  0
   11.1516   -1.3598   23.1395 N   0  0  0  0  0  0  0  0  0  0  0  0
   10.8044    0.3453   21.4503 N   0  0  0  0  0  0  0  0  0  0  0  0
    6.5371    1.1058   20.1364 N   0  0  0  0  0  0  0  0  0  0  0  0
   12.5373    0.0401   24.3924 O   0  0  0  0  0  0  0  0  0  0  0  0
    8.1749    0.8247   18.1887 O   0  0  0  0  0  0  0  0  0  0  0  0
    7.0149   -1.1998   19.1258 O   0  0  0  0  0  0  0  0  0  0  0  0
    8.9621   -1.4195   21.6397 S   0  0  0  0  0  0  0  0  0  0  0  0
    7.6538    0.0877   19.3253 S   0  0  0  0  0  0  0  0  0  0  0  0
   13.6893   -0.7758   21.8504 H   0  0  0  0  0  0  0  0  0  0  0  0
   14.4195   -1.3565   23.3637 H   0  0  0  0  0  0  0  0  0  0  0  0
   13.3028   -2.4126   22.4680 H   0  0  0  0  0  0  0  0  0  0  0  0
   12.7799    0.7028   20.8761 H   0  0  0  0  0  0  0  0  0  0  0  0
   11.8300    2.1594   21.3257 H   0  0  0  0  0  0  0  0  0  0  0  0
   12.4046    1.0328   22.6014 H   0  0  0  0  0  0  0  0  0  0  0  0
    6.8341    2.0758   20.3016 H   0  0  0  0  0  0  0  0  0  0  0  0
    6.0436    0.7022   20.9431 H   0  0  0  0  0  0  0  0  0  0  0  0
  1  6  2  0  0  0  0
  1 13  1  0  0  0  0
  1 14  1  0  0  0  0
  2  7  2  0  0  0  0
  2  8  1  0  0  0  0
  2 13  1  0  0  0  0
  3  4  1  0  0  0  0
  3  7  1  0  0  0  0
  3 10  2  0  0  0  0
  5  8  1  0  0  0  0
  6  8  1  0  0  0  0
  9 14  1  0  0  0  0
 11 14  2  0  0  0  0
 12 14  2  0  0  0  0
  4 15  1  0  0  0  0
  4 16  1  0  0  0  0
  4 17  1  0  0  0  0
  5 18  1  0  0  0  0
  5 19  1  0  0  0  0
  5 20  1  0  0  0  0
  9 21  1  0  0  0  0
  9 22  1  0  0  0  0
M  END
> <Hybrid2>
-5.456230

> <docked_fragment>
x0678

> <Mpro-_dock>
-0.018382

> <site>
active-noncovalent

$$$$
DB00119
  -OEChem-04122014263D

  9  8  0     0  0  0  0  0  0999 V2000
    5.8005   -5.1404   22.5350 C   0  0  0  0  0  0  0  0  0  0  0  0
    6.5016   -5.2532   21.2130 C   0  0  0  0  0  0  0  0  0  0  0  0
    6.5556   -5.2927   23.8195 C   0  0  0  0  0  0  0  0  0  0  0  0
    5.7762   -5.1084   20.1861 O   0  5  0  0  0  0  0  0  0  0  0  0
    4.5997   -4.9198   22.4566 O   0  0  0  0  0  0  0  0  0  0  0  0
    7.7441   -5.4816   21.2748 O   0  0  0  0  0  0  0  0  0  0  0  0
    6.9264   -4.3185   24.1480 H   0  0  0  0  0  0  0  0  0  0  0  0
    7.4081   -5.9597   23.6648 H   0  0  0  0  0  0  0  0  0  0  0  0
    5.9034   -5.7253   24.5822 H   0  0  0  0  0  0  0  0  0  0  0  0
  1  2  1  0  0  0  0
  1  3  1  0  0  0  0
  1  5  2  0  0  0  0
  2  4  1  0  0  0  0
  2  6  2  0  0  0  0
  3  7  1  0  0  0  0
  3  8  1  0  0  0  0
  3  9  1  0  0  0  0
M  CHG  1   4  -1
M  END
> <Hybrid2>
-5.448891

> <docked_fragment>
x0689

> <Mpro-_dock>
-0.494791

> <site>
active-covalent

$$$$
DB02713
  -OEChem-04122014263D

 14 13  0     0  0  0  0  0  0999 V2000
    5.5576   -4.9714   24.5845 C   0  0  0  0  0  0  0  0  0  0  0  0
    6.5328   -5.3979   21.0380 C   0  0  0  0  0  0  0  0  0  0  0  0
    6.0399   -3.8968   25.5015 C   0  0  0  0  0  0  0  0  0  0  0  0
    5.7490   -5.8398   22.2625 C   0  0  0  0  0  0  0  0  0  0  0  0
    6.0807   -4.8982   23.3077 N   0  0  0  0  0  0  0  0  0  0  0  0
    7.7879   -5.3779   21.1821 O   0  5  0  0  0  0  0  0  0  0  0  0
    4.7680   -5.8112   25.0005 O   0  0  0  0  0  0  0  0  0  0  0  0
    5.8326   -5.1169   20.0245 O   0  0  0  0  0  0  0  0  0  0  0  0
    5.3977   -3.0018   25.4750 H   0  0  0  0  0  0  0  0  0  0  0  0
    6.0498   -4.2168   26.5558 H   0  0  0  0  0  0  0  0  0  0  0  0
    7.0587   -3.5284   25.3011 H   0  0  0  0  0  0  0  0  0  0  0  0
    6.0289   -6.8547   22.5613 H   0  0  0  0  0  0  0  0  0  0  0  0
    4.6730   -5.8249   22.0631 H   0  0  0  0  0  0  0  0  0  0  0  0
    6.7295   -4.1468   23.0934 H   0  0  0  0  0  0  0  0  0  0  0  0
  1  3  1  0  0  0  0
  1  5  1  0  0  0  0
  1  7  2  0  0  0  0
  2  4  1  0  0  0  0
  2  6  1  0  0  0  0
  2  8  2  0  0  0  0
  4  5  1  0  0  0  0
  3  9  1  0  0  0  0
  3 10  1  0  0  0  0
  3 11  1  0  0  0  0
  4 12  1  0  0  0  0
  4 13  1  0  0  0  0
  5 14  1  0  0  0  0
M  CHG  1   6  -1
M  END
> <Hybrid2>
-5.415166

> <docked_fragment>
x0689

> <Mpro-_dock>
-0.893418

> <site>
active-covalent

$$$$
DB02002
  -OEChem-04122014263D

 12 11  0     0  0  0  0  0  0999 V2000
    9.3838   -5.3346   25.2225 C   0  0  0  0  0  0  0  0  0  0  0  0
    8.2299   -4.9702   26.1048 C   0  0  0  0  0  0  0  0  0  0  0  0
    9.9264   -4.2911   24.2960 C   0  0  0  0  0  0  0  0  0  0  0  0
    9.8330   -6.5426   25.2859 N   0  0  0  0  0  0  0  0  0  0  0  0
    7.8120   -5.9955   26.9117 N   0  0  0  0  0  0  0  0  0  0  0  0
    7.7857   -3.8348   26.0511 O   0  0  0  0  0  0  0  0  0  0  0  0
   10.7167   -3.7239   24.7953 H   0  0  0  0  0  0  0  0  0  0  0  0
    9.1223   -3.6108   24.0030 H   0  0  0  0  0  0  0  0  0  0  0  0
   10.3417   -4.7578   23.3986 H   0  0  0  0  0  0  0  0  0  0  0  0
   10.6081   -6.6695   24.6267 H   0  0  0  0  0  0  0  0  0  0  0  0
    8.2928   -6.8872   26.8557 H   0  0  0  0  0  0  0  0  0  0  0  0
    7.0401   -5.8975   27.5634 H   0  0  0  0  0  0  0  0  0  0  0  0
  1  2  1  0  0  0  0
  1  3  1  0  0  0  0
  1  4  2  0  0  0  0
  2  5  1  0  0  0  0
  2  6  2  0  0  0  0
  3  7  1  0  0  0  0
  3  8  1  0  0  0  0
  3  9  1  0  0  0  0
  4 10  1  0  0  0  0
  5 11  1  0  0  0  0
  5 12  1  0  0  0  0
M  END
> <Hybrid2>
-5.383672

> <docked_fragment>
x1077

> <Mpro-_dock>
-0.797372

> <site>
active-noncovalent

$$$$
CHEMBL14021
  -OEChem-04122014263D

 10  9  0     0  0  0  0  0  0999 V2000
    6.4378   -2.4397   19.7035 C   0  0  0  0  0  0  0  0  0  0  0  0
    7.2193   -0.2429   18.6099 C   0  0  0  0  0  0  0  0  0  0  0  0
    7.4385   -1.7331   18.7848 C   0  0  0  0  0  0  0  0  0  0  0  0
    6.4125   -2.0640   20.9074 O   0  5  0  0  0  0  0  0  0  0  0  0
    5.7474   -3.3293   19.1266 O   0  0  0  0  0  0  0  0  0  0  0  0
    6.2225   -0.0355   18.2070 H   0  0  0  0  0  0  0  0  0  0  0  0
    7.3151    0.2842   19.5650 H   0  0  0  0  0  0  0  0  0  0  0  0
    7.9586    0.1719   17.9174 H   0  0  0  0  0  0  0  0  0  0  0  0
    8.4439   -1.9012   19.1887 H   0  0  0  0  0  0  0  0  0  0  0  0
    7.3958   -2.2185   17.8026 H   0  0  0  0  0  0  0  0  0  0  0  0
  1  3  1  0  0  0  0
  1  4  1  0  0  0  0
  1  5  2  0  0  0  0
  2  3  1  0  0  0  0
  2  6  1  0  0  0  0
  2  7  1  0  0  0  0
  2  8  1  0  0  0  0
  3  9  1  0  0  0  0
  3 10  1  0  0  0  0
M  CHG  1   4  -1
M  END
> <Hybrid2>
-5.374838

> <docked_fragment>
x0397

> <Mpro-_dock>
-0.555688

> <site>
active-noncovalent

$$$$
CHEMBL171066
  -OEChem-04122014263D

 18 17  0     0  0  0  0  0  0999 V2000
   13.6074    2.8903   22.5513 C   0  0  0  0  0  0  0  0  0  0  0  0
   12.0720    0.3430   23.0887 C   0  0  0  0  0  0  0  0  0  0  0  0
   14.1680   -0.9697   22.7062 C   0  0  0  0  0  0  0  0  0  0  0  0
   14.1025    1.5054   22.1732 C   0  0  0  0  0  0  0  0  0  0  0  0
   13.6011    0.3943   23.1075 C   0  0  0  0  0  0  0  0  0  0  0  0
   14.6416    3.7786   22.7562 N   0  0  0  0  0  0  0  0  0  0  0  0
   12.4218    3.1956   22.6401 O   0  0  0  0  0  0  0  0  0  0  0  0
   11.7020    0.1303   22.0802 H   0  0  0  0  0  0  0  0  0  0  0  0
   11.7012   -0.4455   23.7520 H   0  0  0  0  0  0  0  0  0  0  0  0
   11.6379    1.2937   23.4160 H   0  0  0  0  0  0  0  0  0  0  0  0
   13.8816   -1.2366   21.6843 H   0  0  0  0  0  0  0  0  0  0  0  0
   13.8103   -1.7606   23.3745 H   0  0  0  0  0  0  0  0  0  0  0  0
   15.2625   -0.9614   22.7504 H   0  0  0  0  0  0  0  0  0  0  0  0
   15.1992    1.5127   22.1446 H   0  0  0  0  0  0  0  0  0  0  0  0
   13.7500    1.3174   21.1509 H   0  0  0  0  0  0  0  0  0  0  0  0
   13.9180    0.6093   24.1357 H   0  0  0  0  0  0  0  0  0  0  0  0
   14.4212    4.7348   23.0139 H   0  0  0  0  0  0  0  0  0  0  0  0
   15.6156    3.5104   22.6585 H   0  0  0  0  0  0  0  0  0  0  0  0
  1  4  1  0  0  0  0
  1  6  1  0  0  0  0
  1  7  2  0  0  0  0
  2  5  1  0  0  0  0
  3  5  1  0  0  0  0
  4  5  1  0  0  0  0
  2  8  1  0  0  0  0
  2  9  1  0  0  0  0
  2 10  1  0  0  0  0
  3 11  1  0  0  0  0
  3 12  1  0  0  0  0
  3 13  1  0  0  0  0
  4 14  1  0  0  0  0
  4 15  1  0  0  0  0
  5 16  1  0  0  0  0
  6 17  1  0  0  0  0
  6 18  1  0  0  0  0
M  END
> <Hybrid2>
-5.364620

> <docked_fragment>
x0195

> <Mpro-_dock>
0.067269

> <site>
active-noncovalent

$$$$
DB04383
  -OEChem-04122014263D

 21 20  0     1  0  0  0  0  0999 V2000
    4.9768    1.2357   21.7440 C   0  0  0  0  0  0  0  0  0  0  0  0
    6.2639   -0.4021   20.3531 C   0  0  0  0  0  0  0  0  0  0  0  0
    5.6969    1.1089   17.9105 C   0  0  0  0  0  0  0  0  0  0  0  0
    5.1009    0.5948   20.3570 C   0  0  0  0  0  0  0  0  0  0  0  0
    5.1704    1.6574   19.2374 C   0  0  2  0  0  0  0  0  0  0  0  0
    3.8217    2.2483   18.9861 N   0  3  0  0  0  0  0  0  0  0  0  0
    6.9857    0.5307   18.0903 O   0  0  0  0  0  0  0  0  0  0  0  0
    5.8559    1.8368   21.9968 H   0  0  0  0  0  0  0  0  0  0  0  0
    4.8727    0.4638   22.5145 H   0  0  0  0  0  0  0  0  0  0  0  0
    4.0927    1.8794   21.7991 H   0  0  0  0  0  0  0  0  0  0  0  0
    7.2141    0.1201   20.5126 H   0  0  0  0  0  0  0  0  0  0  0  0
    6.3397   -0.9372   19.4013 H   0  0  0  0  0  0  0  0  0  0  0  0
    6.1622   -1.1389   21.1551 H   0  0  0  0  0  0  0  0  0  0  0  0
    5.0417    0.3364   17.4960 H   0  0  0  0  0  0  0  0  0  0  0  0
    5.7924    1.9077   17.1676 H   0  0  0  0  0  0  0  0  0  0  0  0
    4.1806    0.0173   20.1937 H   0  0  0  0  0  0  0  0  0  0  0  0
    5.7930    2.5001   19.5606 H   0  0  0  0  0  0  0  0  0  0  0  0
    3.5031    2.7710   19.8044 H   0  0  0  0  0  0  0  0  0  0  0  0
    3.1417    1.5117   18.7866 H   0  0  0  0  0  0  0  0  0  0  0  0
    3.8545    2.8848   18.1870 H   0  0  0  0  0  0  0  0  0  0  0  0
    7.5635    1.2375   18.4186 H   0  0  0  0  0  0  0  0  0  0  0  0
  1  4  1  0  0  0  0
  2  4  1  0  0  0  0
  3  5  1  0  0  0  0
  3  7  1  0  0  0  0
  4  5  1  0  0  0  0
  5  6  1  0  0  0  0
  1  8  1  0  0  0  0
  1  9  1  0  0  0  0
  1 10  1  0  0  0  0
  2 11  1  0  0  0  0
  2 12  1  0  0  0  0
  2 13  1  0  0  0  0
  3 14  1  0  0  0  0
  3 15  1  0  0  0  0
  4 16  1  0  0  0  0
  5 17  1  0  0  0  0
  6 18  1  0  0  0  0
  6 19  1  0  0  0  0
  6 20  1  0  0  0  0
  7 21  1  0  0  0  0
M  CHG  1   6   1
M  END
> <Hybrid2>
-5.355181

> <docked_fragment>
x0107

> <Mpro-_dock>
1.021551

> <site>
active-noncovalent

$$$$
DB02768
  -OEChem-04122014263D

 17 16  0     0  0  0  0  0  0999 V2000
   11.1921   -1.7709   22.3128 C   0  0  0  0  0  0  0  0  0  0  0  0
   13.1391   -0.1947   23.6510 C   0  0  0  0  0  0  0  0  0  0  0  0
   14.5302   -2.2857   23.6926 C   0  0  0  0  0  0  0  0  0  0  0  0
   13.8709   -1.2658   21.4942 C   0  0  0  0  0  0  0  0  0  0  0  0
   13.4485   -1.5123   22.9418 C   0  0  0  0  0  0  0  0  0  0  0  0
   11.1259   -0.6852   21.7581 O   0  0  0  0  0  0  0  0  0  0  0  0
   12.2678   -2.3157   22.9403 O   0  0  0  0  0  0  0  0  0  0  0  0
   10.3521   -2.4796   22.3782 H   0  0  0  0  0  0  0  0  0  0  0  0
   12.3631    0.3635   23.1151 H   0  0  0  0  0  0  0  0  0  0  0  0
   12.8014   -0.3597   24.6793 H   0  0  0  0  0  0  0  0  0  0  0  0
   14.0233    0.4525   23.6767 H   0  0  0  0  0  0  0  0  0  0  0  0
   14.7553   -3.2318   23.1873 H   0  0  0  0  0  0  0  0  0  0  0  0
   14.1933   -2.5476   24.7022 H   0  0  0  0  0  0  0  0  0  0  0  0
   15.4564   -1.7078   23.7752 H   0  0  0  0  0  0  0  0  0  0  0  0
   14.0929   -2.2107   20.9852 H   0  0  0  0  0  0  0  0  0  0  0  0
   13.0913   -0.7441   20.9298 H   0  0  0  0  0  0  0  0  0  0  0  0
   14.7893   -0.6690   21.4525 H   0  0  0  0  0  0  0  0  0  0  0  0
  1  6  2  0  0  0  0
  1  7  1  0  0  0  0
  2  5  1  0  0  0  0
  3  5  1  0  0  0  0
  4  5  1  0  0  0  0
  5  7  1  0  0  0  0
  1  8  1  0  0  0  0
  2  9  1  0  0  0  0
  2 10  1  0  0  0  0
  2 11  1  0  0  0  0
  3 12  1  0  0  0  0
  3 13  1  0  0  0  0
  3 14  1  0  0  0  0
  4 15  1  0  0  0  0
  4 16  1  0  0  0  0
  4 17  1  0  0  0  0
M  END
> <Hybrid2>
-5.353163

> <docked_fragment>
x0678

> <Mpro-_dock>
1.599726

> <site>
active-noncovalent

$$$$
DB02579
  -OEChem-04122014263D

  8  7  0     0  0  0  0  0  0999 V2000
    7.7992   -0.5505   19.7943 C   0  0  0  0  0  0  0  0  0  0  0  0
    7.7757   -1.8733   19.6064 C   0  0  0  0  0  0  0  0  0  0  0  0
    6.4644   -2.6372   19.3774 C   0  0  0  0  0  0  0  0  0  0  0  0
    6.1308   -2.7330   18.1595 O   0  5  0  0  0  0  0  0  0  0  0  0
    5.8710   -3.0769   20.4016 O   0  0  0  0  0  0  0  0  0  0  0  0
    8.7175    0.0022   19.9572 H   0  0  0  0  0  0  0  0  0  0  0  0
    6.8730    0.0150   19.7870 H   0  0  0  0  0  0  0  0  0  0  0  0
    8.7231   -2.4096   19.6186 H   0  0  0  0  0  0  0  0  0  0  0  0
  1  2  2  0  0  0  0
  2  3  1  0  0  0  0
  3  4  1  0  0  0  0
  3  5  2  0  0  0  0
  1  6  1  0  0  0  0
  1  7  1  0  0  0  0
  2  8  1  0  0  0  0
M  CHG  1   4  -1
M  END
> <Hybrid2>
-5.281290

> <docked_fragment>
x0397

> <Mpro-_dock>
-0.644154

> <site>
active-noncovalent

$$$$
DB02296
  -OEChem-04122014263D

 18 17  0     0  0  0  0  0  0999 V2000
   14.4278   -1.9853   22.6447 C   0  0  0  0  0  0  0  0  0  0  0  0
   13.3105   -0.4733   24.2962 C   0  0  0  0  0  0  0  0  0  0  0  0
   11.9609   -1.5689   22.4332 C   0  0  0  0  0  0  0  0  0  0  0  0
   12.1338   -0.4337   21.4312 C   0  0  0  0  0  0  0  0  0  0  0  0
   13.1345   -1.7113   23.4158 C   0  0  0  0  0  0  0  0  0  0  0  0
   10.9859   -0.3868   20.5929 O   0  0  0  0  0  0  0  0  0  0  0  0
   14.6656   -1.1524   21.9746 H   0  0  0  0  0  0  0  0  0  0  0  0
   14.3449   -2.8944   22.0393 H   0  0  0  0  0  0  0  0  0  0  0  0
   15.2715   -2.1107   23.3316 H   0  0  0  0  0  0  0  0  0  0  0  0
   13.5041    0.4194   23.6919 H   0  0  0  0  0  0  0  0  0  0  0  0
   14.1521   -0.6035   24.9852 H   0  0  0  0  0  0  0  0  0  0  0  0
   12.4204   -0.2873   24.9048 H   0  0  0  0  0  0  0  0  0  0  0  0
   11.0320   -1.3989   22.9937 H   0  0  0  0  0  0  0  0  0  0  0  0
   11.8028   -2.5089   21.8883 H   0  0  0  0  0  0  0  0  0  0  0  0
   12.2282    0.5287   21.9439 H   0  0  0  0  0  0  0  0  0  0  0  0
   13.0103   -0.5903   20.7962 H   0  0  0  0  0  0  0  0  0  0  0  0
   12.9439   -2.5725   24.0687 H   0  0  0  0  0  0  0  0  0  0  0  0
   10.2232   -0.2301   21.1724 H   0  0  0  0  0  0  0  0  0  0  0  0
  1  5  1  0  0  0  0
  2  5  1  0  0  0  0
  3  4  1  0  0  0  0
  3  5  1  0  0  0  0
  4  6  1  0  0  0  0
  1  7  1  0  0  0  0
  1  8  1  0  0  0  0
  1  9  1  0  0  0  0
  2 10  1  0  0  0  0
  2 11  1  0  0  0  0
  2 12  1  0  0  0  0
  3 13  1  0  0  0  0
  3 14  1  0  0  0  0
  4 15  1  0  0  0  0
  4 16  1  0  0  0  0
  5 17  1  0  0  0  0
  6 18  1  0  0  0  0
M  END
> <Hybrid2>
-5.241287

> <docked_fragment>
x0678

> <Mpro-_dock>
0.416099

> <site>
active-noncovalent

$$$$
DB02412
  -OEChem-04122014263D

 16 16  0     0  0  0  0  0  0999 V2000
   13.1195    0.3034   23.4610 C   0  0  0  0  0  0  0  0  0  0  0  0
   13.9808    0.0581   22.2324 C   0  0  0  0  0  0  0  0  0  0  0  0
   11.8497   -0.5457   23.4145 C   0  0  0  0  0  0  0  0  0  0  0  0
   14.3164   -1.4261   22.0837 C   0  0  0  0  0  0  0  0  0  0  0  0
   12.0191   -1.7966   22.5575 C   0  0  0  0  0  0  0  0  0  0  0  0
   13.3469   -2.2944   22.6750 O   0  0  0  0  0  0  0  0  0  0  0  0
   13.6861    0.0802   24.3734 H   0  0  0  0  0  0  0  0  0  0  0  0
   12.8426    1.3653   23.5090 H   0  0  0  0  0  0  0  0  0  0  0  0
   13.4762    0.4232   21.3303 H   0  0  0  0  0  0  0  0  0  0  0  0
   14.9156    0.6246   22.3388 H   0  0  0  0  0  0  0  0  0  0  0  0
   11.5966   -0.8489   24.4446 H   0  0  0  0  0  0  0  0  0  0  0  0
   11.0041    0.0565   23.0452 H   0  0  0  0  0  0  0  0  0  0  0  0
   14.4415   -1.6980   21.0169 H   0  0  0  0  0  0  0  0  0  0  0  0
   15.2877   -1.6359   22.5677 H   0  0  0  0  0  0  0  0  0  0  0  0
   11.3352   -2.5761   22.9011 H   0  0  0  0  0  0  0  0  0  0  0  0
   11.7945   -1.5912   21.5068 H   0  0  0  0  0  0  0  0  0  0  0  0
  1  2  1  0  0  0  0
  1  3  1  0  0  0  0
  2  4  1  0  0  0  0
  3  5  1  0  0  0  0
  4  6  1  0  0  0  0
  5  6  1  0  0  0  0
  1  7  1  0  0  0  0
  1  8  1  0  0  0  0
  2  9  1  0  0  0  0
  2 10  1  0  0  0  0
  3 11  1  0  0  0  0
  3 12  1  0  0  0  0
  4 13  1  0  0  0  0
  4 14  1  0  0  0  0
  5 15  1  0  0  0  0
  5 16  1  0  0  0  0
M  END
> <Hybrid2>
-5.214960

> <docked_fragment>
x0195

> <Mpro-_dock>
1.387317

> <site>
active-noncovalent

$$$$
CHEMBL1201015
  -OEChem-04122014263D

  7  6  0     0  0  0  0  0  0999 V2000
    6.1279   -2.2631   19.6751 C   0  0  0  0  0  0  0  0  0  0  0  0
    7.5062   -1.9355   19.1276 C   0  0  0  0  0  0  0  0  0  0  0  0
    5.5589   -3.2565   19.1435 O   0  5  0  0  0  0  0  0  0  0  0  0
    5.7275   -1.4962   20.5953 O   0  0  0  0  0  0  0  0  0  0  0  0
    7.4152   -1.2354   18.2918 H   0  0  0  0  0  0  0  0  0  0  0  0
    8.0181   -2.8349   18.7722 H   0  0  0  0  0  0  0  0  0  0  0  0
    8.1175   -1.4769   19.9106 H   0  0  0  0  0  0  0  0  0  0  0  0
  1  2  1  0  0  0  0
  1  3  1  0  0  0  0
  1  4  2  0  0  0  0
  2  5  1  0  0  0  0
  2  6  1  0  0  0  0
  2  7  1  0  0  0  0
M  CHG  1   3  -1
M  END
> <Hybrid2>
-5.200050

> <docked_fragment>
x0397

> <Mpro-_dock>
-0.258895

> <site>
active-noncovalent

$$$$
DB02121
  -OEChem-04122014263D

 15 14  0     0  0  0  0  0  0999 V2000
    9.0860   -5.2620   25.1643 C   0  0  0  0  0  0  0  0  0  0  0  0
    8.3310   -2.4634   24.4037 C   0  0  0  0  0  0  0  0  0  0  0  0
    9.9566   -4.3827   24.2884 C   0  0  0  0  0  0  0  0  0  0  0  0
    9.1419   -3.3686   23.4910 C   0  0  0  0  0  0  0  0  0  0  0  0
    9.6286   -6.5153   25.3514 N   0  0  0  0  0  0  0  0  0  0  0  0
    8.0194   -4.9009   25.6529 O   0  0  0  0  0  0  0  0  0  0  0  0
    7.6536   -3.0477   25.0346 H   0  0  0  0  0  0  0  0  0  0  0  0
    8.9853   -1.8748   25.0546 H   0  0  0  0  0  0  0  0  0  0  0  0
    7.7279   -1.7689   23.8106 H   0  0  0  0  0  0  0  0  0  0  0  0
   10.6761   -3.8627   24.9323 H   0  0  0  0  0  0  0  0  0  0  0  0
   10.5211   -5.0300   23.6066 H   0  0  0  0  0  0  0  0  0  0  0  0
    9.8091   -2.7556   22.8732 H   0  0  0  0  0  0  0  0  0  0  0  0
    8.4647   -3.8902   22.8041 H   0  0  0  0  0  0  0  0  0  0  0  0
    9.1259   -7.1858   25.9233 H   0  0  0  0  0  0  0  0  0  0  0  0
   10.5133   -6.7911   24.9371 H   0  0  0  0  0  0  0  0  0  0  0  0
  1  3  1  0  0  0  0
  1  5  1  0  0  0  0
  1  6  2  0  0  0  0
  2  4  1  0  0  0  0
  3  4  1  0  0  0  0
  2  7  1  0  0  0  0
  2  8  1  0  0  0  0
  2  9  1  0  0  0  0
  3 10  1  0  0  0  0
  3 11  1  0  0  0  0
  4 12  1  0  0  0  0
  4 13  1  0  0  0  0
  5 14  1  0  0  0  0
  5 15  1  0  0  0  0
M  END
> <Hybrid2>
-5.115891

> <docked_fragment>
x1077

> <Mpro-_dock>
-0.829223

> <site>
active-noncovalent

$$$$
CHEMBL2105156
  -OEChem-04122014263D

 20 20  0     0  0  0  0  0  0999 V2000
   11.6464   -1.4454   23.4374 C   0  0  0  0  0  0  0  0  0  0  0  0
   13.0172   -0.9360   21.3779 C   0  0  0  0  0  0  0  0  0  0  0  0
   10.6637   -0.8223   21.3885 C   0  0  0  0  0  0  0  0  0  0  0  0
   12.9957   -0.9708   22.9041 C   0  0  0  0  0  0  0  0  0  0  0  0
    9.4959   -0.0468   20.8030 C   0  0  0  0  0  0  0  0  0  0  0  0
   13.2746    0.3968   23.4278 N   0  0  0  0  0  0  0  0  0  0  0  0
   13.3110    0.3945   24.7837 O   0  5  0  0  0  0  0  0  0  0  0  0
   12.3120    1.2681   23.0348 O   0  0  0  0  0  0  0  0  0  0  0  0
   10.5817   -0.7260   22.8114 O   0  0  0  0  0  0  0  0  0  0  0  0
   11.8682   -0.2482   20.8783 O   0  0  0  0  0  0  0  0  0  0  0  0
   14.4026   -2.1640   23.5454 Br  0  0  0  0  0  0  0  0  0  0  0  0
   11.4899   -2.5161   23.2558 H   0  0  0  0  0  0  0  0  0  0  0  0
   11.5626   -1.2853   24.5182 H   0  0  0  0  0  0  0  0  0  0  0  0
   13.9042   -0.4148   21.0004 H   0  0  0  0  0  0  0  0  0  0  0  0
   13.0269   -1.9451   20.9471 H   0  0  0  0  0  0  0  0  0  0  0  0
   10.5876   -1.8728   21.0782 H   0  0  0  0  0  0  0  0  0  0  0  0
    9.5527    1.0020   21.1001 H   0  0  0  0  0  0  0  0  0  0  0  0
    8.5512   -0.4610   21.1599 H   0  0  0  0  0  0  0  0  0  0  0  0
    9.5139   -0.1036   19.7130 H   0  0  0  0  0  0  0  0  0  0  0  0
   14.1947    0.6640   23.0359 H   0  0  0  0  0  0  0  0  0  0  0  0
  1  4  1  0  0  0  0
  1  9  1  0  0  0  0
  2  4  1  0  0  0  0
  2 10  1  0  0  0  0
  3  5  1  0  0  0  0
  3  9  1  0  0  0  0
  3 10  1  0  0  0  0
  4  6  1  0  0  0  0
  4 11  1  0  0  0  0
  6  7  1  0  0  0  0
  6  8  2  0  0  0  0
  1 12  1  0  0  0  0
  1 13  1  0  0  0  0
  2 14  1  0  0  0  0
  2 15  1  0  0  0  0
  3 16  1  0  0  0  0
  5 17  1  0  0  0  0
  5 18  1  0  0  0  0
  5 19  1  0  0  0  0
  6 20  1  0  0  0  0
M  CHG  1   7  -1
M  END
> <Hybrid2>
-5.087181

> <docked_fragment>
x0678

> <Mpro-_dock>
1.532176

> <site>
active-noncovalent

$$$$
CHEMBL1412
  -OEChem-04122014263D

 17 17  0     0  0  0  0  0  0999 V2000
   12.1977   -2.3005   25.3583 C   0  0  0  0  0  0  0  0  0  0  0  0
   13.5720   -1.1335   23.7491 C   0  0  0  0  0  0  0  0  0  0  0  0
   11.8583   -0.9004   25.8655 C   0  0  0  0  0  0  0  0  0  0  0  0
   12.7126    0.1288   23.7562 C   0  0  0  0  0  0  0  0  0  0  0  0
   12.7887   -2.3395   24.0145 N   0  0  0  0  0  0  0  0  0  0  0  0
   11.5612   -0.0199   24.7010 N   0  3  0  0  0  0  0  0  0  0  0  0
   12.8722   -2.8088   26.0763 H   0  0  0  0  0  0  0  0  0  0  0  0
   11.2721   -2.9063   25.3483 H   0  0  0  0  0  0  0  0  0  0  0  0
   14.0469   -1.2312   22.7654 H   0  0  0  0  0  0  0  0  0  0  0  0
   14.3852   -1.0416   24.4823 H   0  0  0  0  0  0  0  0  0  0  0  0
   10.9738   -0.8998   26.5115 H   0  0  0  0  0  0  0  0  0  0  0  0
   12.7002   -0.4532   26.4021 H   0  0  0  0  0  0  0  0  0  0  0  0
   13.2874    1.0058   24.0898 H   0  0  0  0  0  0  0  0  0  0  0  0
   12.2897    0.3469   22.7623 H   0  0  0  0  0  0  0  0  0  0  0  0
   13.3925   -3.1593   23.9384 H   0  0  0  0  0  0  0  0  0  0  0  0
   10.7452   -0.3874   24.1889 H   0  0  0  0  0  0  0  0  0  0  0  0
   11.2768    0.9126   25.0385 H   0  0  0  0  0  0  0  0  0  0  0  0
  1  3  1  0  0  0  0
  1  5  1  0  0  0  0
  2  4  1  0  0  0  0
  2  5  1  0  0  0  0
  3  6  1  0  0  0  0
  4  6  1  0  0  0  0
  1  7  1  0  0  0  0
  1  8  1  0  0  0  0
  2  9  1  0  0  0  0
  2 10  1  0  0  0  0
  3 11  1  0  0  0  0
  3 12  1  0  0  0  0
  4 13  1  0  0  0  0
  4 14  1  0  0  0  0
  5 15  1  0  0  0  0
  6 16  1  0  0  0  0
  6 17  1  0  0  0  0
M  CHG  1   6   1
M  END
> <Hybrid2>
-5.079155

> <docked_fragment>
x0354

> <Mpro-_dock>
1.716032

> <site>
active-noncovalent

$$$$
DB04320
  -OEChem-04122014263D

 10  9  0     0  0  0  0  0  0999 V2000
   13.9579   -1.7952   22.5611 C   0  0  0  0  0  0  0  0  0  0  0  0
   12.7964   -1.1707   22.7961 C   0  0  0  0  0  0  0  0  0  0  0  0
   11.4688   -1.8633   22.7412 C   0  0  0  0  0  0  0  0  0  0  0  0
   10.6529   -1.2579   21.7465 O   0  0  0  0  0  0  0  0  0  0  0  0
   12.7408    0.6393   23.2719 Br  0  0  0  0  0  0  0  0  0  0  0  0
   14.9084   -1.2751   22.6215 H   0  0  0  0  0  0  0  0  0  0  0  0
   13.9856   -2.8480   22.2995 H   0  0  0  0  0  0  0  0  0  0  0  0
   11.5791   -2.9235   22.4887 H   0  0  0  0  0  0  0  0  0  0  0  0
   10.9561   -1.8005   23.7072 H   0  0  0  0  0  0  0  0  0  0  0  0
    9.8087   -1.7371   21.7477 H   0  0  0  0  0  0  0  0  0  0  0  0
  1  2  2  0  0  0  0
  2  3  1  0  0  0  0
  2  5  1  0  0  0  0
  3  4  1  0  0  0  0
  1  6  1  0  0  0  0
  1  7  1  0  0  0  0
  3  8  1  0  0  0  0
  3  9  1  0  0  0  0
  4 10  1  0  0  0  0
M  END
> <Hybrid2>
-5.015962

> <docked_fragment>
x1093

> <Mpro-_dock>
0.797936

> <site>
active-noncovalent

$$$$
CHEMBL501613
  -OEChem-04122014263D

 17 16  0     1  0  0  0  0  0999 V2000
   13.9385    2.1267   22.2606 C   0  0  0  0  0  0  0  0  0  0  0  0
   13.6185    1.1122   22.8176 C   0  0  0  0  0  0  0  0  0  0  0  0
   13.9049   -1.6383   21.5057 C   0  0  0  0  0  0  0  0  0  0  0  0
   12.1316    0.1492   24.5302 C   0  0  0  0  0  0  0  0  0  0  0  0
   12.8235   -1.2292   22.4977 C   0  0  0  0  0  0  0  0  0  0  0  0
   13.2291   -0.1345   23.5040 C   0  0  1  0  0  0  0  0  0  0  0  0
   14.3574   -0.6232   24.2400 O   0  0  0  0  0  0  0  0  0  0  0  0
   14.2227    3.0265   21.7669 H   0  0  0  0  0  0  0  0  0  0  0  0
   14.8088   -1.9812   22.0174 H   0  0  0  0  0  0  0  0  0  0  0  0
   13.5602   -2.4327   20.8374 H   0  0  0  0  0  0  0  0  0  0  0  0
   14.1843   -0.7799   20.8859 H   0  0  0  0  0  0  0  0  0  0  0  0
   11.8335   -0.7713   25.0475 H   0  0  0  0  0  0  0  0  0  0  0  0
   12.4488    0.8688   25.2922 H   0  0  0  0  0  0  0  0  0  0  0  0
   11.2297    0.5336   24.0401 H   0  0  0  0  0  0  0  0  0  0  0  0
   11.9405   -0.8943   21.9369 H   0  0  0  0  0  0  0  0  0  0  0  0
   12.4935   -2.1234   23.0443 H   0  0  0  0  0  0  0  0  0  0  0  0
   14.0633   -1.4368   24.6732 H   0  0  0  0  0  0  0  0  0  0  0  0
  1  2  3  0  0  0  0
  2  6  1  0  0  0  0
  3  5  1  0  0  0  0
  4  6  1  0  0  0  0
  5  6  1  0  0  0  0
  6  7  1  0  0  0  0
  1  8  1  0  0  0  0
  3  9  1  0  0  0  0
  3 10  1  0  0  0  0
  3 11  1  0  0  0  0
  4 12  1  0  0  0  0
  4 13  1  0  0  0  0
  4 14  1  0  0  0  0
  5 15  1  0  0  0  0
  5 16  1  0  0  0  0
  7 17  1  0  0  0  0
M  END
> <Hybrid2>
-4.976810

> <docked_fragment>
x0195

> <Mpro-_dock>
1.121843

> <site>
active-noncovalent

$$$$
CHEMBL1451910
  -OEChem-04122014263D

 15 14  0     0  0  0  0  0  0999 V2000
   13.5159   -1.4806   22.9873 C   0  0  0  0  0  0  0  0  0  0  0  0
   13.7162   -1.3672   24.3052 C   0  0  0  0  0  0  0  0  0  0  0  0
   10.9742   -0.6840   25.3764 C   0  0  0  0  0  0  0  0  0  0  0  0
   12.9953   -2.1799   25.3302 C   0  0  0  0  0  0  0  0  0  0  0  0
   11.6958    0.4268   25.0363 N   0  0  0  0  0  0  0  0  0  0  0  0
   11.5479   -1.9034   25.2236 N   0  0  0  0  0  0  0  0  0  0  0  0
    9.4146   -0.5563   25.9680 S   0  0  0  0  0  0  0  0  0  0  0  0
   14.0764   -0.8653   22.2921 H   0  0  0  0  0  0  0  0  0  0  0  0
   12.7955   -2.1820   22.5808 H   0  0  0  0  0  0  0  0  0  0  0  0
   14.4552   -0.6524   24.6588 H   0  0  0  0  0  0  0  0  0  0  0  0
   13.3362   -1.8998   26.3316 H   0  0  0  0  0  0  0  0  0  0  0  0
   13.1594   -3.2545   25.2007 H   0  0  0  0  0  0  0  0  0  0  0  0
   12.6414    0.3778   24.6742 H   0  0  0  0  0  0  0  0  0  0  0  0
   11.2994    1.3556   25.1366 H   0  0  0  0  0  0  0  0  0  0  0  0
   10.9698   -2.6976   25.0209 H   0  0  0  0  0  0  0  0  0  0  0  0
  1  2  2  0  0  0  0
  2  4  1  0  0  0  0
  3  5  1  0  0  0  0
  3  6  1  0  0  0  0
  3  7  2  0  0  0  0
  4  6  1  0  0  0  0
  1  8  1  0  0  0  0
  1  9  1  0  0  0  0
  2 10  1  0  0  0  0
  4 11  1  0  0  0  0
  4 12  1  0  0  0  0
  5 13  1  0  0  0  0
  5 14  1  0  0  0  0
  6 15  1  0  0  0  0
M  END
> <Hybrid2>
-4.934671

> <docked_fragment>
x0354

> <Mpro-_dock>
-0.711561

> <site>
active-noncovalent

$$$$
DB03119
  -OEChem-04122014263D

 17 16  0     0  0  0  0  0  0999 V2000
   12.2939   -1.7637   22.7584 C   0  0  0  0  0  0  0  0  0  0  0  0
   13.6477    2.4331   22.5061 C   0  0  0  0  0  0  0  0  0  0  0  0
   13.7746   -1.4279   22.8365 C   0  0  0  0  0  0  0  0  0  0  0  0
   13.3346    1.0484   23.0504 C   0  0  0  0  0  0  0  0  0  0  0  0
   14.0653   -0.0404   22.2651 C   0  0  0  0  0  0  0  0  0  0  0  0
   11.9369   -1.7249   21.7243 H   0  0  0  0  0  0  0  0  0  0  0  0
   11.7007   -1.0621   23.3535 H   0  0  0  0  0  0  0  0  0  0  0  0
   12.1132   -2.7725   23.1426 H   0  0  0  0  0  0  0  0  0  0  0  0
   14.7233    2.6339   22.5396 H   0  0  0  0  0  0  0  0  0  0  0  0
   13.1407    3.1983   23.1023 H   0  0  0  0  0  0  0  0  0  0  0  0
   13.3114    2.5323   21.4691 H   0  0  0  0  0  0  0  0  0  0  0  0
   14.0993   -1.4756   23.8824 H   0  0  0  0  0  0  0  0  0  0  0  0
   14.3444   -2.1848   22.2849 H   0  0  0  0  0  0  0  0  0  0  0  0
   12.2524    0.8796   23.0029 H   0  0  0  0  0  0  0  0  0  0  0  0
   13.6240    1.0035   24.1068 H   0  0  0  0  0  0  0  0  0  0  0  0
   13.7573   -0.0043   21.2130 H   0  0  0  0  0  0  0  0  0  0  0  0
   15.1452    0.1493   22.2918 H   0  0  0  0  0  0  0  0  0  0  0  0
  1  3  1  0  0  0  0
  2  4  1  0  0  0  0
  3  5  1  0  0  0  0
  4  5  1  0  0  0  0
  1  6  1  0  0  0  0
  1  7  1  0  0  0  0
  1  8  1  0  0  0  0
  2  9  1  0  0  0  0
  2 10  1  0  0  0  0
  2 11  1  0  0  0  0
  3 12  1  0  0  0  0
  3 13  1  0  0  0  0
  4 14  1  0  0  0  0
  4 15  1  0  0  0  0
  5 16  1  0  0  0  0
  5 17  1  0  0  0  0
M  END
> <Hybrid2>
-4.920810

> <docked_fragment>
x0195

> <Mpro-_dock>
1.056462

> <site>
active-noncovalent

$$$$
DB03578
  -OEChem-04122014263D

 11 10  0     0  0  0  0  0  0999 V2000
    6.1207    0.2247   18.3766 C   0  0  0  0  0  0  0  0  0  0  0  0
    6.1930   -1.1187   19.0444 C   0  0  0  0  0  0  0  0  0  0  0  0
    5.2239    1.2578   18.9905 C   0  0  0  0  0  0  0  0  0  0  0  0
    6.6564   -1.0781   20.3332 N   0  0  0  0  0  0  0  0  0  0  0  0
    6.8044    0.4021   17.3788 O   0  0  0  0  0  0  0  0  0  0  0  0
    5.8748   -2.1066   18.4015 O   0  0  0  0  0  0  0  0  0  0  0  0
    5.7803    1.8460   19.7250 H   0  0  0  0  0  0  0  0  0  0  0  0
    4.8154    1.9087   18.2144 H   0  0  0  0  0  0  0  0  0  0  0  0
    4.4005    0.7576   19.5082 H   0  0  0  0  0  0  0  0  0  0  0  0
    6.7390   -1.9394   20.8633 H   0  0  0  0  0  0  0  0  0  0  0  0
    6.9181   -0.1977   20.7641 H   0  0  0  0  0  0  0  0  0  0  0  0
  1  2  1  0  0  0  0
  1  3  1  0  0  0  0
  1  5  2  0  0  0  0
  2  4  1  0  0  0  0
  2  6  2  0  0  0  0
  3  7  1  0  0  0  0
  3  8  1  0  0  0  0
  3  9  1  0  0  0  0
  4 10  1  0  0  0  0
  4 11  1  0  0  0  0
M  END
> <Hybrid2>
-4.916672

> <docked_fragment>
x0397

> <Mpro-_dock>
-0.349044

> <site>
active-noncovalent

$$$$
DB04050
  -OEChem-04122014263D

 14 13  0     0  0  0  0  0  0999 V2000
   11.5890   -1.7115   23.0214 C   0  0  0  0  0  0  0  0  0  0  0  0
   13.1525    0.9311   22.8518 C   0  0  0  0  0  0  0  0  0  0  0  0
   13.9696   -0.2056   23.4492 C   0  0  0  0  0  0  0  0  0  0  0  0
   14.0158   -1.4342   22.5487 C   0  0  0  0  0  0  0  0  0  0  0  0
   12.7075   -1.9602   22.2731 N   0  0  0  0  0  0  0  0  0  0  0  0
   10.7335   -1.5029   23.6202 H   0  0  0  0  0  0  0  0  0  0  0  0
   13.5635    1.2446   21.8869 H   0  0  0  0  0  0  0  0  0  0  0  0
   12.1191    0.6078   22.6904 H   0  0  0  0  0  0  0  0  0  0  0  0
   13.1320    1.8001   23.5167 H   0  0  0  0  0  0  0  0  0  0  0  0
   13.5259   -0.4881   24.4110 H   0  0  0  0  0  0  0  0  0  0  0  0
   14.9865    0.1502   23.6530 H   0  0  0  0  0  0  0  0  0  0  0  0
   14.4661   -1.1756   21.5852 H   0  0  0  0  0  0  0  0  0  0  0  0
   14.6110   -2.2349   22.9991 H   0  0  0  0  0  0  0  0  0  0  0  0
   12.7065   -2.8356   21.7012 H   0  0  0  0  0  0  0  0  0  0  0  0
  1  5  3  0  0  0  0
  2  3  1  0  0  0  0
  3  4  1  0  0  0  0
  4  5  1  0  0  0  0
  1  6  1  0  0  0  0
  2  7  1  0  0  0  0
  2  8  1  0  0  0  0
  2  9  1  0  0  0  0
  3 10  1  0  0  0  0
  3 11  1  0  0  0  0
  4 12  1  0  0  0  0
  4 13  1  0  0  0  0
  5 14  1  0  0  0  0
M  END
> <Hybrid2>
-4.881268

> <docked_fragment>
x0195

> <Mpro-_dock>
1.330024

> <site>
active-noncovalent

$$$$
CHEMBL47259
  -OEChem-04122014263D

 14 13  0     0  0  0  0  0  0999 V2000
   12.6335   -2.1017   22.6310 C   0  0  0  0  0  0  0  0  0  0  0  0
   14.0320   -1.5863   22.9311 C   0  0  0  0  0  0  0  0  0  0  0  0
   14.2506   -0.1887   22.3514 C   0  0  0  0  0  0  0  0  0  0  0  0
   13.2351    0.8003   22.9082 C   0  0  0  0  0  0  0  0  0  0  0  0
   13.5153    2.4226   22.2350 Cl  0  0  0  0  0  0  0  0  0  0  0  0
   11.8718   -1.4277   23.0358 H   0  0  0  0  0  0  0  0  0  0  0  0
   12.4809   -2.1765   21.5498 H   0  0  0  0  0  0  0  0  0  0  0  0
   12.4798   -3.0947   23.0654 H   0  0  0  0  0  0  0  0  0  0  0  0
   14.7690   -2.2822   22.5134 H   0  0  0  0  0  0  0  0  0  0  0  0
   14.1828   -1.5669   24.0168 H   0  0  0  0  0  0  0  0  0  0  0  0
   15.2674    0.1496   22.5869 H   0  0  0  0  0  0  0  0  0  0  0  0
   14.1690   -0.2299   21.2581 H   0  0  0  0  0  0  0  0  0  0  0  0
   13.3120    0.8748   23.9971 H   0  0  0  0  0  0  0  0  0  0  0  0
   12.2136    0.5055   22.6499 H   0  0  0  0  0  0  0  0  0  0  0  0
  1  2  1  0  0  0  0
  2  3  1  0  0  0  0
  3  4  1  0  0  0  0
  4  5  1  0  0  0  0
  1  6  1  0  0  0  0
  1  7  1  0  0  0  0
  1  8  1  0  0  0  0
  2  9  1  0  0  0  0
  2 10  1  0  0  0  0
  3 11  1  0  0  0  0
  3 12  1  0  0  0  0
  4 13  1  0  0  0  0
  4 14  1  0  0  0  0
M  END
> <Hybrid2>
-4.859516

> <docked_fragment>
x0195

> <Mpro-_dock>
0.580016

> <site>
active-noncovalent

$$$$
CHEMBL1439973
  -OEChem-04122014263D

 15 14  0     0  0  0  0  0  0999 V2000
   14.1859   -1.6583   25.3573 C   0  0  0  0  0  0  0  0  0  0  0  0
   13.0668   -0.0973   23.7703 C   0  0  0  0  0  0  0  0  0  0  0  0
   13.0992   -1.5505   24.2726 C   0  0  0  0  0  0  0  0  0  0  0  0
   11.7050   -2.0732   24.7371 C   0  0  0  0  0  0  0  0  0  0  0  0
   13.5434   -2.3433   23.1605 O   0  0  0  0  0  0  0  0  0  0  0  0
   10.4713   -1.9237   23.4296 Cl  0  0  0  0  0  0  0  0  0  0  0  0
   11.0882   -1.1719   26.1661 Cl  0  0  0  0  0  0  0  0  0  0  0  0
   11.7709   -3.8189   25.1867 Cl  0  0  0  0  0  0  0  0  0  0  0  0
   14.2417   -2.6834   25.7435 H   0  0  0  0  0  0  0  0  0  0  0  0
   15.1762   -1.3873   24.9795 H   0  0  0  0  0  0  0  0  0  0  0  0
   13.9593   -1.0315   26.2258 H   0  0  0  0  0  0  0  0  0  0  0  0
   12.3103    0.0481   22.9924 H   0  0  0  0  0  0  0  0  0  0  0  0
   14.0222    0.1682   23.3012 H   0  0  0  0  0  0  0  0  0  0  0  0
   12.8806    0.6168   24.5779 H   0  0  0  0  0  0  0  0  0  0  0  0
   12.8532   -2.2669   22.4879 H   0  0  0  0  0  0  0  0  0  0  0  0
  1  3  1  0  0  0  0
  2  3  1  0  0  0  0
  3  4  1  0  0  0  0
  3  5  1  0  0  0  0
  4  6  1  0  0  0  0
  4  7  1  0  0  0  0
  4  8  1  0  0  0  0
  1  9  1  0  0  0  0
  1 10  1  0  0  0  0
  1 11  1  0  0  0  0
  2 12  1  0  0  0  0
  2 13  1  0  0  0  0
  2 14  1  0  0  0  0
  5 15  1  0  0  0  0
M  END
> <Hybrid2>
-4.820621

> <docked_fragment>
x0354

> <Mpro-_dock>
1.822218

> <site>
active-noncovalent

$$$$
CHEMBL44658
  -OEChem-04122014263D

 18 17  0     0  0  0  0  0  0999 V2000
   14.0744   -1.7798   22.9708 C   0  0  0  0  0  0  0  0  0  0  0  0
   11.9403    0.4559   22.9004 C   0  0  0  0  0  0  0  0  0  0  0  0
   11.0101   -1.8666   22.8153 C   0  0  0  0  0  0  0  0  0  0  0  0
   13.2429   -1.4106   21.7476 C   0  0  0  0  0  0  0  0  0  0  0  0
   11.8537   -0.8264   22.0713 C   0  0  0  0  0  0  0  0  0  0  0  0
   11.1791   -0.5032   20.8535 O   0  0  0  0  0  0  0  0  0  0  0  0
   14.1902   -0.9057   23.6201 H   0  0  0  0  0  0  0  0  0  0  0  0
   15.0768   -2.1136   22.6879 H   0  0  0  0  0  0  0  0  0  0  0  0
   13.5960   -2.5707   23.5564 H   0  0  0  0  0  0  0  0  0  0  0  0
   12.5377    1.2222   22.3963 H   0  0  0  0  0  0  0  0  0  0  0  0
   10.9466    0.8655   23.1105 H   0  0  0  0  0  0  0  0  0  0  0  0
   12.3929    0.2551   23.8788 H   0  0  0  0  0  0  0  0  0  0  0  0
   10.9277   -2.7992   22.2478 H   0  0  0  0  0  0  0  0  0  0  0  0
   11.4444   -2.0927   23.7958 H   0  0  0  0  0  0  0  0  0  0  0  0
    9.9998   -1.4871   23.0067 H   0  0  0  0  0  0  0  0  0  0  0  0
   13.1372   -2.2965   21.1094 H   0  0  0  0  0  0  0  0  0  0  0  0
   13.8180   -0.6708   21.1755 H   0  0  0  0  0  0  0  0  0  0  0  0
   11.1330   -1.3243   20.3417 H   0  0  0  0  0  0  0  0  0  0  0  0
  1  4  1  0  0  0  0
  2  5  1  0  0  0  0
  3  5  1  0  0  0  0
  4  5  1  0  0  0  0
  5  6  1  0  0  0  0
  1  7  1  0  0  0  0
  1  8  1  0  0  0  0
  1  9  1  0  0  0  0
  2 10  1  0  0  0  0
  2 11  1  0  0  0  0
  2 12  1  0  0  0  0
  3 13  1  0  0  0  0
  3 14  1  0  0  0  0
  3 15  1  0  0  0  0
  4 16  1  0  0  0  0
  4 17  1  0  0  0  0
  6 18  1  0  0  0  0
M  END
> <Hybrid2>
-4.816120

> <docked_fragment>
x0678

> <Mpro-_dock>
1.527048

> <site>
active-noncovalent

$$$$
CHEMBL1410743
  -OEChem-04122014263D

 21 21  0     0  0  0  0  0  0999 V2000
   11.7873    0.5404   24.1667 C   0  0  0  0  0  0  0  0  0  0  0  0
   13.6723   -0.5252   23.2808 C   0  0  0  0  0  0  0  0  0  0  0  0
   13.3970    1.7824   23.0090 C   0  0  0  0  0  0  0  0  0  0  0  0
   10.2915    0.3865   24.3764 C   0  0  0  0  0  0  0  0  0  0  0  0
   14.1334   -1.7851   22.5700 C   0  0  0  0  0  0  0  0  0  0  0  0
   13.5723    2.9175   22.0162 C   0  0  0  0  0  0  0  0  0  0  0  0
   12.2823   -0.6697   23.5864 O   0  0  0  0  0  0  0  0  0  0  0  0
   12.0035    1.6663   23.3111 O   0  0  0  0  0  0  0  0  0  0  0  0
   13.9123    0.5877   22.4147 O   0  0  0  0  0  0  0  0  0  0  0  0
   12.2728    0.7125   25.1361 H   0  0  0  0  0  0  0  0  0  0  0  0
   14.2454   -0.4032   24.2091 H   0  0  0  0  0  0  0  0  0  0  0  0
   13.9572    2.0127   23.9246 H   0  0  0  0  0  0  0  0  0  0  0  0
    9.7914    0.2143   23.4212 H   0  0  0  0  0  0  0  0  0  0  0  0
    9.8782    1.2900   24.8293 H   0  0  0  0  0  0  0  0  0  0  0  0
   10.0872   -0.4598   25.0355 H   0  0  0  0  0  0  0  0  0  0  0  0
   13.5733   -1.9227   21.6429 H   0  0  0  0  0  0  0  0  0  0  0  0
   13.9751   -2.6578   23.2067 H   0  0  0  0  0  0  0  0  0  0  0  0
   15.1962   -1.7160   22.3293 H   0  0  0  0  0  0  0  0  0  0  0  0
   13.0210    2.7052   21.0979 H   0  0  0  0  0  0  0  0  0  0  0  0
   14.6282    3.0436   21.7686 H   0  0  0  0  0  0  0  0  0  0  0  0
   13.1986    3.8518   22.4401 H   0  0  0  0  0  0  0  0  0  0  0  0
  1  4  1  0  0  0  0
  1  7  1  0  0  0  0
  1  8  1  0  0  0  0
  2  5  1  0  0  0  0
  2  7  1  0  0  0  0
  2  9  1  0  0  0  0
  3  6  1  0  0  0  0
  3  8  1  0  0  0  0
  3  9  1  0  0  0  0
  1 10  1  0  0  0  0
  2 11  1  0  0  0  0
  3 12  1  0  0  0  0
  4 13  1  0  0  0  0
  4 14  1  0  0  0  0
  4 15  1  0  0  0  0
  5 16  1  0  0  0  0
  5 17  1  0  0  0  0
  5 18  1  0  0  0  0
  6 19  1  0  0  0  0
  6 20  1  0  0  0  0
  6 21  1  0  0  0  0
M  END
> <Hybrid2>
-4.794878

> <docked_fragment>
x0195

> <Mpro-_dock>
1.93029

> <site>
active-noncovalent

$$$$
CHEMBL2103952
  -OEChem-04122014263D

 15 14  0     1  0  0  0  0  0999 V2000
    5.7997   -0.2985   20.1589 C   0  0  0  0  0  0  0  0  0  0  0  0
    7.9069   -0.2617   18.7748 C   0  0  0  0  0  0  0  0  0  0  0  0
    7.1394   -0.9898   19.8902 C   0  0  2  0  0  0  0  0  0  0  0  0
    6.9469   -2.4599   19.5461 N   0  0  0  0  0  0  0  0  0  0  0  0
    6.3628   -3.1696   20.5488 O   0  5  0  0  0  0  0  0  0  0  0  0
    6.1923   -2.6397   18.4306 O   0  0  0  0  0  0  0  0  0  0  0  0
    7.0422    0.1507   17.7223 O   0  0  0  0  0  0  0  0  0  0  0  0
    8.2206   -0.8520   21.5457 Br  0  0  0  0  0  0  0  0  0  0  0  0
    5.2392   -0.8059   20.9526 H   0  0  0  0  0  0  0  0  0  0  0  0
    5.9485    0.7413   20.4705 H   0  0  0  0  0  0  0  0  0  0  0  0
    5.1619   -0.2828   19.2680 H   0  0  0  0  0  0  0  0  0  0  0  0
    8.4140    0.6311   19.1577 H   0  0  0  0  0  0  0  0  0  0  0  0
    8.6758   -0.9072   18.3357 H   0  0  0  0  0  0  0  0  0  0  0  0
    7.9048   -2.8175   19.3873 H   0  0  0  0  0  0  0  0  0  0  0  0
    6.3893    0.7500   18.1173 H   0  0  0  0  0  0  0  0  0  0  0  0
  1  3  1  0  0  0  0
  2  3  1  0  0  0  0
  2  7  1  0  0  0  0
  3  4  1  0  0  0  0
  3  8  1  0  0  0  0
  4  5  1  0  0  0  0
  4  6  2  0  0  0  0
  1  9  1  0  0  0  0
  1 10  1  0  0  0  0
  1 11  1  0  0  0  0
  2 12  1  0  0  0  0
  2 13  1  0  0  0  0
  4 14  1  0  0  0  0
  7 15  1  0  0  0  0
M  CHG  1   5  -1
M  END
> <Hybrid2>
-4.686607

> <docked_fragment>
x0397

> <Mpro-_dock>
1.866535

> <site>
active-noncovalent

$$$$
DB03316
  -OEChem-04122014263D

 14 14  0     0  0  0  0  0  0999 V2000
   14.0623   -1.7616   22.7039 C   0  0  0  0  0  0  0  0  0  0  0  0
   12.5437   -1.7622   22.7581 C   0  0  0  0  0  0  0  0  0  0  0  0
   13.7172    0.5979   22.5255 C   0  0  0  0  0  0  0  0  0  0  0  0
   12.9169    0.3598   23.7951 C   0  0  0  0  0  0  0  0  0  0  0  0
   14.5682   -0.5118   22.2279 O   0  0  0  0  0  0  0  0  0  0  0  0
   12.0526   -0.7716   23.6646 O   0  0  0  0  0  0  0  0  0  0  0  0
   14.4945   -1.9572   23.7002 H   0  0  0  0  0  0  0  0  0  0  0  0
   14.4232   -2.5535   22.0294 H   0  0  0  0  0  0  0  0  0  0  0  0
   12.1115   -1.5693   21.7612 H   0  0  0  0  0  0  0  0  0  0  0  0
   12.1714   -2.7431   23.0920 H   0  0  0  0  0  0  0  0  0  0  0  0
   13.0426    0.7485   21.6684 H   0  0  0  0  0  0  0  0  0  0  0  0
   14.3415    1.5035   22.6146 H   0  0  0  0  0  0  0  0  0  0  0  0
   13.5916    0.1759   24.6459 H   0  0  0  0  0  0  0  0  0  0  0  0
   12.3033    1.2415   24.0480 H   0  0  0  0  0  0  0  0  0  0  0  0
  1  2  1  0  0  0  0
  1  5  1  0  0  0  0
  2  6  1  0  0  0  0
  3  4  1  0  0  0  0
  3  5  1  0  0  0  0
  4  6  1  0  0  0  0
  1  7  1  0  0  0  0
  1  8  1  0  0  0  0
  2  9  1  0  0  0  0
  2 10  1  0  0  0  0
  3 11  1  0  0  0  0
  3 12  1  0  0  0  0
  4 13  1  0  0  0  0
  4 14  1  0  0  0  0
M  END
> <Hybrid2>
-4.596065

> <docked_fragment>
x0195

> <Mpro-_dock>
1.38928

> <site>
active-noncovalent

$$$$
DB02788
  -OEChem-04122014263D

 14 13  0     1  0  0  0  0  0999 V2000
    6.9109   -1.3575   18.7815 C   0  0  0  0  0  0  0  0  0  0  0  0
    7.6312   -1.6055   20.0822 C   0  0  0  0  0  0  0  0  0  0  0  0
    5.7010    0.7487   19.4259 C   0  0  0  0  0  0  0  0  0  0  0  0
    6.6215    0.0913   18.4136 C   0  0  2  0  0  0  0  0  0  0  0  0
    6.5814   -2.2953   18.0549 O   0  0  0  0  0  0  0  0  0  0  0  0
    5.9858    0.1315   17.1462 O   0  0  0  0  0  0  0  0  0  0  0  0
    6.9047   -1.7223   20.8902 H   0  0  0  0  0  0  0  0  0  0  0  0
    8.2706   -0.7495   20.3152 H   0  0  0  0  0  0  0  0  0  0  0  0
    8.2513   -2.5006   19.9988 H   0  0  0  0  0  0  0  0  0  0  0  0
    4.7529    0.2049   19.5042 H   0  0  0  0  0  0  0  0  0  0  0  0
    5.4572    1.7711   19.1178 H   0  0  0  0  0  0  0  0  0  0  0  0
    6.1549    0.7853   20.4207 H   0  0  0  0  0  0  0  0  0  0  0  0
    7.5675    0.6374   18.3383 H   0  0  0  0  0  0  0  0  0  0  0  0
    5.8166    1.0667   16.9440 H   0  0  0  0  0  0  0  0  0  0  0  0
  1  2  1  0  0  0  0
  1  4  1  0  0  0  0
  1  5  2  0  0  0  0
  3  4  1  0  0  0  0
  4  6  1  0  0  0  0
  2  7  1  0  0  0  0
  2  8  1  0  0  0  0
  2  9  1  0  0  0  0
  3 10  1  0  0  0  0
  3 11  1  0  0  0  0
  3 12  1  0  0  0  0
  4 13  1  0  0  0  0
  6 14  1  0  0  0  0
M  END
> <Hybrid2>
-4.569004

> <docked_fragment>
x0397

> <Mpro-_dock>
1.148443

> <site>
active-noncovalent

$$$$
DB04161
  -OEChem-04122014263D

 12 11  0     0  0  0  0  0  0999 V2000
    7.1339   -1.4994   18.8207 C   0  0  0  0  0  0  0  0  0  0  0  0
    6.0845    0.6765   18.0969 C   0  0  0  0  0  0  0  0  0  0  0  0
    6.0446   -0.4788   19.0804 C   0  0  0  0  0  0  0  0  0  0  0  0
    8.3032   -1.1976   19.4853 N   0  0  0  0  0  0  0  0  0  0  0  0
    6.9931   -2.4833   18.1002 O   0  0  0  0  0  0  0  0  0  0  0  0
    7.0498    1.1892   18.1499 H   0  0  0  0  0  0  0  0  0  0  0  0
    5.9402    0.3238   17.0703 H   0  0  0  0  0  0  0  0  0  0  0  0
    5.2970    1.4056   18.3146 H   0  0  0  0  0  0  0  0  0  0  0  0
    5.0736   -0.9829   19.0169 H   0  0  0  0  0  0  0  0  0  0  0  0
    6.1622   -0.0975   20.1011 H   0  0  0  0  0  0  0  0  0  0  0  0
    9.1064   -1.8106   19.3881 H   0  0  0  0  0  0  0  0  0  0  0  0
    8.3724   -0.3716   20.0704 H   0  0  0  0  0  0  0  0  0  0  0  0
  1  3  1  0  0  0  0
  1  4  1  0  0  0  0
  1  5  2  0  0  0  0
  2  3  1  0  0  0  0
  2  6  1  0  0  0  0
  2  7  1  0  0  0  0
  2  8  1  0  0  0  0
  3  9  1  0  0  0  0
  3 10  1  0  0  0  0
  4 11  1  0  0  0  0
  4 12  1  0  0  0  0
M  END
> <Hybrid2>
-4.538956

> <docked_fragment>
x0397

> <Mpro-_dock>
-0.927604

> <site>
active-noncovalent

$$$$
CHEMBL2105883
  -OEChem-04122014263D

 11 10  0     0  0  0  0  0  0999 V2000
   13.1400    1.0878   23.3630 C   0  0  0  0  0  0  0  0  0  0  0  0
   12.4682   -1.6935   22.4949 C   0  0  0  0  0  0  0  0  0  0  0  0
   14.0301    0.8537   22.3964 C   0  0  0  0  0  0  0  0  0  0  0  0
   13.7825   -1.4608   22.4959 C   0  0  0  0  0  0  0  0  0  0  0  0
   14.3791   -0.3853   21.9358 O   0  0  0  0  0  0  0  0  0  0  0  0
   12.9191    2.1034   23.6715 H   0  0  0  0  0  0  0  0  0  0  0  0
   12.6192    0.2769   23.8597 H   0  0  0  0  0  0  0  0  0  0  0  0
   12.0681   -2.5834   22.9676 H   0  0  0  0  0  0  0  0  0  0  0  0
   11.7732   -1.0056   22.0267 H   0  0  0  0  0  0  0  0  0  0  0  0
   14.5705    1.6313   21.8769 H   0  0  0  0  0  0  0  0  0  0  0  0
   14.5083   -2.1193   22.9499 H   0  0  0  0  0  0  0  0  0  0  0  0
  1  3  2  0  0  0  0
  2  4  2  0  0  0  0
  3  5  1  0  0  0  0
  4  5  1  0  0  0  0
  1  6  1  0  0  0  0
  1  7  1  0  0  0  0
  2  8  1  0  0  0  0
  2  9  1  0  0  0  0
  3 10  1  0  0  0  0
  4 11  1  0  0  0  0
M  END
> <Hybrid2>
-4.524748

> <docked_fragment>
x0195

> <Mpro-_dock>
-0.366395

> <site>
active-noncovalent

$$$$
DB04094
  -OEChem-04122014263D

 14 13  0     0  0  0  0  0  0999 V2000
   13.4020   -1.1518   23.3630 C   0  0  0  0  0  0  0  0  0  0  0  0
   14.0329   -1.3674   22.0117 C   0  0  0  0  0  0  0  0  0  0  0  0
   11.9108   -1.4331   23.4564 C   0  0  0  0  0  0  0  0  0  0  0  0
   11.3115   -1.9063   22.1399 C   0  0  0  0  0  0  0  0  0  0  0  0
   14.0729   -0.7716   24.3212 O   0  0  0  0  0  0  0  0  0  0  0  0
   11.5062   -0.9284   21.1259 O   0  0  0  0  0  0  0  0  0  0  0  0
   13.9873   -0.4419   21.4311 H   0  0  0  0  0  0  0  0  0  0  0  0
   15.0800   -1.6538   22.1377 H   0  0  0  0  0  0  0  0  0  0  0  0
   13.4895   -2.1484   21.4743 H   0  0  0  0  0  0  0  0  0  0  0  0
   11.4206   -0.5030   23.7630 H   0  0  0  0  0  0  0  0  0  0  0  0
   11.7646   -2.1908   24.2339 H   0  0  0  0  0  0  0  0  0  0  0  0
   11.7953   -2.8317   21.8117 H   0  0  0  0  0  0  0  0  0  0  0  0
   10.2377   -2.0972   22.2296 H   0  0  0  0  0  0  0  0  0  0  0  0
   11.0620   -0.1202   21.4284 H   0  0  0  0  0  0  0  0  0  0  0  0
  1  2  1  0  0  0  0
  1  3  1  0  0  0  0
  1  5  2  0  0  0  0
  3  4  1  0  0  0  0
  4  6  1  0  0  0  0
  2  7  1  0  0  0  0
  2  8  1  0  0  0  0
  2  9  1  0  0  0  0
  3 10  1  0  0  0  0
  3 11  1  0  0  0  0
  4 12  1  0  0  0  0
  4 13  1  0  0  0  0
  6 14  1  0  0  0  0
M  END
> <Hybrid2>
-4.486339

> <docked_fragment>
x0678

> <Mpro-_dock>
1.091461

> <site>
active-noncovalent

$$$$
DB04381
  -OEChem-04122014263D

 11 10  0     0  0  0  0  0  0999 V2000
   14.0930    0.0616   22.9112 C   0  0  0  0  0  0  0  0  0  0  0  0
   12.9369    0.7354   22.9195 C   0  0  0  0  0  0  0  0  0  0  0  0
   14.0659   -1.4134   22.9325 C   0  0  0  0  0  0  0  0  0  0  0  0
   12.8550    2.2264   22.8994 C   0  0  0  0  0  0  0  0  0  0  0  0
   14.0367   -2.0759   21.9025 O   0  0  0  0  0  0  0  0  0  0  0  0
   15.0569    0.5558   22.8900 H   0  0  0  0  0  0  0  0  0  0  0  0
   11.9896    0.2027   22.9410 H   0  0  0  0  0  0  0  0  0  0  0  0
   14.0723   -1.8884   23.9278 H   0  0  0  0  0  0  0  0  0  0  0  0
   12.8496    2.6132   23.9232 H   0  0  0  0  0  0  0  0  0  0  0  0
   11.9297    2.5418   22.4075 H   0  0  0  0  0  0  0  0  0  0  0  0
   13.6966    2.6814   22.3672 H   0  0  0  0  0  0  0  0  0  0  0  0
  1  2  2  0  0  0  0
  1  3  1  0  0  0  0
  2  4  1  0  0  0  0
  3  5  2  0  0  0  0
  1  6  1  0  0  0  0
  2  7  1  0  0  0  0
  3  8  1  0  0  0  0
  4  9  1  0  0  0  0
  4 10  1  0  0  0  0
  4 11  1  0  0  0  0
M  END
> <Hybrid2>
-4.451875

> <docked_fragment>
x0195

> <Mpro-_dock>
0.886554

> <site>
active-noncovalent

$$$$
CHEMBL14245
  -OEChem-04122014263D

 15 14  0     0  0  0  0  0  0999 V2000
   13.2919    0.8230   22.6828 C   0  0  0  0  0  0  0  0  0  0  0  0
   13.9725   -0.2972   23.4530 C   0  0  0  0  0  0  0  0  0  0  0  0
   13.6141   -1.6664   22.8824 C   0  0  0  0  0  0  0  0  0  0  0  0
   12.1203   -1.9421   22.9790 C   0  0  0  0  0  0  0  0  0  0  0  0
   11.4220   -0.9546   22.2331 O   0  0  0  0  0  0  0  0  0  0  0  0
   12.2036    0.7064   22.7005 H   0  0  0  0  0  0  0  0  0  0  0  0
   13.5401    1.7998   23.1101 H   0  0  0  0  0  0  0  0  0  0  0  0
   13.6174    0.8167   21.6379 H   0  0  0  0  0  0  0  0  0  0  0  0
   15.0583   -0.1511   23.4159 H   0  0  0  0  0  0  0  0  0  0  0  0
   13.6736   -0.2425   24.5063 H   0  0  0  0  0  0  0  0  0  0  0  0
   13.9290   -1.7353   21.8337 H   0  0  0  0  0  0  0  0  0  0  0  0
   14.1638   -2.4544   23.4122 H   0  0  0  0  0  0  0  0  0  0  0  0
   11.8772   -2.9264   22.5666 H   0  0  0  0  0  0  0  0  0  0  0  0
   11.7810   -1.8973   24.0189 H   0  0  0  0  0  0  0  0  0  0  0  0
   10.4761   -1.1581   22.3149 H   0  0  0  0  0  0  0  0  0  0  0  0
  1  2  1  0  0  0  0
  2  3  1  0  0  0  0
  3  4  1  0  0  0  0
  4  5  1  0  0  0  0
  1  6  1  0  0  0  0
  1  7  1  0  0  0  0
  1  8  1  0  0  0  0
  2  9  1  0  0  0  0
  2 10  1  0  0  0  0
  3 11  1  0  0  0  0
  3 12  1  0  0  0  0
  4 13  1  0  0  0  0
  4 14  1  0  0  0  0
  5 15  1  0  0  0  0
M  END
> <Hybrid2>
-4.420505

> <docked_fragment>
x0195

> <Mpro-_dock>
0.740316

> <site>
active-noncovalent

$$$$
DB02203
  -OEChem-04122014263D

 13 12  0     0  0  0  0  0  0999 V2000
   11.0584   -1.6882   22.6937 C   0  0  0  0  0  0  0  0  0  0  0  0
   12.1475    0.3543   23.5331 C   0  0  0  0  0  0  0  0  0  0  0  0
   13.4587   -1.3679   22.2493 C   0  0  0  0  0  0  0  0  0  0  0  0
   12.1008   -0.6864   22.4148 C   0  0  0  0  0  0  0  0  0  0  0  0
   10.2372   -2.4783   22.9128 N   0  0  0  0  0  0  0  0  0  0  0  0
   11.7775   -0.0223   21.1935 O   0  0  0  0  0  0  0  0  0  0  0  0
   12.9203    1.1065   23.3372 H   0  0  0  0  0  0  0  0  0  0  0  0
   11.1969    0.8968   23.6039 H   0  0  0  0  0  0  0  0  0  0  0  0
   12.3500   -0.1042   24.5075 H   0  0  0  0  0  0  0  0  0  0  0  0
   14.2440   -0.6324   22.0411 H   0  0  0  0  0  0  0  0  0  0  0  0
   13.4488   -2.0606   21.3990 H   0  0  0  0  0  0  0  0  0  0  0  0
   13.7421   -1.9330   23.1442 H   0  0  0  0  0  0  0  0  0  0  0  0
   10.9134    0.3952   21.3289 H   0  0  0  0  0  0  0  0  0  0  0  0
  1  4  1  0  0  0  0
  1  5  3  0  0  0  0
  2  4  1  0  0  0  0
  3  4  1  0  0  0  0
  4  6  1  0  0  0  0
  2  7  1  0  0  0  0
  2  8  1  0  0  0  0
  2  9  1  0  0  0  0
  3 10  1  0  0  0  0
  3 11  1  0  0  0  0
  3 12  1  0  0  0  0
  6 13  1  0  0  0  0
M  END
> <Hybrid2>
-4.344299

> <docked_fragment>
x0708

> <Mpro-_dock>
0.965539

> <site>
active-covalent

$$$$
CHEMBL1236690
  -OEChem-04122014263D

  9  8  0     0  0  0  0  0  0999 V2000
    6.5904   -0.2792   18.4504 C   0  0  0  0  0  0  0  0  0  0  0  0
    6.0176   -0.8339   19.5203 C   0  0  0  0  0  0  0  0  0  0  0  0
    7.6633   -2.7331   19.8451 O   0  5  0  0  0  0  0  0  0  0  0  0
    5.6176   -3.1417   18.5430 O   0  0  0  0  0  0  0  0  0  0  0  0
    5.4827   -2.8337   20.9792 O   0  0  0  0  0  0  0  0  0  0  0  0
    6.2113   -2.5267   19.7396 S   0  0  0  0  0  0  0  0  0  0  0  0
    6.4935    0.7865   18.2726 H   0  0  0  0  0  0  0  0  0  0  0  0
    7.1621   -0.8587   17.7335 H   0  0  0  0  0  0  0  0  0  0  0  0
    5.4474   -0.2533   20.2344 H   0  0  0  0  0  0  0  0  0  0  0  0
  1  2  2  0  0  0  0
  2  6  1  0  0  0  0
  3  6  1  0  0  0  0
  4  6  2  0  0  0  0
  5  6  2  0  0  0  0
  1  7  1  0  0  0  0
  1  8  1  0  0  0  0
  2  9  1  0  0  0  0
M  CHG  1   3  -1
M  END
> <Hybrid2>
-4.342831

> <docked_fragment>
x0397

> <Mpro-_dock>
0.741279

> <site>
active-noncovalent

$$$$
DB03587
  -OEChem-04122014263D

  9  8  0     0  0  0  0  0  0999 V2000
    6.8475   -1.4451   18.7494 C   0  0  0  0  0  0  0  0  0  0  0  0
    6.4157   -0.0067   18.7026 C   0  0  0  0  0  0  0  0  0  0  0  0
    5.4163    0.4198   19.7329 C   0  0  0  0  0  0  0  0  0  0  0  0
    6.2362   -2.2854   18.1131 O   0  0  0  0  0  0  0  0  0  0  0  0
    6.8909    0.7224   17.8461 O   0  0  0  0  0  0  0  0  0  0  0  0
    7.7237   -1.6556   19.3822 H   0  0  0  0  0  0  0  0  0  0  0  0
    5.9355    0.7757   20.6262 H   0  0  0  0  0  0  0  0  0  0  0  0
    4.7791    1.2085   19.3249 H   0  0  0  0  0  0  0  0  0  0  0  0
    4.7885   -0.4327   20.0065 H   0  0  0  0  0  0  0  0  0  0  0  0
  1  2  1  0  0  0  0
  1  4  2  0  0  0  0
  2  3  1  0  0  0  0
  2  5  2  0  0  0  0
  1  6  1  0  0  0  0
  3  7  1  0  0  0  0
  3  8  1  0  0  0  0
  3  9  1  0  0  0  0
M  END
> <Hybrid2>
-4.250336

> <docked_fragment>
x0397

> <Mpro-_dock>
0.843646

> <site>
active-noncovalent

$$$$
CHEMBL345248
  -OEChem-04122014263D

  5  4  0     0  0  0  0  0  0999 V2000
   12.1875   -1.1566   23.1934 C   0  0  0  0  0  0  0  0  0  0  0  0
   13.8880   -1.2118   22.2528 Br  0  0  0  0  0  0  0  0  0  0  0  0
   11.8296    0.5942   23.9593 Br  0  0  0  0  0  0  0  0  0  0  0  0
   10.7176   -1.7883   22.0890 Br  0  0  0  0  0  0  0  0  0  0  0  0
   12.2709   -1.8532   24.0311 H   0  0  0  0  0  0  0  0  0  0  0  0
  1  2  1  0  0  0  0
  1  3  1  0  0  0  0
  1  4  1  0  0  0  0
  1  5  1  0  0  0  0
M  END
> <Hybrid2>
-4.223693

> <docked_fragment>
x0195

> <Mpro-_dock>
0.953202

> <site>
active-noncovalent

$$$$
CHEMBL286398
  -OEChem-04122014263D

 13 12  0     1  0  0  0  0  0999 V2000
    7.4560   -1.8051   18.7330 C   0  0  0  0  0  0  0  0  0  0  0  0
    6.6055   -3.4929   20.3938 C   0  0  0  0  0  0  0  0  0  0  0  0
    6.2258   -2.4079   19.3943 C   0  0  2  0  0  0  0  0  0  0  0  0
    5.5111   -3.7105   21.2779 O   0  0  0  0  0  0  0  0  0  0  0  0
    5.4017   -2.9940   18.3879 O   0  0  0  0  0  0  0  0  0  0  0  0
    8.0463   -2.5842   18.2387 H   0  0  0  0  0  0  0  0  0  0  0  0
    7.1787   -1.0541   17.9869 H   0  0  0  0  0  0  0  0  0  0  0  0
    8.1118   -1.3380   19.4761 H   0  0  0  0  0  0  0  0  0  0  0  0
    6.8222   -4.4396   19.8880 H   0  0  0  0  0  0  0  0  0  0  0  0
    7.4710   -3.1920   20.9924 H   0  0  0  0  0  0  0  0  0  0  0  0
    5.6354   -1.6286   19.8888 H   0  0  0  0  0  0  0  0  0  0  0  0
    5.7879   -4.4042   21.8971 H   0  0  0  0  0  0  0  0  0  0  0  0
    5.1588   -2.2785   17.7807 H   0  0  0  0  0  0  0  0  0  0  0  0
  1  3  1  0  0  0  0
  2  3  1  0  0  0  0
  2  4  1  0  0  0  0
  3  5  1  0  0  0  0
  1  6  1  0  0  0  0
  1  7  1  0  0  0  0
  1  8  1  0  0  0  0
  2  9  1  0  0  0  0
  2 10  1  0  0  0  0
  3 11  1  0  0  0  0
  4 12  1  0  0  0  0
  5 13  1  0  0  0  0
M  END
> <Hybrid2>
-4.206204

> <docked_fragment>
x0397

> <Mpro-_dock>
0.898981

> <site>
active-noncovalent

$$$$
CHEMBL2106398
  -OEChem-04122014263D

 14 13  0     0  0  0  0  0  0999 V2000
   14.2862   -2.0105   23.8857 C   0  0  0  0  0  0  0  0  0  0  0  0
   13.4790   -1.1950   21.6525 C   0  0  0  0  0  0  0  0  0  0  0  0
   13.2049    0.2468   23.6896 C   0  0  0  0  0  0  0  0  0  0  0  0
   14.0862   -0.7877   22.9932 C   0  0  0  0  0  0  0  0  0  0  0  0
   13.3331   -2.5034   24.1064 H   0  0  0  0  0  0  0  0  0  0  0  0
   14.9413   -2.7421   23.4013 H   0  0  0  0  0  0  0  0  0  0  0  0
   14.7484   -1.7259   24.8368 H   0  0  0  0  0  0  0  0  0  0  0  0
   12.4937   -1.6554   21.7847 H   0  0  0  0  0  0  0  0  0  0  0  0
   14.1228   -1.9154   21.1371 H   0  0  0  0  0  0  0  0  0  0  0  0
   13.3608   -0.3242   20.9990 H   0  0  0  0  0  0  0  0  0  0  0  0
   12.2089   -0.1564   23.9024 H   0  0  0  0  0  0  0  0  0  0  0  0
   13.0833    1.1377   23.0643 H   0  0  0  0  0  0  0  0  0  0  0  0
   13.6520    0.5626   24.6382 H   0  0  0  0  0  0  0  0  0  0  0  0
   15.0669   -0.3344   22.8043 H   0  0  0  0  0  0  0  0  0  0  0  0
  1  4  1  0  0  0  0
  2  4  1  0  0  0  0
  3  4  1  0  0  0  0
  1  5  1  0  0  0  0
  1  6  1  0  0  0  0
  1  7  1  0  0  0  0
  2  8  1  0  0  0  0
  2  9  1  0  0  0  0
  2 10  1  0  0  0  0
  3 11  1  0  0  0  0
  3 12  1  0  0  0  0
  3 13  1  0  0  0  0
  4 14  1  0  0  0  0
M  END
> <Hybrid2>
-4.128804

> <docked_fragment>
x0678

> <Mpro-_dock>
1.182751

> <site>
active-noncovalent

$$$$
DB03399
  -OEChem-04122014263D

 11 10  0     0  0  0  0  0  0999 V2000
   13.5707    1.3124   22.7455 C   0  0  0  0  0  0  0  0  0  0  0  0
   14.0225   -2.1852   22.9203 C   0  0  0  0  0  0  0  0  0  0  0  0
   13.7255   -1.0545   21.9951 C   0  0  0  0  0  0  0  0  0  0  0  0
   14.2856    0.1754   22.4830 N   0  0  0  0  0  0  0  0  0  0  0  0
   12.9922    2.1846   22.9419 H   0  0  0  0  0  0  0  0  0  0  0  0
   13.5968   -1.9701   23.9115 H   0  0  0  0  0  0  0  0  0  0  0  0
   13.5783   -3.1100   22.5234 H   0  0  0  0  0  0  0  0  0  0  0  0
   15.1118   -2.3102   23.0085 H   0  0  0  0  0  0  0  0  0  0  0  0
   14.1542   -1.2772   21.0069 H   0  0  0  0  0  0  0  0  0  0  0  0
   12.6350   -0.9415   21.9048 H   0  0  0  0  0  0  0  0  0  0  0  0
   15.3041    0.2958   22.2797 H   0  0  0  0  0  0  0  0  0  0  0  0
  1  4  3  0  0  0  0
  2  3  1  0  0  0  0
  3  4  1  0  0  0  0
  1  5  1  0  0  0  0
  2  6  1  0  0  0  0
  2  7  1  0  0  0  0
  2  8  1  0  0  0  0
  3  9  1  0  0  0  0
  3 10  1  0  0  0  0
  4 11  1  0  0  0  0
M  END
> <Hybrid2>
-4.035406

> <docked_fragment>
x0195

> <Mpro-_dock>
0.951137

> <site>
active-noncovalent

$$$$
DB02736
  -OEChem-04122014263D

  9  8  0     0  0  0  0  0  0999 V2000
    6.2393   -2.5257   19.0202 C   0  0  0  0  0  0  0  0  0  0  0  0
    7.4475   -2.0002   19.7453 C   0  0  0  0  0  0  0  0  0  0  0  0
    6.0272   -1.9361   17.7964 N   0  0  0  0  0  0  0  0  0  0  0  0
    5.5309   -3.4129   19.4896 O   0  0  0  0  0  0  0  0  0  0  0  0
    7.1504   -1.1517   20.3678 H   0  0  0  0  0  0  0  0  0  0  0  0
    7.8552   -2.7928   20.3787 H   0  0  0  0  0  0  0  0  0  0  0  0
    8.2243   -1.6657   19.0524 H   0  0  0  0  0  0  0  0  0  0  0  0
    5.2311   -2.2355   17.2431 H   0  0  0  0  0  0  0  0  0  0  0  0
    6.6350   -1.2136   17.4242 H   0  0  0  0  0  0  0  0  0  0  0  0
  1  2  1  0  0  0  0
  1  3  1  0  0  0  0
  1  4  2  0  0  0  0
  2  5  1  0  0  0  0
  2  6  1  0  0  0  0
  2  7  1  0  0  0  0
  3  8  1  0  0  0  0
  3  9  1  0  0  0  0
M  END
> <Hybrid2>
-4.006875

> <docked_fragment>
x0397

> <Mpro-_dock>
-1.19133

> <site>
active-noncovalent

$$$$
DB03900
  -OEChem-04122014263D

 15 14  0     0  0  0  0  0  0999 V2000
   11.8791   -2.2901   22.6141 C   0  0  0  0  0  0  0  0  0  0  0  0
   13.8910   -1.4378   21.3750 C   0  0  0  0  0  0  0  0  0  0  0  0
   12.7786    0.0098   23.0998 C   0  0  0  0  0  0  0  0  0  0  0  0
   12.5636   -1.0566   22.0269 C   0  0  0  0  0  0  0  0  0  0  0  0
   11.7241   -0.5131   21.0074 O   0  0  0  0  0  0  0  0  0  0  0  0
   10.9259   -2.0206   23.0829 H   0  0  0  0  0  0  0  0  0  0  0  0
   11.6876   -3.0483   21.8478 H   0  0  0  0  0  0  0  0  0  0  0  0
   12.4942   -2.7411   23.4012 H   0  0  0  0  0  0  0  0  0  0  0  0
   14.3856   -0.5558   20.9523 H   0  0  0  0  0  0  0  0  0  0  0  0
   13.7315   -2.1314   20.5415 H   0  0  0  0  0  0  0  0  0  0  0  0
   14.5727   -1.9076   22.0914 H   0  0  0  0  0  0  0  0  0  0  0  0
   13.2696    0.8947   22.6789 H   0  0  0  0  0  0  0  0  0  0  0  0
   11.8323    0.3225   23.5530 H   0  0  0  0  0  0  0  0  0  0  0  0
   13.4381   -0.3621   23.8923 H   0  0  0  0  0  0  0  0  0  0  0  0
   10.8869   -0.2821   21.4371 H   0  0  0  0  0  0  0  0  0  0  0  0
  1  4  1  0  0  0  0
  2  4  1  0  0  0  0
  3  4  1  0  0  0  0
  4  5  1  0  0  0  0
  1  6  1  0  0  0  0
  1  7  1  0  0  0  0
  1  8  1  0  0  0  0
  2  9  1  0  0  0  0
  2 10  1  0  0  0  0
  2 11  1  0  0  0  0
  3 12  1  0  0  0  0
  3 13  1  0  0  0  0
  3 14  1  0  0  0  0
  5 15  1  0  0  0  0
M  END
> <Hybrid2>
-4.002501

> <docked_fragment>
x0678

> <Mpro-_dock>
1.282088

> <site>
active-noncovalent

$$$$
CHEMBL14253
  -OEChem-04122014263D

 10  9  0     0  0  0  0  0  0999 V2000
   13.4568   -1.4008   22.5464 C   0  0  0  0  0  0  0  0  0  0  0  0
   13.9984   -0.1587   23.2007 C   0  0  0  0  0  0  0  0  0  0  0  0
   12.0675   -1.8229   22.9413 C   0  0  0  0  0  0  0  0  0  0  0  0
   14.1166   -2.0385   21.7273 O   0  0  0  0  0  0  0  0  0  0  0  0
   14.5206   -0.4282   24.1221 H   0  0  0  0  0  0  0  0  0  0  0  0
   14.6808    0.3489   22.5147 H   0  0  0  0  0  0  0  0  0  0  0  0
   13.1752    0.5180   23.4459 H   0  0  0  0  0  0  0  0  0  0  0  0
   11.3367   -1.3547   22.2761 H   0  0  0  0  0  0  0  0  0  0  0  0
   11.8660   -1.5052   23.9673 H   0  0  0  0  0  0  0  0  0  0  0  0
   11.9769   -2.9086   22.8578 H   0  0  0  0  0  0  0  0  0  0  0  0
  1  2  1  0  0  0  0
  1  3  1  0  0  0  0
  1  4  2  0  0  0  0
  2  5  1  0  0  0  0
  2  6  1  0  0  0  0
  2  7  1  0  0  0  0
  3  8  1  0  0  0  0
  3  9  1  0  0  0  0
  3 10  1  0  0  0  0
M  END
> <Hybrid2>
-3.926156

> <docked_fragment>
x0195

> <Mpro-_dock>
0.770575

> <site>
active-noncovalent

$$$$
CHEMBL734
  -OEChem-04122014263D

 10  9  0     0  0  0  0  0  0999 V2000
    6.6586   -1.6940   18.8733 C   0  0  0  0  0  0  0  0  0  0  0  0
    7.5506   -2.3436   19.8969 C   0  0  0  0  0  0  0  0  0  0  0  0
    6.6614   -0.3260   18.9501 N   0  0  0  0  0  0  0  0  0  0  0  0
    6.0046   -2.3633   18.0763 O   0  0  0  0  0  0  0  0  0  0  0  0
    5.8393    0.3373   18.0290 O   0  0  0  0  0  0  0  0  0  0  0  0
    6.9717   -2.5331   20.8048 H   0  0  0  0  0  0  0  0  0  0  0  0
    7.9242   -3.2906   19.4970 H   0  0  0  0  0  0  0  0  0  0  0  0
    8.4076   -1.7123   20.1480 H   0  0  0  0  0  0  0  0  0  0  0  0
    7.2225    0.1747   19.6300 H   0  0  0  0  0  0  0  0  0  0  0  0
    6.0095    1.2617   18.2768 H   0  0  0  0  0  0  0  0  0  0  0  0
  1  2  1  0  0  0  0
  1  3  1  0  0  0  0
  1  4  2  0  0  0  0
  3  5  1  0  0  0  0
  2  6  1  0  0  0  0
  2  7  1  0  0  0  0
  2  8  1  0  0  0  0
  3  9  1  0  0  0  0
  5 10  1  0  0  0  0
M  END
> <Hybrid2>
-3.917711

> <docked_fragment>
x0397

> <Mpro-_dock>
-0.655312

> <site>
active-noncovalent

$$$$
DB03175
  -OEChem-04122014263D

 12 11  0     0  0  0  0  0  0999 V2000
   13.0306    0.6000   23.0673 C   0  0  0  0  0  0  0  0  0  0  0  0
   13.3881   -0.7606   22.4967 C   0  0  0  0  0  0  0  0  0  0  0  0
   12.2486   -1.7561   22.6512 C   0  0  0  0  0  0  0  0  0  0  0  0
   11.1135   -1.2676   21.9499 O   0  0  0  0  0  0  0  0  0  0  0  0
   12.1360    1.0051   22.5837 H   0  0  0  0  0  0  0  0  0  0  0  0
   12.8302    0.5210   24.1404 H   0  0  0  0  0  0  0  0  0  0  0  0
   13.8500    1.3120   22.9263 H   0  0  0  0  0  0  0  0  0  0  0  0
   14.2855   -1.1485   22.9934 H   0  0  0  0  0  0  0  0  0  0  0  0
   13.6498   -0.6627   21.4362 H   0  0  0  0  0  0  0  0  0  0  0  0
   12.5221   -2.7311   22.2352 H   0  0  0  0  0  0  0  0  0  0  0  0
   11.9796   -1.8816   23.7049 H   0  0  0  0  0  0  0  0  0  0  0  0
   10.8854   -0.4114   22.3471 H   0  0  0  0  0  0  0  0  0  0  0  0
  1  2  1  0  0  0  0
  2  3  1  0  0  0  0
  3  4  1  0  0  0  0
  1  5  1  0  0  0  0
  1  6  1  0  0  0  0
  1  7  1  0  0  0  0
  2  8  1  0  0  0  0
  2  9  1  0  0  0  0
  3 10  1  0  0  0  0
  3 11  1  0  0  0  0
  4 12  1  0  0  0  0
M  END
> <Hybrid2>
-3.764220

> <docked_fragment>
x1093

> <Mpro-_dock>
0.512865

> <site>
active-noncovalent

$$$$
CHEMBL582
  -OEChem-04122014263D

 12 11  0     0  0  0  0  0  0999 V2000
    7.0773   -3.1613   20.6744 C   0  0  0  0  0  0  0  0  0  0  0  0
    7.3651   -1.6787   18.6568 C   0  0  0  0  0  0  0  0  0  0  0  0
    6.3800   -2.2865   19.6437 C   0  0  0  0  0  0  0  0  0  0  0  0
    5.4264   -3.0697   18.9323 O   0  0  0  0  0  0  0  0  0  0  0  0
    7.6344   -3.9722   20.1954 H   0  0  0  0  0  0  0  0  0  0  0  0
    7.7736   -2.5639   21.2727 H   0  0  0  0  0  0  0  0  0  0  0  0
    6.3560   -3.5975   21.3743 H   0  0  0  0  0  0  0  0  0  0  0  0
    7.9292   -2.4542   18.1297 H   0  0  0  0  0  0  0  0  0  0  0  0
    8.0723   -1.0247   19.1781 H   0  0  0  0  0  0  0  0  0  0  0  0
    6.8488   -1.0571   17.9169 H   0  0  0  0  0  0  0  0  0  0  0  0
    5.8328   -1.4868   20.1534 H   0  0  0  0  0  0  0  0  0  0  0  0
    5.9206   -3.7857   18.5034 H   0  0  0  0  0  0  0  0  0  0  0  0
  1  3  1  0  0  0  0
  2  3  1  0  0  0  0
  3  4  1  0  0  0  0
  1  5  1  0  0  0  0
  1  6  1  0  0  0  0
  1  7  1  0  0  0  0
  2  8  1  0  0  0  0
  2  9  1  0  0  0  0
  2 10  1  0  0  0  0
  3 11  1  0  0  0  0
  4 12  1  0  0  0  0
M  END
> <Hybrid2>
-3.556877

> <docked_fragment>
x0397

> <Mpro-_dock>
0.779788

> <site>
active-noncovalent

$$$$
CHEMBL1796999
  -OEChem-04122014263D

  9  9  0     0  0  0  0  0  0999 V2000
   13.4339   -0.7569   23.7232 C   0  0  0  0  0  0  0  0  0  0  0  0
   13.9695   -1.7768   22.7615 C   0  0  0  0  0  0  0  0  0  0  0  0
   14.3386   -1.8487   24.2143 C   0  0  0  0  0  0  0  0  0  0  0  0
   13.8363    0.2471   23.6712 H   0  0  0  0  0  0  0  0  0  0  0  0
   12.3856   -0.8134   23.9873 H   0  0  0  0  0  0  0  0  0  0  0  0
   13.2815   -2.5199   22.3783 H   0  0  0  0  0  0  0  0  0  0  0  0
   14.7325   -1.4599   22.0617 H   0  0  0  0  0  0  0  0  0  0  0  0
   15.3498   -1.5798   24.4925 H   0  0  0  0  0  0  0  0  0  0  0  0
   13.8986   -2.6397   24.8085 H   0  0  0  0  0  0  0  0  0  0  0  0
  1  2  1  0  0  0  0
  1  3  1  0  0  0  0
  2  3  1  0  0  0  0
  1  4  1  0  0  0  0
  1  5  1  0  0  0  0
  2  6  1  0  0  0  0
  2  7  1  0  0  0  0
  3  8  1  0  0  0  0
  3  9  1  0  0  0  0
M  END
> <Hybrid2>
-3.414681

> <docked_fragment>
x0678

> <Mpro-_dock>
0.868822

> <site>
active-noncovalent

$$$$
CHEMBL135416
  -OEChem-04122014263D

 11 10  0     0  0  0  0  0  0999 V2000
   14.3424   -1.0305   24.2501 C   0  0  0  0  0  0  0  0  0  0  0  0
   13.1858   -1.2980   22.0502 C   0  0  0  0  0  0  0  0  0  0  0  0
   13.8790   -1.9997   23.1754 C   0  0  0  0  0  0  0  0  0  0  0  0
   13.4981   -0.4678   24.6611 H   0  0  0  0  0  0  0  0  0  0  0  0
   14.8239   -1.5627   25.0769 H   0  0  0  0  0  0  0  0  0  0  0  0
   15.0614   -0.3167   23.8367 H   0  0  0  0  0  0  0  0  0  0  0  0
   12.3198   -0.7452   22.4329 H   0  0  0  0  0  0  0  0  0  0  0  0
   12.8276   -2.0170   21.3058 H   0  0  0  0  0  0  0  0  0  0  0  0
   13.8585   -0.5824   21.5658 H   0  0  0  0  0  0  0  0  0  0  0  0
   14.7420   -2.5485   22.7822 H   0  0  0  0  0  0  0  0  0  0  0  0
   13.1977   -2.7355   23.6169 H   0  0  0  0  0  0  0  0  0  0  0  0
  1  3  1  0  0  0  0
  2  3  1  0  0  0  0
  1  4  1  0  0  0  0
  1  5  1  0  0  0  0
  1  6  1  0  0  0  0
  2  7  1  0  0  0  0
  2  8  1  0  0  0  0
  2  9  1  0  0  0  0
  3 10  1  0  0  0  0
  3 11  1  0  0  0  0
M  END
> <Hybrid2>
-3.385703

> <docked_fragment>
x0678

> <Mpro-_dock>
0.883037

> <site>
active-noncovalent

$$$$
CHEMBL46058
  -OEChem-04122014263D

  8  7  0     0  0  0  0  0  0999 V2000
   13.2612    1.1557   23.0654 C   0  0  0  0  0  0  0  0  0  0  0  0
   14.1423    0.1679   22.3301 C   0  0  0  0  0  0  0  0  0  0  0  0
   13.8438   -1.4847   22.9101 Cl  0  0  0  0  0  0  0  0  0  0  0  0
   12.2063    0.9177   22.8972 H   0  0  0  0  0  0  0  0  0  0  0  0
   13.4456    1.1248   24.1443 H   0  0  0  0  0  0  0  0  0  0  0  0
   13.4354    2.1788   22.7163 H   0  0  0  0  0  0  0  0  0  0  0  0
   15.1997    0.3961   22.4910 H   0  0  0  0  0  0  0  0  0  0  0  0
   13.9386    0.1905   21.2559 H   0  0  0  0  0  0  0  0  0  0  0  0
  1  2  1  0  0  0  0
  2  3  1  0  0  0  0
  1  4  1  0  0  0  0
  1  5  1  0  0  0  0
  1  6  1  0  0  0  0
  2  7  1  0  0  0  0
  2  8  1  0  0  0  0
M  END
> <Hybrid2>
-3.365533

> <docked_fragment>
x0195

> <Mpro-_dock>
0.820583

> <site>
active-noncovalent

$$$$
DB04337
  -OEChem-04122014263D

  8  7  0     0  0  0  0  0  0999 V2000
   13.7169    0.6494   22.6531 C   0  0  0  0  0  0  0  0  0  0  0  0
   14.0013   -1.8154   22.8362 C   0  0  0  0  0  0  0  0  0  0  0  0
   14.3468   -0.4840   22.2949 N   0  0  0  0  0  0  0  0  0  0  0  0
   13.2181    1.5465   22.9365 H   0  0  0  0  0  0  0  0  0  0  0  0
   14.8347   -2.1902   23.4487 H   0  0  0  0  0  0  0  0  0  0  0  0
   13.0971   -1.7351   23.4574 H   0  0  0  0  0  0  0  0  0  0  0  0
   13.8148   -2.5117   22.0054 H   0  0  0  0  0  0  0  0  0  0  0  0
   14.8185   -0.5448   21.3821 H   0  0  0  0  0  0  0  0  0  0  0  0
  1  3  3  0  0  0  0
  2  3  1  0  0  0  0
  1  4  1  0  0  0  0
  2  5  1  0  0  0  0
  2  6  1  0  0  0  0
  2  7  1  0  0  0  0
  3  8  1  0  0  0  0
M  END
> <Hybrid2>
-3.165311

> <docked_fragment>
x0195

> <Mpro-_dock>
0.780969

> <site>
active-noncovalent

$$$$
CHEMBL76101
  -OEChem-04122014263D

  7  6  0     0  0  0  0  0  0999 V2000
   13.9453   -1.2247   22.0029 C   0  0  0  0  0  0  0  0  0  0  0  0
   14.2874    0.2081   22.2730 C   0  0  0  0  0  0  0  0  0  0  0  0
   14.0924   -1.7602   20.9092 O   0  0  0  0  0  0  0  0  0  0  0  0
   13.5427   -1.7886   22.8612 H   0  0  0  0  0  0  0  0  0  0  0  0
   15.3267    0.2714   22.6035 H   0  0  0  0  0  0  0  0  0  0  0  0
   14.1577    0.8022   21.3651 H   0  0  0  0  0  0  0  0  0  0  0  0
   13.6287    0.5915   23.0556 H   0  0  0  0  0  0  0  0  0  0  0  0
  1  2  1  0  0  0  0
  1  3  2  0  0  0  0
  1  4  1  0  0  0  0
  2  5  1  0  0  0  0
  2  6  1  0  0  0  0
  2  7  1  0  0  0  0
M  END
> <Hybrid2>
-2.990915

> <docked_fragment>
x0195

> <Mpro-_dock>
-0.495351

> <site>
active-noncovalent

$$$$
CHEMBL1200453
  -OEChem-04122014263D

 69 68  0     0  0  0  0  0  0999 V2000
    2.8717   -8.2547   24.7952 C   0  0  0  0  0  0  0  0  0  0  0  0
    3.1969   -6.9349   24.1122 C   0  0  0  0  0  0  0  0  0  0  0  0
    4.6288   -6.4901   24.4126 C   0  0  0  0  0  0  0  0  0  0  0  0
    5.0112   -5.1703   23.7366 C   0  0  0  0  0  0  0  0  0  0  0  0
    6.4523   -4.7379   24.0161 C   0  0  0  0  0  0  0  0  0  0  0  0
    6.7717   -3.4038   23.3355 C   0  0  0  0  0  0  0  0  0  0  0  0
    8.2222   -2.9862   23.5881 C   0  0  0  0  0  0  0  0  0  0  0  0
    8.5749   -1.6216   22.9874 C   0  0  0  0  0  0  0  0  0  0  0  0
   10.0035   -1.1719   23.3048 C   0  0  0  0  0  0  0  0  0  0  0  0
   10.3368    0.2188   22.7548 C   0  0  0  0  0  0  0  0  0  0  0  0
   11.7393    0.7008   23.1328 C   0  0  0  0  0  0  0  0  0  0  0  0
   12.0321    2.0793   22.5335 C   0  0  0  0  0  0  0  0  0  0  0  0
   13.4488    2.5433   22.8798 C   0  0  0  0  0  0  0  0  0  0  0  0
   13.8255    3.8853   22.2431 C   0  0  0  0  0  0  0  0  0  0  0  0
   12.8930    5.0308   22.6458 C   0  0  0  0  0  0  0  0  0  0  0  0
   12.8663    5.2908   24.1559 C   0  0  0  0  0  0  0  0  0  0  0  0
   11.9943    6.4844   24.5552 C   0  0  0  0  0  0  0  0  0  0  0  0
   12.0272    6.7098   26.0690 C   0  0  0  0  0  0  0  0  0  0  0  0
   11.2441    7.9471   26.5192 C   0  0  0  0  0  0  0  0  0  0  0  0
    9.7631    7.9829   26.1273 C   0  0  0  0  0  0  0  0  0  0  0  0
    8.9373    6.8601   26.7631 C   0  0  0  0  0  0  0  0  0  0  0  0
    7.4660    6.9359   26.3701 C   0  0  0  0  0  0  0  0  0  0  0  0
    6.7463    5.8698   26.9723 O   0  0  0  0  0  0  0  0  0  0  0  0
    3.0021   -8.1777   25.8794 H   0  0  0  0  0  0  0  0  0  0  0  0
    1.8392   -8.5572   24.5933 H   0  0  0  0  0  0  0  0  0  0  0  0
    3.5345   -9.0446   24.4283 H   0  0  0  0  0  0  0  0  0  0  0  0
    3.0540   -7.0556   23.0330 H   0  0  0  0  0  0  0  0  0  0  0  0
    2.4892   -6.1702   24.4525 H   0  0  0  0  0  0  0  0  0  0  0  0
    4.7446   -6.3640   25.4964 H   0  0  0  0  0  0  0  0  0  0  0  0
    5.3321   -7.2756   24.1101 H   0  0  0  0  0  0  0  0  0  0  0  0
    4.3276   -4.3917   24.0974 H   0  0  0  0  0  0  0  0  0  0  0  0
    4.8524   -5.2523   22.6544 H   0  0  0  0  0  0  0  0  0  0  0  0
    7.1508   -5.5001   23.6533 H   0  0  0  0  0  0  0  0  0  0  0  0
    6.6047   -4.6440   25.0980 H   0  0  0  0  0  0  0  0  0  0  0  0
    6.0949   -2.6277   23.7129 H   0  0  0  0  0  0  0  0  0  0  0  0
    6.5901   -3.4993   22.2592 H   0  0  0  0  0  0  0  0  0  0  0  0
    8.9023   -3.7498   23.1912 H   0  0  0  0  0  0  0  0  0  0  0  0
    8.3985   -2.9389   24.6699 H   0  0  0  0  0  0  0  0  0  0  0  0
    8.4222   -1.6581   21.9028 H   0  0  0  0  0  0  0  0  0  0  0  0
    7.8691   -0.8813   23.3837 H   0  0  0  0  0  0  0  0  0  0  0  0
   10.7247   -1.8955   22.9083 H   0  0  0  0  0  0  0  0  0  0  0  0
   10.1395   -1.1502   24.3931 H   0  0  0  0  0  0  0  0  0  0  0  0
   10.2264    0.2190   21.6635 H   0  0  0  0  0  0  0  0  0  0  0  0
    9.5963    0.9272   23.1468 H   0  0  0  0  0  0  0  0  0  0  0  0
   11.8301    0.7492   24.2247 H   0  0  0  0  0  0  0  0  0  0  0  0
   12.4901   -0.0125   22.7747 H   0  0  0  0  0  0  0  0  0  0  0  0
   11.2972    2.7973   22.9137 H   0  0  0  0  0  0  0  0  0  0  0  0
   11.9144    2.0377   21.4439 H   0  0  0  0  0  0  0  0  0  0  0  0
   13.5632    2.6072   23.9687 H   0  0  0  0  0  0  0  0  0  0  0  0
   14.1653    1.7889   22.5311 H   0  0  0  0  0  0  0  0  0  0  0  0
   14.8497    4.1208   22.5532 H   0  0  0  0  0  0  0  0  0  0  0  0
   13.8398    3.7836   21.1512 H   0  0  0  0  0  0  0  0  0  0  0  0
   13.2176    5.9565   22.1577 H   0  0  0  0  0  0  0  0  0  0  0  0
   11.8763    4.8244   22.2903 H   0  0  0  0  0  0  0  0  0  0  0  0
   12.5236    4.3896   24.6787 H   0  0  0  0  0  0  0  0  0  0  0  0
   13.8961    5.4752   24.4866 H   0  0  0  0  0  0  0  0  0  0  0  0
   10.9628    6.3070   24.2358 H   0  0  0  0  0  0  0  0  0  0  0  0
   12.3477    7.3865   24.0417 H   0  0  0  0  0  0  0  0  0  0  0  0
   11.6530    5.8186   26.5859 H   0  0  0  0  0  0  0  0  0  0  0  0
   13.0691    6.8352   26.3905 H   0  0  0  0  0  0  0  0  0  0  0  0
   11.3234    8.0276   27.6106 H   0  0  0  0  0  0  0  0  0  0  0  0
   11.7309    8.8412   26.1096 H   0  0  0  0  0  0  0  0  0  0  0  0
    9.6618    7.9463   25.0366 H   0  0  0  0  0  0  0  0  0  0  0  0
    9.3588    8.9539   26.4390 H   0  0  0  0  0  0  0  0  0  0  0  0
    9.3279    5.8843   26.4556 H   0  0  0  0  0  0  0  0  0  0  0  0
    9.0250    6.9291   27.8540 H   0  0  0  0  0  0  0  0  0  0  0  0
    7.0239    7.8857   26.6882 H   0  0  0  0  0  0  0  0  0  0  0  0
    7.3645    6.8478   25.2838 H   0  0  0  0  0  0  0  0  0  0  0  0
    5.8208    5.9623   26.6929 H   0  0  0  0  0  0  0  0  0  0  0  0
  1  2  1  0  0  0  0
  2  3  1  0  0  0  0
  3  4  1  0  0  0  0
  4  5  1  0  0  0  0
  5  6  1  0  0  0  0
  6  7  1  0  0  0  0
  7  8  1  0  0  0  0
  8  9  1  0  0  0  0
  9 10  1  0  0  0  0
 10 11  1  0  0  0  0
 11 12  1  0  0  0  0
 12 13  1  0  0  0  0
 13 14  1  0  0  0  0
 14 15  1  0  0  0  0
 15 16  1  0  0  0  0
 16 17  1  0  0  0  0
 17 18  1  0  0  0  0
 18 19  1  0  0  0  0
 19 20  1  0  0  0  0
 20 21  1  0  0  0  0
 21 22  1  0  0  0  0
 22 23  1  0  0  0  0
  1 24  1  0  0  0  0
  1 25  1  0  0  0  0
  1 26  1  0  0  0  0
  2 27  1  0  0  0  0
  2 28  1  0  0  0  0
  3 29  1  0  0  0  0
  3 30  1  0  0  0  0
  4 31  1  0  0  0  0
  4 32  1  0  0  0  0
  5 33  1  0  0  0  0
  5 34  1  0  0  0  0
  6 35  1  0  0  0  0
  6 36  1  0  0  0  0
  7 37  1  0  0  0  0
  7 38  1  0  0  0  0
  8 39  1  0  0  0  0
  8 40  1  0  0  0  0
  9 41  1  0  0  0  0
  9 42  1  0  0  0  0
 10 43  1  0  0  0  0
 10 44  1  0  0  0  0
 11 45  1  0  0  0  0
 11 46  1  0  0  0  0
 12 47  1  0  0  0  0
 12 48  1  0  0  0  0
 13 49  1  0  0  0  0
 13 50  1  0  0  0  0
 14 51  1  0  0  0  0
 14 52  1  0  0  0  0
 15 53  1  0  0  0  0
 15 54  1  0  0  0  0
 16 55  1  0  0  0  0
 16 56  1  0  0  0  0
 17 57  1  0  0  0  0
 17 58  1  0  0  0  0
 18 59  1  0  0  0  0
 18 60  1  0  0  0  0
 19 61  1  0  0  0  0
 19 62  1  0  0  0  0
 20 63  1  0  0  0  0
 20 64  1  0  0  0  0
 21 65  1  0  0  0  0
 21 66  1  0  0  0  0
 22 67  1  0  0  0  0
 22 68  1  0  0  0  0
 23 69  1  0  0  0  0
M  END
> <Hybrid2>
-2.888496

> <docked_fragment>
x0395

> <Mpro-_dock>
9.926282

> <site>
active-noncovalent

$$$$
CHEMBL117822
  -OEChem-04122014263D

  6  5  0     0  0  0  0  0  0999 V2000
   14.0198   -1.7999   22.8895 C   0  0  0  0  0  0  0  0  0  0  0  0
   14.0184   -0.9145   23.8877 C   0  0  0  0  0  0  0  0  0  0  0  0
   13.0919   -2.2258   22.5252 H   0  0  0  0  0  0  0  0  0  0  0  0
   14.9489   -2.1096   22.4247 H   0  0  0  0  0  0  0  0  0  0  0  0
   14.9463   -0.4886   24.2520 H   0  0  0  0  0  0  0  0  0  0  0  0
   13.0894   -0.6049   24.3528 H   0  0  0  0  0  0  0  0  0  0  0  0
  1  2  2  0  0  0  0
  1  3  1  0  0  0  0
  1  4  1  0  0  0  0
  2  5  1  0  0  0  0
  2  6  1  0  0  0  0
M  END
> <Hybrid2>
-2.474019

> <docked_fragment>
x0678

> <Mpro-_dock>
-0.580447

> <site>
active-noncovalent

$$$$
CHEMBL1255
  -OEChem-04122014263D

  4  3  0     0  0  0  0  0  0999 V2000
    5.9495   -2.3441   -6.0359 C   0  0  0  0  0  0  0  0  0  0  0  0
    6.5136   -1.6611   -5.1903 O   0  0  0  0  0  0  0  0  0  0  0  0
    6.3316   -2.4392   -7.0649 H   0  0  0  0  0  0  0  0  0  0  0  0
    5.0262   -2.9043   -5.8186 H   0  0  0  0  0  0  0  0  0  0  0  0
  1  2  2  0  0  0  0
  1  3  1  0  0  0  0
  1  4  1  0  0  0  0
M  END
> <Hybrid2>
-2.257424

> <docked_fragment>
x1187

> <Mpro-_dock>
-0.669156

> <site>
dimer-interface

$$$$
DB00137
  -OEChem-04122014263D

 98 99  0     1  0  0  0  0  0999 V2000
   12.8244   -1.1883   28.7643 C   0  0  0  0  0  0  0  0  0  0  0  0
   -3.8987  -10.4009   16.7829 C   0  0  0  0  0  0  0  0  0  0  0  0
   12.1156   -0.3547   27.9814 C   0  0  0  0  0  0  0  0  0  0  0  0
   -4.1332  -10.0788   15.4907 C   0  0  0  0  0  0  0  0  0  0  0  0
   -3.0867   -9.4853   17.6116 C   0  0  0  0  0  0  0  0  0  0  0  0
   -1.9938   -8.8541   17.1546 C   0  0  0  0  0  0  0  0  0  0  0  0
    3.1326   -5.7415   22.7964 C   0  0  0  0  0  0  0  0  0  0  0  0
    4.2627   -5.1902   22.3281 C   0  0  0  0  0  0  0  0  0  0  0  0
   -0.0226   -7.4942   20.1245 C   0  0  0  0  0  0  0  0  0  0  0  0
    6.8480   -2.2324   24.6099 C   0  0  0  0  0  0  0  0  0  0  0  0
    0.2477   -7.8168   21.4015 C   0  0  0  0  0  0  0  0  0  0  0  0
    7.2199   -3.0914   23.6474 C   0  0  0  0  0  0  0  0  0  0  0  0
    2.2199   -6.4981   21.9673 C   0  0  0  0  0  0  0  0  0  0  0  0
    5.1722   -4.4347   23.1604 C   0  0  0  0  0  0  0  0  0  0  0  0
   -0.8454   -8.2464   19.1955 C   0  0  0  0  0  0  0  0  0  0  0  0
    7.8058   -1.5194   25.4332 C   0  0  0  0  0  0  0  0  0  0  0  0
    8.6081    0.0330   27.2010 C   0  0  0  0  0  0  0  0  0  0  0  0
    9.7479   -0.5217   27.6458 C   0  0  0  0  0  0  0  0  0  0  0  0
   -1.1293   -7.9406   17.9107 C   0  0  0  0  0  0  0  0  0  0  0  0
    1.0690   -7.0822   22.3565 C   0  0  0  0  0  0  0  0  0  0  0  0
    6.3247   -3.8471   22.7810 C   0  0  0  0  0  0  0  0  0  0  0  0
    7.5639   -0.6360   26.4258 C   0  0  0  0  0  0  0  0  0  0  0  0
   -4.8515  -11.0242   14.5474 C   0  0  0  0  0  0  0  0  0  0  0  0
   10.9583   -1.2324   30.4925 C   0  0  0  0  0  0  0  0  0  0  0  0
   -5.3573  -12.4842   16.5258 C   0  0  0  0  0  0  0  0  0  0  0  0
   12.4004   -1.6141   30.1385 C   0  0  1  0  0  0  0  0  0  0  0  0
   10.7908    0.2311   28.4268 C   0  0  1  0  0  0  0  0  0  0  0  0
   -4.9726  -12.4594   15.0523 C   0  0  2  0  0  0  0  0  0  0  0  0
   -4.3864  -11.6916   17.4492 C   0  0  0  0  0  0  0  0  0  0  0  0
   10.5530    0.1623   29.9655 C   0  0  0  0  0  0  0  0  0  0  0  0
   12.6234    0.0659   26.6298 C   0  0  0  0  0  0  0  0  0  0  0  0
   -3.7418   -8.7837   14.8211 C   0  0  0  0  0  0  0  0  0  0  0  0
   -0.6285   -6.7139   17.1896 C   0  0  0  0  0  0  0  0  0  0  0  0
    0.5117   -7.1067   23.7543 C   0  0  0  0  0  0  0  0  0  0  0  0
    6.7385   -3.8431   21.3328 C   0  0  0  0  0  0  0  0  0  0  0  0
    6.1277   -0.3272   26.7805 C   0  0  0  0  0  0  0  0  0  0  0  0
   -5.1748  -11.3870   18.7455 C   0  0  0  0  0  0  0  0  0  0  0  0
   -3.1738  -12.5733   17.8205 C   0  0  0  0  0  0  0  0  0  0  0  0
   11.3933    1.2576   30.6650 C   0  0  0  0  0  0  0  0  0  0  0  0
    9.0762    0.4315   30.3204 C   0  0  0  0  0  0  0  0  0  0  0  0
   12.5441   -3.0289   30.2393 O   0  0  0  0  0  0  0  0  0  0  0  0
   -3.7515  -13.1608   14.8486 O   0  0  0  0  0  0  0  0  0  0  0  0
   13.7827   -1.5656   28.4151 H   0  0  0  0  0  0  0  0  0  0  0  0
   -3.4368   -9.3559   18.6306 H   0  0  0  0  0  0  0  0  0  0  0  0
   -1.7025   -9.0287   16.1188 H   0  0  0  0  0  0  0  0  0  0  0  0
    2.8714   -5.5913   23.8392 H   0  0  0  0  0  0  0  0  0  0  0  0
    4.5599   -5.3117   21.2900 H   0  0  0  0  0  0  0  0  0  0  0  0
    0.4478   -6.5882   19.7549 H   0  0  0  0  0  0  0  0  0  0  0  0
    5.7944   -2.0695   24.8009 H   0  0  0  0  0  0  0  0  0  0  0  0
   -0.2208   -8.7133   21.8056 H   0  0  0  0  0  0  0  0  0  0  0  0
    8.2784   -3.2886   23.4841 H   0  0  0  0  0  0  0  0  0  0  0  0
    2.5079   -6.5673   20.9180 H   0  0  0  0  0  0  0  0  0  0  0  0
    4.8734   -4.3903   24.2063 H   0  0  0  0  0  0  0  0  0  0  0  0
   -1.2647   -9.1664   19.5995 H   0  0  0  0  0  0  0  0  0  0  0  0
    8.8469   -1.7429   25.1984 H   0  0  0  0  0  0  0  0  0  0  0  0
    8.4554    1.0844   27.4277 H   0  0  0  0  0  0  0  0  0  0  0  0
    9.9763   -1.5655   27.4515 H   0  0  0  0  0  0  0  0  0  0  0  0
   -5.8651  -10.6501   14.3460 H   0  0  0  0  0  0  0  0  0  0  0  0
   -4.3350  -11.0117   13.5768 H   0  0  0  0  0  0  0  0  0  0  0  0
   10.2742   -1.9945   30.0927 H   0  0  0  0  0  0  0  0  0  0  0  0
   10.8329   -1.2864   31.5822 H   0  0  0  0  0  0  0  0  0  0  0  0
   -6.3932  -12.1172   16.6453 H   0  0  0  0  0  0  0  0  0  0  0  0
   -5.4115  -13.5407   16.8518 H   0  0  0  0  0  0  0  0  0  0  0  0
   13.0930   -1.1668   30.8614 H   0  0  0  0  0  0  0  0  0  0  0  0
   10.7539    1.2616   28.1102 H   0  0  0  0  0  0  0  0  0  0  0  0
   -5.7486  -12.9932   14.4535 H   0  0  0  0  0  0  0  0  0  0  0  0
   12.2719   -0.6371   25.8802 H   0  0  0  0  0  0  0  0  0  0  0  0
   13.7097    0.0782   26.6424 H   0  0  0  0  0  0  0  0  0  0  0  0
   12.2544    1.0621   26.4023 H   0  0  0  0  0  0  0  0  0  0  0  0
   -2.7490   -8.8912   14.3990 H   0  0  0  0  0  0  0  0  0  0  0  0
   -3.7491   -7.9887   15.5587 H   0  0  0  0  0  0  0  0  0  0  0  0
   -4.4580   -8.5612   14.0378 H   0  0  0  0  0  0  0  0  0  0  0  0
   -1.3274   -5.8800   17.3204 H   0  0  0  0  0  0  0  0  0  0  0  0
    0.3423   -6.3595   17.5413 H   0  0  0  0  0  0  0  0  0  0  0  0
   -0.5199   -6.9172   16.1184 H   0  0  0  0  0  0  0  0  0  0  0  0
    0.9044   -7.9671   24.3065 H   0  0  0  0  0  0  0  0  0  0  0  0
   -0.5778   -7.1706   23.7915 H   0  0  0  0  0  0  0  0  0  0  0  0
    0.7966   -6.1964   24.2943 H   0  0  0  0  0  0  0  0  0  0  0  0
    7.4048   -4.6854   21.1165 H   0  0  0  0  0  0  0  0  0  0  0  0
    5.8592   -3.9199   20.6836 H   0  0  0  0  0  0  0  0  0  0  0  0
    7.2691   -2.9252   21.0570 H   0  0  0  0  0  0  0  0  0  0  0  0
    5.7641   -1.0134   27.5533 H   0  0  0  0  0  0  0  0  0  0  0  0
    5.4830   -0.4103   25.8994 H   0  0  0  0  0  0  0  0  0  0  0  0
    6.0036    0.6887   27.1720 H   0  0  0  0  0  0  0  0  0  0  0  0
   -5.5006  -12.3213   19.1841 H   0  0  0  0  0  0  0  0  0  0  0  0
   -6.0315  -10.7739   18.4977 H   0  0  0  0  0  0  0  0  0  0  0  0
   -4.5264  -10.8596   19.4332 H   0  0  0  0  0  0  0  0  0  0  0  0
   -3.5329  -13.4797   18.2894 H   0  0  0  0  0  0  0  0  0  0  0  0
   -2.5412  -12.0247   18.5056 H   0  0  0  0  0  0  0  0  0  0  0  0
   -2.6272  -12.8117   16.9178 H   0  0  0  0  0  0  0  0  0  0  0  0
   11.0925    2.2224   30.2809 H   0  0  0  0  0  0  0  0  0  0  0  0
   12.4384    1.0795   30.4534 H   0  0  0  0  0  0  0  0  0  0  0  0
   11.2123    1.2052   31.7296 H   0  0  0  0  0  0  0  0  0  0  0  0
    8.7973    1.4100   29.9488 H   0  0  0  0  0  0  0  0  0  0  0  0
    8.9609    0.3982   31.3969 H   0  0  0  0  0  0  0  0  0  0  0  0
    8.4586   -0.3292   29.8585 H   0  0  0  0  0  0  0  0  0  0  0  0
   12.2633   -3.2714   31.1351 H   0  0  0  0  0  0  0  0  0  0  0  0
   -3.5819  -13.1502   13.8936 H   0  0  0  0  0  0  0  0  0  0  0  0
  1  3  2  0  0  0  0
  1 26  1  0  0  0  0
  2  4  2  0  0  0  0
  2  5  1  0  0  0  0
  2 29  1  0  0  0  0
  3 27  1  0  0  0  0
  3 31  1  0  0  0  0
  4 23  1  0  0  0  0
  4 32  1  0  0  0  0
  5  6  2  0  0  0  0
  6 19  1  0  0  0  0
  7  8  2  0  0  0  0
  7 13  1  0  0  0  0
  8 14  1  0  0  0  0
  9 11  2  0  0  0  0
  9 15  1  0  0  0  0
 10 12  2  0  0  0  0
 10 16  1  0  0  0  0
 11 20  1  0  0  0  0
 12 21  1  0  0  0  0
 13 20  2  0  0  0  0
 14 21  2  0  0  0  0
 15 19  2  0  0  0  0
 16 22  2  0  0  0  0
 17 18  2  0  0  0  0
 17 22  1  0  0  0  0
 18 27  1  0  0  0  0
 19 33  1  0  0  0  0
 20 34  1  0  0  0  0
 21 35  1  0  0  0  0
 22 36  1  0  0  0  0
 23 28  1  0  0  0  0
 24 26  1  0  0  0  0
 24 30  1  0  0  0  0
 25 28  1  0  0  0  0
 25 29  1  0  0  0  0
 26 41  1  0  0  0  0
 27 30  1  0  0  0  0
 28 42  1  0  0  0  0
 29 37  1  0  0  0  0
 29 38  1  0  0  0  0
 30 39  1  0  0  0  0
 30 40  1  0  0  0  0
  1 43  1  0  0  0  0
  5 44  1  0  0  0  0
  6 45  1  0  0  0  0
  7 46  1  0  0  0  0
  8 47  1  0  0  0  0
  9 48  1  0  0  0  0
 10 49  1  0  0  0  0
 11 50  1  0  0  0  0
 12 51  1  0  0  0  0
 13 52  1  0  0  0  0
 14 53  1  0  0  0  0
 15 54  1  0  0  0  0
 16 55  1  0  0  0  0
 17 56  1  0  0  0  0
 18 57  1  0  0  0  0
 23 58  1  0  0  0  0
 23 59  1  0  0  0  0
 24 60  1  0  0  0  0
 24 61  1  0  0  0  0
 25 62  1  0  0  0  0
 25 63  1  0  0  0  0
 26 64  1  0  0  0  0
 27 65  1  0  0  0  0
 28 66  1  0  0  0  0
 31 67  1  0  0  0  0
 31 68  1  0  0  0  0
 31 69  1  0  0  0  0
 32 70  1  0  0  0  0
 32 71  1  0  0  0  0
 32 72  1  0  0  0  0
 33 73  1  0  0  0  0
 33 74  1  0  0  0  0
 33 75  1  0  0  0  0
 34 76  1  0  0  0  0
 34 77  1  0  0  0  0
 34 78  1  0  0  0  0
 35 79  1  0  0  0  0
 35 80  1  0  0  0  0
 35 81  1  0  0  0  0
 36 82  1  0  0  0  0
 36 83  1  0  0  0  0
 36 84  1  0  0  0  0
 37 85  1  0  0  0  0
 37 86  1  0  0  0  0
 37 87  1  0  0  0  0
 38 88  1  0  0  0  0
 38 89  1  0  0  0  0
 38 90  1  0  0  0  0
 39 91  1  0  0  0  0
 39 92  1  0  0  0  0
 39 93  1  0  0  0  0
 40 94  1  0  0  0  0
 40 95  1  0  0  0  0
 40 96  1  0  0  0  0
 41 97  1  0  0  0  0
 42 98  1  0  0  0  0
M  END
> <Hybrid2>
15.349792

> <docked_fragment>
x0786

> <Mpro-_dock>
32.073681

> <site>
active-covalent

$$$$
EDRUG706
  -OEChem-04122014263D

 96 97  0     0  0  0  0  0  0999 V2000
   12.6005   -9.6787   31.1479 C   0  0  0  0  0  0  0  0  0  0  0  0
    3.6106    2.3543   15.9474 C   0  0  0  0  0  0  0  0  0  0  0  0
   13.8115   -9.4572   31.7186 C   0  0  0  0  0  0  0  0  0  0  0  0
    4.1097    2.8704   14.7959 C   0  0  0  0  0  0  0  0  0  0  0  0
   12.0612   -8.8137   30.1117 C   0  0  0  0  0  0  0  0  0  0  0  0
    4.4609    1.7484   16.9585 C   0  0  0  0  0  0  0  0  0  0  0  0
   12.1826   -7.4771   30.1346 C   0  0  0  0  0  0  0  0  0  0  0  0
    5.5064    0.9604   16.6621 C   0  0  0  0  0  0  0  0  0  0  0  0
    7.5977   -4.2520   24.0044 C   0  0  0  0  0  0  0  0  0  0  0  0
    8.2434   -3.7339   22.9459 C   0  0  0  0  0  0  0  0  0  0  0  0
    9.7498   -5.9720   27.6099 C   0  0  0  0  0  0  0  0  0  0  0  0
    6.5844   -0.8996   19.8143 C   0  0  0  0  0  0  0  0  0  0  0  0
    8.5287   -6.3005   27.1513 C   0  0  0  0  0  0  0  0  0  0  0  0
    5.9500   -1.3885   20.8950 C   0  0  0  0  0  0  0  0  0  0  0  0
    8.2760   -4.9973   25.0482 C   0  0  0  0  0  0  0  0  0  0  0  0
    7.5651   -2.9901   21.9009 C   0  0  0  0  0  0  0  0  0  0  0  0
   10.4506   -6.7640   28.6039 C   0  0  0  0  0  0  0  0  0  0  0  0
    5.8858   -0.2172   18.7406 C   0  0  0  0  0  0  0  0  0  0  0  0
   11.6710   -6.5332   29.1348 C   0  0  0  0  0  0  0  0  0  0  0  0
    6.4135    0.3115   17.6153 C   0  0  0  0  0  0  0  0  0  0  0  0
    7.7487   -5.5652   26.1546 C   0  0  0  0  0  0  0  0  0  0  0  0
    6.5683   -2.0866   22.0232 C   0  0  0  0  0  0  0  0  0  0  0  0
   14.4083  -10.3936   32.7505 C   0  0  0  0  0  0  0  0  0  0  0  0
    3.2362    3.5639   13.7691 C   0  0  0  0  0  0  0  0  0  0  0  0
   13.7150  -11.7432   32.8595 C   0  0  0  0  0  0  0  0  0  0  0  0
    1.8416    3.9218   14.2599 C   0  0  0  0  0  0  0  0  0  0  0  0
   12.2087  -11.5563   32.8492 C   0  0  0  0  0  0  0  0  0  0  0  0
    1.2489    2.7594   15.0354 C   0  0  0  0  0  0  0  0  0  0  0  0
   11.7092  -10.8799   31.5434 C   0  0  0  0  0  0  0  0  0  0  0  0
    2.1001    2.3883   16.2804 C   0  0  0  0  0  0  0  0  0  0  0  0
   14.7279   -8.2904   31.4296 C   0  0  0  0  0  0  0  0  0  0  0  0
    5.5586    2.8425   14.3662 C   0  0  0  0  0  0  0  0  0  0  0  0
   12.5561   -5.3662   28.7736 C   0  0  0  0  0  0  0  0  0  0  0  0
    7.8796    0.2844   17.2610 C   0  0  0  0  0  0  0  0  0  0  0  0
    6.2607   -5.4384   26.3884 C   0  0  0  0  0  0  0  0  0  0  0  0
    6.0502   -1.7702   23.4076 C   0  0  0  0  0  0  0  0  0  0  0  0
   10.2453  -10.4554   31.8169 C   0  0  0  0  0  0  0  0  0  0  0  0
   11.7126  -11.9235   30.4027 C   0  0  0  0  0  0  0  0  0  0  0  0
    1.5769    1.0117   16.7590 C   0  0  0  0  0  0  0  0  0  0  0  0
    1.8402    3.4269   17.3957 C   0  0  0  0  0  0  0  0  0  0  0  0
   11.5468   -9.3271   29.3057 H   0  0  0  0  0  0  0  0  0  0  0  0
    4.1915    1.9786   17.9843 H   0  0  0  0  0  0  0  0  0  0  0  0
   12.7137   -7.0294   30.9751 H   0  0  0  0  0  0  0  0  0  0  0  0
    5.7185    0.7727   15.6093 H   0  0  0  0  0  0  0  0  0  0  0  0
    6.5251   -4.1110   24.0866 H   0  0  0  0  0  0  0  0  0  0  0  0
    9.3161   -3.8751   22.8637 H   0  0  0  0  0  0  0  0  0  0  0  0
   10.2458   -5.0851   27.2353 H   0  0  0  0  0  0  0  0  0  0  0  0
    7.6581   -1.0092   19.7238 H   0  0  0  0  0  0  0  0  0  0  0  0
    8.0707   -7.1986   27.5574 H   0  0  0  0  0  0  0  0  0  0  0  0
    4.8724   -1.2546   20.9410 H   0  0  0  0  0  0  0  0  0  0  0  0
    9.3509   -5.0974   24.8944 H   0  0  0  0  0  0  0  0  0  0  0  0
    7.9272   -3.2075   20.8955 H   0  0  0  0  0  0  0  0  0  0  0  0
    9.8989   -7.6421   28.9421 H   0  0  0  0  0  0  0  0  0  0  0  0
    4.8084   -0.1385   18.8911 H   0  0  0  0  0  0  0  0  0  0  0  0
   15.4653  -10.5506   32.4986 H   0  0  0  0  0  0  0  0  0  0  0  0
   14.3850   -9.9184   33.7393 H   0  0  0  0  0  0  0  0  0  0  0  0
    3.7501    4.4783   13.4451 H   0  0  0  0  0  0  0  0  0  0  0  0
    3.1314    2.9274   12.8815 H   0  0  0  0  0  0  0  0  0  0  0  0
   14.0198  -12.3809   32.0216 H   0  0  0  0  0  0  0  0  0  0  0  0
   14.0326  -12.2576   33.7738 H   0  0  0  0  0  0  0  0  0  0  0  0
    1.8946    4.8110   14.8988 H   0  0  0  0  0  0  0  0  0  0  0  0
    1.1995    4.1857   13.4117 H   0  0  0  0  0  0  0  0  0  0  0  0
   11.7354  -12.5414   32.9666 H   0  0  0  0  0  0  0  0  0  0  0  0
   11.9088  -10.9675   33.7255 H   0  0  0  0  0  0  0  0  0  0  0  0
    0.2298    3.0314   15.3447 H   0  0  0  0  0  0  0  0  0  0  0  0
    1.1445    1.8930   14.3698 H   0  0  0  0  0  0  0  0  0  0  0  0
   14.4905   -7.4803   32.1094 H   0  0  0  0  0  0  0  0  0  0  0  0
   14.5803   -7.9725   30.4036 H   0  0  0  0  0  0  0  0  0  0  0  0
   15.7553   -8.6070   31.5701 H   0  0  0  0  0  0  0  0  0  0  0  0
    5.7387    1.9384   13.7961 H   0  0  0  0  0  0  0  0  0  0  0  0
    6.1879    2.8590   15.2489 H   0  0  0  0  0  0  0  0  0  0  0  0
    5.7613    3.7155   13.7562 H   0  0  0  0  0  0  0  0  0  0  0  0
   13.2114   -5.6276   27.9350 H   0  0  0  0  0  0  0  0  0  0  0  0
   11.9500   -4.4987   28.4890 H   0  0  0  0  0  0  0  0  0  0  0  0
   13.2067   -5.0367   29.5860 H   0  0  0  0  0  0  0  0  0  0  0  0
    8.3855    1.1734   17.6541 H   0  0  0  0  0  0  0  0  0  0  0  0
    8.0105    0.2572   16.1734 H   0  0  0  0  0  0  0  0  0  0  0  0
    8.4147   -0.5796   17.6599 H   0  0  0  0  0  0  0  0  0  0  0  0
    6.0038   -4.5436   26.9667 H   0  0  0  0  0  0  0  0  0  0  0  0
    5.7230   -5.3673   25.4365 H   0  0  0  0  0  0  0  0  0  0  0  0
    5.8815   -6.2997   26.9492 H   0  0  0  0  0  0  0  0  0  0  0  0
    5.2241   -2.4264   23.7042 H   0  0  0  0  0  0  0  0  0  0  0  0
    6.8407   -1.8953   24.1558 H   0  0  0  0  0  0  0  0  0  0  0  0
    5.6731   -0.7426   23.4552 H   0  0  0  0  0  0  0  0  0  0  0  0
    9.6711  -11.3322   32.0878 H   0  0  0  0  0  0  0  0  0  0  0  0
    9.8372  -10.0071   30.9200 H   0  0  0  0  0  0  0  0  0  0  0  0
   10.2341   -9.7389   32.6283 H   0  0  0  0  0  0  0  0  0  0  0  0
   11.0865  -12.7570   30.6917 H   0  0  0  0  0  0  0  0  0  0  0  0
   12.7283  -12.2586   30.2408 H   0  0  0  0  0  0  0  0  0  0  0  0
   11.3252  -11.4595   29.5055 H   0  0  0  0  0  0  0  0  0  0  0  0
    0.5197    1.0950   16.9765 H   0  0  0  0  0  0  0  0  0  0  0  0
    2.1176    0.7223   17.6510 H   0  0  0  0  0  0  0  0  0  0  0  0
    1.7382    0.2835   15.9743 H   0  0  0  0  0  0  0  0  0  0  0  0
    0.7817    3.4406   17.6187 H   0  0  0  0  0  0  0  0  0  0  0  0
    2.1604    4.3996   17.0469 H   0  0  0  0  0  0  0  0  0  0  0  0
    2.4029    3.1418   18.2746 H   0  0  0  0  0  0  0  0  0  0  0  0
  1  3  2  0  0  0  0
  1  5  1  0  0  0  0
  1 29  1  0  0  0  0
  2  4  2  0  0  0  0
  2  6  1  0  0  0  0
  2 30  1  0  0  0  0
  3 23  1  0  0  0  0
  3 31  1  0  0  0  0
  4 24  1  0  0  0  0
  4 32  1  0  0  0  0
  5  7  2  0  0  0  0
  6  8  2  0  0  0  0
  7 19  1  0  0  0  0
  8 20  1  0  0  0  0
  9 10  2  0  0  0  0
  9 15  1  0  0  0  0
 10 16  1  0  0  0  0
 11 13  2  0  0  0  0
 11 17  1  0  0  0  0
 12 14  2  0  0  0  0
 12 18  1  0  0  0  0
 13 21  1  0  0  0  0
 14 22  1  0  0  0  0
 15 21  2  0  0  0  0
 16 22  2  0  0  0  0
 17 19  2  0  0  0  0
 18 20  2  0  0  0  0
 19 33  1  0  0  0  0
 20 34  1  0  0  0  0
 21 35  1  0  0  0  0
 22 36  1  0  0  0  0
 23 25  1  0  0  0  0
 24 26  1  0  0  0  0
 25 27  1  0  0  0  0
 26 28  1  0  0  0  0
 27 29  1  0  0  0  0
 28 30  1  0  0  0  0
 29 37  1  0  0  0  0
 29 38  1  0  0  0  0
 30 39  1  0  0  0  0
 30 40  1  0  0  0  0
  5 41  1  0  0  0  0
  6 42  1  0  0  0  0
  7 43  1  0  0  0  0
  8 44  1  0  0  0  0
  9 45  1  0  0  0  0
 10 46  1  0  0  0  0
 11 47  1  0  0  0  0
 12 48  1  0  0  0  0
 13 49  1  0  0  0  0
 14 50  1  0  0  0  0
 15 51  1  0  0  0  0
 16 52  1  0  0  0  0
 17 53  1  0  0  0  0
 18 54  1  0  0  0  0
 23 55  1  0  0  0  0
 23 56  1  0  0  0  0
 24 57  1  0  0  0  0
 24 58  1  0  0  0  0
 25 59  1  0  0  0  0
 25 60  1  0  0  0  0
 26 61  1  0  0  0  0
 26 62  1  0  0  0  0
 27 63  1  0  0  0  0
 27 64  1  0  0  0  0
 28 65  1  0  0  0  0
 28 66  1  0  0  0  0
 31 67  1  0  0  0  0
 31 68  1  0  0  0  0
 31 69  1  0  0  0  0
 32 70  1  0  0  0  0
 32 71  1  0  0  0  0
 32 72  1  0  0  0  0
 33 73  1  0  0  0  0
 33 74  1  0  0  0  0
 33 75  1  0  0  0  0
 34 76  1  0  0  0  0
 34 77  1  0  0  0  0
 34 78  1  0  0  0  0
 35 79  1  0  0  0  0
 35 80  1  0  0  0  0
 35 81  1  0  0  0  0
 36 82  1  0  0  0  0
 36 83  1  0  0  0  0
 36 84  1  0  0  0  0
 37 85  1  0  0  0  0
 37 86  1  0  0  0  0
 37 87  1  0  0  0  0
 38 88  1  0  0  0  0
 38 89  1  0  0  0  0
 38 90  1  0  0  0  0
 39 91  1  0  0  0  0
 39 92  1  0  0  0  0
 39 93  1  0  0  0  0
 40 94  1  0  0  0  0
 40 95  1  0  0  0  0
 40 96  1  0  0  0  0
M  END
> <Hybrid2>
21.152102

> <docked_fragment>
x1385

> <Mpro-_dock>
34.443378

> <site>
active-covalent

$$$$
CHEMBL1293
  -OEChem-04122014263D

 96 97  0     0  0  0  0  0  0999 V2000
   12.6005   -9.6787   31.1479 C   0  0  0  0  0  0  0  0  0  0  0  0
    3.6106    2.3543   15.9474 C   0  0  0  0  0  0  0  0  0  0  0  0
   13.8115   -9.4572   31.7186 C   0  0  0  0  0  0  0  0  0  0  0  0
    4.1097    2.8704   14.7959 C   0  0  0  0  0  0  0  0  0  0  0  0
   12.0612   -8.8137   30.1117 C   0  0  0  0  0  0  0  0  0  0  0  0
    4.4609    1.7484   16.9585 C   0  0  0  0  0  0  0  0  0  0  0  0
   12.1826   -7.4771   30.1346 C   0  0  0  0  0  0  0  0  0  0  0  0
    5.5064    0.9604   16.6621 C   0  0  0  0  0  0  0  0  0  0  0  0
    7.5977   -4.2520   24.0044 C   0  0  0  0  0  0  0  0  0  0  0  0
    8.2434   -3.7339   22.9459 C   0  0  0  0  0  0  0  0  0  0  0  0
    9.7498   -5.9720   27.6099 C   0  0  0  0  0  0  0  0  0  0  0  0
    6.5844   -0.8996   19.8143 C   0  0  0  0  0  0  0  0  0  0  0  0
    8.5287   -6.3005   27.1513 C   0  0  0  0  0  0  0  0  0  0  0  0
    5.9500   -1.3885   20.8950 C   0  0  0  0  0  0  0  0  0  0  0  0
    8.2760   -4.9973   25.0482 C   0  0  0  0  0  0  0  0  0  0  0  0
    7.5651   -2.9901   21.9009 C   0  0  0  0  0  0  0  0  0  0  0  0
   10.4506   -6.7640   28.6039 C   0  0  0  0  0  0  0  0  0  0  0  0
    5.8858   -0.2172   18.7406 C   0  0  0  0  0  0  0  0  0  0  0  0
   11.6710   -6.5332   29.1348 C   0  0  0  0  0  0  0  0  0  0  0  0
    6.4135    0.3115   17.6153 C   0  0  0  0  0  0  0  0  0  0  0  0
    7.7487   -5.5652   26.1546 C   0  0  0  0  0  0  0  0  0  0  0  0
    6.5683   -2.0866   22.0232 C   0  0  0  0  0  0  0  0  0  0  0  0
   14.4083  -10.3936   32.7505 C   0  0  0  0  0  0  0  0  0  0  0  0
    3.2362    3.5639   13.7691 C   0  0  0  0  0  0  0  0  0  0  0  0
   13.7150  -11.7432   32.8595 C   0  0  0  0  0  0  0  0  0  0  0  0
    1.8416    3.9218   14.2599 C   0  0  0  0  0  0  0  0  0  0  0  0
   12.2087  -11.5563   32.8492 C   0  0  0  0  0  0  0  0  0  0  0  0
    1.2489    2.7594   15.0354 C   0  0  0  0  0  0  0  0  0  0  0  0
   11.7092  -10.8799   31.5434 C   0  0  0  0  0  0  0  0  0  0  0  0
    2.1001    2.3883   16.2804 C   0  0  0  0  0  0  0  0  0  0  0  0
   14.7279   -8.2904   31.4296 C   0  0  0  0  0  0  0  0  0  0  0  0
    5.5586    2.8425   14.3662 C   0  0  0  0  0  0  0  0  0  0  0  0
   12.5561   -5.3662   28.7736 C   0  0  0  0  0  0  0  0  0  0  0  0
    7.8796    0.2844   17.2610 C   0  0  0  0  0  0  0  0  0  0  0  0
    6.2607   -5.4384   26.3884 C   0  0  0  0  0  0  0  0  0  0  0  0
    6.0502   -1.7702   23.4076 C   0  0  0  0  0  0  0  0  0  0  0  0
   10.2453  -10.4554   31.8169 C   0  0  0  0  0  0  0  0  0  0  0  0
   11.7126  -11.9235   30.4027 C   0  0  0  0  0  0  0  0  0  0  0  0
    1.5769    1.0117   16.7590 C   0  0  0  0  0  0  0  0  0  0  0  0
    1.8402    3.4269   17.3957 C   0  0  0  0  0  0  0  0  0  0  0  0
   11.5468   -9.3271   29.3057 H   0  0  0  0  0  0  0  0  0  0  0  0
    4.1915    1.9786   17.9843 H   0  0  0  0  0  0  0  0  0  0  0  0
   12.7137   -7.0294   30.9751 H   0  0  0  0  0  0  0  0  0  0  0  0
    5.7185    0.7727   15.6093 H   0  0  0  0  0  0  0  0  0  0  0  0
    6.5251   -4.1110   24.0866 H   0  0  0  0  0  0  0  0  0  0  0  0
    9.3161   -3.8751   22.8637 H   0  0  0  0  0  0  0  0  0  0  0  0
   10.2458   -5.0851   27.2353 H   0  0  0  0  0  0  0  0  0  0  0  0
    7.6581   -1.0092   19.7238 H   0  0  0  0  0  0  0  0  0  0  0  0
    8.0707   -7.1986   27.5574 H   0  0  0  0  0  0  0  0  0  0  0  0
    4.8724   -1.2546   20.9410 H   0  0  0  0  0  0  0  0  0  0  0  0
    9.3509   -5.0974   24.8944 H   0  0  0  0  0  0  0  0  0  0  0  0
    7.9272   -3.2075   20.8955 H   0  0  0  0  0  0  0  0  0  0  0  0
    9.8989   -7.6421   28.9421 H   0  0  0  0  0  0  0  0  0  0  0  0
    4.8084   -0.1385   18.8911 H   0  0  0  0  0  0  0  0  0  0  0  0
   15.4653  -10.5506   32.4986 H   0  0  0  0  0  0  0  0  0  0  0  0
   14.3850   -9.9184   33.7393 H   0  0  0  0  0  0  0  0  0  0  0  0
    3.7501    4.4783   13.4451 H   0  0  0  0  0  0  0  0  0  0  0  0
    3.1314    2.9274   12.8815 H   0  0  0  0  0  0  0  0  0  0  0  0
   14.0198  -12.3809   32.0216 H   0  0  0  0  0  0  0  0  0  0  0  0
   14.0326  -12.2576   33.7738 H   0  0  0  0  0  0  0  0  0  0  0  0
    1.8946    4.8110   14.8988 H   0  0  0  0  0  0  0  0  0  0  0  0
    1.1995    4.1857   13.4117 H   0  0  0  0  0  0  0  0  0  0  0  0
   11.7354  -12.5414   32.9666 H   0  0  0  0  0  0  0  0  0  0  0  0
   11.9088  -10.9675   33.7255 H   0  0  0  0  0  0  0  0  0  0  0  0
    0.2298    3.0314   15.3447 H   0  0  0  0  0  0  0  0  0  0  0  0
    1.1445    1.8930   14.3698 H   0  0  0  0  0  0  0  0  0  0  0  0
   14.4905   -7.4803   32.1094 H   0  0  0  0  0  0  0  0  0  0  0  0
   14.5803   -7.9725   30.4036 H   0  0  0  0  0  0  0  0  0  0  0  0
   15.7553   -8.6070   31.5701 H   0  0  0  0  0  0  0  0  0  0  0  0
    5.7387    1.9384   13.7961 H   0  0  0  0  0  0  0  0  0  0  0  0
    6.1879    2.8590   15.2489 H   0  0  0  0  0  0  0  0  0  0  0  0
    5.7613    3.7155   13.7562 H   0  0  0  0  0  0  0  0  0  0  0  0
   13.2114   -5.6276   27.9350 H   0  0  0  0  0  0  0  0  0  0  0  0
   11.9500   -4.4987   28.4890 H   0  0  0  0  0  0  0  0  0  0  0  0
   13.2067   -5.0367   29.5860 H   0  0  0  0  0  0  0  0  0  0  0  0
    8.3855    1.1734   17.6541 H   0  0  0  0  0  0  0  0  0  0  0  0
    8.0105    0.2572   16.1734 H   0  0  0  0  0  0  0  0  0  0  0  0
    8.4147   -0.5796   17.6599 H   0  0  0  0  0  0  0  0  0  0  0  0
    6.0038   -4.5436   26.9667 H   0  0  0  0  0  0  0  0  0  0  0  0
    5.7230   -5.3673   25.4365 H   0  0  0  0  0  0  0  0  0  0  0  0
    5.8815   -6.2997   26.9492 H   0  0  0  0  0  0  0  0  0  0  0  0
    5.2241   -2.4264   23.7042 H   0  0  0  0  0  0  0  0  0  0  0  0
    6.8407   -1.8953   24.1558 H   0  0  0  0  0  0  0  0  0  0  0  0
    5.6731   -0.7426   23.4552 H   0  0  0  0  0  0  0  0  0  0  0  0
    9.6711  -11.3322   32.0878 H   0  0  0  0  0  0  0  0  0  0  0  0
    9.8372  -10.0071   30.9200 H   0  0  0  0  0  0  0  0  0  0  0  0
   10.2341   -9.7389   32.6283 H   0  0  0  0  0  0  0  0  0  0  0  0
   11.0865  -12.7570   30.6917 H   0  0  0  0  0  0  0  0  0  0  0  0
   12.7283  -12.2586   30.2408 H   0  0  0  0  0  0  0  0  0  0  0  0
   11.3252  -11.4595   29.5055 H   0  0  0  0  0  0  0  0  0  0  0  0
    0.5197    1.0950   16.9765 H   0  0  0  0  0  0  0  0  0  0  0  0
    2.1176    0.7223   17.6510 H   0  0  0  0  0  0  0  0  0  0  0  0
    1.7382    0.2835   15.9743 H   0  0  0  0  0  0  0  0  0  0  0  0
    0.7817    3.4406   17.6187 H   0  0  0  0  0  0  0  0  0  0  0  0
    2.1604    4.3996   17.0469 H   0  0  0  0  0  0  0  0  0  0  0  0
    2.4029    3.1418   18.2746 H   0  0  0  0  0  0  0  0  0  0  0  0
  1  3  2  0  0  0  0
  1  5  1  0  0  0  0
  1 29  1  0  0  0  0
  2  4  2  0  0  0  0
  2  6  1  0  0  0  0
  2 30  1  0  0  0  0
  3 23  1  0  0  0  0
  3 31  1  0  0  0  0
  4 24  1  0  0  0  0
  4 32  1  0  0  0  0
  5  7  2  0  0  0  0
  6  8  2  0  0  0  0
  7 19  1  0  0  0  0
  8 20  1  0  0  0  0
  9 10  2  0  0  0  0
  9 15  1  0  0  0  0
 10 16  1  0  0  0  0
 11 13  2  0  0  0  0
 11 17  1  0  0  0  0
 12 14  2  0  0  0  0
 12 18  1  0  0  0  0
 13 21  1  0  0  0  0
 14 22  1  0  0  0  0
 15 21  2  0  0  0  0
 16 22  2  0  0  0  0
 17 19  2  0  0  0  0
 18 20  2  0  0  0  0
 19 33  1  0  0  0  0
 20 34  1  0  0  0  0
 21 35  1  0  0  0  0
 22 36  1  0  0  0  0
 23 25  1  0  0  0  0
 24 26  1  0  0  0  0
 25 27  1  0  0  0  0
 26 28  1  0  0  0  0
 27 29  1  0  0  0  0
 28 30  1  0  0  0  0
 29 37  1  0  0  0  0
 29 38  1  0  0  0  0
 30 39  1  0  0  0  0
 30 40  1  0  0  0  0
  5 41  1  0  0  0  0
  6 42  1  0  0  0  0
  7 43  1  0  0  0  0
  8 44  1  0  0  0  0
  9 45  1  0  0  0  0
 10 46  1  0  0  0  0
 11 47  1  0  0  0  0
 12 48  1  0  0  0  0
 13 49  1  0  0  0  0
 14 50  1  0  0  0  0
 15 51  1  0  0  0  0
 16 52  1  0  0  0  0
 17 53  1  0  0  0  0
 18 54  1  0  0  0  0
 23 55  1  0  0  0  0
 23 56  1  0  0  0  0
 24 57  1  0  0  0  0
 24 58  1  0  0  0  0
 25 59  1  0  0  0  0
 25 60  1  0  0  0  0
 26 61  1  0  0  0  0
 26 62  1  0  0  0  0
 27 63  1  0  0  0  0
 27 64  1  0  0  0  0
 28 65  1  0  0  0  0
 28 66  1  0  0  0  0
 31 67  1  0  0  0  0
 31 68  1  0  0  0  0
 31 69  1  0  0  0  0
 32 70  1  0  0  0  0
 32 71  1  0  0  0  0
 32 72  1  0  0  0  0
 33 73  1  0  0  0  0
 33 74  1  0  0  0  0
 33 75  1  0  0  0  0
 34 76  1  0  0  0  0
 34 77  1  0  0  0  0
 34 78  1  0  0  0  0
 35 79  1  0  0  0  0
 35 80  1  0  0  0  0
 35 81  1  0  0  0  0
 36 82  1  0  0  0  0
 36 83  1  0  0  0  0
 36 84  1  0  0  0  0
 37 85  1  0  0  0  0
 37 86  1  0  0  0  0
 37 87  1  0  0  0  0
 38 88  1  0  0  0  0
 38 89  1  0  0  0  0
 38 90  1  0  0  0  0
 39 91  1  0  0  0  0
 39 92  1  0  0  0  0
 39 93  1  0  0  0  0
 40 94  1  0  0  0  0
 40 95  1  0  0  0  0
 40 96  1  0  0  0  0
M  END
> <Hybrid2>
21.152102

> <docked_fragment>
x1385

> <Mpro-_dock>
34.443378

> <site>
active-covalent

$$$$
