CHR-SOS-1f3-2
 OpenBabel03242009303D

 52 54  0  0  0  0  0  0  0  0999 V2000
   10.3209   -5.3475   26.6780 C   0  0  0  0  0  0  0  0  0  0  0  0
   10.8912   -4.6737   25.5981 C   0  0  0  0  0  0  0  0  0  0  0  0
    8.9338   -5.4535   26.7802 C   0  0  0  0  0  0  0  0  0  0  0  0
    5.1520   -0.1013   19.5467 C   0  0  0  0  0  0  0  0  0  0  0  0
    8.6873   -4.2116   24.7226 C   0  0  0  0  0  0  0  0  0  0  0  0
    5.8349   -0.1743   18.3434 C   0  0  0  0  0  0  0  0  0  0  0  0
    7.8382   -0.5575   19.4008 C   0  0  0  0  0  0  0  0  0  0  0  0
    5.8799   -0.2694   20.7194 C   0  0  0  0  0  0  0  0  0  0  0  0
    7.2492   -0.5022   20.6538 C   0  0  0  0  0  0  0  0  0  0  0  0
   10.0744   -4.1057   24.6204 C   0  0  0  0  0  0  0  0  0  0  0  0
    8.1170   -4.8854   25.8026 C   0  0  0  0  0  0  0  0  0  0  0  0
    9.1939   -1.4446   21.9616 C   0  0  0  0  0  0  0  0  0  0  0  0
   12.7677    0.0571   24.6028 C   0  0  0  0  0  0  0  0  0  0  0  0
   11.5642   -0.3209   25.4626 C   0  0  0  0  0  0  0  0  0  0  0  0
   12.5175   -0.2121   23.1210 C   0  0  0  0  0  0  0  0  0  0  0  0
   11.1260   -1.7622   25.2119 C   0  0  0  0  0  0  0  0  0  0  0  0
   12.0758   -1.6539   22.8795 C   0  0  0  0  0  0  0  0  0  0  0  0
   10.8600   -2.0473   23.7275 C   0  0  0  0  0  0  0  0  0  0  0  0
    5.1692   -0.1949   22.0309 C   0  0  0  0  0  0  0  0  0  0  0  0
    7.1640   -0.3989   18.2398 N   0  0  0  0  0  0  0  0  0  0  0  0
    6.0096   -3.6134   26.8250 N   0  0  0  0  0  0  0  0  0  0  0  0
    8.0329   -0.6799   21.8177 N   0  0  0  0  0  0  0  0  0  0  0  0
    9.6712   -1.3613   23.2744 N   0  0  0  0  0  0  0  0  0  0  0  0
    9.7473   -2.1077   21.0877 O   0  0  0  0  0  0  0  0  0  0  0  0
    5.8113   -4.8922   24.5955 O   0  0  0  0  0  0  0  0  0  0  0  0
    6.0658   -6.1876   26.7414 O   0  0  0  0  0  0  0  0  0  0  0  0
   10.6339   -3.4435   23.5611 O   0  0  0  0  0  0  0  0  0  0  0  0
    6.3805   -5.0205   25.9295 S   0  0  0  0  0  0  0  0  0  0  0  0
   10.9568   -5.7894   27.4393 H   0  0  0  0  0  0  0  0  0  0  0  0
   11.9722   -4.5944   25.5242 H   0  0  0  0  0  0  0  0  0  0  0  0
    8.4999   -5.9815   27.6250 H   0  0  0  0  0  0  0  0  0  0  0  0
    4.0830    0.0820   19.5635 H   0  0  0  0  0  0  0  0  0  0  0  0
    8.0549   -3.7667   23.9580 H   0  0  0  0  0  0  0  0  0  0  0  0
    5.3130   -0.0499   17.4003 H   0  0  0  0  0  0  0  0  0  0  0  0
    8.9030   -0.7366   19.2844 H   0  0  0  0  0  0  0  0  0  0  0  0
   13.0088    1.1159   24.7498 H   0  0  0  0  0  0  0  0  0  0  0  0
   13.6426   -0.5171   24.9323 H   0  0  0  0  0  0  0  0  0  0  0  0
   11.8163   -0.1932   26.5215 H   0  0  0  0  0  0  0  0  0  0  0  0
   10.7334    0.3627   25.2508 H   0  0  0  0  0  0  0  0  0  0  0  0
   11.7576    0.4823   22.7442 H   0  0  0  0  0  0  0  0  0  0  0  0
   13.4341   -0.0116   22.5543 H   0  0  0  0  0  0  0  0  0  0  0  0
   11.9031   -2.4469   25.5785 H   0  0  0  0  0  0  0  0  0  0  0  0
   10.2355   -1.9957   25.8095 H   0  0  0  0  0  0  0  0  0  0  0  0
   11.8628   -1.8089   21.8141 H   0  0  0  0  0  0  0  0  0  0  0  0
   12.9099   -2.3324   23.1055 H   0  0  0  0  0  0  0  0  0  0  0  0
    4.8141   -1.1887   22.3274 H   0  0  0  0  0  0  0  0  0  0  0  0
    5.8292    0.1899   22.8180 H   0  0  0  0  0  0  0  0  0  0  0  0
    4.3079    0.4825   21.9769 H   0  0  0  0  0  0  0  0  0  0  0  0
    6.2713   -3.5914   27.8182 H   0  0  0  0  0  0  0  0  0  0  0  0
    6.0952   -2.7051   26.3529 H   0  0  0  0  0  0  0  0  0  0  0  0
    7.7086   -0.1895   22.6475 H   0  0  0  0  0  0  0  0  0  0  0  0
    9.1578   -0.7918   23.9405 H   0  0  0  0  0  0  0  0  0  0  0  0
  1  2  2  0  0  0  0
  1  3  1  0  0  0  0
  1 29  1  0  0  0  0
  2 10  1  0  0  0  0
  2 30  1  0  0  0  0
  3 11  2  0  0  0  0
  3 31  1  0  0  0  0
  4  6  2  0  0  0  0
  4  8  1  0  0  0  0
  4 32  1  0  0  0  0
  5 10  2  0  0  0  0
  5 11  1  0  0  0  0
  5 33  1  0  0  0  0
  6 20  1  0  0  0  0
  6 34  1  0  0  0  0
  7  9  1  0  0  0  0
  7 20  2  0  0  0  0
  7 35  1  0  0  0  0
  8  9  2  0  0  0  0
  8 19  1  0  0  0  0
  9 22  1  0  0  0  0
 10 27  1  0  0  0  0
 11 28  1  0  0  0  0
 12 22  1  0  0  0  0
 12 23  1  0  0  0  0
 12 24  2  0  0  0  0
 13 14  1  0  0  0  0
 13 15  1  0  0  0  0
 13 36  1  0  0  0  0
 13 37  1  0  0  0  0
 14 16  1  0  0  0  0
 14 38  1  0  0  0  0
 14 39  1  0  0  0  0
 15 17  1  0  0  0  0
 15 40  1  0  0  0  0
 15 41  1  0  0  0  0
 16 18  1  0  0  0  0
 16 42  1  0  0  0  0
 16 43  1  0  0  0  0
 17 18  1  0  0  0  0
 17 44  1  0  0  0  0
 17 45  1  0  0  0  0
 18 23  1  0  0  0  0
 18 27  1  0  0  0  0
 19 46  1  0  0  0  0
 19 47  1  0  0  0  0
 19 48  1  0  0  0  0
 21 28  1  0  0  0  0
 21 49  1  0  0  0  0
 21 50  1  0  0  0  0
 22 51  1  0  0  0  0
 23 52  1  0  0  0  0
 25 28  2  0  0  0  0
 26 28  2  0  0  0  0
M  END
>  <Chemgauss4 Score>
-6.29818344116211

>  <Number of Confs>
168

$$$$
