CHR-SOS-f7373dd1-4
  -OEChem-05192003313D

 41 43  0     0  0  0  0  0  0999 V2000
   14.1326   -1.7377   23.0101 C   0  0  0  0  0  0  0  0  0  0  0  0
   13.0980   -2.1701   22.1805 C   0  0  0  0  0  0  0  0  0  0  0  0
   13.8606   -0.8762   24.0729 C   0  0  0  0  0  0  0  0  0  0  0  0
    5.4859    0.1035   18.8514 C   0  0  0  0  0  0  0  0  0  0  0  0
   11.7914   -1.7410   22.4135 C   0  0  0  0  0  0  0  0  0  0  0  0
   12.5540   -0.4470   24.3060 C   0  0  0  0  0  0  0  0  0  0  0  0
    6.1263    0.2900   20.0714 C   0  0  0  0  0  0  0  0  0  0  0  0
    6.2687    0.0507   17.7094 C   0  0  0  0  0  0  0  0  0  0  0  0
    8.2026    0.3494   18.9132 C   0  0  0  0  0  0  0  0  0  0  0  0
   11.5194   -0.8794   23.4763 C   0  0  0  0  0  0  0  0  0  0  0  0
    7.5104    0.4164   20.1116 C   0  0  0  0  0  0  0  0  0  0  0  0
    9.5608    0.7496   21.5351 C   0  0  0  0  0  0  0  0  0  0  0  0
    9.0031   -2.4764   24.4275 C   0  0  0  0  0  0  0  0  0  0  0  0
    9.3615   -1.6912   25.6876 C   0  0  0  0  0  0  0  0  0  0  0  0
    9.0473   -1.4654   23.2826 C   0  0  0  0  0  0  0  0  0  0  0  0
    9.6657   -0.2691   25.2178 C   0  0  0  0  0  0  0  0  0  0  0  0
   10.0802   -0.4060   23.7335 C   0  0  0  0  0  0  0  0  0  0  0  0
    9.8592    0.9335   23.0109 C   0  0  0  0  0  0  0  0  0  0  0  0
    7.6154    0.1693   17.7088 N   0  0  0  0  0  0  0  0  0  0  0  0
    8.1903    0.6074   21.3379 N   0  0  0  0  0  0  0  0  0  0  0  0
   10.4421    0.7369   20.6821 O   0  0  0  0  0  0  0  0  0  0  0  0
   15.1497   -2.0731   22.8293 H   0  0  0  0  0  0  0  0  0  0  0  0
   13.3094   -2.8418   21.3536 H   0  0  0  0  0  0  0  0  0  0  0  0
   14.6656   -0.5402   24.7197 H   0  0  0  0  0  0  0  0  0  0  0  0
    4.4080    0.0025   18.7963 H   0  0  0  0  0  0  0  0  0  0  0  0
   10.9917   -2.0829   21.7618 H   0  0  0  0  0  0  0  0  0  0  0  0
   12.3515    0.2243   25.1363 H   0  0  0  0  0  0  0  0  0  0  0  0
    5.5377    0.3355   20.9839 H   0  0  0  0  0  0  0  0  0  0  0  0
    5.8172   -0.0924   16.7332 H   0  0  0  0  0  0  0  0  0  0  0  0
    9.2842    0.4410   18.8802 H   0  0  0  0  0  0  0  0  0  0  0  0
    9.6962   -3.3029   24.2535 H   0  0  0  0  0  0  0  0  0  0  0  0
    7.9997   -2.9011   24.5251 H   0  0  0  0  0  0  0  0  0  0  0  0
    8.5155   -1.6924   26.3812 H   0  0  0  0  0  0  0  0  0  0  0  0
   10.2167   -2.1282   26.2089 H   0  0  0  0  0  0  0  0  0  0  0  0
    9.3866   -1.9712   22.3744 H   0  0  0  0  0  0  0  0  0  0  0  0
    8.0655   -1.0382   23.0780 H   0  0  0  0  0  0  0  0  0  0  0  0
    8.8107    0.3972   25.3577 H   0  0  0  0  0  0  0  0  0  0  0  0
   10.4937    0.1326   25.8132 H   0  0  0  0  0  0  0  0  0  0  0  0
   10.7572    1.5456   23.1190 H   0  0  0  0  0  0  0  0  0  0  0  0
    9.0228    1.4551   23.4811 H   0  0  0  0  0  0  0  0  0  0  0  0
    7.5960    0.6432   22.1636 H   0  0  0  0  0  0  0  0  0  0  0  0
  1  2  1  0  0  0  0
  1  3  2  0  0  0  0
  2  5  2  0  0  0  0
  3  6  1  0  0  0  0
  4  7  2  0  0  0  0
  4  8  1  0  0  0  0
  5 10  1  0  0  0  0
  6 10  2  0  0  0  0
  7 11  1  0  0  0  0
  8 19  2  0  0  0  0
  9 11  2  0  0  0  0
  9 19  1  0  0  0  0
 10 17  1  0  0  0  0
 11 20  1  0  0  0  0
 12 18  1  0  0  0  0
 12 20  1  0  0  0  0
 12 21  2  0  0  0  0
 13 14  1  0  0  0  0
 13 15  1  0  0  0  0
 14 16  1  0  0  0  0
 15 17  1  0  0  0  0
 16 17  1  0  0  0  0
 17 18  1  0  0  0  0
  1 22  1  0  0  0  0
  2 23  1  0  0  0  0
  3 24  1  0  0  0  0
  4 25  1  0  0  0  0
  5 26  1  0  0  0  0
  6 27  1  0  0  0  0
  7 28  1  0  0  0  0
  8 29  1  0  0  0  0
  9 30  1  0  0  0  0
 13 31  1  0  0  0  0
 13 32  1  0  0  0  0
 14 33  1  0  0  0  0
 14 34  1  0  0  0  0
 15 35  1  0  0  0  0
 15 36  1  0  0  0  0
 16 37  1  0  0  0  0
 16 38  1  0  0  0  0
 18 39  1  0  0  0  0
 18 40  1  0  0  0  0
 20 41  1  0  0  0  0
M  END
> <IC50 (uM)>

> <IC50 (uM) - std>

> <Average Inhibition @ 20 uM>

> <Average Inhibition @ 20 uM - std>

> <Average Inhibition @ 50 uM>

> <Average Inhibition @ 50 uM - std>
26.9

> <Trypsin IC50 (uM)>
2.65

> <Relative Solubility @ 20 uM>

> <Relative Solubility @ 100 uM>

> <Hybrid2>
-11.737092

> <docked_fragment>
x0678

> <Mpro-_dock>
0.052361

> <site>
active-noncovalent

$$$$
PET-SGC-2e937068-1
  -OEChem-05192003313D

 38 39  0     0  0  0  0  0  0999 V2000
   14.7038   -1.6883   24.2143 C   0  0  0  0  0  0  0  0  0  0  0  0
   14.7434   -2.2011   22.9177 C   0  0  0  0  0  0  0  0  0  0  0  0
   13.8008   -0.6750   24.5362 C   0  0  0  0  0  0  0  0  0  0  0  0
   13.8801   -1.7007   21.9431 C   0  0  0  0  0  0  0  0  0  0  0  0
    5.2145    0.3364   18.8251 C   0  0  0  0  0  0  0  0  0  0  0  0
    6.0677    0.1480   17.7498 C   0  0  0  0  0  0  0  0  0  0  0  0
    7.8786    0.9149   18.9374 C   0  0  0  0  0  0  0  0  0  0  0  0
   12.9375   -0.1746   23.5616 C   0  0  0  0  0  0  0  0  0  0  0  0
    5.7536    0.8420   20.0028 C   0  0  0  0  0  0  0  0  0  0  0  0
    7.1102    1.1395   20.0683 C   0  0  0  0  0  0  0  0  0  0  0  0
   12.9771   -0.6874   22.2650 C   0  0  0  0  0  0  0  0  0  0  0  0
   11.9773    0.9046   23.9089 C   0  0  0  0  0  0  0  0  0  0  0  0
    9.0416    1.9757   21.3913 C   0  0  0  0  0  0  0  0  0  0  0  0
    4.8564    1.0557   21.1776 C   0  0  0  0  0  0  0  0  0  0  0  0
    9.2893    2.5002   22.8022 C   0  0  0  0  0  0  0  0  0  0  0  0
   10.7396    2.8827   23.0657 C   0  0  0  0  0  0  0  0  0  0  0  0
    7.3906    0.4252   17.7757 N   0  0  0  0  0  0  0  0  0  0  0  0
    7.6983    1.6489   21.2289 N   0  0  0  0  0  0  0  0  0  0  0  0
   11.6371    1.7742   22.8800 N   0  0  0  0  0  0  0  0  0  0  0  0
   11.5581    0.9869   25.0604 O   0  0  0  0  0  0  0  0  0  0  0  0
    9.9461    1.8732   20.5698 O   0  0  0  0  0  0  0  0  0  0  0  0
   12.1524   -0.2142   21.3196 F   0  0  0  0  0  0  0  0  0  0  0  0
   15.3761   -2.0777   24.9730 H   0  0  0  0  0  0  0  0  0  0  0  0
   15.4464   -2.9901   22.6671 H   0  0  0  0  0  0  0  0  0  0  0  0
   13.7790   -0.2834   25.5500 H   0  0  0  0  0  0  0  0  0  0  0  0
   13.9107   -2.0999   20.9336 H   0  0  0  0  0  0  0  0  0  0  0  0
    4.1605    0.0945   18.7412 H   0  0  0  0  0  0  0  0  0  0  0  0
    5.6966   -0.2438   16.8084 H   0  0  0  0  0  0  0  0  0  0  0  0
    8.9437    1.1271   18.9266 H   0  0  0  0  0  0  0  0  0  0  0  0
    4.8222    0.1530   21.7984 H   0  0  0  0  0  0  0  0  0  0  0  0
    5.2052    1.8922   21.7957 H   0  0  0  0  0  0  0  0  0  0  0  0
    3.8356    1.2990   20.8576 H   0  0  0  0  0  0  0  0  0  0  0  0
    8.9981    1.7072   23.5017 H   0  0  0  0  0  0  0  0  0  0  0  0
    8.6327    3.3616   22.9759 H   0  0  0  0  0  0  0  0  0  0  0  0
   10.8779    3.2538   24.0862 H   0  0  0  0  0  0  0  0  0  0  0  0
   11.0547    3.6659   22.3692 H   0  0  0  0  0  0  0  0  0  0  0  0
    7.0879    1.7946   22.0299 H   0  0  0  0  0  0  0  0  0  0  0  0
   12.0774    1.6757   21.9675 H   0  0  0  0  0  0  0  0  0  0  0  0
  1  2  1  0  0  0  0
  1  3  2  0  0  0  0
  2  4  2  0  0  0  0
  3  8  1  0  0  0  0
  4 11  1  0  0  0  0
  5  6  2  0  0  0  0
  5  9  1  0  0  0  0
  6 17  1  0  0  0  0
  7 10  1  0  0  0  0
  7 17  2  0  0  0  0
  8 11  2  0  0  0  0
  8 12  1  0  0  0  0
  9 10  2  0  0  0  0
  9 14  1  0  0  0  0
 10 18  1  0  0  0  0
 11 22  1  0  0  0  0
 12 19  1  0  0  0  0
 12 20  2  0  0  0  0
 13 15  1  0  0  0  0
 13 18  1  0  0  0  0
 13 21  2  0  0  0  0
 15 16  1  0  0  0  0
 16 19  1  0  0  0  0
  1 23  1  0  0  0  0
  2 24  1  0  0  0  0
  3 25  1  0  0  0  0
  4 26  1  0  0  0  0
  5 27  1  0  0  0  0
  6 28  1  0  0  0  0
  7 29  1  0  0  0  0
 14 30  1  0  0  0  0
 14 31  1  0  0  0  0
 14 32  1  0  0  0  0
 15 33  1  0  0  0  0
 15 34  1  0  0  0  0
 16 35  1  0  0  0  0
 16 36  1  0  0  0  0
 18 37  1  0  0  0  0
 19 38  1  0  0  0  0
M  END
> <IC50 (uM)>

> <IC50 (uM) - std>

> <Average Inhibition @ 20 uM>

> <Average Inhibition @ 20 uM - std>

> <Average Inhibition @ 50 uM>

> <Average Inhibition @ 50 uM - std>
15.4

> <Trypsin IC50 (uM)>
1.68

> <Relative Solubility @ 20 uM>

> <Relative Solubility @ 100 uM>

> <Hybrid2>
-11.340974

> <docked_fragment>
x0678

> <Mpro-_dock>
0.577023

> <site>
active-noncovalent

$$$$
DAR-DIA-842b4336-13
  -OEChem-05192003313D

 25 26  0     0  0  0  0  0  0999 V2000
    5.7065    1.1906   18.9682 C   0  0  0  0  0  0  0  0  0  0  0  0
    6.3896    0.9267   20.1502 C   0  0  0  0  0  0  0  0  0  0  0  0
   12.1924   -1.5808   22.1343 C   0  0  0  0  0  0  0  0  0  0  0  0
   13.4705   -1.9739   22.6263 C   0  0  0  0  0  0  0  0  0  0  0  0
    6.3537    0.9258   17.7721 C   0  0  0  0  0  0  0  0  0  0  0  0
    8.2396    0.1830   18.8537 C   0  0  0  0  0  0  0  0  0  0  0  0
    7.6808    0.4132   20.1005 C   0  0  0  0  0  0  0  0  0  0  0  0
   11.5063   -0.8021   23.0401 C   0  0  0  0  0  0  0  0  0  0  0  0
   13.7126   -1.4804   23.8896 C   0  0  0  0  0  0  0  0  0  0  0  0
    9.7806    0.1817   21.4725 C   0  0  0  0  0  0  0  0  0  0  0  0
   10.1363   -0.1911   22.9031 C   0  0  0  0  0  0  0  0  0  0  0  0
    7.6071    0.4270   17.6840 N   0  0  0  0  0  0  0  0  0  0  0  0
    8.3899    0.1391   21.2675 N   0  0  0  0  0  0  0  0  0  0  0  0
   10.6331    0.4729   20.6396 O   0  0  0  0  0  0  0  0  0  0  0  0
   12.4023   -0.5477   24.4771 S   0  0  0  0  0  0  0  0  0  0  0  0
   15.1114   -1.7037   24.8543 Cl  0  0  0  0  0  0  0  0  0  0  0  0
    4.6992    1.5910   18.9830 H   0  0  0  0  0  0  0  0  0  0  0  0
    5.9069    1.1246   21.1035 H   0  0  0  0  0  0  0  0  0  0  0  0
   11.7999   -1.8575   21.1640 H   0  0  0  0  0  0  0  0  0  0  0  0
   14.1724   -2.5878   22.0761 H   0  0  0  0  0  0  0  0  0  0  0  0
    5.8642    1.1153   16.8225 H   0  0  0  0  0  0  0  0  0  0  0  0
    9.2439   -0.2171   18.7503 H   0  0  0  0  0  0  0  0  0  0  0  0
    9.3812   -0.8916   23.2819 H   0  0  0  0  0  0  0  0  0  0  0  0
   10.0713    0.7081   23.5288 H   0  0  0  0  0  0  0  0  0  0  0  0
    7.8246   -0.1285   22.0830 H   0  0  0  0  0  0  0  0  0  0  0  0
  1  2  2  0  0  0  0
  1  5  1  0  0  0  0
  2  7  1  0  0  0  0
  3  4  1  0  0  0  0
  3  8  2  0  0  0  0
  4  9  2  0  0  0  0
  5 12  2  0  0  0  0
  6  7  2  0  0  0  0
  6 12  1  0  0  0  0
  7 13  1  0  0  0  0
  8 11  1  0  0  0  0
  8 15  1  0  0  0  0
  9 15  1  0  0  0  0
  9 16  1  0  0  0  0
 10 11  1  0  0  0  0
 10 13  1  0  0  0  0
 10 14  2  0  0  0  0
  1 17  1  0  0  0  0
  2 18  1  0  0  0  0
  3 19  1  0  0  0  0
  4 20  1  0  0  0  0
  5 21  1  0  0  0  0
  6 22  1  0  0  0  0
 11 23  1  0  0  0  0
 11 24  1  0  0  0  0
 13 25  1  0  0  0  0
M  END
> <IC50 (uM)>

> <IC50 (uM) - std>

> <Average Inhibition @ 20 uM>

> <Average Inhibition @ 20 uM - std>
0.922

> <Average Inhibition @ 50 uM>
2.19

> <Average Inhibition @ 50 uM - std>
11.5

> <Trypsin IC50 (uM)>
1.87

> <Relative Solubility @ 20 uM>
1.0

> <Relative Solubility @ 100 uM>
1.0

> <Hybrid2>
-11.181113

> <docked_fragment>
x0678

> <Mpro-_dock>
-1.170343

> <site>
active-noncovalent

$$$$
DUN-NEW-d8381160-1
  -OEChem-05192003313D

 41 43  0     1  0  0  0  0  0999 V2000
   14.8326   -1.7066   24.4137 C   0  0  0  0  0  0  0  0  0  0  0  0
   14.2686   -0.6055   25.0578 C   0  0  0  0  0  0  0  0  0  0  0  0
   14.1512   -2.3264   23.3662 C   0  0  0  0  0  0  0  0  0  0  0  0
    5.7734    1.2138   19.2773 C   0  0  0  0  0  0  0  0  0  0  0  0
   13.0230   -0.1242   24.6546 C   0  0  0  0  0  0  0  0  0  0  0  0
   12.9057   -1.8451   22.9630 C   0  0  0  0  0  0  0  0  0  0  0  0
    6.3828    0.4451   20.2628 C   0  0  0  0  0  0  0  0  0  0  0  0
    6.2538    1.1070   17.9820 C   0  0  0  0  0  0  0  0  0  0  0  0
    7.8445   -0.4298   18.6032 C   0  0  0  0  0  0  0  0  0  0  0  0
   12.3416   -0.7440   23.6071 C   0  0  0  0  0  0  0  0  0  0  0  0
    7.4389   -0.3949   19.9276 C   0  0  0  0  0  0  0  0  0  0  0  0
   10.9317    2.2393   22.6410 C   0  0  0  0  0  0  0  0  0  0  0  0
   10.0380   -1.2756   22.5923 C   0  0  0  0  0  0  0  0  0  0  0  0
    9.8108    0.6192   21.1578 C   0  0  0  0  0  0  0  0  0  0  0  0
   10.9838   -0.2200   23.1672 C   0  0  2  0  0  0  0  0  0  0  0  0
   11.0223    0.8595   22.0598 C   0  0  2  0  0  0  0  0  0  0  0  0
    8.1166   -1.2372   20.9679 C   0  0  0  0  0  0  0  0  0  0  0  0
    7.2773    0.3022   17.6183 N   0  0  0  0  0  0  0  0  0  0  0  0
   12.1537    2.8275   22.8663 N   0  0  0  0  0  0  0  0  0  0  0  0
    9.0202   -0.4511   21.8596 N   0  3  1  0  0  0  0  0  0  0  0  0
    9.8533    2.7813   22.8707 O   0  0  0  0  0  0  0  0  0  0  0  0
   15.8031   -2.0804   24.7270 H   0  0  0  0  0  0  0  0  0  0  0  0
   14.7995   -0.1220   25.8727 H   0  0  0  0  0  0  0  0  0  0  0  0
   14.5906   -3.1831   22.8638 H   0  0  0  0  0  0  0  0  0  0  0  0
    4.9484    1.8753   19.5154 H   0  0  0  0  0  0  0  0  0  0  0  0
   12.5912    0.7342   25.1623 H   0  0  0  0  0  0  0  0  0  0  0  0
   12.3820   -2.3345   22.1460 H   0  0  0  0  0  0  0  0  0  0  0  0
    6.0283    0.5069   21.2881 H   0  0  0  0  0  0  0  0  0  0  0  0
    5.8126    1.6860   17.1773 H   0  0  0  0  0  0  0  0  0  0  0  0
    8.6632   -1.0663   18.2821 H   0  0  0  0  0  0  0  0  0  0  0  0
   10.5307   -1.9380   21.8672 H   0  0  0  0  0  0  0  0  0  0  0  0
    9.5265   -1.8676   23.3606 H   0  0  0  0  0  0  0  0  0  0  0  0
    9.1568    1.4846   21.0309 H   0  0  0  0  0  0  0  0  0  0  0  0
   10.1241    0.2370   20.1826 H   0  0  0  0  0  0  0  0  0  0  0  0
   10.5030    0.2208   24.0943 H   0  0  0  0  0  0  0  0  0  0  0  0
   11.9433    0.8052   21.4701 H   0  0  0  0  0  0  0  0  0  0  0  0
    7.3846   -1.7296   21.6171 H   0  0  0  0  0  0  0  0  0  0  0  0
    8.7313   -2.0174   20.5061 H   0  0  0  0  0  0  0  0  0  0  0  0
   12.9942    2.3089   22.6334 H   0  0  0  0  0  0  0  0  0  0  0  0
   12.2490    3.7597   23.2561 H   0  0  0  0  0  0  0  0  0  0  0  0
    8.4431    0.0104   22.5629 H   0  0  0  0  0  0  0  0  0  0  0  0
  1  2  1  0  0  0  0
  1  3  2  0  0  0  0
  2  5  2  0  0  0  0
  3  6  1  0  0  0  0
  4  7  2  0  0  0  0
  4  8  1  0  0  0  0
  5 10  1  0  0  0  0
  6 10  2  0  0  0  0
  7 11  1  0  0  0  0
  8 18  2  0  0  0  0
  9 11  2  0  0  0  0
  9 18  1  0  0  0  0
 10 15  1  0  0  0  0
 11 17  1  0  0  0  0
 12 16  1  0  0  0  0
 12 19  1  0  0  0  0
 12 21  2  0  0  0  0
 13 15  1  0  0  0  0
 13 20  1  0  0  0  0
 14 16  1  0  0  0  0
 14 20  1  0  0  0  0
 15 16  1  0  0  0  0
 17 20  1  0  0  0  0
  1 22  1  0  0  0  0
  2 23  1  0  0  0  0
  3 24  1  0  0  0  0
  4 25  1  0  0  0  0
  5 26  1  0  0  0  0
  6 27  1  0  0  0  0
  7 28  1  0  0  0  0
  8 29  1  0  0  0  0
  9 30  1  0  0  0  0
 13 31  1  0  0  0  0
 13 32  1  0  0  0  0
 14 33  1  0  0  0  0
 14 34  1  0  0  0  0
 15 35  1  0  0  0  0
 16 36  1  0  0  0  0
 17 37  1  0  0  0  0
 17 38  1  0  0  0  0
 19 39  1  0  0  0  0
 19 40  1  0  0  0  0
 20 41  1  0  0  0  0
M  CHG  1  20   1
M  END
> <IC50 (uM)>

> <IC50 (uM) - std>

> <Average Inhibition @ 20 uM>

> <Average Inhibition @ 20 uM - std>

> <Average Inhibition @ 50 uM>

> <Average Inhibition @ 50 uM - std>
7.36

> <Trypsin IC50 (uM)>
0.257

> <Relative Solubility @ 20 uM>

> <Relative Solubility @ 100 uM>

> <Hybrid2>
-11.157682

> <docked_fragment>
x0678

> <Mpro-_dock>
-0.213893

> <site>
active-noncovalent

$$$$
TRY-UNI-714a760b-18
  -OEChem-05192003313D

 34 35  0     1  0  0  0  0  0999 V2000
   11.6178    0.0964   24.6585 C   0  0  0  0  0  0  0  0  0  0  0  0
   10.4125   -0.5524   24.3904 C   0  0  0  0  0  0  0  0  0  0  0  0
   12.7695   -0.2519   23.9528 C   0  0  0  0  0  0  0  0  0  0  0  0
    5.4234    0.8687   19.3288 C   0  0  0  0  0  0  0  0  0  0  0  0
   11.5106   -1.8980   22.7108 C   0  0  0  0  0  0  0  0  0  0  0  0
    6.0834    0.6341   18.1333 C   0  0  0  0  0  0  0  0  0  0  0  0
    7.7644   -0.5255   19.1856 C   0  0  0  0  0  0  0  0  0  0  0  0
   10.3589   -1.5496   23.4165 C   0  0  0  0  0  0  0  0  0  0  0  0
    5.9905    0.3664   20.4947 C   0  0  0  0  0  0  0  0  0  0  0  0
    7.1833   -0.3451   20.4304 C   0  0  0  0  0  0  0  0  0  0  0  0
   12.7159   -1.2491   22.9790 C   0  0  0  0  0  0  0  0  0  0  0  0
    8.5960   -2.0151   21.6806 C   0  0  0  0  0  0  0  0  0  0  0  0
    5.3005    0.6051   21.7976 C   0  0  0  0  0  0  0  0  0  0  0  0
    9.1476   -3.7515   23.4388 C   0  0  0  0  0  0  0  0  0  0  0  0
    9.0701   -2.2438   23.1312 C   0  0  1  0  0  0  0  0  0  0  0  0
    7.2434   -0.0525   18.0313 N   0  0  0  0  0  0  0  0  0  0  0  0
    7.7994   -0.8763   21.5883 N   0  0  0  0  0  0  0  0  0  0  0  0
    8.9307   -2.7606   20.7644 O   0  0  0  0  0  0  0  0  0  0  0  0
   14.1374   -1.6792   22.1094 Cl  0  0  0  0  0  0  0  0  0  0  0  0
   11.6592    0.8728   25.4170 H   0  0  0  0  0  0  0  0  0  0  0  0
    9.5202   -0.2746   24.9452 H   0  0  0  0  0  0  0  0  0  0  0  0
   13.7020    0.2621   24.1726 H   0  0  0  0  0  0  0  0  0  0  0  0
    4.4941    1.4280   19.3446 H   0  0  0  0  0  0  0  0  0  0  0  0
   11.4635   -2.6758   21.9521 H   0  0  0  0  0  0  0  0  0  0  0  0
    5.6826    1.0049   17.1956 H   0  0  0  0  0  0  0  0  0  0  0  0
    8.6955   -1.0725   19.0706 H   0  0  0  0  0  0  0  0  0  0  0  0
    4.5968   -0.2082   22.0093 H   0  0  0  0  0  0  0  0  0  0  0  0
    6.0212    0.6674   22.6222 H   0  0  0  0  0  0  0  0  0  0  0  0
    4.7469    1.5522   21.7852 H   0  0  0  0  0  0  0  0  0  0  0  0
    9.9256   -4.2429   22.8438 H   0  0  0  0  0  0  0  0  0  0  0  0
    9.3769   -3.9393   24.4938 H   0  0  0  0  0  0  0  0  0  0  0  0
    8.1918   -4.2378   23.2138 H   0  0  0  0  0  0  0  0  0  0  0  0
    8.2620   -1.8479   23.7780 H   0  0  0  0  0  0  0  0  0  0  0  0
    7.6348   -0.3525   22.4453 H   0  0  0  0  0  0  0  0  0  0  0  0
  1  2  2  0  0  0  0
  1  3  1  0  0  0  0
  2  8  1  0  0  0  0
  3 11  2  0  0  0  0
  4  6  2  0  0  0  0
  4  9  1  0  0  0  0
  5  8  2  0  0  0  0
  5 11  1  0  0  0  0
  6 16  1  0  0  0  0
  7 10  1  0  0  0  0
  7 16  2  0  0  0  0
  8 15  1  0  0  0  0
  9 10  2  0  0  0  0
  9 13  1  0  0  0  0
 10 17  1  0  0  0  0
 11 19  1  0  0  0  0
 12 15  1  0  0  0  0
 12 17  1  0  0  0  0
 12 18  2  0  0  0  0
 14 15  1  0  0  0  0
  1 20  1  0  0  0  0
  2 21  1  0  0  0  0
  3 22  1  0  0  0  0
  4 23  1  0  0  0  0
  5 24  1  0  0  0  0
  6 25  1  0  0  0  0
  7 26  1  0  0  0  0
 13 27  1  0  0  0  0
 13 28  1  0  0  0  0
 13 29  1  0  0  0  0
 14 30  1  0  0  0  0
 14 31  1  0  0  0  0
 14 32  1  0  0  0  0
 15 33  1  0  0  0  0
 17 34  1  0  0  0  0
M  END
> <IC50 (uM)>
27.2

> <IC50 (uM) - std>
3.7

> <Average Inhibition @ 20 uM>
> 49.5

> <Average Inhibition @ 20 uM - std>
58.0

> <Average Inhibition @ 50 uM>
0.177

> <Average Inhibition @ 50 uM - std>
78.7

> <Trypsin IC50 (uM)>
0.239

> <Relative Solubility @ 20 uM>
1.0

> <Relative Solubility @ 100 uM>
1.0

> <Hybrid2>
-11.149205

> <docked_fragment>
x0678

> <Mpro-_dock>
-1.185478

> <site>
active-noncovalent

$$$$
BAR-COM-4e090d3a-50
  -OEChem-05192003313D

 39 41  0     1  0  0  0  0  0999 V2000
   13.9600   -2.3423   23.2437 C   0  0  0  0  0  0  0  0  0  0  0  0
   14.2157   -1.2912   24.1243 C   0  0  0  0  0  0  0  0  0  0  0  0
   12.7060   -2.4608   22.6446 C   0  0  0  0  0  0  0  0  0  0  0  0
   13.2173   -0.3587   24.4059 C   0  0  0  0  0  0  0  0  0  0  0  0
    6.6411    0.6273   19.9724 C   0  0  0  0  0  0  0  0  0  0  0  0
   11.7076   -1.5283   22.9262 C   0  0  0  0  0  0  0  0  0  0  0  0
   11.9632   -0.4772   23.8068 C   0  0  0  0  0  0  0  0  0  0  0  0
    7.5828    0.2738   18.9959 C   0  0  0  0  0  0  0  0  0  0  0  0
   10.3579   -1.2396   20.8231 C   0  0  0  0  0  0  0  0  0  0  0  0
   10.0738    2.6511   24.0666 C   0  0  0  0  0  0  0  0  0  0  0  0
    9.2195    2.4174   22.8366 C   0  0  0  0  0  0  0  0  0  0  0  0
   11.4383    1.9599   22.2767 C   0  0  0  0  0  0  0  0  0  0  0  0
   11.2867    1.8025   23.7761 C   0  0  2  0  0  0  0  0  0  0  0  0
   10.3712   -1.6711   22.2761 C   0  0  0  0  0  0  0  0  0  0  0  0
    8.9716   -0.2670   19.1698 C   0  0  0  0  0  0  0  0  0  0  0  0
    5.5240    1.0671   19.3864 N   0  0  0  0  0  0  0  0  0  0  0  0
    7.0737    0.4839   17.7787 N   0  0  0  0  0  0  0  0  0  0  0  0
    5.8548    0.9530   18.0900 N   0  0  0  0  0  0  0  0  0  0  0  0
   11.3014   -1.3466   20.0515 O   0  0  0  0  0  0  0  0  0  0  0  0
   10.1178    2.1691   21.7471 O   0  0  0  0  0  0  0  0  0  0  0  0
   10.9938    0.4464   24.0948 O   0  0  0  0  0  0  0  0  0  0  0  0
    9.1318   -0.7181   20.5187 O   0  0  0  0  0  0  0  0  0  0  0  0
   14.7370   -3.0690   23.0245 H   0  0  0  0  0  0  0  0  0  0  0  0
   15.1920   -1.1998   24.5912 H   0  0  0  0  0  0  0  0  0  0  0  0
   12.5163   -3.2842   21.9610 H   0  0  0  0  0  0  0  0  0  0  0  0
   13.4224    0.4579   25.0928 H   0  0  0  0  0  0  0  0  0  0  0  0
    6.7057    0.5898   21.0498 H   0  0  0  0  0  0  0  0  0  0  0  0
   10.3619    3.7075   24.1167 H   0  0  0  0  0  0  0  0  0  0  0  0
    9.5448    2.3832   24.9854 H   0  0  0  0  0  0  0  0  0  0  0  0
    8.5839    1.5333   22.9546 H   0  0  0  0  0  0  0  0  0  0  0  0
    8.5818    3.2742   22.6012 H   0  0  0  0  0  0  0  0  0  0  0  0
   12.0286    2.8487   22.0306 H   0  0  0  0  0  0  0  0  0  0  0  0
   11.8786    1.0865   21.7875 H   0  0  0  0  0  0  0  0  0  0  0  0
   12.1758    2.1039   24.3363 H   0  0  0  0  0  0  0  0  0  0  0  0
   10.0377   -2.7196   22.3226 H   0  0  0  0  0  0  0  0  0  0  0  0
    9.6220   -1.0712   22.8160 H   0  0  0  0  0  0  0  0  0  0  0  0
    9.1538   -1.1053   18.4888 H   0  0  0  0  0  0  0  0  0  0  0  0
    9.7181    0.5064   18.9587 H   0  0  0  0  0  0  0  0  0  0  0  0
    5.1993    1.2158   17.3629 H   0  0  0  0  0  0  0  0  0  0  0  0
  1  2  1  0  0  0  0
  1  3  2  0  0  0  0
  2  4  2  0  0  0  0
  3  6  1  0  0  0  0
  4  7  1  0  0  0  0
  5  8  1  0  0  0  0
  5 16  2  0  0  0  0
  6  7  2  0  0  0  0
  6 14  1  0  0  0  0
  7 21  1  0  0  0  0
  8 15  1  0  0  0  0
  8 17  2  0  0  0  0
  9 14  1  0  0  0  0
  9 19  2  0  0  0  0
  9 22  1  0  0  0  0
 10 11  1  0  0  0  0
 10 13  1  0  0  0  0
 11 20  1  0  0  0  0
 12 13  1  0  0  0  0
 12 20  1  0  0  0  0
 13 21  1  0  0  0  0
 15 22  1  0  0  0  0
 16 18  1  0  0  0  0
 17 18  1  0  0  0  0
  1 23  1  0  0  0  0
  2 24  1  0  0  0  0
  3 25  1  0  0  0  0
  4 26  1  0  0  0  0
  5 27  1  0  0  0  0
 10 28  1  0  0  0  0
 10 29  1  0  0  0  0
 11 30  1  0  0  0  0
 11 31  1  0  0  0  0
 12 32  1  0  0  0  0
 12 33  1  0  0  0  0
 13 34  1  0  0  0  0
 14 35  1  0  0  0  0
 14 36  1  0  0  0  0
 15 37  1  0  0  0  0
 15 38  1  0  0  0  0
 18 39  1  0  0  0  0
M  END
> <IC50 (uM)>

> <IC50 (uM) - std>

> <Average Inhibition @ 20 uM>

> <Average Inhibition @ 20 uM - std>

> <Average Inhibition @ 50 uM>

> <Average Inhibition @ 50 uM - std>
9.34

> <Trypsin IC50 (uM)>
3.4

> <Relative Solubility @ 20 uM>

> <Relative Solubility @ 100 uM>

> <Hybrid2>
-11.107311

> <docked_fragment>
x0678

> <Mpro-_dock>
0.204139

> <site>
active-noncovalent

$$$$
GAB-REV-70cc3ca5-6
  -OEChem-05192003313D

 48 50  0     0  0  0  0  0  0999 V2000
   13.3759   -0.9557   20.9989 C   0  0  0  0  0  0  0  0  0  0  0  0
   12.0981   -0.9757   21.5544 C   0  0  0  0  0  0  0  0  0  0  0  0
   14.4924   -1.3433   21.7451 C   0  0  0  0  0  0  0  0  0  0  0  0
    5.5868    1.5546   18.3458 C   0  0  0  0  0  0  0  0  0  0  0  0
   13.1744   -2.2420   24.9856 C   0  0  0  0  0  0  0  0  0  0  0  0
    6.4714    1.0730   17.3943 C   0  0  0  0  0  0  0  0  0  0  0  0
    7.4984   -0.3065   18.9177 C   0  0  0  0  0  0  0  0  0  0  0  0
   14.5152   -2.4784   25.1842 C   0  0  0  0  0  0  0  0  0  0  0  0
   13.0092   -1.7812   23.6495 C   0  0  0  0  0  0  0  0  0  0  0  0
   11.8986   -1.3858   22.8777 C   0  0  0  0  0  0  0  0  0  0  0  0
    5.6906    1.0592   19.6408 C   0  0  0  0  0  0  0  0  0  0  0  0
   14.2779   -1.7509   23.0666 C   0  0  0  0  0  0  0  0  0  0  0  0
    6.6621    0.1107   19.9406 C   0  0  0  0  0  0  0  0  0  0  0  0
   10.5276   -1.3988   23.4498 C   0  0  0  0  0  0  0  0  0  0  0  0
    7.7349   -1.3699   21.6748 C   0  0  0  0  0  0  0  0  0  0  0  0
    4.7501    1.5615   20.6867 C   0  0  0  0  0  0  0  0  0  0  0  0
    7.9634   -4.1555   23.4526 C   0  0  0  0  0  0  0  0  0  0  0  0
    8.4778   -2.5623   25.3029 C   0  0  0  0  0  0  0  0  0  0  0  0
    7.5403   -1.6657   23.1627 C   0  0  0  0  0  0  0  0  0  0  0  0
    8.4660   -2.7404   23.7753 C   0  0  0  0  0  0  0  0  0  0  0  0
    7.4280    0.1519   17.6478 N   0  0  0  0  0  0  0  0  0  0  0  0
   15.1726   -2.1791   24.0212 N   0  0  0  0  0  0  0  0  0  0  0  0
    6.8073   -0.4241   21.2430 N   0  0  0  0  0  0  0  0  0  0  0  0
    9.8262   -2.5794   23.2929 N   0  0  0  0  0  0  0  0  0  0  0  0
   10.0956   -0.3870   23.9957 O   0  0  0  0  0  0  0  0  0  0  0  0
    8.6165   -1.8979   21.0063 O   0  0  0  0  0  0  0  0  0  0  0  0
   13.5074   -0.6328   19.9693 H   0  0  0  0  0  0  0  0  0  0  0  0
   11.2519   -0.6661   20.9450 H   0  0  0  0  0  0  0  0  0  0  0  0
   15.4868   -1.3271   21.3120 H   0  0  0  0  0  0  0  0  0  0  0  0
    4.8403    2.2951   18.0794 H   0  0  0  0  0  0  0  0  0  0  0  0
   12.3994   -2.3866   25.7258 H   0  0  0  0  0  0  0  0  0  0  0  0
    6.4322    1.4275   16.3696 H   0  0  0  0  0  0  0  0  0  0  0  0
    8.2760   -1.0450   19.0892 H   0  0  0  0  0  0  0  0  0  0  0  0
   15.0590   -2.8332   26.0483 H   0  0  0  0  0  0  0  0  0  0  0  0
    3.8491    0.9379   20.7183 H   0  0  0  0  0  0  0  0  0  0  0  0
    5.2180    1.5504   21.6788 H   0  0  0  0  0  0  0  0  0  0  0  0
    4.4513    2.5978   20.4862 H   0  0  0  0  0  0  0  0  0  0  0  0
    7.9320   -4.3448   22.3750 H   0  0  0  0  0  0  0  0  0  0  0  0
    8.6249   -4.9153   23.8857 H   0  0  0  0  0  0  0  0  0  0  0  0
    6.9573   -4.3205   23.8539 H   0  0  0  0  0  0  0  0  0  0  0  0
    8.8303   -1.5643   25.5860 H   0  0  0  0  0  0  0  0  0  0  0  0
    7.4752   -2.6981   25.7255 H   0  0  0  0  0  0  0  0  0  0  0  0
    9.1320   -3.3000   25.7823 H   0  0  0  0  0  0  0  0  0  0  0  0
    7.6867   -0.7120   23.6886 H   0  0  0  0  0  0  0  0  0  0  0  0
    6.4932   -1.9602   23.3152 H   0  0  0  0  0  0  0  0  0  0  0  0
   16.1705   -2.2600   23.8830 H   0  0  0  0  0  0  0  0  0  0  0  0
    6.1534   -0.0642   21.9351 H   0  0  0  0  0  0  0  0  0  0  0  0
   10.2202   -3.3549   22.7764 H   0  0  0  0  0  0  0  0  0  0  0  0
  1  2  2  0  0  0  0
  1  3  1  0  0  0  0
  2 10  1  0  0  0  0
  3 12  2  0  0  0  0
  4  6  2  0  0  0  0
  4 11  1  0  0  0  0
  5  8  2  0  0  0  0
  5  9  1  0  0  0  0
  6 21  1  0  0  0  0
  7 13  1  0  0  0  0
  7 21  2  0  0  0  0
  8 22  1  0  0  0  0
  9 10  2  0  0  0  0
  9 12  1  0  0  0  0
 10 14  1  0  0  0  0
 11 13  2  0  0  0  0
 11 16  1  0  0  0  0
 12 22  1  0  0  0  0
 13 23  1  0  0  0  0
 14 24  1  0  0  0  0
 14 25  2  0  0  0  0
 15 19  1  0  0  0  0
 15 23  1  0  0  0  0
 15 26  2  0  0  0  0
 17 20  1  0  0  0  0
 18 20  1  0  0  0  0
 19 20  1  0  0  0  0
 20 24  1  0  0  0  0
  1 27  1  0  0  0  0
  2 28  1  0  0  0  0
  3 29  1  0  0  0  0
  4 30  1  0  0  0  0
  5 31  1  0  0  0  0
  6 32  1  0  0  0  0
  7 33  1  0  0  0  0
  8 34  1  0  0  0  0
 16 35  1  0  0  0  0
 16 36  1  0  0  0  0
 16 37  1  0  0  0  0
 17 38  1  0  0  0  0
 17 39  1  0  0  0  0
 17 40  1  0  0  0  0
 18 41  1  0  0  0  0
 18 42  1  0  0  0  0
 18 43  1  0  0  0  0
 19 44  1  0  0  0  0
 19 45  1  0  0  0  0
 22 46  1  0  0  0  0
 23 47  1  0  0  0  0
 24 48  1  0  0  0  0
M  END
> <IC50 (uM)>

> <IC50 (uM) - std>

> <Average Inhibition @ 20 uM>

> <Average Inhibition @ 20 uM - std>

> <Average Inhibition @ 50 uM>

> <Average Inhibition @ 50 uM - std>
3.87

> <Trypsin IC50 (uM)>
0.647

> <Relative Solubility @ 20 uM>

> <Relative Solubility @ 100 uM>

> <Hybrid2>
-11.083416

> <docked_fragment>
x0678

> <Mpro-_dock>
3.966797

> <site>
active-noncovalent

$$$$
MAT-POS-916a2c5a-4
  -OEChem-05192003313D

 44 47  0     0  0  0  0  0  0999 V2000
    7.6779   -4.7348   26.9593 C   0  0  0  0  0  0  0  0  0  0  0  0
    4.1379    1.3702   22.5359 C   0  0  0  0  0  0  0  0  0  0  0  0
    6.6961   -4.0213   26.2719 C   0  0  0  0  0  0  0  0  0  0  0  0
    8.9200   -4.9607   26.3661 C   0  0  0  0  0  0  0  0  0  0  0  0
    3.1236    1.6334   21.6185 C   0  0  0  0  0  0  0  0  0  0  0  0
    5.4240    1.0455   22.0929 C   0  0  0  0  0  0  0  0  0  0  0  0
    6.9563   -3.5338   24.9912 C   0  0  0  0  0  0  0  0  0  0  0  0
    9.1802   -4.4732   25.0854 C   0  0  0  0  0  0  0  0  0  0  0  0
    3.3912    1.5733   20.2539 C   0  0  0  0  0  0  0  0  0  0  0  0
    5.7127    0.9792   20.7235 C   0  0  0  0  0  0  0  0  0  0  0  0
    8.1984   -3.7597   24.3979 C   0  0  0  0  0  0  0  0  0  0  0  0
    4.6781    1.2480   19.8133 C   0  0  0  0  0  0  0  0  0  0  0  0
    7.2509    0.5964   18.8644 C   0  0  0  0  0  0  0  0  0  0  0  0
    7.0412    0.6429   20.1886 C   0  0  0  0  0  0  0  0  0  0  0  0
    6.1594    0.8798   17.8943 C   0  0  0  0  0  0  0  0  0  0  0  0
    8.2270    0.3340   21.0128 C   0  0  0  0  0  0  0  0  0  0  0  0
    7.4071   -3.1101   22.1153 C   0  0  0  0  0  0  0  0  0  0  0  0
    9.6577   -2.4744   22.8526 C   0  0  0  0  0  0  0  0  0  0  0  0
    6.9820   -1.6420   22.0477 C   0  0  0  0  0  0  0  0  0  0  0  0
    9.2596   -0.9979   22.8115 C   0  0  0  0  0  0  0  0  0  0  0  0
    4.9294    1.1913   18.4312 N   0  0  0  0  0  0  0  0  0  0  0  0
    8.4581   -3.2738   23.1213 N   0  0  0  0  0  0  0  0  0  0  0  0
    8.1488   -0.7545   21.8797 N   0  0  0  0  0  0  0  0  0  0  0  0
    6.3828    0.8272   16.6867 O   0  0  0  0  0  0  0  0  0  0  0  0
    9.2130    1.0626   20.8886 O   0  0  0  0  0  0  0  0  0  0  0  0
    7.4751   -5.1146   27.9566 H   0  0  0  0  0  0  0  0  0  0  0  0
    3.9293    1.4172   23.6010 H   0  0  0  0  0  0  0  0  0  0  0  0
    5.7292   -3.8456   26.7338 H   0  0  0  0  0  0  0  0  0  0  0  0
    9.6844   -5.5164   26.9016 H   0  0  0  0  0  0  0  0  0  0  0  0
    2.1264    1.8852   21.9669 H   0  0  0  0  0  0  0  0  0  0  0  0
    6.1823    0.8483   22.8447 H   0  0  0  0  0  0  0  0  0  0  0  0
    6.1845   -2.9791   24.4639 H   0  0  0  0  0  0  0  0  0  0  0  0
   10.1519   -4.6552   24.6332 H   0  0  0  0  0  0  0  0  0  0  0  0
    2.5949    1.7808   19.5440 H   0  0  0  0  0  0  0  0  0  0  0  0
    8.2173    0.3522   18.4336 H   0  0  0  0  0  0  0  0  0  0  0  0
    6.5397   -3.7199   22.3766 H   0  0  0  0  0  0  0  0  0  0  0  0
    7.7719   -3.4385   21.1391 H   0  0  0  0  0  0  0  0  0  0  0  0
   10.1028   -2.7460   21.8978 H   0  0  0  0  0  0  0  0  0  0  0  0
   10.3903   -2.6489   23.6365 H   0  0  0  0  0  0  0  0  0  0  0  0
    6.3024   -1.5034   21.2123 H   0  0  0  0  0  0  0  0  0  0  0  0
    6.4801   -1.3460   22.9662 H   0  0  0  0  0  0  0  0  0  0  0  0
    8.9813   -0.6614   23.8160 H   0  0  0  0  0  0  0  0  0  0  0  0
   10.1016   -0.3754   22.4849 H   0  0  0  0  0  0  0  0  0  0  0  0
    4.1598    1.3893   17.7979 H   0  0  0  0  0  0  0  0  0  0  0  0
  1  3  1  0  0  0  0
  1  4  2  0  0  0  0
  2  5  1  0  0  0  0
  2  6  2  0  0  0  0
  3  7  2  0  0  0  0
  4  8  1  0  0  0  0
  5  9  2  0  0  0  0
  6 10  1  0  0  0  0
  7 11  1  0  0  0  0
  8 11  2  0  0  0  0
  9 12  1  0  0  0  0
 10 12  2  0  0  0  0
 10 14  1  0  0  0  0
 11 22  1  0  0  0  0
 12 21  1  0  0  0  0
 13 14  2  0  0  0  0
 13 15  1  0  0  0  0
 14 16  1  0  0  0  0
 15 21  1  0  0  0  0
 15 24  2  0  0  0  0
 16 23  1  0  0  0  0
 16 25  2  0  0  0  0
 17 19  1  0  0  0  0
 17 22  1  0  0  0  0
 18 20  1  0  0  0  0
 18 22  1  0  0  0  0
 19 23  1  0  0  0  0
 20 23  1  0  0  0  0
  1 26  1  0  0  0  0
  2 27  1  0  0  0  0
  3 28  1  0  0  0  0
  4 29  1  0  0  0  0
  5 30  1  0  0  0  0
  6 31  1  0  0  0  0
  7 32  1  0  0  0  0
  8 33  1  0  0  0  0
  9 34  1  0  0  0  0
 13 35  1  0  0  0  0
 17 36  1  0  0  0  0
 17 37  1  0  0  0  0
 18 38  1  0  0  0  0
 18 39  1  0  0  0  0
 19 40  1  0  0  0  0
 19 41  1  0  0  0  0
 20 42  1  0  0  0  0
 20 43  1  0  0  0  0
 21 44  1  0  0  0  0
M  END
> <IC50 (uM)>

> <IC50 (uM) - std>

> <Average Inhibition @ 20 uM>

> <Average Inhibition @ 20 uM - std>

> <Average Inhibition @ 50 uM>

> <Average Inhibition @ 50 uM - std>
81.8

> <Trypsin IC50 (uM)>
1.66

> <Relative Solubility @ 20 uM>

> <Relative Solubility @ 100 uM>

> <Hybrid2>
-10.749320

> <docked_fragment>
x0107

> <Mpro-_dock>
2.865086

> <site>
active-noncovalent

$$$$
BAR-COM-4e090d3a-64
  -OEChem-05192003313D

 44 47  0     0  0  0  0  0  0999 V2000
    9.0990    6.3133   24.2473 C   0  0  0  0  0  0  0  0  0  0  0  0
   10.1466    5.8985   23.4251 C   0  0  0  0  0  0  0  0  0  0  0  0
    8.3189    5.3680   24.9134 C   0  0  0  0  0  0  0  0  0  0  0  0
   14.2972   -2.1358   23.8598 C   0  0  0  0  0  0  0  0  0  0  0  0
   10.4141    4.5385   23.2687 C   0  0  0  0  0  0  0  0  0  0  0  0
    8.5864    4.0080   24.7570 C   0  0  0  0  0  0  0  0  0  0  0  0
   14.4991   -0.7782   24.0637 C   0  0  0  0  0  0  0  0  0  0  0  0
   13.0891   -2.6054   23.3411 C   0  0  0  0  0  0  0  0  0  0  0  0
    6.6615    1.4047   17.4044 C   0  0  0  0  0  0  0  0  0  0  0  0
    5.9670    1.8442   18.5098 C   0  0  0  0  0  0  0  0  0  0  0  0
    7.3081   -0.4637   18.5535 C   0  0  0  0  0  0  0  0  0  0  0  0
   12.2563   -0.3049   23.2236 C   0  0  0  0  0  0  0  0  0  0  0  0
   11.0893    0.4330   22.8315 C   0  0  0  0  0  0  0  0  0  0  0  0
    9.6339    3.5932   23.9347 C   0  0  0  0  0  0  0  0  0  0  0  0
   13.4927    0.1395   23.7512 C   0  0  0  0  0  0  0  0  0  0  0  0
   12.0765   -1.6776   23.0273 C   0  0  0  0  0  0  0  0  0  0  0  0
   10.0801   -0.3726   22.3603 C   0  0  0  0  0  0  0  0  0  0  0  0
    6.6143   -0.0239   19.6592 C   0  0  0  0  0  0  0  0  0  0  0  0
    8.7838   -0.0104   21.8825 C   0  0  0  0  0  0  0  0  0  0  0  0
   10.9789    1.9125   22.9237 C   0  0  0  0  0  0  0  0  0  0  0  0
    6.5964   -0.8376   20.9209 C   0  0  0  0  0  0  0  0  0  0  0  0
    7.3445    0.2428   17.4064 N   0  0  0  0  0  0  0  0  0  0  0  0
    5.9310    1.1378   19.6571 N   0  0  0  0  0  0  0  0  0  0  0  0
    7.9254   -1.0444   21.4499 N   0  0  0  0  0  0  0  0  0  0  0  0
    8.4162    1.1906   21.8251 O   0  0  0  0  0  0  0  0  0  0  0  0
    9.8950    2.2578   23.7803 O   0  0  0  0  0  0  0  0  0  0  0  0
   13.7166    1.4454   23.9585 F   0  0  0  0  0  0  0  0  0  0  0  0
   10.5150   -2.0205   22.3811 S   0  0  0  0  0  0  0  0  0  0  0  0
    8.8909    7.3721   24.3697 H   0  0  0  0  0  0  0  0  0  0  0  0
   10.7541    6.6344   22.9062 H   0  0  0  0  0  0  0  0  0  0  0  0
    7.5034    5.6918   25.5536 H   0  0  0  0  0  0  0  0  0  0  0  0
   15.0855   -2.8420   24.1059 H   0  0  0  0  0  0  0  0  0  0  0  0
   11.2306    4.2219   22.6256 H   0  0  0  0  0  0  0  0  0  0  0  0
    7.9742    3.2760   25.2769 H   0  0  0  0  0  0  0  0  0  0  0  0
   15.4432   -0.4245   24.4682 H   0  0  0  0  0  0  0  0  0  0  0  0
   12.9400   -3.6701   23.1853 H   0  0  0  0  0  0  0  0  0  0  0  0
    6.6901    1.9730   16.4830 H   0  0  0  0  0  0  0  0  0  0  0  0
    5.4183    2.7779   18.5075 H   0  0  0  0  0  0  0  0  0  0  0  0
    7.8593   -1.3967   18.5477 H   0  0  0  0  0  0  0  0  0  0  0  0
   11.8979    2.3636   23.3272 H   0  0  0  0  0  0  0  0  0  0  0  0
   10.8017    2.3645   21.9362 H   0  0  0  0  0  0  0  0  0  0  0  0
    5.9998   -0.3398   21.6930 H   0  0  0  0  0  0  0  0  0  0  0  0
    6.1483   -1.8216   20.7475 H   0  0  0  0  0  0  0  0  0  0  0  0
    8.2788   -1.9956   21.4512 H   0  0  0  0  0  0  0  0  0  0  0  0
  1  2  1  0  0  0  0
  1  3  2  0  0  0  0
  2  5  2  0  0  0  0
  3  6  1  0  0  0  0
  4  7  1  0  0  0  0
  4  8  2  0  0  0  0
  5 14  1  0  0  0  0
  6 14  2  0  0  0  0
  7 15  2  0  0  0  0
  8 16  1  0  0  0  0
  9 10  2  0  0  0  0
  9 22  1  0  0  0  0
 10 23  1  0  0  0  0
 11 18  1  0  0  0  0
 11 22  2  0  0  0  0
 12 13  1  0  0  0  0
 12 15  1  0  0  0  0
 12 16  2  0  0  0  0
 13 17  2  0  0  0  0
 13 20  1  0  0  0  0
 14 26  1  0  0  0  0
 15 27  1  0  0  0  0
 16 28  1  0  0  0  0
 17 19  1  0  0  0  0
 17 28  1  0  0  0  0
 18 21  1  0  0  0  0
 18 23  2  0  0  0  0
 19 24  1  0  0  0  0
 19 25  2  0  0  0  0
 20 26  1  0  0  0  0
 21 24  1  0  0  0  0
  1 29  1  0  0  0  0
  2 30  1  0  0  0  0
  3 31  1  0  0  0  0
  4 32  1  0  0  0  0
  5 33  1  0  0  0  0
  6 34  1  0  0  0  0
  7 35  1  0  0  0  0
  8 36  1  0  0  0  0
  9 37  1  0  0  0  0
 10 38  1  0  0  0  0
 11 39  1  0  0  0  0
 20 40  1  0  0  0  0
 20 41  1  0  0  0  0
 21 42  1  0  0  0  0
 21 43  1  0  0  0  0
 24 44  1  0  0  0  0
M  END
> <IC50 (uM)>

> <IC50 (uM) - std>

> <Average Inhibition @ 20 uM>

> <Average Inhibition @ 20 uM - std>
-1.73

> <Average Inhibition @ 50 uM>
10.3

> <Average Inhibition @ 50 uM - std>
6.32

> <Trypsin IC50 (uM)>
6.99

> <Relative Solubility @ 20 uM>
0.95

> <Relative Solubility @ 100 uM>
0.44

> <Hybrid2>
-10.726959

> <docked_fragment>
x0678

> <Mpro-_dock>
1.79254

> <site>
active-noncovalent

$$$$
TRY-UNI-1fd04853-5
  -OEChem-05192003313D

 35 37  0     0  0  0  0  0  0999 V2000
   12.6106    1.3741   23.8416 C   0  0  0  0  0  0  0  0  0  0  0  0
    5.3883    1.4273   18.6001 C   0  0  0  0  0  0  0  0  0  0  0  0
    5.6248    0.9296   19.8802 C   0  0  0  0  0  0  0  0  0  0  0  0
   11.4116    0.9738   24.4311 C   0  0  0  0  0  0  0  0  0  0  0  0
   13.4245    0.4345   23.2087 C   0  0  0  0  0  0  0  0  0  0  0  0
   11.8402   -1.3057   23.7550 C   0  0  0  0  0  0  0  0  0  0  0  0
    6.2782    1.1063   17.5839 C   0  0  0  0  0  0  0  0  0  0  0  0
    8.4836   -1.1891   20.7040 C   0  0  0  0  0  0  0  0  0  0  0  0
    6.7595    0.1248   20.0716 C   0  0  0  0  0  0  0  0  0  0  0  0
   11.0264   -0.3661   24.3879 C   0  0  0  0  0  0  0  0  0  0  0  0
    7.3492   -0.5586   21.1678 C   0  0  0  0  0  0  0  0  0  0  0  0
   13.0393   -0.9054   23.1654 C   0  0  0  0  0  0  0  0  0  0  0  0
    7.5671   -0.1173   18.9642 C   0  0  0  0  0  0  0  0  0  0  0  0
    7.8366   -0.0707   23.5972 C   0  0  0  0  0  0  0  0  0  0  0  0
    6.8472   -0.5935   22.5560 C   0  0  0  0  0  0  0  0  0  0  0  0
    9.7362   -0.7965   25.0237 C   0  0  0  0  0  0  0  0  0  0  0  0
    7.3849    0.3376   17.7100 N   0  0  0  0  0  0  0  0  0  0  0  0
    8.6062   -0.9144   19.3666 N   0  0  0  0  0  0  0  0  0  0  0  0
    8.7091   -1.0540   24.0417 N   0  0  0  0  0  0  0  0  0  0  0  0
    7.8386    1.0972   23.9777 O   0  0  0  0  0  0  0  0  0  0  0  0
   14.0443   -2.0643   22.3854 Cl  0  0  0  0  0  0  0  0  0  0  0  0
   12.9103    2.4176   23.8756 H   0  0  0  0  0  0  0  0  0  0  0  0
    4.5250    2.0537   18.4028 H   0  0  0  0  0  0  0  0  0  0  0  0
    4.9484    1.1610   20.6966 H   0  0  0  0  0  0  0  0  0  0  0  0
   10.7838    1.7127   24.9222 H   0  0  0  0  0  0  0  0  0  0  0  0
   14.3565    0.7608   22.7537 H   0  0  0  0  0  0  0  0  0  0  0  0
   11.5351   -2.3492   23.7235 H   0  0  0  0  0  0  0  0  0  0  0  0
    6.1091    1.4848   16.5791 H   0  0  0  0  0  0  0  0  0  0  0  0
    9.2147   -1.8090   21.2042 H   0  0  0  0  0  0  0  0  0  0  0  0
    5.9164   -0.0017   22.6564 H   0  0  0  0  0  0  0  0  0  0  0  0
    6.5691   -1.6230   22.8549 H   0  0  0  0  0  0  0  0  0  0  0  0
    9.8804   -1.7113   25.6088 H   0  0  0  0  0  0  0  0  0  0  0  0
    9.3600   -0.0287   25.7081 H   0  0  0  0  0  0  0  0  0  0  0  0
    9.3498   -1.2472   18.7686 H   0  0  0  0  0  0  0  0  0  0  0  0
    8.6220   -1.9918   23.6612 H   0  0  0  0  0  0  0  0  0  0  0  0
  1  4  2  0  0  0  0
  1  5  1  0  0  0  0
  2  3  2  0  0  0  0
  2  7  1  0  0  0  0
  3  9  1  0  0  0  0
  4 10  1  0  0  0  0
  5 12  2  0  0  0  0
  6 10  2  0  0  0  0
  6 12  1  0  0  0  0
  7 17  2  0  0  0  0
  8 11  2  0  0  0  0
  8 18  1  0  0  0  0
  9 11  1  0  0  0  0
  9 13  2  0  0  0  0
 10 16  1  0  0  0  0
 11 15  1  0  0  0  0
 12 21  1  0  0  0  0
 13 17  1  0  0  0  0
 13 18  1  0  0  0  0
 14 15  1  0  0  0  0
 14 19  1  0  0  0  0
 14 20  2  0  0  0  0
 16 19  1  0  0  0  0
  1 22  1  0  0  0  0
  2 23  1  0  0  0  0
  3 24  1  0  0  0  0
  4 25  1  0  0  0  0
  5 26  1  0  0  0  0
  6 27  1  0  0  0  0
  7 28  1  0  0  0  0
  8 29  1  0  0  0  0
 15 30  1  0  0  0  0
 15 31  1  0  0  0  0
 16 32  1  0  0  0  0
 16 33  1  0  0  0  0
 18 34  1  0  0  0  0
 19 35  1  0  0  0  0
M  END
> <IC50 (uM)>

> <IC50 (uM) - std>

> <Average Inhibition @ 20 uM>

> <Average Inhibition @ 20 uM - std>
7.73

> <Average Inhibition @ 50 uM>
2.86

> <Average Inhibition @ 50 uM - std>
9.03

> <Trypsin IC50 (uM)>
0.76

> <Relative Solubility @ 20 uM>
1.0

> <Relative Solubility @ 100 uM>
0.96

> <Hybrid2>
-10.682974

> <docked_fragment>
x0678

> <Mpro-_dock>
0.908274

> <site>
active-noncovalent

$$$$
DAR-DIA-842b4336-16
  -OEChem-05192003313D

 27 28  0     0  0  0  0  0  0999 V2000
    5.6607    1.0211   18.9004 C   0  0  0  0  0  0  0  0  0  0  0  0
    6.2679    0.8679   20.1418 C   0  0  0  0  0  0  0  0  0  0  0  0
    6.4404    0.8374   17.7699 C   0  0  0  0  0  0  0  0  0  0  0  0
    8.3094    0.3778   19.0245 C   0  0  0  0  0  0  0  0  0  0  0  0
   13.2266   -0.4742   24.2557 C   0  0  0  0  0  0  0  0  0  0  0  0
    7.6173    0.5402   20.2138 C   0  0  0  0  0  0  0  0  0  0  0  0
   13.1712   -1.0083   22.9922 C   0  0  0  0  0  0  0  0  0  0  0  0
   11.3028   -0.0957   23.4947 C   0  0  0  0  0  0  0  0  0  0  0  0
    9.6009    0.6199   21.7642 C   0  0  0  0  0  0  0  0  0  0  0  0
   14.1126   -1.7345   22.1342 C   0  0  0  0  0  0  0  0  0  0  0  0
    9.8785    0.3155   23.2279 C   0  0  0  0  0  0  0  0  0  0  0  0
    7.7538    0.5185   17.8000 N   0  0  0  0  0  0  0  0  0  0  0  0
   12.0265    0.1095   24.5719 N   0  0  0  0  0  0  0  0  0  0  0  0
    8.2528    0.3804   21.4427 N   0  0  0  0  0  0  0  0  0  0  0  0
   10.4741    1.0192   21.0006 O   0  0  0  0  0  0  0  0  0  0  0  0
   11.9280   -0.7684   22.4899 O   0  0  0  0  0  0  0  0  0  0  0  0
    4.6101    1.2763   18.8205 H   0  0  0  0  0  0  0  0  0  0  0  0
    5.6809    1.0059   21.0460 H   0  0  0  0  0  0  0  0  0  0  0  0
    6.0141    0.9464   16.7781 H   0  0  0  0  0  0  0  0  0  0  0  0
    9.3647    0.1216   19.0159 H   0  0  0  0  0  0  0  0  0  0  0  0
   14.0555   -0.4774   24.9479 H   0  0  0  0  0  0  0  0  0  0  0  0
   14.0431   -2.8275   22.2873 H   0  0  0  0  0  0  0  0  0  0  0  0
   13.9384   -1.5436   21.0576 H   0  0  0  0  0  0  0  0  0  0  0  0
   15.1650   -1.4447   22.3198 H   0  0  0  0  0  0  0  0  0  0  0  0
    9.1978   -0.4801   23.5568 H   0  0  0  0  0  0  0  0  0  0  0  0
    9.6348    1.2031   23.8254 H   0  0  0  0  0  0  0  0  0  0  0  0
    7.6611    0.0446   22.2130 H   0  0  0  0  0  0  0  0  0  0  0  0
  1  2  2  0  0  0  0
  1  3  1  0  0  0  0
  2  6  1  0  0  0  0
  3 12  2  0  0  0  0
  4  6  2  0  0  0  0
  4 12  1  0  0  0  0
  5  7  2  0  0  0  0
  5 13  1  0  0  0  0
  6 14  1  0  0  0  0
  7 10  1  0  0  0  0
  7 16  1  0  0  0  0
  8 11  1  0  0  0  0
  8 13  2  0  0  0  0
  8 16  1  0  0  0  0
  9 11  1  0  0  0  0
  9 14  1  0  0  0  0
  9 15  2  0  0  0  0
  1 17  1  0  0  0  0
  2 18  1  0  0  0  0
  3 19  1  0  0  0  0
  4 20  1  0  0  0  0
  5 21  1  0  0  0  0
 10 22  1  0  0  0  0
 10 23  1  0  0  0  0
 10 24  1  0  0  0  0
 11 25  1  0  0  0  0
 11 26  1  0  0  0  0
 14 27  1  0  0  0  0
M  END
> <IC50 (uM)>

> <IC50 (uM) - std>

> <Average Inhibition @ 20 uM>

> <Average Inhibition @ 20 uM - std>

> <Average Inhibition @ 50 uM>

> <Average Inhibition @ 50 uM - std>
6.13

> <Trypsin IC50 (uM)>
0.809

> <Relative Solubility @ 20 uM>

> <Relative Solubility @ 100 uM>

> <Hybrid2>
-10.643672

> <docked_fragment>
x0678

> <Mpro-_dock>
-0.672206

> <site>
active-noncovalent

$$$$
BAR-COM-4e090d3a-21
  -OEChem-05192003313D

 40 42  0     1  0  0  0  0  0999 V2000
   14.3287   -2.2505   24.0454 C   0  0  0  0  0  0  0  0  0  0  0  0
   13.4118   -3.0628   23.3935 C   0  0  0  0  0  0  0  0  0  0  0  0
   14.2362   -0.8700   23.9117 C   0  0  0  0  0  0  0  0  0  0  0  0
   12.4079   -2.4945   22.6030 C   0  0  0  0  0  0  0  0  0  0  0  0
    5.2958    1.3582   18.0560 C   0  0  0  0  0  0  0  0  0  0  0  0
    6.2409    0.8873   17.1714 C   0  0  0  0  0  0  0  0  0  0  0  0
    6.5819    0.6477   19.8083 C   0  0  0  0  0  0  0  0  0  0  0  0
   13.2219   -0.2911   23.1277 C   0  0  0  0  0  0  0  0  0  0  0  0
   12.2892   -1.1000   22.4370 C   0  0  0  0  0  0  0  0  0  0  0  0
    7.5267    0.1761   18.9238 C   0  0  0  0  0  0  0  0  0  0  0  0
   10.8056    1.7792   23.5586 C   0  0  0  0  0  0  0  0  0  0  0  0
    9.0181   -0.6403   20.7822 C   0  0  0  0  0  0  0  0  0  0  0  0
   13.1841    1.2158   23.0198 C   0  0  0  0  0  0  0  0  0  0  0  0
   11.3788    0.8926   21.3055 C   0  0  0  0  0  0  0  0  0  0  0  0
   11.8548    1.7349   22.4828 C   0  0  1  0  0  0  0  0  0  0  0  0
   10.3531   -1.3499   20.9004 C   0  0  0  0  0  0  0  0  0  0  0  0
    5.4494    1.2469   19.3903 N   0  0  0  0  0  0  0  0  0  0  0  0
    7.3733    0.2877   17.5894 N   0  0  0  0  0  0  0  0  0  0  0  0
   11.2878   -0.5258   21.6538 N   0  0  1  0  0  0  0  0  0  0  0  0
    9.8799    2.7815   23.3895 N   0  0  0  0  0  0  0  0  0  0  0  0
    8.6906   -0.4385   19.4440 N   0  0  0  0  0  0  0  0  0  0  0  0
   10.7864    0.9728   24.4854 O   0  0  0  0  0  0  0  0  0  0  0  0
    8.3573   -0.3223   21.7658 O   0  0  0  0  0  0  0  0  0  0  0  0
   15.1116   -2.6892   24.6563 H   0  0  0  0  0  0  0  0  0  0  0  0
   13.4744   -4.1426   23.4937 H   0  0  0  0  0  0  0  0  0  0  0  0
   14.9574   -0.2388   24.4260 H   0  0  0  0  0  0  0  0  0  0  0  0
   11.7209   -3.1791   22.1112 H   0  0  0  0  0  0  0  0  0  0  0  0
    4.3863    1.8399   17.7193 H   0  0  0  0  0  0  0  0  0  0  0  0
    6.1170    0.9772   16.0995 H   0  0  0  0  0  0  0  0  0  0  0  0
    6.6949    0.5637   20.8833 H   0  0  0  0  0  0  0  0  0  0  0  0
   13.3893    1.6607   24.0018 H   0  0  0  0  0  0  0  0  0  0  0  0
   13.9909    1.5205   22.3409 H   0  0  0  0  0  0  0  0  0  0  0  0
   10.3999    1.2611   20.9749 H   0  0  0  0  0  0  0  0  0  0  0  0
   12.0682    1.0079   20.4593 H   0  0  0  0  0  0  0  0  0  0  0  0
   11.9854    2.7714   22.1522 H   0  0  0  0  0  0  0  0  0  0  0  0
   10.7586   -1.5436   19.9023 H   0  0  0  0  0  0  0  0  0  0  0  0
   10.2040   -2.3056   21.4126 H   0  0  0  0  0  0  0  0  0  0  0  0
    9.9667    3.3940   22.5852 H   0  0  0  0  0  0  0  0  0  0  0  0
    9.1131    2.9334   24.0368 H   0  0  0  0  0  0  0  0  0  0  0  0
    9.3566   -0.7666   18.7478 H   0  0  0  0  0  0  0  0  0  0  0  0
  1  2  1  0  0  0  0
  1  3  2  0  0  0  0
  2  4  2  0  0  0  0
  3  8  1  0  0  0  0
  4  9  1  0  0  0  0
  5  6  2  0  0  0  0
  5 17  1  0  0  0  0
  6 18  1  0  0  0  0
  7 10  1  0  0  0  0
  7 17  2  0  0  0  0
  8  9  2  0  0  0  0
  8 13  1  0  0  0  0
  9 19  1  0  0  0  0
 10 18  2  0  0  0  0
 10 21  1  0  0  0  0
 11 15  1  0  0  0  0
 11 20  1  0  0  0  0
 11 22  2  0  0  0  0
 12 16  1  0  0  0  0
 12 21  1  0  0  0  0
 12 23  2  0  0  0  0
 13 15  1  0  0  0  0
 14 15  1  0  0  0  0
 14 19  1  0  0  0  0
 16 19  1  0  0  0  0
  1 24  1  0  0  0  0
  2 25  1  0  0  0  0
  3 26  1  0  0  0  0
  4 27  1  0  0  0  0
  5 28  1  0  0  0  0
  6 29  1  0  0  0  0
  7 30  1  0  0  0  0
 13 31  1  0  0  0  0
 13 32  1  0  0  0  0
 14 33  1  0  0  0  0
 14 34  1  0  0  0  0
 15 35  1  0  0  0  0
 16 36  1  0  0  0  0
 16 37  1  0  0  0  0
 20 38  1  0  0  0  0
 20 39  1  0  0  0  0
 21 40  1  0  0  0  0
M  END
> <IC50 (uM)>

> <IC50 (uM) - std>

> <Average Inhibition @ 20 uM>

> <Average Inhibition @ 20 uM - std>
0.0292

> <Average Inhibition @ 50 uM>
5.71

> <Average Inhibition @ 50 uM - std>
6.19

> <Trypsin IC50 (uM)>
1.71

> <Relative Solubility @ 20 uM>
1.0

> <Relative Solubility @ 100 uM>
0.93

> <Hybrid2>
-10.617538

> <docked_fragment>
x0678

> <Mpro-_dock>
1.104097

> <site>
active-noncovalent

$$$$
ALE-HEI-f28a35b5-5
  -OEChem-05192003313D

 26 27  0     0  0  0  0  0  0999 V2000
    5.5752    1.2562   18.9232 C   0  0  0  0  0  0  0  0  0  0  0  0
    6.1850    1.1022   20.1632 C   0  0  0  0  0  0  0  0  0  0  0  0
    6.3104    0.9325   17.7942 C   0  0  0  0  0  0  0  0  0  0  0  0
    8.1422    0.3397   19.0477 C   0  0  0  0  0  0  0  0  0  0  0  0
    7.4929    0.6358   20.2354 C   0  0  0  0  0  0  0  0  0  0  0  0
   13.2390   -1.3151   23.4231 C   0  0  0  0  0  0  0  0  0  0  0  0
   11.1486   -0.2236   23.4988 C   0  0  0  0  0  0  0  0  0  0  0  0
    9.5015    0.5812   21.7545 C   0  0  0  0  0  0  0  0  0  0  0  0
   14.4336   -2.1065   23.0655 C   0  0  0  0  0  0  0  0  0  0  0  0
    9.7715    0.3238   23.2286 C   0  0  0  0  0  0  0  0  0  0  0  0
    7.5827    0.4767   17.8246 N   0  0  0  0  0  0  0  0  0  0  0  0
   13.0823   -0.6384   24.5409 N   0  0  0  0  0  0  0  0  0  0  0  0
   11.8557    0.0009   24.5857 N   0  0  0  0  0  0  0  0  0  0  0  0
    8.1299    0.4716   21.4629 N   0  0  0  0  0  0  0  0  0  0  0  0
   10.3983    0.8452   20.9601 O   0  0  0  0  0  0  0  0  0  0  0  0
   11.9137   -1.2276   22.3378 S   0  0  0  0  0  0  0  0  0  0  0  0
    4.5565    1.6182   18.8430 H   0  0  0  0  0  0  0  0  0  0  0  0
    5.6325    1.3483   21.0661 H   0  0  0  0  0  0  0  0  0  0  0  0
    5.8803    1.0360   16.8035 H   0  0  0  0  0  0  0  0  0  0  0  0
    9.1639   -0.0282   19.0394 H   0  0  0  0  0  0  0  0  0  0  0  0
   14.3378   -3.1479   23.4130 H   0  0  0  0  0  0  0  0  0  0  0  0
   14.6022   -2.1302   21.9757 H   0  0  0  0  0  0  0  0  0  0  0  0
   15.3536   -1.6881   23.5078 H   0  0  0  0  0  0  0  0  0  0  0  0
    9.0160   -0.3764   23.6074 H   0  0  0  0  0  0  0  0  0  0  0  0
    9.6345    1.2617   23.7816 H   0  0  0  0  0  0  0  0  0  0  0  0
    7.5199    0.2409   22.2572 H   0  0  0  0  0  0  0  0  0  0  0  0
  1  2  2  0  0  0  0
  1  3  1  0  0  0  0
  2  5  1  0  0  0  0
  3 11  2  0  0  0  0
  4  5  2  0  0  0  0
  4 11  1  0  0  0  0
  5 14  1  0  0  0  0
  6  9  1  0  0  0  0
  6 12  2  0  0  0  0
  6 16  1  0  0  0  0
  7 10  1  0  0  0  0
  7 13  2  0  0  0  0
  7 16  1  0  0  0  0
  8 10  1  0  0  0  0
  8 14  1  0  0  0  0
  8 15  2  0  0  0  0
 12 13  1  0  0  0  0
  1 17  1  0  0  0  0
  2 18  1  0  0  0  0
  3 19  1  0  0  0  0
  4 20  1  0  0  0  0
  9 21  1  0  0  0  0
  9 22  1  0  0  0  0
  9 23  1  0  0  0  0
 10 24  1  0  0  0  0
 10 25  1  0  0  0  0
 14 26  1  0  0  0  0
M  END
> <IC50 (uM)>

> <IC50 (uM) - std>

> <Average Inhibition @ 20 uM>

> <Average Inhibition @ 20 uM - std>
-1.16

> <Average Inhibition @ 50 uM>
0.562

> <Average Inhibition @ 50 uM - std>
-0.0294

> <Trypsin IC50 (uM)>
0.492

> <Relative Solubility @ 20 uM>
1.0

> <Relative Solubility @ 100 uM>
0.99

> <Hybrid2>
-10.544547

> <docked_fragment>
x0678

> <Mpro-_dock>
-0.899589

> <site>
active-noncovalent

$$$$
DAR-DIA-23aa0b97-20
  -OEChem-05192003313D

 34 36  0     0  0  0  0  0  0999 V2000
   14.5035   -1.6332   23.3349 C   0  0  0  0  0  0  0  0  0  0  0  0
    3.8281    1.7710   20.0987 C   0  0  0  0  0  0  0  0  0  0  0  0
    4.4980    1.8697   21.3160 C   0  0  0  0  0  0  0  0  0  0  0  0
   13.9424   -0.7470   24.2544 C   0  0  0  0  0  0  0  0  0  0  0  0
   13.8698   -1.8655   22.1141 C   0  0  0  0  0  0  0  0  0  0  0  0
    4.5140    1.3625   18.9552 C   0  0  0  0  0  0  0  0  0  0  0  0
    5.8570    1.5604   21.3952 C   0  0  0  0  0  0  0  0  0  0  0  0
   12.7476   -0.0933   23.9532 C   0  0  0  0  0  0  0  0  0  0  0  0
   12.6750   -1.2117   21.8130 C   0  0  0  0  0  0  0  0  0  0  0  0
    6.6167    0.6349   17.9106 C   0  0  0  0  0  0  0  0  0  0  0  0
    8.5522    0.4302   19.1300 C   0  0  0  0  0  0  0  0  0  0  0  0
    5.8816    1.0486   19.0233 C   0  0  0  0  0  0  0  0  0  0  0  0
    6.5634    1.1473   20.2537 C   0  0  0  0  0  0  0  0  0  0  0  0
    7.9259    0.8302   20.3006 C   0  0  0  0  0  0  0  0  0  0  0  0
   12.1139   -0.3256   22.7325 C   0  0  0  0  0  0  0  0  0  0  0  0
    9.8614   -0.1219   21.6237 C   0  0  0  0  0  0  0  0  0  0  0  0
    8.7333    0.9035   21.5541 C   0  0  0  0  0  0  0  0  0  0  0  0
    7.9325    0.3243   17.9353 N   0  0  0  0  0  0  0  0  0  0  0  0
   10.9017    0.3379   22.4271 N   0  0  0  0  0  0  0  0  0  0  0  0
    9.8011   -1.1918   21.0264 O   0  0  0  0  0  0  0  0  0  0  0  0
   15.4343   -2.1418   23.5687 H   0  0  0  0  0  0  0  0  0  0  0  0
    2.7707    2.0122   20.0400 H   0  0  0  0  0  0  0  0  0  0  0  0
    3.9621    2.1878   22.2056 H   0  0  0  0  0  0  0  0  0  0  0  0
   14.4359   -0.5653   25.2045 H   0  0  0  0  0  0  0  0  0  0  0  0
   14.3076   -2.5548   21.3979 H   0  0  0  0  0  0  0  0  0  0  0  0
    3.9750    1.2907   18.0133 H   0  0  0  0  0  0  0  0  0  0  0  0
    6.3460    1.6496   22.3624 H   0  0  0  0  0  0  0  0  0  0  0  0
   12.3197    0.5953   24.6776 H   0  0  0  0  0  0  0  0  0  0  0  0
   12.1901   -1.4006   20.8584 H   0  0  0  0  0  0  0  0  0  0  0  0
    6.1525    0.5380   16.9329 H   0  0  0  0  0  0  0  0  0  0  0  0
    9.6073    0.1735   19.1161 H   0  0  0  0  0  0  0  0  0  0  0  0
    9.1762    1.9065   21.6647 H   0  0  0  0  0  0  0  0  0  0  0  0
    8.0847    0.7602   22.4333 H   0  0  0  0  0  0  0  0  0  0  0  0
   10.7756    1.2583   22.8432 H   0  0  0  0  0  0  0  0  0  0  0  0
  1  4  1  0  0  0  0
  1  5  2  0  0  0  0
  2  3  1  0  0  0  0
  2  6  2  0  0  0  0
  3  7  2  0  0  0  0
  4  8  2  0  0  0  0
  5  9  1  0  0  0  0
  6 12  1  0  0  0  0
  7 13  1  0  0  0  0
  8 15  1  0  0  0  0
  9 15  2  0  0  0  0
 10 12  2  0  0  0  0
 10 18  1  0  0  0  0
 11 14  1  0  0  0  0
 11 18  2  0  0  0  0
 12 13  1  0  0  0  0
 13 14  2  0  0  0  0
 14 17  1  0  0  0  0
 15 19  1  0  0  0  0
 16 17  1  0  0  0  0
 16 19  1  0  0  0  0
 16 20  2  0  0  0  0
  1 21  1  0  0  0  0
  2 22  1  0  0  0  0
  3 23  1  0  0  0  0
  4 24  1  0  0  0  0
  5 25  1  0  0  0  0
  6 26  1  0  0  0  0
  7 27  1  0  0  0  0
  8 28  1  0  0  0  0
  9 29  1  0  0  0  0
 10 30  1  0  0  0  0
 11 31  1  0  0  0  0
 17 32  1  0  0  0  0
 17 33  1  0  0  0  0
 19 34  1  0  0  0  0
M  END
> <IC50 (uM)>
61.3

> <IC50 (uM) - std>
6.0

> <Average Inhibition @ 20 uM>
> 99.0

> <Average Inhibition @ 20 uM - std>
31.6

> <Average Inhibition @ 50 uM>
1.34

> <Average Inhibition @ 50 uM - std>
57.8

> <Trypsin IC50 (uM)>
0.318

> <Relative Solubility @ 20 uM>
1.0

> <Relative Solubility @ 100 uM>
0.98

> <Hybrid2>
-10.520862

> <docked_fragment>
x0678

> <Mpro-_dock>
0.681776

> <site>
active-noncovalent

$$$$
ALE-HEI-f28a35b5-1
  -OEChem-05192003313D

 30 31  0     0  0  0  0  0  0999 V2000
   14.2238   -0.9928   23.9289 C   0  0  0  0  0  0  0  0  0  0  0  0
   13.2682   -0.4429   24.7832 C   0  0  0  0  0  0  0  0  0  0  0  0
   13.9351   -1.1595   22.5745 C   0  0  0  0  0  0  0  0  0  0  0  0
   12.0237   -0.0598   24.2832 C   0  0  0  0  0  0  0  0  0  0  0  0
   12.6905   -0.7765   22.0744 C   0  0  0  0  0  0  0  0  0  0  0  0
    5.7813    1.2555   18.8360 C   0  0  0  0  0  0  0  0  0  0  0  0
    6.3228    0.7972   17.6459 C   0  0  0  0  0  0  0  0  0  0  0  0
    8.3046    0.2321   18.6615 C   0  0  0  0  0  0  0  0  0  0  0  0
    6.5689    1.1841   19.9796 C   0  0  0  0  0  0  0  0  0  0  0  0
   11.7348   -0.2266   22.9288 C   0  0  0  0  0  0  0  0  0  0  0  0
    7.8559    0.6641   19.8992 C   0  0  0  0  0  0  0  0  0  0  0  0
   10.0066    0.0714   21.1003 C   0  0  0  0  0  0  0  0  0  0  0  0
    6.0104    1.6717   21.2761 C   0  0  0  0  0  0  0  0  0  0  0  0
    7.5686    0.2855   17.5287 N   0  0  0  0  0  0  0  0  0  0  0  0
   10.4900    0.1568   22.4288 N   0  0  0  0  0  0  0  0  0  0  0  0
    8.6957    0.5701   21.0340 N   0  0  0  0  0  0  0  0  0  0  0  0
   10.6450   -0.3740   20.1520 O   0  0  0  0  0  0  0  0  0  0  0  0
   15.1933   -1.2905   24.3178 H   0  0  0  0  0  0  0  0  0  0  0  0
   13.4930   -0.3121   25.8376 H   0  0  0  0  0  0  0  0  0  0  0  0
   14.6798   -1.5869   21.9093 H   0  0  0  0  0  0  0  0  0  0  0  0
   11.2867    0.3678   24.9585 H   0  0  0  0  0  0  0  0  0  0  0  0
   12.4767   -0.9111   21.0170 H   0  0  0  0  0  0  0  0  0  0  0  0
    4.7736    1.6559   18.8648 H   0  0  0  0  0  0  0  0  0  0  0  0
    5.7494    0.8311   16.7253 H   0  0  0  0  0  0  0  0  0  0  0  0
    9.2997   -0.1839   18.5348 H   0  0  0  0  0  0  0  0  0  0  0  0
    5.5003    0.8556   21.8008 H   0  0  0  0  0  0  0  0  0  0  0  0
    6.8021    2.0643   21.9261 H   0  0  0  0  0  0  0  0  0  0  0  0
    5.2940    2.4872   21.1173 H   0  0  0  0  0  0  0  0  0  0  0  0
    9.8384    0.5530   23.1143 H   0  0  0  0  0  0  0  0  0  0  0  0
    8.2947    0.9076   21.9055 H   0  0  0  0  0  0  0  0  0  0  0  0
  1  2  1  0  0  0  0
  1  3  2  0  0  0  0
  2  4  2  0  0  0  0
  3  5  1  0  0  0  0
  4 10  1  0  0  0  0
  5 10  2  0  0  0  0
  6  7  2  0  0  0  0
  6  9  1  0  0  0  0
  7 14  1  0  0  0  0
  8 11  1  0  0  0  0
  8 14  2  0  0  0  0
  9 11  2  0  0  0  0
  9 13  1  0  0  0  0
 10 15  1  0  0  0  0
 11 16  1  0  0  0  0
 12 15  1  0  0  0  0
 12 16  1  0  0  0  0
 12 17  2  0  0  0  0
  1 18  1  0  0  0  0
  2 19  1  0  0  0  0
  3 20  1  0  0  0  0
  4 21  1  0  0  0  0
  5 22  1  0  0  0  0
  6 23  1  0  0  0  0
  7 24  1  0  0  0  0
  8 25  1  0  0  0  0
 13 26  1  0  0  0  0
 13 27  1  0  0  0  0
 13 28  1  0  0  0  0
 15 29  1  0  0  0  0
 16 30  1  0  0  0  0
M  END
> <IC50 (uM)>

> <IC50 (uM) - std>

> <Average Inhibition @ 20 uM>

> <Average Inhibition @ 20 uM - std>

> <Average Inhibition @ 50 uM>

> <Average Inhibition @ 50 uM - std>
5.51

> <Trypsin IC50 (uM)>
4.97

> <Relative Solubility @ 20 uM>

> <Relative Solubility @ 100 uM>

> <Hybrid2>
-10.495522

> <docked_fragment>
x0678

> <Mpro-_dock>
0.864149

> <site>
active-noncovalent

$$$$
TRY-UNI-714a760b-4
  -OEChem-05192003313D

 30 31  0     0  0  0  0  0  0999 V2000
   14.2238   -0.9928   23.9289 C   0  0  0  0  0  0  0  0  0  0  0  0
   13.2682   -0.4429   24.7832 C   0  0  0  0  0  0  0  0  0  0  0  0
   13.9351   -1.1595   22.5745 C   0  0  0  0  0  0  0  0  0  0  0  0
   12.0237   -0.0598   24.2832 C   0  0  0  0  0  0  0  0  0  0  0  0
   12.6905   -0.7765   22.0744 C   0  0  0  0  0  0  0  0  0  0  0  0
    5.7813    1.2555   18.8360 C   0  0  0  0  0  0  0  0  0  0  0  0
    6.3228    0.7972   17.6459 C   0  0  0  0  0  0  0  0  0  0  0  0
    8.3046    0.2321   18.6615 C   0  0  0  0  0  0  0  0  0  0  0  0
    6.5689    1.1841   19.9796 C   0  0  0  0  0  0  0  0  0  0  0  0
   11.7348   -0.2266   22.9288 C   0  0  0  0  0  0  0  0  0  0  0  0
    7.8559    0.6641   19.8992 C   0  0  0  0  0  0  0  0  0  0  0  0
   10.0066    0.0714   21.1003 C   0  0  0  0  0  0  0  0  0  0  0  0
    6.0104    1.6717   21.2761 C   0  0  0  0  0  0  0  0  0  0  0  0
    7.5686    0.2855   17.5287 N   0  0  0  0  0  0  0  0  0  0  0  0
   10.4900    0.1568   22.4288 N   0  0  0  0  0  0  0  0  0  0  0  0
    8.6957    0.5701   21.0340 N   0  0  0  0  0  0  0  0  0  0  0  0
   10.6450   -0.3740   20.1520 O   0  0  0  0  0  0  0  0  0  0  0  0
   15.1933   -1.2905   24.3178 H   0  0  0  0  0  0  0  0  0  0  0  0
   13.4930   -0.3121   25.8376 H   0  0  0  0  0  0  0  0  0  0  0  0
   14.6798   -1.5869   21.9093 H   0  0  0  0  0  0  0  0  0  0  0  0
   11.2867    0.3678   24.9585 H   0  0  0  0  0  0  0  0  0  0  0  0
   12.4767   -0.9111   21.0170 H   0  0  0  0  0  0  0  0  0  0  0  0
    4.7736    1.6559   18.8648 H   0  0  0  0  0  0  0  0  0  0  0  0
    5.7494    0.8311   16.7253 H   0  0  0  0  0  0  0  0  0  0  0  0
    9.2997   -0.1839   18.5348 H   0  0  0  0  0  0  0  0  0  0  0  0
    5.5003    0.8556   21.8008 H   0  0  0  0  0  0  0  0  0  0  0  0
    6.8021    2.0643   21.9261 H   0  0  0  0  0  0  0  0  0  0  0  0
    5.2940    2.4872   21.1173 H   0  0  0  0  0  0  0  0  0  0  0  0
    9.8384    0.5530   23.1143 H   0  0  0  0  0  0  0  0  0  0  0  0
    8.2947    0.9076   21.9055 H   0  0  0  0  0  0  0  0  0  0  0  0
  1  2  1  0  0  0  0
  1  3  2  0  0  0  0
  2  4  2  0  0  0  0
  3  5  1  0  0  0  0
  4 10  1  0  0  0  0
  5 10  2  0  0  0  0
  6  7  2  0  0  0  0
  6  9  1  0  0  0  0
  7 14  1  0  0  0  0
  8 11  1  0  0  0  0
  8 14  2  0  0  0  0
  9 11  2  0  0  0  0
  9 13  1  0  0  0  0
 10 15  1  0  0  0  0
 11 16  1  0  0  0  0
 12 15  1  0  0  0  0
 12 16  1  0  0  0  0
 12 17  2  0  0  0  0
  1 18  1  0  0  0  0
  2 19  1  0  0  0  0
  3 20  1  0  0  0  0
  4 21  1  0  0  0  0
  5 22  1  0  0  0  0
  6 23  1  0  0  0  0
  7 24  1  0  0  0  0
  8 25  1  0  0  0  0
 13 26  1  0  0  0  0
 13 27  1  0  0  0  0
 13 28  1  0  0  0  0
 15 29  1  0  0  0  0
 16 30  1  0  0  0  0
M  END
> <IC50 (uM)>

> <IC50 (uM) - std>

> <Average Inhibition @ 20 uM>

> <Average Inhibition @ 20 uM - std>

> <Average Inhibition @ 50 uM>

> <Average Inhibition @ 50 uM - std>
5.51

> <Trypsin IC50 (uM)>
4.97

> <Relative Solubility @ 20 uM>

> <Relative Solubility @ 100 uM>

> <Hybrid2>
-10.495522

> <docked_fragment>
x0678

> <Mpro-_dock>
0.864149

> <site>
active-noncovalent

$$$$
GAB-REV-70cc3ca5-20
  -OEChem-05192003313D

 36 37  0     0  0  0  0  0  0999 V2000
    9.3048   -1.5087   24.8874 C   0  0  0  0  0  0  0  0  0  0  0  0
    8.6549   -2.6702   22.8711 C   0  0  0  0  0  0  0  0  0  0  0  0
    8.6438   -2.4688   25.6535 C   0  0  0  0  0  0  0  0  0  0  0  0
    7.9940   -3.6303   23.6372 C   0  0  0  0  0  0  0  0  0  0  0  0
    5.0326    1.0821   19.5384 C   0  0  0  0  0  0  0  0  0  0  0  0
    5.5367    0.9436   18.2553 C   0  0  0  0  0  0  0  0  0  0  0  0
    7.5883    0.2680   19.0379 C   0  0  0  0  0  0  0  0  0  0  0  0
    9.3103   -1.6093   23.4962 C   0  0  0  0  0  0  0  0  0  0  0  0
    5.8766    0.7905   20.6042 C   0  0  0  0  0  0  0  0  0  0  0  0
    7.1805    0.3751   20.3577 C   0  0  0  0  0  0  0  0  0  0  0  0
    7.9885   -3.5296   25.0284 C   0  0  0  0  0  0  0  0  0  0  0  0
    9.3991   -0.3579   21.2986 C   0  0  0  0  0  0  0  0  0  0  0  0
    5.3595    0.9319   21.9982 C   0  0  0  0  0  0  0  0  0  0  0  0
   10.0162   -0.5825   22.6767 C   0  0  0  0  0  0  0  0  0  0  0  0
    6.7973    0.5426   17.9765 N   0  0  0  0  0  0  0  0  0  0  0  0
    8.4162   -5.8673   26.2355 N   0  0  0  0  0  0  0  0  0  0  0  0
    8.0773    0.0664   21.4081 N   0  0  0  0  0  0  0  0  0  0  0  0
   10.0359   -0.5459   20.2670 O   0  0  0  0  0  0  0  0  0  0  0  0
    6.8090   -4.1362   27.2677 O   0  0  0  0  0  0  0  0  0  0  0  0
    6.1301   -5.3495   25.1665 O   0  0  0  0  0  0  0  0  0  0  0  0
    7.1630   -4.7327   25.9872 S   0  0  0  0  0  0  0  0  0  0  0  0
    9.8124   -0.6855   25.3832 H   0  0  0  0  0  0  0  0  0  0  0  0
    8.6536   -2.7565   21.7877 H   0  0  0  0  0  0  0  0  0  0  0  0
    8.6452   -2.3807   26.7368 H   0  0  0  0  0  0  0  0  0  0  0  0
    7.4862   -4.4525   23.1398 H   0  0  0  0  0  0  0  0  0  0  0  0
    4.0104    1.4087   19.6967 H   0  0  0  0  0  0  0  0  0  0  0  0
    4.9188    1.1588   17.3897 H   0  0  0  0  0  0  0  0  0  0  0  0
    8.5940   -0.0516   18.7814 H   0  0  0  0  0  0  0  0  0  0  0  0
    4.9124   -0.0106   22.3349 H   0  0  0  0  0  0  0  0  0  0  0  0
    6.1629    1.2057   22.6931 H   0  0  0  0  0  0  0  0  0  0  0  0
    4.6002    1.7212   22.0610 H   0  0  0  0  0  0  0  0  0  0  0  0
   10.0312    0.3852   23.2049 H   0  0  0  0  0  0  0  0  0  0  0  0
   11.0724   -0.8660   22.5364 H   0  0  0  0  0  0  0  0  0  0  0  0
    8.8229   -5.9381   27.1762 H   0  0  0  0  0  0  0  0  0  0  0  0
    8.3589   -6.7650   25.7393 H   0  0  0  0  0  0  0  0  0  0  0  0
    7.7138    0.1661   22.3537 H   0  0  0  0  0  0  0  0  0  0  0  0
  1  3  2  0  0  0  0
  1  8  1  0  0  0  0
  2  4  1  0  0  0  0
  2  8  2  0  0  0  0
  3 11  1  0  0  0  0
  4 11  2  0  0  0  0
  5  6  2  0  0  0  0
  5  9  1  0  0  0  0
  6 15  1  0  0  0  0
  7 10  1  0  0  0  0
  7 15  2  0  0  0  0
  8 14  1  0  0  0  0
  9 10  2  0  0  0  0
  9 13  1  0  0  0  0
 10 17  1  0  0  0  0
 11 21  1  0  0  0  0
 12 14  1  0  0  0  0
 12 17  1  0  0  0  0
 12 18  2  0  0  0  0
 16 21  1  0  0  0  0
 19 21  2  0  0  0  0
 20 21  2  0  0  0  0
  1 22  1  0  0  0  0
  2 23  1  0  0  0  0
  3 24  1  0  0  0  0
  4 25  1  0  0  0  0
  5 26  1  0  0  0  0
  6 27  1  0  0  0  0
  7 28  1  0  0  0  0
 13 29  1  0  0  0  0
 13 30  1  0  0  0  0
 13 31  1  0  0  0  0
 14 32  1  0  0  0  0
 14 33  1  0  0  0  0
 16 34  1  0  0  0  0
 16 35  1  0  0  0  0
 17 36  1  0  0  0  0
M  END
> <IC50 (uM)>

> <IC50 (uM) - std>

> <Average Inhibition @ 20 uM>

> <Average Inhibition @ 20 uM - std>
4.76

> <Average Inhibition @ 50 uM>
1.42

> <Average Inhibition @ 50 uM - std>
10.9

> <Trypsin IC50 (uM)>
0.786

> <Relative Solubility @ 20 uM>
1.0

> <Relative Solubility @ 100 uM>
1.0

> <Hybrid2>
-10.478170

> <docked_fragment>
x0107

> <Mpro-_dock>
0.904521

> <site>
active-noncovalent

$$$$
TRY-UNI-714a760b-5
  -OEChem-05192003313D

 31 32  0     0  0  0  0  0  0999 V2000
   14.4414   -2.1141   23.0676 C   0  0  0  0  0  0  0  0  0  0  0  0
   13.9030   -1.3728   24.1193 C   0  0  0  0  0  0  0  0  0  0  0  0
   14.0714   -1.8301   21.7530 C   0  0  0  0  0  0  0  0  0  0  0  0
   12.9945   -0.3476   23.8565 C   0  0  0  0  0  0  0  0  0  0  0  0
   13.1629   -0.8049   21.4902 C   0  0  0  0  0  0  0  0  0  0  0  0
    6.0123    0.3635   19.9815 C   0  0  0  0  0  0  0  0  0  0  0  0
    6.3437    0.1960   18.6466 C   0  0  0  0  0  0  0  0  0  0  0  0
    8.5897    0.3967   19.0865 C   0  0  0  0  0  0  0  0  0  0  0  0
   12.6244   -0.0636   22.5419 C   0  0  0  0  0  0  0  0  0  0  0  0
    7.0473    0.5555   20.8899 C   0  0  0  0  0  0  0  0  0  0  0  0
    8.3635    0.5739   20.4420 C   0  0  0  0  0  0  0  0  0  0  0  0
   10.8066    0.8042   21.0103 C   0  0  0  0  0  0  0  0  0  0  0  0
    6.7185    0.7394   22.3352 C   0  0  0  0  0  0  0  0  0  0  0  0
   11.6527    1.0324   22.2602 C   0  0  0  0  0  0  0  0  0  0  0  0
    7.6103    0.2077   18.1740 N   0  0  0  0  0  0  0  0  0  0  0  0
    9.4511    0.7655   21.3270 N   0  0  0  0  0  0  0  0  0  0  0  0
   11.3141    0.6774   19.9005 O   0  0  0  0  0  0  0  0  0  0  0  0
   15.1499   -2.9115   23.2723 H   0  0  0  0  0  0  0  0  0  0  0  0
   14.1919   -1.5931   25.1429 H   0  0  0  0  0  0  0  0  0  0  0  0
   14.4913   -2.4063   20.9339 H   0  0  0  0  0  0  0  0  0  0  0  0
   12.5799    0.2247   24.6823 H   0  0  0  0  0  0  0  0  0  0  0  0
   12.8803   -0.5908   20.4628 H   0  0  0  0  0  0  0  0  0  0  0  0
    4.9751    0.3442   20.2983 H   0  0  0  0  0  0  0  0  0  0  0  0
    5.5732    0.0430   17.8981 H   0  0  0  0  0  0  0  0  0  0  0  0
    9.5952    0.4007   18.6762 H   0  0  0  0  0  0  0  0  0  0  0  0
    6.6975   -0.2301   22.8462 H   0  0  0  0  0  0  0  0  0  0  0  0
    7.4577    1.3802   22.8313 H   0  0  0  0  0  0  0  0  0  0  0  0
    5.7415    1.2223   22.4610 H   0  0  0  0  0  0  0  0  0  0  0  0
   10.9689    1.1670   23.1145 H   0  0  0  0  0  0  0  0  0  0  0  0
   12.1829    1.9919   22.1439 H   0  0  0  0  0  0  0  0  0  0  0  0
    9.2151    0.8894   22.3094 H   0  0  0  0  0  0  0  0  0  0  0  0
  1  2  1  0  0  0  0
  1  3  2  0  0  0  0
  2  4  2  0  0  0  0
  3  5  1  0  0  0  0
  4  9  1  0  0  0  0
  5  9  2  0  0  0  0
  6  7  2  0  0  0  0
  6 10  1  0  0  0  0
  7 15  1  0  0  0  0
  8 11  1  0  0  0  0
  8 15  2  0  0  0  0
  9 14  1  0  0  0  0
 10 11  2  0  0  0  0
 10 13  1  0  0  0  0
 11 16  1  0  0  0  0
 12 14  1  0  0  0  0
 12 16  1  0  0  0  0
 12 17  2  0  0  0  0
  1 18  1  0  0  0  0
  2 19  1  0  0  0  0
  3 20  1  0  0  0  0
  4 21  1  0  0  0  0
  5 22  1  0  0  0  0
  6 23  1  0  0  0  0
  7 24  1  0  0  0  0
  8 25  1  0  0  0  0
 13 26  1  0  0  0  0
 13 27  1  0  0  0  0
 13 28  1  0  0  0  0
 14 29  1  0  0  0  0
 14 30  1  0  0  0  0
 16 31  1  0  0  0  0
M  END
> <IC50 (uM)>

> <IC50 (uM) - std>

> <Average Inhibition @ 20 uM>

> <Average Inhibition @ 20 uM - std>
8.19

> <Average Inhibition @ 50 uM>
0.345

> <Average Inhibition @ 50 uM - std>
19.5

> <Trypsin IC50 (uM)>
0.723

> <Relative Solubility @ 20 uM>
1.0

> <Relative Solubility @ 100 uM>
1.0

> <Hybrid2>
-10.434412

> <docked_fragment>
x0678

> <Mpro-_dock>
-0.881286

> <site>
active-noncovalent

$$$$
WAR-XCH-b72a1bbc-15
  -OEChem-05192003313D

 41 43  0     0  0  0  0  0  0999 V2000
   11.6264    1.2515   23.4209 C   0  0  0  0  0  0  0  0  0  0  0  0
   13.7490    0.5646   22.4936 C   0  0  0  0  0  0  0  0  0  0  0  0
   11.9481    2.5852   23.1693 C   0  0  0  0  0  0  0  0  0  0  0  0
   14.0707    1.8984   22.2420 C   0  0  0  0  0  0  0  0  0  0  0  0
    8.0119   -4.3424   22.3359 C   0  0  0  0  0  0  0  0  0  0  0  0
    7.8630   -2.0527   21.6152 C   0  0  0  0  0  0  0  0  0  0  0  0
    6.7451   -4.5343   21.8085 C   0  0  0  0  0  0  0  0  0  0  0  0
    6.6029   -2.3471   21.1199 C   0  0  0  0  0  0  0  0  0  0  0  0
    8.5744   -3.0750   22.2333 C   0  0  0  0  0  0  0  0  0  0  0  0
   12.5269    0.2411   23.0831 C   0  0  0  0  0  0  0  0  0  0  0  0
   13.1702    2.9087   22.5799 C   0  0  0  0  0  0  0  0  0  0  0  0
    9.9299   -1.7624   23.9286 C   0  0  0  0  0  0  0  0  0  0  0  0
   10.9592   -2.3993   21.6932 C   0  0  0  0  0  0  0  0  0  0  0  0
   11.3422   -1.4866   24.4485 C   0  0  0  0  0  0  0  0  0  0  0  0
   12.3435   -2.1029   22.2817 C   0  0  0  0  0  0  0  0  0  0  0  0
    9.9585   -2.8084   22.7942 C   0  0  0  0  0  0  0  0  0  0  0  0
    6.0235   -3.5659   21.2009 N   0  0  0  0  0  0  0  0  0  0  0  0
   12.2065   -1.0894   23.3337 N   0  0  0  0  0  0  0  0  0  0  0  0
   12.1760    5.3669   22.8506 N   0  0  0  0  0  0  0  0  0  0  0  0
   14.7060    4.9430   23.1054 O   0  0  0  0  0  0  0  0  0  0  0  0
   13.6509    4.7715   20.8240 O   0  0  0  0  0  0  0  0  0  0  0  0
   13.5740    4.5778   22.2653 S   0  0  0  0  0  0  0  0  0  0  0  0
   10.6714    1.0108   23.8809 H   0  0  0  0  0  0  0  0  0  0  0  0
   14.4576   -0.2150   22.2254 H   0  0  0  0  0  0  0  0  0  0  0  0
   11.2390    3.3640   23.4368 H   0  0  0  0  0  0  0  0  0  0  0  0
   15.0258    2.1388   21.7826 H   0  0  0  0  0  0  0  0  0  0  0  0
    8.5405   -5.1608   22.8130 H   0  0  0  0  0  0  0  0  0  0  0  0
    8.2749   -1.0539   21.5197 H   0  0  0  0  0  0  0  0  0  0  0  0
    6.2615   -5.5042   21.8639 H   0  0  0  0  0  0  0  0  0  0  0  0
    6.0075   -1.5845   20.6289 H   0  0  0  0  0  0  0  0  0  0  0  0
    9.3030   -2.1201   24.7514 H   0  0  0  0  0  0  0  0  0  0  0  0
    9.4823   -0.8279   23.5726 H   0  0  0  0  0  0  0  0  0  0  0  0
   10.5944   -1.5134   21.1591 H   0  0  0  0  0  0  0  0  0  0  0  0
   11.0455   -3.1993   20.9500 H   0  0  0  0  0  0  0  0  0  0  0  0
   11.2903   -0.6897   25.1953 H   0  0  0  0  0  0  0  0  0  0  0  0
   11.7417   -2.3817   24.9332 H   0  0  0  0  0  0  0  0  0  0  0  0
   12.7740   -3.0156   22.6942 H   0  0  0  0  0  0  0  0  0  0  0  0
   12.9924   -1.7413   21.4842 H   0  0  0  0  0  0  0  0  0  0  0  0
   10.3044   -3.7857   23.2321 H   0  0  0  0  0  0  0  0  0  0  0  0
   12.2549    5.9027   23.7236 H   0  0  0  0  0  0  0  0  0  0  0  0
   11.5346    5.7832   22.1646 H   0  0  0  0  0  0  0  0  0  0  0  0
  1  3  2  0  0  0  0
  1 10  1  0  0  0  0
  2  4  1  0  0  0  0
  2 10  2  0  0  0  0
  3 11  1  0  0  0  0
  4 11  2  0  0  0  0
  5  7  2  0  0  0  0
  5  9  1  0  0  0  0
  6  8  1  0  0  0  0
  6  9  2  0  0  0  0
  7 17  1  0  0  0  0
  8 17  2  0  0  0  0
  9 16  1  0  0  0  0
 10 18  1  0  0  0  0
 11 22  1  0  0  0  0
 12 14  1  0  0  0  0
 12 16  1  0  0  0  0
 13 15  1  0  0  0  0
 13 16  1  0  0  0  0
 14 18  1  0  0  0  0
 15 18  1  0  0  0  0
 19 22  1  0  0  0  0
 20 22  2  0  0  0  0
 21 22  2  0  0  0  0
  1 23  1  0  0  0  0
  2 24  1  0  0  0  0
  3 25  1  0  0  0  0
  4 26  1  0  0  0  0
  5 27  1  0  0  0  0
  6 28  1  0  0  0  0
  7 29  1  0  0  0  0
  8 30  1  0  0  0  0
 12 31  1  0  0  0  0
 12 32  1  0  0  0  0
 13 33  1  0  0  0  0
 13 34  1  0  0  0  0
 14 35  1  0  0  0  0
 14 36  1  0  0  0  0
 15 37  1  0  0  0  0
 15 38  1  0  0  0  0
 16 39  1  0  0  0  0
 19 40  1  0  0  0  0
 19 41  1  0  0  0  0
M  END
> <IC50 (uM)>

> <IC50 (uM) - std>

> <Average Inhibition @ 20 uM>

> <Average Inhibition @ 20 uM - std>
0.875

> <Average Inhibition @ 50 uM>
0.328

> <Average Inhibition @ 50 uM - std>
1.65

> <Trypsin IC50 (uM)>
0.621

> <Relative Solubility @ 20 uM>
1.0

> <Relative Solubility @ 100 uM>
0.94

> <Hybrid2>
-10.408019

> <docked_fragment>
x0195

> <Mpro-_dock>
2.789766

> <site>
active-noncovalent

$$$$
TRY-UNI-714a760b-6
  -OEChem-05192003313D

 31 32  0     0  0  0  0  0  0999 V2000
   11.9931    0.6923   24.2939 C   0  0  0  0  0  0  0  0  0  0  0  0
   10.7591    0.2220   23.8450 C   0  0  0  0  0  0  0  0  0  0  0  0
   13.1375   -0.0889   24.1334 C   0  0  0  0  0  0  0  0  0  0  0  0
    5.5073    1.3894   18.9945 C   0  0  0  0  0  0  0  0  0  0  0  0
   11.8137   -1.8109   23.0754 C   0  0  0  0  0  0  0  0  0  0  0  0
    6.1456    1.1224   17.7940 C   0  0  0  0  0  0  0  0  0  0  0  0
    7.8068   -0.0712   18.8400 C   0  0  0  0  0  0  0  0  0  0  0  0
   10.6693   -1.0296   23.2358 C   0  0  0  0  0  0  0  0  0  0  0  0
    6.0747    0.8853   20.1595 C   0  0  0  0  0  0  0  0  0  0  0  0
    7.2465    0.1401   20.0894 C   0  0  0  0  0  0  0  0  0  0  0  0
   13.0478   -1.3405   23.5242 C   0  0  0  0  0  0  0  0  0  0  0  0
    9.0280   -1.1530   21.3138 C   0  0  0  0  0  0  0  0  0  0  0  0
    5.4079    1.1586   21.4677 C   0  0  0  0  0  0  0  0  0  0  0  0
    9.3493   -1.5323   22.7572 C   0  0  0  0  0  0  0  0  0  0  0  0
    7.2848    0.4025   17.6863 N   0  0  0  0  0  0  0  0  0  0  0  0
    7.8621   -0.3944   21.2462 N   0  0  0  0  0  0  0  0  0  0  0  0
    9.7419   -1.5027   20.3794 O   0  0  0  0  0  0  0  0  0  0  0  0
   14.4599   -2.3044   23.3276 Cl  0  0  0  0  0  0  0  0  0  0  0  0
   12.0625    1.6669   24.7683 H   0  0  0  0  0  0  0  0  0  0  0  0
    9.8726    0.8374   23.9742 H   0  0  0  0  0  0  0  0  0  0  0  0
   14.0927    0.2903   24.4884 H   0  0  0  0  0  0  0  0  0  0  0  0
    4.5942    1.9745   19.0148 H   0  0  0  0  0  0  0  0  0  0  0  0
   11.7386   -2.7858   22.5993 H   0  0  0  0  0  0  0  0  0  0  0  0
    5.7436    1.4931   16.8568 H   0  0  0  0  0  0  0  0  0  0  0  0
    8.7209   -0.6453   18.7203 H   0  0  0  0  0  0  0  0  0  0  0  0
    4.6846    0.3677   21.6978 H   0  0  0  0  0  0  0  0  0  0  0  0
    6.1403    1.2105   22.2826 H   0  0  0  0  0  0  0  0  0  0  0  0
    4.8807    2.1205   21.4504 H   0  0  0  0  0  0  0  0  0  0  0  0
    9.3055   -2.6310   22.8384 H   0  0  0  0  0  0  0  0  0  0  0  0
    8.5393   -1.1498   23.3998 H   0  0  0  0  0  0  0  0  0  0  0  0
    7.3987   -0.2020   22.1319 H   0  0  0  0  0  0  0  0  0  0  0  0
  1  2  2  0  0  0  0
  1  3  1  0  0  0  0
  2  8  1  0  0  0  0
  3 11  2  0  0  0  0
  4  6  2  0  0  0  0
  4  9  1  0  0  0  0
  5  8  2  0  0  0  0
  5 11  1  0  0  0  0
  6 15  1  0  0  0  0
  7 10  1  0  0  0  0
  7 15  2  0  0  0  0
  8 14  1  0  0  0  0
  9 10  2  0  0  0  0
  9 13  1  0  0  0  0
 10 16  1  0  0  0  0
 11 18  1  0  0  0  0
 12 14  1  0  0  0  0
 12 16  1  0  0  0  0
 12 17  2  0  0  0  0
  1 19  1  0  0  0  0
  2 20  1  0  0  0  0
  3 21  1  0  0  0  0
  4 22  1  0  0  0  0
  5 23  1  0  0  0  0
  6 24  1  0  0  0  0
  7 25  1  0  0  0  0
 13 26  1  0  0  0  0
 13 27  1  0  0  0  0
 13 28  1  0  0  0  0
 14 29  1  0  0  0  0
 14 30  1  0  0  0  0
 16 31  1  0  0  0  0
M  END
> <IC50 (uM)>
25.4

> <IC50 (uM) - std>
3.25

> <Average Inhibition @ 20 uM>
> 49.5

> <Average Inhibition @ 20 uM - std>
61.6

> <Average Inhibition @ 50 uM>
1.62

> <Average Inhibition @ 50 uM - std>
81.8

> <Trypsin IC50 (uM)>
0.414

> <Relative Solubility @ 20 uM>
1.0

> <Relative Solubility @ 100 uM>
1.0

> <Hybrid2>
-10.387289

> <docked_fragment>
x0678

> <Mpro-_dock>
-1.153472

> <site>
active-noncovalent

$$$$
WAR-XCH-b6889685-29
  -OEChem-05192003313D

 44 46  0     0  0  0  0  0  0999 V2000
   13.4187   -0.6772   24.5369 C   0  0  0  0  0  0  0  0  0  0  0  0
   12.3655    0.2373   24.5294 C   0  0  0  0  0  0  0  0  0  0  0  0
   13.3924   -1.7784   23.6811 C   0  0  0  0  0  0  0  0  0  0  0  0
    6.9911   -3.8885   26.4973 C   0  0  0  0  0  0  0  0  0  0  0  0
    6.1769   -5.4659   24.8584 C   0  0  0  0  0  0  0  0  0  0  0  0
   11.2859    0.0506   23.6661 C   0  0  0  0  0  0  0  0  0  0  0  0
   12.3128   -1.9651   22.8178 C   0  0  0  0  0  0  0  0  0  0  0  0
    6.4027   -4.6409   27.5138 C   0  0  0  0  0  0  0  0  0  0  0  0
    5.5886   -6.2184   25.8749 C   0  0  0  0  0  0  0  0  0  0  0  0
    6.8781   -4.3009   25.1696 C   0  0  0  0  0  0  0  0  0  0  0  0
   11.2595   -1.0506   22.8103 C   0  0  0  0  0  0  0  0  0  0  0  0
    5.7015   -5.8058   27.2026 C   0  0  0  0  0  0  0  0  0  0  0  0
    8.2982   -1.3477   23.4995 C   0  0  0  0  0  0  0  0  0  0  0  0
    9.3637   -3.4427   22.6201 C   0  0  0  0  0  0  0  0  0  0  0  0
    7.0784   -2.1616   23.9330 C   0  0  0  0  0  0  0  0  0  0  0  0
    8.1259   -4.2295   23.0433 C   0  0  0  0  0  0  0  0  0  0  0  0
    9.0107   -1.9872   22.3069 C   0  0  0  0  0  0  0  0  0  0  0  0
    7.4587   -3.5585   24.1658 N   0  0  0  0  0  0  0  0  0  0  0  0
    6.2385   -7.8156   28.8692 N   0  0  0  0  0  0  0  0  0  0  0  0
   10.1902   -1.2359   21.9548 N   0  0  0  0  0  0  0  0  0  0  0  0
    4.7162   -5.8717   29.6106 O   0  0  0  0  0  0  0  0  0  0  0  0
    3.8688   -7.5190   27.9030 O   0  0  0  0  0  0  0  0  0  0  0  0
    4.9642   -6.7480   28.4743 S   0  0  0  0  0  0  0  0  0  0  0  0
   14.2593   -0.5318   25.2093 H   0  0  0  0  0  0  0  0  0  0  0  0
   12.3861    1.0944   25.1957 H   0  0  0  0  0  0  0  0  0  0  0  0
   14.2127   -2.4905   23.6871 H   0  0  0  0  0  0  0  0  0  0  0  0
    7.5349   -2.9821   26.7511 H   0  0  0  0  0  0  0  0  0  0  0  0
    6.0837   -5.7969   23.8271 H   0  0  0  0  0  0  0  0  0  0  0  0
   10.4702    0.7689   23.6680 H   0  0  0  0  0  0  0  0  0  0  0  0
   12.3032   -2.8269   22.1552 H   0  0  0  0  0  0  0  0  0  0  0  0
    6.4970   -4.3100   28.5446 H   0  0  0  0  0  0  0  0  0  0  0  0
    5.0445   -7.1242   25.6209 H   0  0  0  0  0  0  0  0  0  0  0  0
    7.9705   -0.3409   23.2202 H   0  0  0  0  0  0  0  0  0  0  0  0
    8.9857   -1.2301   24.3418 H   0  0  0  0  0  0  0  0  0  0  0  0
   10.1242   -3.4941   23.3996 H   0  0  0  0  0  0  0  0  0  0  0  0
    9.7898   -3.9038   21.7268 H   0  0  0  0  0  0  0  0  0  0  0  0
    6.6375   -1.7337   24.8420 H   0  0  0  0  0  0  0  0  0  0  0  0
    6.3217   -2.1009   23.1410 H   0  0  0  0  0  0  0  0  0  0  0  0
    7.4449   -4.2981   22.1851 H   0  0  0  0  0  0  0  0  0  0  0  0
    8.4001   -5.2541   23.3268 H   0  0  0  0  0  0  0  0  0  0  0  0
    8.3287   -1.9687   21.4377 H   0  0  0  0  0  0  0  0  0  0  0  0
    6.7228   -7.6776   29.7646 H   0  0  0  0  0  0  0  0  0  0  0  0
    6.1435   -8.8014   28.5962 H   0  0  0  0  0  0  0  0  0  0  0  0
   10.2295   -0.8273   21.0312 H   0  0  0  0  0  0  0  0  0  0  0  0
  1  2  1  0  0  0  0
  1  3  2  0  0  0  0
  2  6  2  0  0  0  0
  3  7  1  0  0  0  0
  4  8  2  0  0  0  0
  4 10  1  0  0  0  0
  5  9  1  0  0  0  0
  5 10  2  0  0  0  0
  6 11  1  0  0  0  0
  7 11  2  0  0  0  0
  8 12  1  0  0  0  0
  9 12  2  0  0  0  0
 10 18  1  0  0  0  0
 11 20  1  0  0  0  0
 12 23  1  0  0  0  0
 13 15  1  0  0  0  0
 13 17  1  0  0  0  0
 14 16  1  0  0  0  0
 14 17  1  0  0  0  0
 15 18  1  0  0  0  0
 16 18  1  0  0  0  0
 17 20  1  0  0  0  0
 19 23  1  0  0  0  0
 21 23  2  0  0  0  0
 22 23  2  0  0  0  0
  1 24  1  0  0  0  0
  2 25  1  0  0  0  0
  3 26  1  0  0  0  0
  4 27  1  0  0  0  0
  5 28  1  0  0  0  0
  6 29  1  0  0  0  0
  7 30  1  0  0  0  0
  8 31  1  0  0  0  0
  9 32  1  0  0  0  0
 13 33  1  0  0  0  0
 13 34  1  0  0  0  0
 14 35  1  0  0  0  0
 14 36  1  0  0  0  0
 15 37  1  0  0  0  0
 15 38  1  0  0  0  0
 16 39  1  0  0  0  0
 16 40  1  0  0  0  0
 17 41  1  0  0  0  0
 19 42  1  0  0  0  0
 19 43  1  0  0  0  0
 20 44  1  0  0  0  0
M  END
> <IC50 (uM)>

> <IC50 (uM) - std>

> <Average Inhibition @ 20 uM>

> <Average Inhibition @ 20 uM - std>

> <Average Inhibition @ 50 uM>

> <Average Inhibition @ 50 uM - std>
-2.59

> <Trypsin IC50 (uM)>
3.83

> <Relative Solubility @ 20 uM>

> <Relative Solubility @ 100 uM>

> <Hybrid2>
-10.363422

> <docked_fragment>
x0072

> <Mpro-_dock>
2.334424

> <site>
active-noncovalent

$$$$
AAR-POS-fca48359-19
  -OEChem-05192003313D

 30 32  0     1  0  0  0  0  0999 V2000
   10.0672   -4.9175   24.7169 C   0  0  0  0  0  0  0  0  0  0  0  0
    8.9483   -5.5044   24.1152 C   0  0  0  0  0  0  0  0  0  0  0  0
   12.3834   -0.5697   23.9630 C   0  0  0  0  0  0  0  0  0  0  0  0
   13.4008   -0.6688   24.9159 C   0  0  0  0  0  0  0  0  0  0  0  0
   12.6062   -2.8527   25.6158 C   0  0  0  0  0  0  0  0  0  0  0  0
    8.6706   -3.5893   22.6485 C   0  0  0  0  0  0  0  0  0  0  0  0
   10.4993   -3.6468   24.2824 C   0  0  0  0  0  0  0  0  0  0  0  0
   11.5700   -2.7761   24.6615 C   0  0  0  0  0  0  0  0  0  0  0  0
    8.2618   -4.8482   23.0964 C   0  0  0  0  0  0  0  0  0  0  0  0
   11.4846   -1.6376   23.8597 C   0  0  0  0  0  0  0  0  0  0  0  0
    9.7910   -3.0151   23.2600 C   0  0  0  0  0  0  0  0  0  0  0  0
   13.5125   -1.7926   25.7311 C   0  0  0  0  0  0  0  0  0  0  0  0
    5.8100   -4.6561   22.7813 C   0  0  0  0  0  0  0  0  0  0  0  0
    7.2717   -5.7741   20.9745 C   0  0  0  0  0  0  0  0  0  0  0  0
    7.0713   -5.4976   22.4713 C   0  0  1  0  0  0  0  0  0  0  0  0
   10.4052   -1.8076   23.0251 N   0  0  0  0  0  0  0  0  0  0  0  0
    4.8962   -4.7428   21.9096 O   0  5  0  0  0  0  0  0  0  0  0  0
    5.8259   -3.9875   23.8524 O   0  0  0  0  0  0  0  0  0  0  0  0
   14.7788   -1.8819   26.8958 Cl  0  0  0  0  0  0  0  0  0  0  0  0
   10.5917   -5.4411   25.5112 H   0  0  0  0  0  0  0  0  0  0  0  0
    8.6199   -6.4839   24.4546 H   0  0  0  0  0  0  0  0  0  0  0  0
   12.2964    0.3057   23.3282 H   0  0  0  0  0  0  0  0  0  0  0  0
   14.1082    0.1522   25.0101 H   0  0  0  0  0  0  0  0  0  0  0  0
   12.6935   -3.7288   26.2533 H   0  0  0  0  0  0  0  0  0  0  0  0
    8.1408   -3.0715   21.8549 H   0  0  0  0  0  0  0  0  0  0  0  0
    7.4652   -4.8404   20.4346 H   0  0  0  0  0  0  0  0  0  0  0  0
    8.1214   -6.4441   20.8034 H   0  0  0  0  0  0  0  0  0  0  0  0
    6.3903   -6.2416   20.5217 H   0  0  0  0  0  0  0  0  0  0  0  0
    6.8831   -6.4838   22.9369 H   0  0  0  0  0  0  0  0  0  0  0  0
   10.1036   -1.1352   22.3337 H   0  0  0  0  0  0  0  0  0  0  0  0
  1  2  2  0  0  0  0
  1  7  1  0  0  0  0
  2  9  1  0  0  0  0
  3  4  2  0  0  0  0
  3 10  1  0  0  0  0
  4 12  1  0  0  0  0
  5  8  1  0  0  0  0
  5 12  2  0  0  0  0
  6  9  2  0  0  0  0
  6 11  1  0  0  0  0
  7  8  1  0  0  0  0
  7 11  2  0  0  0  0
  8 10  2  0  0  0  0
  9 15  1  0  0  0  0
 10 16  1  0  0  0  0
 11 16  1  0  0  0  0
 12 19  1  0  0  0  0
 13 15  1  0  0  0  0
 13 17  1  0  0  0  0
 13 18  2  0  0  0  0
 14 15  1  0  0  0  0
  1 20  1  0  0  0  0
  2 21  1  0  0  0  0
  3 22  1  0  0  0  0
  4 23  1  0  0  0  0
  5 24  1  0  0  0  0
  6 25  1  0  0  0  0
 14 26  1  0  0  0  0
 14 27  1  0  0  0  0
 14 28  1  0  0  0  0
 15 29  1  0  0  0  0
 16 30  1  0  0  0  0
M  CHG  1  17  -1
M  END
> <IC50 (uM)>

> <IC50 (uM) - std>

> <Average Inhibition @ 20 uM>

> <Average Inhibition @ 20 uM - std>
-0.548

> <Average Inhibition @ 50 uM>
0.936

> <Average Inhibition @ 50 uM - std>
3.97

> <Trypsin IC50 (uM)>
0.598

> <Relative Solubility @ 20 uM>
1.0

> <Relative Solubility @ 100 uM>
0.98

> <Hybrid2>
-10.343470

> <docked_fragment>
x0749

> <Mpro-_dock>
-0.456877

> <site>
active-covalent

$$$$
AAR-POS-fca48359-20
  -OEChem-05192003313D

 30 32  0     1  0  0  0  0  0999 V2000
   10.0672   -4.9175   24.7169 C   0  0  0  0  0  0  0  0  0  0  0  0
    8.9483   -5.5044   24.1152 C   0  0  0  0  0  0  0  0  0  0  0  0
   12.3834   -0.5697   23.9630 C   0  0  0  0  0  0  0  0  0  0  0  0
   13.4008   -0.6688   24.9159 C   0  0  0  0  0  0  0  0  0  0  0  0
   12.6062   -2.8527   25.6158 C   0  0  0  0  0  0  0  0  0  0  0  0
    8.6706   -3.5893   22.6485 C   0  0  0  0  0  0  0  0  0  0  0  0
   10.4993   -3.6468   24.2824 C   0  0  0  0  0  0  0  0  0  0  0  0
   11.5700   -2.7761   24.6615 C   0  0  0  0  0  0  0  0  0  0  0  0
    8.2618   -4.8482   23.0964 C   0  0  0  0  0  0  0  0  0  0  0  0
   11.4846   -1.6376   23.8597 C   0  0  0  0  0  0  0  0  0  0  0  0
    9.7910   -3.0151   23.2600 C   0  0  0  0  0  0  0  0  0  0  0  0
   13.5125   -1.7926   25.7311 C   0  0  0  0  0  0  0  0  0  0  0  0
    5.8100   -4.6561   22.7813 C   0  0  0  0  0  0  0  0  0  0  0  0
    7.2717   -5.7741   20.9745 C   0  0  0  0  0  0  0  0  0  0  0  0
    7.0713   -5.4976   22.4713 C   0  0  1  0  0  0  0  0  0  0  0  0
   10.4052   -1.8076   23.0251 N   0  0  0  0  0  0  0  0  0  0  0  0
    4.8962   -4.7428   21.9096 O   0  5  0  0  0  0  0  0  0  0  0  0
    5.8259   -3.9875   23.8524 O   0  0  0  0  0  0  0  0  0  0  0  0
   14.7788   -1.8819   26.8958 Cl  0  0  0  0  0  0  0  0  0  0  0  0
   10.5917   -5.4411   25.5112 H   0  0  0  0  0  0  0  0  0  0  0  0
    8.6199   -6.4839   24.4546 H   0  0  0  0  0  0  0  0  0  0  0  0
   12.2964    0.3057   23.3282 H   0  0  0  0  0  0  0  0  0  0  0  0
   14.1082    0.1522   25.0101 H   0  0  0  0  0  0  0  0  0  0  0  0
   12.6935   -3.7288   26.2533 H   0  0  0  0  0  0  0  0  0  0  0  0
    8.1408   -3.0715   21.8549 H   0  0  0  0  0  0  0  0  0  0  0  0
    7.4652   -4.8404   20.4346 H   0  0  0  0  0  0  0  0  0  0  0  0
    8.1214   -6.4441   20.8034 H   0  0  0  0  0  0  0  0  0  0  0  0
    6.3903   -6.2416   20.5217 H   0  0  0  0  0  0  0  0  0  0  0  0
    6.8831   -6.4838   22.9369 H   0  0  0  0  0  0  0  0  0  0  0  0
   10.1036   -1.1352   22.3337 H   0  0  0  0  0  0  0  0  0  0  0  0
  1  2  2  0  0  0  0
  1  7  1  0  0  0  0
  2  9  1  0  0  0  0
  3  4  2  0  0  0  0
  3 10  1  0  0  0  0
  4 12  1  0  0  0  0
  5  8  1  0  0  0  0
  5 12  2  0  0  0  0
  6  9  2  0  0  0  0
  6 11  1  0  0  0  0
  7  8  1  0  0  0  0
  7 11  2  0  0  0  0
  8 10  2  0  0  0  0
  9 15  1  0  0  0  0
 10 16  1  0  0  0  0
 11 16  1  0  0  0  0
 12 19  1  0  0  0  0
 13 15  1  0  0  0  0
 13 17  1  0  0  0  0
 13 18  2  0  0  0  0
 14 15  1  0  0  0  0
  1 20  1  0  0  0  0
  2 21  1  0  0  0  0
  3 22  1  0  0  0  0
  4 23  1  0  0  0  0
  5 24  1  0  0  0  0
  6 25  1  0  0  0  0
 14 26  1  0  0  0  0
 14 27  1  0  0  0  0
 14 28  1  0  0  0  0
 15 29  1  0  0  0  0
 16 30  1  0  0  0  0
M  CHG  1  17  -1
M  END
> <IC50 (uM)>

> <IC50 (uM) - std>

> <Average Inhibition @ 20 uM>

> <Average Inhibition @ 20 uM - std>
-0.548

> <Average Inhibition @ 50 uM>
0.936

> <Average Inhibition @ 50 uM - std>
3.97

> <Trypsin IC50 (uM)>
0.598

> <Relative Solubility @ 20 uM>
1.0

> <Relative Solubility @ 100 uM>
0.98

> <Hybrid2>
-10.343470

> <docked_fragment>
x0749

> <Mpro-_dock>
-0.456877

> <site>
active-covalent

$$$$
GER-UNI-ec786817-1
  -OEChem-05192003313D

 30 32  0     1  0  0  0  0  0999 V2000
   10.0672   -4.9175   24.7169 C   0  0  0  0  0  0  0  0  0  0  0  0
    8.9483   -5.5044   24.1152 C   0  0  0  0  0  0  0  0  0  0  0  0
   12.3834   -0.5697   23.9630 C   0  0  0  0  0  0  0  0  0  0  0  0
   13.4008   -0.6688   24.9159 C   0  0  0  0  0  0  0  0  0  0  0  0
   12.6062   -2.8527   25.6158 C   0  0  0  0  0  0  0  0  0  0  0  0
    8.6706   -3.5893   22.6485 C   0  0  0  0  0  0  0  0  0  0  0  0
   10.4993   -3.6468   24.2824 C   0  0  0  0  0  0  0  0  0  0  0  0
   11.5700   -2.7761   24.6615 C   0  0  0  0  0  0  0  0  0  0  0  0
    8.2618   -4.8482   23.0964 C   0  0  0  0  0  0  0  0  0  0  0  0
   11.4846   -1.6376   23.8597 C   0  0  0  0  0  0  0  0  0  0  0  0
    9.7910   -3.0151   23.2600 C   0  0  0  0  0  0  0  0  0  0  0  0
   13.5125   -1.7926   25.7311 C   0  0  0  0  0  0  0  0  0  0  0  0
    5.8100   -4.6561   22.7813 C   0  0  0  0  0  0  0  0  0  0  0  0
    7.2717   -5.7741   20.9745 C   0  0  0  0  0  0  0  0  0  0  0  0
    7.0713   -5.4976   22.4713 C   0  0  1  0  0  0  0  0  0  0  0  0
   10.4052   -1.8076   23.0251 N   0  0  0  0  0  0  0  0  0  0  0  0
    4.8962   -4.7428   21.9096 O   0  5  0  0  0  0  0  0  0  0  0  0
    5.8259   -3.9875   23.8524 O   0  0  0  0  0  0  0  0  0  0  0  0
   14.7788   -1.8819   26.8958 Cl  0  0  0  0  0  0  0  0  0  0  0  0
   10.5917   -5.4411   25.5112 H   0  0  0  0  0  0  0  0  0  0  0  0
    8.6199   -6.4839   24.4546 H   0  0  0  0  0  0  0  0  0  0  0  0
   12.2964    0.3057   23.3282 H   0  0  0  0  0  0  0  0  0  0  0  0
   14.1082    0.1522   25.0101 H   0  0  0  0  0  0  0  0  0  0  0  0
   12.6935   -3.7288   26.2533 H   0  0  0  0  0  0  0  0  0  0  0  0
    8.1408   -3.0715   21.8549 H   0  0  0  0  0  0  0  0  0  0  0  0
    7.4652   -4.8404   20.4346 H   0  0  0  0  0  0  0  0  0  0  0  0
    8.1214   -6.4441   20.8034 H   0  0  0  0  0  0  0  0  0  0  0  0
    6.3903   -6.2416   20.5217 H   0  0  0  0  0  0  0  0  0  0  0  0
    6.8831   -6.4838   22.9369 H   0  0  0  0  0  0  0  0  0  0  0  0
   10.1036   -1.1352   22.3337 H   0  0  0  0  0  0  0  0  0  0  0  0
  1  2  2  0  0  0  0
  1  7  1  0  0  0  0
  2  9  1  0  0  0  0
  3  4  2  0  0  0  0
  3 10  1  0  0  0  0
  4 12  1  0  0  0  0
  5  8  1  0  0  0  0
  5 12  2  0  0  0  0
  6  9  2  0  0  0  0
  6 11  1  0  0  0  0
  7  8  1  0  0  0  0
  7 11  2  0  0  0  0
  8 10  2  0  0  0  0
  9 15  1  0  0  0  0
 10 16  1  0  0  0  0
 11 16  1  0  0  0  0
 12 19  1  0  0  0  0
 13 15  1  0  0  0  0
 13 17  1  0  0  0  0
 13 18  2  0  0  0  0
 14 15  1  0  0  0  0
  1 20  1  0  0  0  0
  2 21  1  0  0  0  0
  3 22  1  0  0  0  0
  4 23  1  0  0  0  0
  5 24  1  0  0  0  0
  6 25  1  0  0  0  0
 14 26  1  0  0  0  0
 14 27  1  0  0  0  0
 14 28  1  0  0  0  0
 15 29  1  0  0  0  0
 16 30  1  0  0  0  0
M  CHG  1  17  -1
M  END
> <IC50 (uM)>

> <IC50 (uM) - std>

> <Average Inhibition @ 20 uM>

> <Average Inhibition @ 20 uM - std>
-0.548

> <Average Inhibition @ 50 uM>
0.936

> <Average Inhibition @ 50 uM - std>
3.97

> <Trypsin IC50 (uM)>
0.598

> <Relative Solubility @ 20 uM>
1.0

> <Relative Solubility @ 100 uM>
0.98

> <Hybrid2>
-10.343470

> <docked_fragment>
x0749

> <Mpro-_dock>
-0.456877

> <site>
active-covalent

$$$$
MAK-UNK-0d6072ac-4
  -OEChem-05192003313D

 30 32  0     1  0  0  0  0  0999 V2000
   10.0672   -4.9175   24.7169 C   0  0  0  0  0  0  0  0  0  0  0  0
    8.9483   -5.5044   24.1152 C   0  0  0  0  0  0  0  0  0  0  0  0
   12.3834   -0.5697   23.9630 C   0  0  0  0  0  0  0  0  0  0  0  0
   13.4008   -0.6688   24.9159 C   0  0  0  0  0  0  0  0  0  0  0  0
   12.6062   -2.8527   25.6158 C   0  0  0  0  0  0  0  0  0  0  0  0
    8.6706   -3.5893   22.6485 C   0  0  0  0  0  0  0  0  0  0  0  0
   10.4993   -3.6468   24.2824 C   0  0  0  0  0  0  0  0  0  0  0  0
   11.5700   -2.7761   24.6615 C   0  0  0  0  0  0  0  0  0  0  0  0
    8.2618   -4.8482   23.0964 C   0  0  0  0  0  0  0  0  0  0  0  0
   11.4846   -1.6376   23.8597 C   0  0  0  0  0  0  0  0  0  0  0  0
    9.7910   -3.0151   23.2600 C   0  0  0  0  0  0  0  0  0  0  0  0
   13.5125   -1.7926   25.7311 C   0  0  0  0  0  0  0  0  0  0  0  0
    5.8100   -4.6561   22.7813 C   0  0  0  0  0  0  0  0  0  0  0  0
    7.2717   -5.7741   20.9745 C   0  0  0  0  0  0  0  0  0  0  0  0
    7.0713   -5.4976   22.4713 C   0  0  1  0  0  0  0  0  0  0  0  0
   10.4052   -1.8076   23.0251 N   0  0  0  0  0  0  0  0  0  0  0  0
    4.8962   -4.7428   21.9096 O   0  5  0  0  0  0  0  0  0  0  0  0
    5.8259   -3.9875   23.8524 O   0  0  0  0  0  0  0  0  0  0  0  0
   14.7788   -1.8819   26.8958 Cl  0  0  0  0  0  0  0  0  0  0  0  0
   10.5917   -5.4411   25.5112 H   0  0  0  0  0  0  0  0  0  0  0  0
    8.6199   -6.4839   24.4546 H   0  0  0  0  0  0  0  0  0  0  0  0
   12.2964    0.3057   23.3282 H   0  0  0  0  0  0  0  0  0  0  0  0
   14.1082    0.1522   25.0101 H   0  0  0  0  0  0  0  0  0  0  0  0
   12.6935   -3.7288   26.2533 H   0  0  0  0  0  0  0  0  0  0  0  0
    8.1408   -3.0715   21.8549 H   0  0  0  0  0  0  0  0  0  0  0  0
    7.4652   -4.8404   20.4346 H   0  0  0  0  0  0  0  0  0  0  0  0
    8.1214   -6.4441   20.8034 H   0  0  0  0  0  0  0  0  0  0  0  0
    6.3903   -6.2416   20.5217 H   0  0  0  0  0  0  0  0  0  0  0  0
    6.8831   -6.4838   22.9369 H   0  0  0  0  0  0  0  0  0  0  0  0
   10.1036   -1.1352   22.3337 H   0  0  0  0  0  0  0  0  0  0  0  0
  1  2  2  0  0  0  0
  1  7  1  0  0  0  0
  2  9  1  0  0  0  0
  3  4  2  0  0  0  0
  3 10  1  0  0  0  0
  4 12  1  0  0  0  0
  5  8  1  0  0  0  0
  5 12  2  0  0  0  0
  6  9  2  0  0  0  0
  6 11  1  0  0  0  0
  7  8  1  0  0  0  0
  7 11  2  0  0  0  0
  8 10  2  0  0  0  0
  9 15  1  0  0  0  0
 10 16  1  0  0  0  0
 11 16  1  0  0  0  0
 12 19  1  0  0  0  0
 13 15  1  0  0  0  0
 13 17  1  0  0  0  0
 13 18  2  0  0  0  0
 14 15  1  0  0  0  0
  1 20  1  0  0  0  0
  2 21  1  0  0  0  0
  3 22  1  0  0  0  0
  4 23  1  0  0  0  0
  5 24  1  0  0  0  0
  6 25  1  0  0  0  0
 14 26  1  0  0  0  0
 14 27  1  0  0  0  0
 14 28  1  0  0  0  0
 15 29  1  0  0  0  0
 16 30  1  0  0  0  0
M  CHG  1  17  -1
M  END
> <IC50 (uM)>

> <IC50 (uM) - std>

> <Average Inhibition @ 20 uM>

> <Average Inhibition @ 20 uM - std>
-0.548

> <Average Inhibition @ 50 uM>
0.936

> <Average Inhibition @ 50 uM - std>
3.97

> <Trypsin IC50 (uM)>
0.598

> <Relative Solubility @ 20 uM>
1.0

> <Relative Solubility @ 100 uM>
0.98

> <Hybrid2>
-10.343470

> <docked_fragment>
x0749

> <Mpro-_dock>
-0.456877

> <site>
active-covalent

$$$$
BAR-COM-4e090d3a-34
  -OEChem-05192003313D

 43 45  0     1  0  0  0  0  0999 V2000
   13.9716   -0.3598   23.5587 C   0  0  0  0  0  0  0  0  0  0  0  0
   13.8238   -1.7239   23.3077 C   0  0  0  0  0  0  0  0  0  0  0  0
   12.8634    0.4850   23.4964 C   0  0  0  0  0  0  0  0  0  0  0  0
   12.5677   -2.2432   22.9942 C   0  0  0  0  0  0  0  0  0  0  0  0
    6.4923    0.8893   17.7245 C   0  0  0  0  0  0  0  0  0  0  0  0
    6.0102    0.8028   19.0064 C   0  0  0  0  0  0  0  0  0  0  0  0
   11.6073   -0.0344   23.1829 C   0  0  0  0  0  0  0  0  0  0  0  0
   11.4595   -1.3985   22.9318 C   0  0  0  0  0  0  0  0  0  0  0  0
   10.4405    0.8832   23.1218 C   0  0  0  0  0  0  0  0  0  0  0  0
    8.1136   -3.4271   24.8243 C   0  0  0  0  0  0  0  0  0  0  0  0
    9.2998   -2.4488   24.9152 C   0  0  0  0  0  0  0  0  0  0  0  0
    8.2482   -3.3417   23.2924 C   0  0  0  0  0  0  0  0  0  0  0  0
    9.7249   -2.9346   23.5096 C   0  0  0  0  0  0  0  0  0  0  0  0
    7.0761   -0.1127   21.1173 C   0  0  0  0  0  0  0  0  0  0  0  0
    8.6504    1.8130   21.6773 C   0  0  0  0  0  0  0  0  0  0  0  0
    7.3234    1.1173   21.9997 C   0  0  2  0  0  0  0  0  0  0  0  0
    7.7585    0.3759   17.6743 N   0  0  0  0  0  0  0  0  0  0  0  0
    8.0823   -0.0323   18.8964 N   0  0  0  0  0  0  0  0  0  0  0  0
    7.0326    0.2244   19.6936 N   0  0  0  0  0  0  0  0  0  0  0  0
    9.7957    0.9418   21.9035 N   0  0  0  0  0  0  0  0  0  0  0  0
   10.1357    1.5334   24.1182 O   0  0  0  0  0  0  0  0  0  0  0  0
    7.3708    0.6873   23.3622 O   0  0  0  0  0  0  0  0  0  0  0  0
   10.2401   -1.9251   22.6259 O   0  0  0  0  0  0  0  0  0  0  0  0
   14.9500    0.0443   23.8028 H   0  0  0  0  0  0  0  0  0  0  0  0
   14.6871   -2.3809   23.3559 H   0  0  0  0  0  0  0  0  0  0  0  0
   12.9904    1.5463   23.6944 H   0  0  0  0  0  0  0  0  0  0  0  0
   12.4594   -3.3068   22.7999 H   0  0  0  0  0  0  0  0  0  0  0  0
    6.0025    1.2886   16.8495 H   0  0  0  0  0  0  0  0  0  0  0  0
    5.0744    1.0880   19.4654 H   0  0  0  0  0  0  0  0  0  0  0  0
    8.3307   -4.4216   25.2306 H   0  0  0  0  0  0  0  0  0  0  0  0
    7.1686   -3.0693   25.2401 H   0  0  0  0  0  0  0  0  0  0  0  0
    9.0063   -1.3935   24.9544 H   0  0  0  0  0  0  0  0  0  0  0  0
   10.0106   -2.6502   25.7209 H   0  0  0  0  0  0  0  0  0  0  0  0
    8.0901   -4.2812   22.7566 H   0  0  0  0  0  0  0  0  0  0  0  0
    7.6320   -2.5602   22.8333 H   0  0  0  0  0  0  0  0  0  0  0  0
   10.4053   -3.7935   23.5451 H   0  0  0  0  0  0  0  0  0  0  0  0
    6.1215   -0.5915   21.3678 H   0  0  0  0  0  0  0  0  0  0  0  0
    7.8649   -0.8647   21.2337 H   0  0  0  0  0  0  0  0  0  0  0  0
    8.6484    2.1443   20.6320 H   0  0  0  0  0  0  0  0  0  0  0  0
    8.7536    2.7209   22.2832 H   0  0  0  0  0  0  0  0  0  0  0  0
    6.4935    1.8289   21.9100 H   0  0  0  0  0  0  0  0  0  0  0  0
   10.1352    0.4279   21.1035 H   0  0  0  0  0  0  0  0  0  0  0  0
    7.5275    1.4823   23.8929 H   0  0  0  0  0  0  0  0  0  0  0  0
  1  2  1  0  0  0  0
  1  3  2  0  0  0  0
  2  4  2  0  0  0  0
  3  7  1  0  0  0  0
  4  8  1  0  0  0  0
  5  6  2  0  0  0  0
  5 17  1  0  0  0  0
  6 19  1  0  0  0  0
  7  8  2  0  0  0  0
  7  9  1  0  0  0  0
  8 23  1  0  0  0  0
  9 20  1  0  0  0  0
  9 21  2  0  0  0  0
 10 11  1  0  0  0  0
 10 12  1  0  0  0  0
 11 13  1  0  0  0  0
 12 13  1  0  0  0  0
 13 23  1  0  0  0  0
 14 16  1  0  0  0  0
 14 19  1  0  0  0  0
 15 16  1  0  0  0  0
 15 20  1  0  0  0  0
 16 22  1  0  0  0  0
 17 18  2  0  0  0  0
 18 19  1  0  0  0  0
  1 24  1  0  0  0  0
  2 25  1  0  0  0  0
  3 26  1  0  0  0  0
  4 27  1  0  0  0  0
  5 28  1  0  0  0  0
  6 29  1  0  0  0  0
 10 30  1  0  0  0  0
 10 31  1  0  0  0  0
 11 32  1  0  0  0  0
 11 33  1  0  0  0  0
 12 34  1  0  0  0  0
 12 35  1  0  0  0  0
 13 36  1  0  0  0  0
 14 37  1  0  0  0  0
 14 38  1  0  0  0  0
 15 39  1  0  0  0  0
 15 40  1  0  0  0  0
 16 41  1  0  0  0  0
 20 42  1  0  0  0  0
 22 43  1  0  0  0  0
M  END
> <IC50 (uM)>

> <IC50 (uM) - std>

> <Average Inhibition @ 20 uM>

> <Average Inhibition @ 20 uM - std>
-1.11

> <Average Inhibition @ 50 uM>
0.298

> <Average Inhibition @ 50 uM - std>
2.04

> <Trypsin IC50 (uM)>
0.416

> <Relative Solubility @ 20 uM>
1.0

> <Relative Solubility @ 100 uM>
1.0

> <Hybrid2>
-10.300408

> <docked_fragment>
x0678

> <Mpro-_dock>
0.74999

> <site>
active-noncovalent

$$$$
HAN-NEW-5f56c3bc-1
  -OEChem-05192003313D

 29 30  0     0  0  0  0  0  0999 V2000
   14.5562   -1.7224   23.7409 C   0  0  0  0  0  0  0  0  0  0  0  0
   13.6506   -1.2381   24.6847 C   0  0  0  0  0  0  0  0  0  0  0  0
   14.2068   -1.7535   22.3909 C   0  0  0  0  0  0  0  0  0  0  0  0
   12.3954   -0.7850   24.2786 C   0  0  0  0  0  0  0  0  0  0  0  0
   12.9516   -1.3005   21.9847 C   0  0  0  0  0  0  0  0  0  0  0  0
    8.4266    0.1232   18.8760 C   0  0  0  0  0  0  0  0  0  0  0  0
    6.4151    0.8327   18.0901 C   0  0  0  0  0  0  0  0  0  0  0  0
   12.0459   -0.8162   22.9285 C   0  0  0  0  0  0  0  0  0  0  0  0
    8.0649    0.4344   20.1709 C   0  0  0  0  0  0  0  0  0  0  0  0
    6.8001    0.9639   20.3266 C   0  0  0  0  0  0  0  0  0  0  0  0
   10.2497   -0.3117   21.2145 C   0  0  0  0  0  0  0  0  0  0  0  0
    6.2966    1.3396   21.6822 C   0  0  0  0  0  0  0  0  0  0  0  0
    7.6237    0.3099   17.8080 N   0  0  0  0  0  0  0  0  0  0  0  0
    5.9458    1.1774   19.3044 N   0  0  0  0  0  0  0  0  0  0  0  0
   10.7905   -0.3628   22.5224 N   0  0  0  0  0  0  0  0  0  0  0  0
    8.9493    0.2164   21.2536 N   0  0  0  0  0  0  0  0  0  0  0  0
   10.8370   -0.6769   20.2011 O   0  0  0  0  0  0  0  0  0  0  0  0
   15.5339   -2.0745   24.0567 H   0  0  0  0  0  0  0  0  0  0  0  0
   13.9226   -1.2128   25.7358 H   0  0  0  0  0  0  0  0  0  0  0  0
   14.9126   -2.1298   21.6560 H   0  0  0  0  0  0  0  0  0  0  0  0
   11.6979   -0.4095   25.0231 H   0  0  0  0  0  0  0  0  0  0  0  0
   12.6903   -1.3295   20.9298 H   0  0  0  0  0  0  0  0  0  0  0  0
    9.4002   -0.2979   18.6444 H   0  0  0  0  0  0  0  0  0  0  0  0
    5.7486    0.9911   17.2509 H   0  0  0  0  0  0  0  0  0  0  0  0
    6.5504    2.3820   21.9055 H   0  0  0  0  0  0  0  0  0  0  0  0
    5.2080    1.2227   21.7464 H   0  0  0  0  0  0  0  0  0  0  0  0
    6.7333    0.6989   22.4580 H   0  0  0  0  0  0  0  0  0  0  0  0
   10.1778   -0.0211   23.2705 H   0  0  0  0  0  0  0  0  0  0  0  0
    8.5934    0.4770   22.1699 H   0  0  0  0  0  0  0  0  0  0  0  0
  1  2  1  0  0  0  0
  1  3  2  0  0  0  0
  2  4  2  0  0  0  0
  3  5  1  0  0  0  0
  4  8  1  0  0  0  0
  5  8  2  0  0  0  0
  6  9  1  0  0  0  0
  6 13  2  0  0  0  0
  7 13  1  0  0  0  0
  7 14  2  0  0  0  0
  8 15  1  0  0  0  0
  9 10  2  0  0  0  0
  9 16  1  0  0  0  0
 10 12  1  0  0  0  0
 10 14  1  0  0  0  0
 11 15  1  0  0  0  0
 11 16  1  0  0  0  0
 11 17  2  0  0  0  0
  1 18  1  0  0  0  0
  2 19  1  0  0  0  0
  3 20  1  0  0  0  0
  4 21  1  0  0  0  0
  5 22  1  0  0  0  0
  6 23  1  0  0  0  0
  7 24  1  0  0  0  0
 12 25  1  0  0  0  0
 12 26  1  0  0  0  0
 12 27  1  0  0  0  0
 15 28  1  0  0  0  0
 16 29  1  0  0  0  0
M  END
> <IC50 (uM)>

> <IC50 (uM) - std>

> <Average Inhibition @ 20 uM>

> <Average Inhibition @ 20 uM - std>
-2.06

> <Average Inhibition @ 50 uM>
0.489

> <Average Inhibition @ 50 uM - std>
-0.628

> <Trypsin IC50 (uM)>
0.645

> <Relative Solubility @ 20 uM>
0.99

> <Relative Solubility @ 100 uM>
0.99

> <Hybrid2>
-10.278812

> <docked_fragment>
x0678

> <Mpro-_dock>
0.416726

> <site>
active-noncovalent

$$$$
BAR-COM-4e090d3a-60
  -OEChem-05192003313D

 37 39  0     0  0  0  0  0  0999 V2000
    6.1260   -6.5802   22.4702 C   0  0  0  0  0  0  0  0  0  0  0  0
    5.1817    1.8232   19.3084 C   0  0  0  0  0  0  0  0  0  0  0  0
    6.2204   -6.3921   23.8490 C   0  0  0  0  0  0  0  0  0  0  0  0
    6.4324   -5.5332   21.6008 C   0  0  0  0  0  0  0  0  0  0  0  0
    5.6385    0.5170   19.2951 C   0  0  0  0  0  0  0  0  0  0  0  0
    6.9275   -4.1100   23.4893 C   0  0  0  0  0  0  0  0  0  0  0  0
    5.4260    2.6044   18.1969 C   0  0  0  0  0  0  0  0  0  0  0  0
    6.6212   -5.1570   24.3586 C   0  0  0  0  0  0  0  0  0  0  0  0
    6.8331   -4.2981   22.1104 C   0  0  0  0  0  0  0  0  0  0  0  0
    6.3092    0.0785   18.1711 C   0  0  0  0  0  0  0  0  0  0  0  0
    7.0699   -3.9023   26.4741 C   0  0  0  0  0  0  0  0  0  0  0  0
    6.6093   -2.9910   19.9606 C   0  0  0  0  0  0  0  0  0  0  0  0
    6.8565   -4.7183   27.7631 C   0  0  0  0  0  0  0  0  0  0  0  0
    6.4672   -5.8818   26.8293 C   0  0  0  0  0  0  0  0  0  0  0  0
    6.8241   -1.3302   18.1046 C   0  0  0  0  0  0  0  0  0  0  0  0
    6.0852    2.1489   17.1105 N   0  0  0  0  0  0  0  0  0  0  0  0
    6.5338    0.8651   17.0974 N   0  0  0  0  0  0  0  0  0  0  0  0
    6.7159   -4.9698   25.7380 N   0  0  0  0  0  0  0  0  0  0  0  0
    7.1395   -3.2513   21.2404 N   0  0  0  0  0  0  0  0  0  0  0  0
    7.1787   -1.8385   19.4097 N   0  0  0  0  0  0  0  0  0  0  0  0
    7.4127   -2.7743   26.2035 O   0  0  0  0  0  0  0  0  0  0  0  0
    5.7614   -3.6644   19.3798 O   0  0  0  0  0  0  0  0  0  0  0  0
    5.8150   -7.5421   22.0733 H   0  0  0  0  0  0  0  0  0  0  0  0
    4.6488    2.2199   20.1649 H   0  0  0  0  0  0  0  0  0  0  0  0
    5.9783   -7.2152   24.5167 H   0  0  0  0  0  0  0  0  0  0  0  0
    6.3541   -5.6916   20.5282 H   0  0  0  0  0  0  0  0  0  0  0  0
    5.4705   -0.1339   20.1464 H   0  0  0  0  0  0  0  0  0  0  0  0
    7.2398   -3.1465   23.8869 H   0  0  0  0  0  0  0  0  0  0  0  0
    5.0941    3.6348   18.1460 H   0  0  0  0  0  0  0  0  0  0  0  0
    7.7679   -4.8709   28.3463 H   0  0  0  0  0  0  0  0  0  0  0  0
    6.0533   -4.3393   28.3995 H   0  0  0  0  0  0  0  0  0  0  0  0
    7.1437   -6.7409   26.8461 H   0  0  0  0  0  0  0  0  0  0  0  0
    5.4260   -6.2086   26.8992 H   0  0  0  0  0  0  0  0  0  0  0  0
    6.0683   -1.9978   17.6766 H   0  0  0  0  0  0  0  0  0  0  0  0
    7.7126   -1.3942   17.4676 H   0  0  0  0  0  0  0  0  0  0  0  0
    7.8401   -2.5752   21.5618 H   0  0  0  0  0  0  0  0  0  0  0  0
    7.8738   -1.3354   19.9523 H   0  0  0  0  0  0  0  0  0  0  0  0
  1  3  1  0  0  0  0
  1  4  2  0  0  0  0
  2  5  2  0  0  0  0
  2  7  1  0  0  0  0
  3  8  2  0  0  0  0
  4  9  1  0  0  0  0
  5 10  1  0  0  0  0
  6  8  1  0  0  0  0
  6  9  2  0  0  0  0
  7 16  2  0  0  0  0
  8 18  1  0  0  0  0
  9 19  1  0  0  0  0
 10 15  1  0  0  0  0
 10 17  2  0  0  0  0
 11 13  1  0  0  0  0
 11 18  1  0  0  0  0
 11 21  2  0  0  0  0
 12 19  1  0  0  0  0
 12 20  1  0  0  0  0
 12 22  2  0  0  0  0
 13 14  1  0  0  0  0
 14 18  1  0  0  0  0
 15 20  1  0  0  0  0
 16 17  1  0  0  0  0
  1 23  1  0  0  0  0
  2 24  1  0  0  0  0
  3 25  1  0  0  0  0
  4 26  1  0  0  0  0
  5 27  1  0  0  0  0
  6 28  1  0  0  0  0
  7 29  1  0  0  0  0
 13 30  1  0  0  0  0
 13 31  1  0  0  0  0
 14 32  1  0  0  0  0
 14 33  1  0  0  0  0
 15 34  1  0  0  0  0
 15 35  1  0  0  0  0
 19 36  1  0  0  0  0
 20 37  1  0  0  0  0
M  END
> <IC50 (uM)>

> <IC50 (uM) - std>

> <Average Inhibition @ 20 uM>

> <Average Inhibition @ 20 uM - std>
3.61

> <Average Inhibition @ 50 uM>
0.361

> <Average Inhibition @ 50 uM - std>
6.82

> <Trypsin IC50 (uM)>
1.29

> <Relative Solubility @ 20 uM>
1.0

> <Relative Solubility @ 100 uM>
1.0

> <Hybrid2>
-10.245558

> <docked_fragment>
x0397

> <Mpro-_dock>
1.46643

> <site>
active-noncovalent

$$$$
BAR-COM-4e090d3a-47
  -OEChem-05192003313D

 48 50  0     0  0  0  0  0  0999 V2000
   10.1320    6.4931   23.3470 C   0  0  0  0  0  0  0  0  0  0  0  0
   11.2802    5.7017   23.3192 C   0  0  0  0  0  0  0  0  0  0  0  0
    8.8720    5.8958   23.3070 C   0  0  0  0  0  0  0  0  0  0  0  0
    5.6864    1.3776   19.3339 C   0  0  0  0  0  0  0  0  0  0  0  0
   11.1686    4.3130   23.2514 C   0  0  0  0  0  0  0  0  0  0  0  0
    8.7604    4.5071   23.2391 C   0  0  0  0  0  0  0  0  0  0  0  0
    6.3445    0.9574   20.4844 C   0  0  0  0  0  0  0  0  0  0  0  0
    6.2279    1.0199   18.1097 C   0  0  0  0  0  0  0  0  0  0  0  0
    7.9674   -0.1023   19.1063 C   0  0  0  0  0  0  0  0  0  0  0  0
   14.8851   -1.5425   23.4336 C   0  0  0  0  0  0  0  0  0  0  0  0
    9.9087    3.7156   23.2113 C   0  0  0  0  0  0  0  0  0  0  0  0
    7.5075    0.2030   20.3771 C   0  0  0  0  0  0  0  0  0  0  0  0
   13.6550   -1.0974   23.0190 C   0  0  0  0  0  0  0  0  0  0  0  0
   10.7204   -0.6250   21.6258 C   0  0  0  0  0  0  0  0  0  0  0  0
   15.6985   -2.2037   25.7197 C   0  0  0  0  0  0  0  0  0  0  0  0
    9.7872    2.2133   23.1376 C   0  0  0  0  0  0  0  0  0  0  0  0
    8.2407   -0.2662   21.6004 C   0  0  0  0  0  0  0  0  0  0  0  0
   13.2041   -0.7142   21.6392 C   0  0  0  0  0  0  0  0  0  0  0  0
    9.7520    1.6883   21.7045 C   0  0  0  0  0  0  0  0  0  0  0  0
    7.3555    0.2882   17.9657 N   0  0  0  0  0  0  0  0  0  0  0  0
   12.8042   -1.0366   24.0877 N   0  0  0  0  0  0  0  0  0  0  0  0
   13.4732   -1.4329   25.1650 N   0  0  0  0  0  0  0  0  0  0  0  0
   14.7206   -1.7356   24.7707 N   0  0  0  0  0  0  0  0  0  0  0  0
   11.9562    0.0150   21.6608 N   0  0  0  0  0  0  0  0  0  0  0  0
    9.6077    0.2360   21.6429 N   0  0  0  0  0  0  0  0  0  0  0  0
   10.6204   -1.8546   21.5740 O   0  0  0  0  0  0  0  0  0  0  0  0
   10.2190    7.5744   23.4012 H   0  0  0  0  0  0  0  0  0  0  0  0
   12.2613    6.1665   23.3515 H   0  0  0  0  0  0  0  0  0  0  0  0
    7.9778    6.5116   23.3297 H   0  0  0  0  0  0  0  0  0  0  0  0
    4.7781    1.9663   19.3935 H   0  0  0  0  0  0  0  0  0  0  0  0
   12.0687    3.7043   23.2300 H   0  0  0  0  0  0  0  0  0  0  0  0
    7.7747    4.0505   23.2082 H   0  0  0  0  0  0  0  0  0  0  0  0
    5.9441    1.2220   21.4593 H   0  0  0  0  0  0  0  0  0  0  0  0
    5.7524    1.3235   17.1829 H   0  0  0  0  0  0  0  0  0  0  0  0
    8.8697   -0.6880   18.9600 H   0  0  0  0  0  0  0  0  0  0  0  0
   15.8172   -1.7308   22.9198 H   0  0  0  0  0  0  0  0  0  0  0  0
   16.2240   -1.3327   26.1200 H   0  0  0  0  0  0  0  0  0  0  0  0
   15.1946   -2.7486   26.5229 H   0  0  0  0  0  0  0  0  0  0  0  0
   16.3986   -2.8757   25.2155 H   0  0  0  0  0  0  0  0  0  0  0  0
    8.8682    1.9126   23.6566 H   0  0  0  0  0  0  0  0  0  0  0  0
   10.6125    1.7468   23.6906 H   0  0  0  0  0  0  0  0  0  0  0  0
    7.7296    0.0695   22.5094 H   0  0  0  0  0  0  0  0  0  0  0  0
    8.2845   -1.3598   21.6370 H   0  0  0  0  0  0  0  0  0  0  0  0
   13.9544   -0.0842   21.1489 H   0  0  0  0  0  0  0  0  0  0  0  0
   13.0632   -1.6004   21.0115 H   0  0  0  0  0  0  0  0  0  0  0  0
    8.8951    2.1135   21.1725 H   0  0  0  0  0  0  0  0  0  0  0  0
   10.6610    1.9535   21.1546 H   0  0  0  0  0  0  0  0  0  0  0  0
   11.9818    1.0268   21.7030 H   0  0  0  0  0  0  0  0  0  0  0  0
  1  2  1  0  0  0  0
  1  3  2  0  0  0  0
  2  5  2  0  0  0  0
  3  6  1  0  0  0  0
  4  7  2  0  0  0  0
  4  8  1  0  0  0  0
  5 11  1  0  0  0  0
  6 11  2  0  0  0  0
  7 12  1  0  0  0  0
  8 20  2  0  0  0  0
  9 12  2  0  0  0  0
  9 20  1  0  0  0  0
 10 13  2  0  0  0  0
 10 23  1  0  0  0  0
 11 16  1  0  0  0  0
 12 17  1  0  0  0  0
 13 18  1  0  0  0  0
 13 21  1  0  0  0  0
 14 24  1  0  0  0  0
 14 25  1  0  0  0  0
 14 26  2  0  0  0  0
 15 23  1  0  0  0  0
 16 19  1  0  0  0  0
 17 25  1  0  0  0  0
 18 24  1  0  0  0  0
 19 25  1  0  0  0  0
 21 22  2  0  0  0  0
 22 23  1  0  0  0  0
  1 27  1  0  0  0  0
  2 28  1  0  0  0  0
  3 29  1  0  0  0  0
  4 30  1  0  0  0  0
  5 31  1  0  0  0  0
  6 32  1  0  0  0  0
  7 33  1  0  0  0  0
  8 34  1  0  0  0  0
  9 35  1  0  0  0  0
 10 36  1  0  0  0  0
 15 37  1  0  0  0  0
 15 38  1  0  0  0  0
 15 39  1  0  0  0  0
 16 40  1  0  0  0  0
 16 41  1  0  0  0  0
 17 42  1  0  0  0  0
 17 43  1  0  0  0  0
 18 44  1  0  0  0  0
 18 45  1  0  0  0  0
 19 46  1  0  0  0  0
 19 47  1  0  0  0  0
 24 48  1  0  0  0  0
M  END
> <IC50 (uM)>

> <IC50 (uM) - std>

> <Average Inhibition @ 20 uM>

> <Average Inhibition @ 20 uM - std>

> <Average Inhibition @ 50 uM>

> <Average Inhibition @ 50 uM - std>
3.88

> <Trypsin IC50 (uM)>
1.33

> <Relative Solubility @ 20 uM>

> <Relative Solubility @ 100 uM>

> <Hybrid2>
-10.219568

> <docked_fragment>
x0678

> <Mpro-_dock>
3.48158

> <site>
active-noncovalent

$$$$
SIM-SYN-f15aaa3a-1
  -OEChem-05192003313D

 45 47  0     0  0  0  0  0  0999 V2000
    8.5396   -4.7877   26.3010 C   0  0  0  0  0  0  0  0  0  0  0  0
   12.5446    0.5391   23.6875 C   0  0  0  0  0  0  0  0  0  0  0  0
    9.6954   -5.0885   25.5805 C   0  0  0  0  0  0  0  0  0  0  0  0
    7.7194   -3.7347   25.8959 C   0  0  0  0  0  0  0  0  0  0  0  0
   12.6025   -0.1743   22.4903 C   0  0  0  0  0  0  0  0  0  0  0  0
   11.5261    0.2807   24.6049 C   0  0  0  0  0  0  0  0  0  0  0  0
   10.0311   -4.3362   24.4548 C   0  0  0  0  0  0  0  0  0  0  0  0
    8.0550   -2.9824   24.7702 C   0  0  0  0  0  0  0  0  0  0  0  0
   11.6418   -1.1461   22.2104 C   0  0  0  0  0  0  0  0  0  0  0  0
   10.5654   -0.6910   24.3250 C   0  0  0  0  0  0  0  0  0  0  0  0
    9.2109   -3.2832   24.0497 C   0  0  0  0  0  0  0  0  0  0  0  0
   10.6232   -1.4045   23.1278 C   0  0  0  0  0  0  0  0  0  0  0  0
    6.3584   -1.0197   18.5509 C   0  0  0  0  0  0  0  0  0  0  0  0
    6.4431   -2.3468   20.6372 C   0  0  0  0  0  0  0  0  0  0  0  0
    7.4890   -0.1154   20.6418 C   0  0  0  0  0  0  0  0  0  0  0  0
    7.6895   -2.9550   21.2634 C   0  0  0  0  0  0  0  0  0  0  0  0
    8.7513   -0.6901   21.2703 C   0  0  0  0  0  0  0  0  0  0  0  0
    6.7411    0.2528   17.8380 C   0  0  0  0  0  0  0  0  0  0  0  0
    9.5762   -2.4629   22.8234 C   0  0  0  0  0  0  0  0  0  0  0  0
    6.7717   -1.1410   19.8768 N   0  0  0  0  0  0  0  0  0  0  0  0
    8.3858   -1.9026   22.0970 N   0  3  0  0  0  0  0  0  0  0  0  0
    5.7140   -1.8797   17.9450 O   0  0  0  0  0  0  0  0  0  0  0  0
    8.3215   -0.0296   17.1167 Cl  0  0  0  0  0  0  0  0  0  0  0  0
    8.2777   -5.3744   27.1766 H   0  0  0  0  0  0  0  0  0  0  0  0
   13.2935    1.2949   23.9058 H   0  0  0  0  0  0  0  0  0  0  0  0
   10.3337   -5.9090   25.8951 H   0  0  0  0  0  0  0  0  0  0  0  0
    6.8188   -3.5010   26.4560 H   0  0  0  0  0  0  0  0  0  0  0  0
   13.3961    0.0260   21.7764 H   0  0  0  0  0  0  0  0  0  0  0  0
   11.4813    0.8353   25.5375 H   0  0  0  0  0  0  0  0  0  0  0  0
   10.9337   -4.5776   23.8996 H   0  0  0  0  0  0  0  0  0  0  0  0
    7.4101   -2.1638   24.4621 H   0  0  0  0  0  0  0  0  0  0  0  0
   11.6947   -1.6970   21.2750 H   0  0  0  0  0  0  0  0  0  0  0  0
    9.7754   -0.8855   25.0456 H   0  0  0  0  0  0  0  0  0  0  0  0
    5.9565   -3.0891   19.9967 H   0  0  0  0  0  0  0  0  0  0  0  0
    5.7197   -2.0614   21.4106 H   0  0  0  0  0  0  0  0  0  0  0  0
    6.8045    0.2503   21.4168 H   0  0  0  0  0  0  0  0  0  0  0  0
    7.7569    0.7420   20.0221 H   0  0  0  0  0  0  0  0  0  0  0  0
    7.4228   -3.7785   21.9337 H   0  0  0  0  0  0  0  0  0  0  0  0
    8.3988   -3.3091   20.5069 H   0  0  0  0  0  0  0  0  0  0  0  0
    9.4794   -1.0049   20.5144 H   0  0  0  0  0  0  0  0  0  0  0  0
    9.2120    0.0382   21.9457 H   0  0  0  0  0  0  0  0  0  0  0  0
    6.8009    1.0571   18.5624 H   0  0  0  0  0  0  0  0  0  0  0  0
    6.0095    0.4557   17.0644 H   0  0  0  0  0  0  0  0  0  0  0  0
    9.9882   -3.1585   22.0799 H   0  0  0  0  0  0  0  0  0  0  0  0
    7.7214   -1.5926   22.8195 H   0  0  0  0  0  0  0  0  0  0  0  0
  1  3  1  0  0  0  0
  1  4  2  0  0  0  0
  2  5  1  0  0  0  0
  2  6  2  0  0  0  0
  3  7  2  0  0  0  0
  4  8  1  0  0  0  0
  5  9  2  0  0  0  0
  6 10  1  0  0  0  0
  7 11  1  0  0  0  0
  8 11  2  0  0  0  0
  9 12  1  0  0  0  0
 10 12  2  0  0  0  0
 11 19  1  0  0  0  0
 12 19  1  0  0  0  0
 13 18  1  0  0  0  0
 13 20  1  0  0  0  0
 13 22  2  0  0  0  0
 14 16  1  0  0  0  0
 14 20  1  0  0  0  0
 15 17  1  0  0  0  0
 15 20  1  0  0  0  0
 16 21  1  0  0  0  0
 17 21  1  0  0  0  0
 18 23  1  0  0  0  0
 19 21  1  0  0  0  0
  1 24  1  0  0  0  0
  2 25  1  0  0  0  0
  3 26  1  0  0  0  0
  4 27  1  0  0  0  0
  5 28  1  0  0  0  0
  6 29  1  0  0  0  0
  7 30  1  0  0  0  0
  8 31  1  0  0  0  0
  9 32  1  0  0  0  0
 10 33  1  0  0  0  0
 14 34  1  0  0  0  0
 14 35  1  0  0  0  0
 15 36  1  0  0  0  0
 15 37  1  0  0  0  0
 16 38  1  0  0  0  0
 16 39  1  0  0  0  0
 17 40  1  0  0  0  0
 17 41  1  0  0  0  0
 18 42  1  0  0  0  0
 18 43  1  0  0  0  0
 19 44  1  0  0  0  0
 21 45  1  0  0  0  0
M  CHG  1  21   1
M  END
> <IC50 (uM)>

> <IC50 (uM) - std>

> <Average Inhibition @ 20 uM>

> <Average Inhibition @ 20 uM - std>

> <Average Inhibition @ 50 uM>

> <Average Inhibition @ 50 uM - std>
102.0

> <Trypsin IC50 (uM)>
0.34

> <Relative Solubility @ 20 uM>

> <Relative Solubility @ 100 uM>

> <Hybrid2>
-10.115160

> <docked_fragment>
x1392

> <Mpro-_dock>
0.387517

> <site>
active-covalent

$$$$
TRY-UNI-1fd04853-7
  -OEChem-05192003313D

 35 37  0     0  0  0  0  0  0999 V2000
    5.7179    1.0113   18.7480 C   0  0  0  0  0  0  0  0  0  0  0  0
    6.2970    1.0661   20.0145 C   0  0  0  0  0  0  0  0  0  0  0  0
   12.6030   -2.1929   23.7758 C   0  0  0  0  0  0  0  0  0  0  0  0
   13.1490    0.1499   23.5520 C   0  0  0  0  0  0  0  0  0  0  0  0
   13.7317   -2.5275   23.0277 C   0  0  0  0  0  0  0  0  0  0  0  0
   14.2778   -0.1847   22.8039 C   0  0  0  0  0  0  0  0  0  0  0  0
    6.4680    0.5119   17.6918 C   0  0  0  0  0  0  0  0  0  0  0  0
    9.7081   -0.0437   20.7019 C   0  0  0  0  0  0  0  0  0  0  0  0
    7.6177    0.6092   20.1520 C   0  0  0  0  0  0  0  0  0  0  0  0
   12.3116   -0.8542   24.0380 C   0  0  0  0  0  0  0  0  0  0  0  0
    8.5482    0.4924   21.2182 C   0  0  0  0  0  0  0  0  0  0  0  0
   14.5691   -1.5234   22.5418 C   0  0  0  0  0  0  0  0  0  0  0  0
    8.2531    0.1337   19.0086 C   0  0  0  0  0  0  0  0  0  0  0  0
    9.5959    0.9327   23.4734 C   0  0  0  0  0  0  0  0  0  0  0  0
    8.3245    0.8735   22.6272 C   0  0  0  0  0  0  0  0  0  0  0  0
   11.0977   -0.4938   24.8446 C   0  0  0  0  0  0  0  0  0  0  0  0
    7.7412    0.0592   17.7654 N   0  0  0  0  0  0  0  0  0  0  0  0
    9.5181   -0.2569   19.3611 N   0  0  0  0  0  0  0  0  0  0  0  0
    9.9334   -0.3008   24.0121 N   0  0  0  0  0  0  0  0  0  0  0  0
   10.2309    1.9711   23.6388 O   0  0  0  0  0  0  0  0  0  0  0  0
   15.9615   -1.9363   21.6191 Cl  0  0  0  0  0  0  0  0  0  0  0  0
    4.7003    1.3529   18.5917 H   0  0  0  0  0  0  0  0  0  0  0  0
    5.7378    1.4502   20.8615 H   0  0  0  0  0  0  0  0  0  0  0  0
   11.9553   -2.9811   24.1508 H   0  0  0  0  0  0  0  0  0  0  0  0
   12.9292    1.1953   23.7521 H   0  0  0  0  0  0  0  0  0  0  0  0
   13.9462   -3.5749   22.8317 H   0  0  0  0  0  0  0  0  0  0  0  0
   14.9211    0.6084   22.4317 H   0  0  0  0  0  0  0  0  0  0  0  0
    6.0324    0.4609   16.6973 H   0  0  0  0  0  0  0  0  0  0  0  0
   10.6517   -0.2934   21.1670 H   0  0  0  0  0  0  0  0  0  0  0  0
    7.8329    1.8635   22.6972 H   0  0  0  0  0  0  0  0  0  0  0  0
    7.6300    0.1698   23.1263 H   0  0  0  0  0  0  0  0  0  0  0  0
   10.8673   -1.2825   25.5690 H   0  0  0  0  0  0  0  0  0  0  0  0
   11.2616    0.4295   25.4101 H   0  0  0  0  0  0  0  0  0  0  0  0
   10.2058   -0.6418   18.7286 H   0  0  0  0  0  0  0  0  0  0  0  0
    9.3382   -1.0995   23.8131 H   0  0  0  0  0  0  0  0  0  0  0  0
  1  2  2  0  0  0  0
  1  7  1  0  0  0  0
  2  9  1  0  0  0  0
  3  5  2  0  0  0  0
  3 10  1  0  0  0  0
  4  6  1  0  0  0  0
  4 10  2  0  0  0  0
  5 12  1  0  0  0  0
  6 12  2  0  0  0  0
  7 17  2  0  0  0  0
  8 11  2  0  0  0  0
  8 18  1  0  0  0  0
  9 11  1  0  0  0  0
  9 13  2  0  0  0  0
 10 16  1  0  0  0  0
 11 15  1  0  0  0  0
 12 21  1  0  0  0  0
 13 17  1  0  0  0  0
 13 18  1  0  0  0  0
 14 15  1  0  0  0  0
 14 19  1  0  0  0  0
 14 20  2  0  0  0  0
 16 19  1  0  0  0  0
  1 22  1  0  0  0  0
  2 23  1  0  0  0  0
  3 24  1  0  0  0  0
  4 25  1  0  0  0  0
  5 26  1  0  0  0  0
  6 27  1  0  0  0  0
  7 28  1  0  0  0  0
  8 29  1  0  0  0  0
 15 30  1  0  0  0  0
 15 31  1  0  0  0  0
 16 32  1  0  0  0  0
 16 33  1  0  0  0  0
 18 34  1  0  0  0  0
 19 35  1  0  0  0  0
M  END
> <IC50 (uM)>

> <IC50 (uM) - std>

> <Average Inhibition @ 20 uM>

> <Average Inhibition @ 20 uM - std>
2.99

> <Average Inhibition @ 50 uM>
2.55

> <Average Inhibition @ 50 uM - std>
3.45

> <Trypsin IC50 (uM)>
2.03

> <Relative Solubility @ 20 uM>
1.0

> <Relative Solubility @ 100 uM>
0.95

> <Hybrid2>
-10.089762

> <docked_fragment>
x0678

> <Mpro-_dock>
-0.169899

> <site>
active-noncovalent

$$$$
JOO-IND-b13e14cc-1
  -OEChem-05192003313D

 35 37  0     1  0  0  0  0  0999 V2000
   13.6469   -0.7956   25.0683 C   0  0  0  0  0  0  0  0  0  0  0  0
   14.0655   -1.7628   25.9754 C   0  0  0  0  0  0  0  0  0  0  0  0
   12.4777   -0.9783   24.3241 C   0  0  0  0  0  0  0  0  0  0  0  0
   13.3296   -2.9356   26.1632 C   0  0  0  0  0  0  0  0  0  0  0  0
   11.7154   -2.1542   24.4946 C   0  0  0  0  0  0  0  0  0  0  0  0
   12.1563   -3.1125   25.4124 C   0  0  0  0  0  0  0  0  0  0  0  0
   10.1061   -3.6411   24.2366 C   0  0  0  0  0  0  0  0  0  0  0  0
    6.2497   -1.7958   22.5667 C   0  0  0  0  0  0  0  0  0  0  0  0
    6.0690   -2.4450   21.4147 C   0  0  0  0  0  0  0  0  0  0  0  0
    6.0997   -3.9211   21.4155 C   0  0  0  0  0  0  0  0  0  0  0  0
    7.6609   -6.5044   23.2757 C   0  0  0  0  0  0  0  0  0  0  0  0
    8.9319   -5.8477   23.8202 C   0  0  0  0  0  0  0  0  0  0  0  0
    7.3352   -6.0076   21.8687 C   0  0  0  0  0  0  0  0  0  0  0  0
    8.5027   -3.8817   22.2895 C   0  0  0  0  0  0  0  0  0  0  0  0
    8.8450   -4.3109   23.7267 C   0  0  2  0  0  0  0  0  0  0  0  0
   10.5402   -2.4714   23.8291 N   0  0  0  0  0  0  0  0  0  0  0  0
    7.2669   -4.5447   21.8459 N   0  0  0  0  0  0  0  0  0  0  0  0
    5.0861   -4.5126   21.0400 O   0  0  0  0  0  0  0  0  0  0  0  0
   11.0504   -4.4352   25.4214 S   0  0  0  0  0  0  0  0  0  0  0  0
   14.2323    0.1099   24.9356 H   0  0  0  0  0  0  0  0  0  0  0  0
   14.9768   -1.6063   26.5465 H   0  0  0  0  0  0  0  0  0  0  0  0
   12.1596   -0.2155   23.6190 H   0  0  0  0  0  0  0  0  0  0  0  0
   13.6621   -3.6857   26.8742 H   0  0  0  0  0  0  0  0  0  0  0  0
    6.2379   -0.7128   22.6296 H   0  0  0  0  0  0  0  0  0  0  0  0
    6.4156   -2.3509   23.4840 H   0  0  0  0  0  0  0  0  0  0  0  0
    5.9005   -1.9268   20.4797 H   0  0  0  0  0  0  0  0  0  0  0  0
    7.7876   -7.5926   23.2623 H   0  0  0  0  0  0  0  0  0  0  0  0
    6.8194   -6.2877   23.9456 H   0  0  0  0  0  0  0  0  0  0  0  0
    9.0876   -6.1563   24.8612 H   0  0  0  0  0  0  0  0  0  0  0  0
    9.7981   -6.2124   23.2517 H   0  0  0  0  0  0  0  0  0  0  0  0
    8.1132   -6.3150   21.1602 H   0  0  0  0  0  0  0  0  0  0  0  0
    6.3920   -6.4499   21.5331 H   0  0  0  0  0  0  0  0  0  0  0  0
    8.4411   -2.7946   22.2132 H   0  0  0  0  0  0  0  0  0  0  0  0
    9.2963   -4.1884   21.5945 H   0  0  0  0  0  0  0  0  0  0  0  0
    8.0169   -3.9696   24.3941 H   0  0  0  0  0  0  0  0  0  0  0  0
  1  2  1  0  0  0  0
  1  3  2  0  0  0  0
  2  4  2  0  0  0  0
  3  5  1  0  0  0  0
  4  6  1  0  0  0  0
  5  6  2  0  0  0  0
  5 16  1  0  0  0  0
  6 19  1  0  0  0  0
  7 15  1  0  0  0  0
  7 16  2  0  0  0  0
  7 19  1  0  0  0  0
  8  9  2  0  0  0  0
  9 10  1  0  0  0  0
 10 17  1  0  0  0  0
 10 18  2  0  0  0  0
 11 12  1  0  0  0  0
 11 13  1  0  0  0  0
 12 15  1  0  0  0  0
 13 17  1  0  0  0  0
 14 15  1  0  0  0  0
 14 17  1  0  0  0  0
  1 20  1  0  0  0  0
  2 21  1  0  0  0  0
  3 22  1  0  0  0  0
  4 23  1  0  0  0  0
  8 24  1  0  0  0  0
  8 25  1  0  0  0  0
  9 26  1  0  0  0  0
 11 27  1  0  0  0  0
 11 28  1  0  0  0  0
 12 29  1  0  0  0  0
 12 30  1  0  0  0  0
 13 31  1  0  0  0  0
 13 32  1  0  0  0  0
 14 33  1  0  0  0  0
 14 34  1  0  0  0  0
 15 35  1  0  0  0  0
M  END
> <IC50 (uM)>

> <IC50 (uM) - std>

> <Average Inhibition @ 20 uM>

> <Average Inhibition @ 20 uM - std>

> <Average Inhibition @ 50 uM>

> <Average Inhibition @ 50 uM - std>
2.57

> <Trypsin IC50 (uM)>
2.14

> <Relative Solubility @ 20 uM>

> <Relative Solubility @ 100 uM>

> <Hybrid2>
-10.088066

> <docked_fragment>
x0749

> <Mpro-_dock>
0.473663

> <site>
active-covalent

$$$$
GAB-REV-70cc3ca5-3
  -OEChem-05192003313D

 41 42  0     0  0  0  0  0  0999 V2000
    9.2540   -1.8969   25.0676 C   0  0  0  0  0  0  0  0  0  0  0  0
    9.1509   -3.6080   23.3651 C   0  0  0  0  0  0  0  0  0  0  0  0
    8.2818   -2.5723   25.8053 C   0  0  0  0  0  0  0  0  0  0  0  0
    8.1788   -4.2835   24.1028 C   0  0  0  0  0  0  0  0  0  0  0  0
    5.0169    0.8488   19.1812 C   0  0  0  0  0  0  0  0  0  0  0  0
    5.6691    0.5053   18.0080 C   0  0  0  0  0  0  0  0  0  0  0  0
    7.6857    0.2887   19.0873 C   0  0  0  0  0  0  0  0  0  0  0  0
    5.7674    0.9062   20.3503 C   0  0  0  0  0  0  0  0  0  0  0  0
    9.6886   -2.4147   23.8474 C   0  0  0  0  0  0  0  0  0  0  0  0
    7.1280    0.6223   20.3110 C   0  0  0  0  0  0  0  0  0  0  0  0
    7.7442   -3.7656   25.3229 C   0  0  0  0  0  0  0  0  0  0  0  0
    9.2887    0.3989   21.5199 C   0  0  0  0  0  0  0  0  0  0  0  0
    5.0899    1.2745   21.6294 C   0  0  0  0  0  0  0  0  0  0  0  0
    9.7919    0.5535   22.9516 C   0  0  0  0  0  0  0  0  0  0  0  0
   10.9715   -0.3498   23.2853 C   0  0  0  0  0  0  0  0  0  0  0  0
    6.9889    0.2228   17.9306 N   0  0  0  0  0  0  0  0  0  0  0  0
    7.5001   -5.6309   27.2113 N   0  0  0  0  0  0  0  0  0  0  0  0
    7.9240    0.6662   21.4585 N   0  0  0  0  0  0  0  0  0  0  0  0
   10.6565   -1.7426   23.1126 N   0  0  0  0  0  0  0  0  0  0  0  0
   10.0341    0.0729   20.6025 O   0  0  0  0  0  0  0  0  0  0  0  0
    5.8532   -3.6503   27.1073 O   0  0  0  0  0  0  0  0  0  0  0  0
    5.7464   -5.4369   25.3341 O   0  0  0  0  0  0  0  0  0  0  0  0
    6.5268   -4.6115   26.2453 S   0  0  0  0  0  0  0  0  0  0  0  0
    9.6659   -0.9676   25.4528 H   0  0  0  0  0  0  0  0  0  0  0  0
    9.4832   -4.0208   22.4159 H   0  0  0  0  0  0  0  0  0  0  0  0
    7.9507   -2.1596   26.7545 H   0  0  0  0  0  0  0  0  0  0  0  0
    7.7667   -5.2123   23.7172 H   0  0  0  0  0  0  0  0  0  0  0  0
    3.9539    1.0647   19.1778 H   0  0  0  0  0  0  0  0  0  0  0  0
    5.1288    0.4467   17.0689 H   0  0  0  0  0  0  0  0  0  0  0  0
    8.7423    0.0562   18.9923 H   0  0  0  0  0  0  0  0  0  0  0  0
    4.7154    0.3759   22.1332 H   0  0  0  0  0  0  0  0  0  0  0  0
    5.7783    1.7941   22.3071 H   0  0  0  0  0  0  0  0  0  0  0  0
    4.2461    1.9523   21.4499 H   0  0  0  0  0  0  0  0  0  0  0  0
    8.9571    0.3093   23.6198 H   0  0  0  0  0  0  0  0  0  0  0  0
   10.0605    1.6041   23.1170 H   0  0  0  0  0  0  0  0  0  0  0  0
   11.3039   -0.2109   24.3190 H   0  0  0  0  0  0  0  0  0  0  0  0
   11.8132   -0.1304   22.6209 H   0  0  0  0  0  0  0  0  0  0  0  0
    7.5756   -5.4171   28.2133 H   0  0  0  0  0  0  0  0  0  0  0  0
    7.5031   -6.6362   26.9999 H   0  0  0  0  0  0  0  0  0  0  0  0
    7.4631    0.9168   22.3304 H   0  0  0  0  0  0  0  0  0  0  0  0
   11.1692   -2.2702   22.4112 H   0  0  0  0  0  0  0  0  0  0  0  0
  1  3  2  0  0  0  0
  1  9  1  0  0  0  0
  2  4  1  0  0  0  0
  2  9  2  0  0  0  0
  3 11  1  0  0  0  0
  4 11  2  0  0  0  0
  5  6  2  0  0  0  0
  5  8  1  0  0  0  0
  6 16  1  0  0  0  0
  7 10  1  0  0  0  0
  7 16  2  0  0  0  0
  8 10  2  0  0  0  0
  8 13  1  0  0  0  0
  9 19  1  0  0  0  0
 10 18  1  0  0  0  0
 11 23  1  0  0  0  0
 12 14  1  0  0  0  0
 12 18  1  0  0  0  0
 12 20  2  0  0  0  0
 14 15  1  0  0  0  0
 15 19  1  0  0  0  0
 17 23  1  0  0  0  0
 21 23  2  0  0  0  0
 22 23  2  0  0  0  0
  1 24  1  0  0  0  0
  2 25  1  0  0  0  0
  3 26  1  0  0  0  0
  4 27  1  0  0  0  0
  5 28  1  0  0  0  0
  6 29  1  0  0  0  0
  7 30  1  0  0  0  0
 13 31  1  0  0  0  0
 13 32  1  0  0  0  0
 13 33  1  0  0  0  0
 14 34  1  0  0  0  0
 14 35  1  0  0  0  0
 15 36  1  0  0  0  0
 15 37  1  0  0  0  0
 17 38  1  0  0  0  0
 17 39  1  0  0  0  0
 18 40  1  0  0  0  0
 19 41  1  0  0  0  0
M  END
> <IC50 (uM)>

> <IC50 (uM) - std>

> <Average Inhibition @ 20 uM>

> <Average Inhibition @ 20 uM - std>

> <Average Inhibition @ 50 uM>

> <Average Inhibition @ 50 uM - std>
6.53

> <Trypsin IC50 (uM)>
1.08

> <Relative Solubility @ 20 uM>

> <Relative Solubility @ 100 uM>

> <Hybrid2>
-10.081774

> <docked_fragment>
x0107

> <Mpro-_dock>
2.506008

> <site>
active-noncovalent

$$$$
ALE-HEI-f28a35b5-4
  -OEChem-05192003313D

 25 26  0     0  0  0  0  0  0999 V2000
   13.8831   -0.9374   23.0785 C   0  0  0  0  0  0  0  0  0  0  0  0
   13.0624   -0.8921   21.9571 C   0  0  0  0  0  0  0  0  0  0  0  0
   13.3526   -0.5176   24.2878 C   0  0  0  0  0  0  0  0  0  0  0  0
   11.3196   -0.0378   23.3314 C   0  0  0  0  0  0  0  0  0  0  0  0
   11.7548   -0.4348   22.0774 C   0  0  0  0  0  0  0  0  0  0  0  0
    5.5546    0.9985   18.9491 C   0  0  0  0  0  0  0  0  0  0  0  0
    7.7955    0.2769   19.1050 C   0  0  0  0  0  0  0  0  0  0  0  0
    9.5612    0.0559   20.9086 C   0  0  0  0  0  0  0  0  0  0  0  0
    4.1888    1.5040   19.1921 C   0  0  0  0  0  0  0  0  0  0  0  0
   12.0875   -0.0674   24.4437 N   0  0  0  0  0  0  0  0  0  0  0  0
    6.0225    0.6051   17.7837 N   0  0  0  0  0  0  0  0  0  0  0  0
    7.3367    0.1809   17.8753 N   0  0  0  0  0  0  0  0  0  0  0  0
   10.9095   -0.3778   20.9719 N   0  0  0  0  0  0  0  0  0  0  0  0
    9.0826   -0.0510   19.5929 N   0  0  0  0  0  0  0  0  0  0  0  0
    8.9142    0.4636   21.8680 O   0  0  0  0  0  0  0  0  0  0  0  0
    6.6708    0.8877   20.2466 S   0  0  0  0  0  0  0  0  0  0  0  0
   14.9057   -1.2902   23.0082 H   0  0  0  0  0  0  0  0  0  0  0  0
   13.4516   -1.2151   20.9951 H   0  0  0  0  0  0  0  0  0  0  0  0
   13.9523   -0.5327   25.1919 H   0  0  0  0  0  0  0  0  0  0  0  0
   10.3093    0.3282   23.4886 H   0  0  0  0  0  0  0  0  0  0  0  0
    3.5019    0.6823   19.4523 H   0  0  0  0  0  0  0  0  0  0  0  0
    4.1601    2.2384   20.0149 H   0  0  0  0  0  0  0  0  0  0  0  0
    3.7756    2.0197   18.3085 H   0  0  0  0  0  0  0  0  0  0  0  0
   11.3175   -0.6920   20.0838 H   0  0  0  0  0  0  0  0  0  0  0  0
    9.7363   -0.4078   18.9005 H   0  0  0  0  0  0  0  0  0  0  0  0
  1  2  2  0  0  0  0
  1  3  1  0  0  0  0
  2  5  1  0  0  0  0
  3 10  2  0  0  0  0
  4  5  2  0  0  0  0
  4 10  1  0  0  0  0
  5 13  1  0  0  0  0
  6  9  1  0  0  0  0
  6 11  2  0  0  0  0
  6 16  1  0  0  0  0
  7 12  2  0  0  0  0
  7 14  1  0  0  0  0
  7 16  1  0  0  0  0
  8 13  1  0  0  0  0
  8 14  1  0  0  0  0
  8 15  2  0  0  0  0
 11 12  1  0  0  0  0
  1 17  1  0  0  0  0
  2 18  1  0  0  0  0
  3 19  1  0  0  0  0
  4 20  1  0  0  0  0
  9 21  1  0  0  0  0
  9 22  1  0  0  0  0
  9 23  1  0  0  0  0
 13 24  1  0  0  0  0
 14 25  1  0  0  0  0
M  END
> <IC50 (uM)>

> <IC50 (uM) - std>

> <Average Inhibition @ 20 uM>

> <Average Inhibition @ 20 uM - std>
1.19

> <Average Inhibition @ 50 uM>
0.867

> <Average Inhibition @ 50 uM - std>
7.32

> <Trypsin IC50 (uM)>
0.613

> <Relative Solubility @ 20 uM>
1.0

> <Relative Solubility @ 100 uM>
0.99

> <Hybrid2>
-10.058550

> <docked_fragment>
x0678

> <Mpro-_dock>
0.117892

> <site>
active-noncovalent

$$$$
MAT-POS-4e253971-2
  -OEChem-05192003313D

 42 44  0     0  0  0  0  0  0999 V2000
   14.0864    0.4975   23.0687 C   0  0  0  0  0  0  0  0  0  0  0  0
   13.6500   -0.5530   22.2670 C   0  0  0  0  0  0  0  0  0  0  0  0
   13.3036    0.9314   24.1389 C   0  0  0  0  0  0  0  0  0  0  0  0
   12.4291   -1.1738   22.5324 C   0  0  0  0  0  0  0  0  0  0  0  0
   11.2711    0.7418   25.4938 C   0  0  0  0  0  0  0  0  0  0  0  0
    9.6137   -0.9294   24.9575 C   0  0  0  0  0  0  0  0  0  0  0  0
   12.0720    0.3182   24.4207 C   0  0  0  0  0  0  0  0  0  0  0  0
   11.6281   -0.7501   23.6054 C   0  0  0  0  0  0  0  0  0  0  0  0
   10.3965   -1.3633   23.8872 C   0  0  0  0  0  0  0  0  0  0  0  0
   10.0502    0.1212   25.7592 C   0  0  0  0  0  0  0  0  0  0  0  0
    4.9806    0.2533   18.4404 C   0  0  0  0  0  0  0  0  0  0  0  0
    6.0366   -0.5516   18.3045 C   0  0  0  0  0  0  0  0  0  0  0  0
    6.0669   -1.8215   19.0573 C   0  0  0  0  0  0  0  0  0  0  0  0
    7.2240   -0.6465   21.0078 C   0  0  0  0  0  0  0  0  0  0  0  0
    6.6196   -3.0358   21.1289 C   0  0  0  0  0  0  0  0  0  0  0  0
    8.6133   -0.9634   21.5485 C   0  0  0  0  0  0  0  0  0  0  0  0
    8.0047   -3.3796   21.6534 C   0  0  0  0  0  0  0  0  0  0  0  0
    9.8675   -2.4999   23.0632 C   0  0  0  0  0  0  0  0  0  0  0  0
    6.6360   -1.8096   20.3285 N   0  0  0  0  0  0  0  0  0  0  0  0
    8.5443   -2.1947   22.4195 N   0  3  0  0  0  0  0  0  0  0  0  0
    5.5815   -2.8161   18.5155 O   0  0  0  0  0  0  0  0  0  0  0  0
    9.0836    0.6552   27.0790 Cl  0  0  0  0  0  0  0  0  0  0  0  0
   15.0370    0.9804   22.8616 H   0  0  0  0  0  0  0  0  0  0  0  0
   14.2601   -0.8902   21.4340 H   0  0  0  0  0  0  0  0  0  0  0  0
   13.6646    1.7546   24.7520 H   0  0  0  0  0  0  0  0  0  0  0  0
   12.1229   -1.9904   21.8827 H   0  0  0  0  0  0  0  0  0  0  0  0
   11.6060    1.5629   26.1259 H   0  0  0  0  0  0  0  0  0  0  0  0
    8.6619   -1.4150   25.1623 H   0  0  0  0  0  0  0  0  0  0  0  0
    4.9009    1.1985   17.9138 H   0  0  0  0  0  0  0  0  0  0  0  0
    4.1624   -0.0282   19.0948 H   0  0  0  0  0  0  0  0  0  0  0  0
    6.8715   -0.3057   17.6614 H   0  0  0  0  0  0  0  0  0  0  0  0
    6.5450   -0.3664   21.8218 H   0  0  0  0  0  0  0  0  0  0  0  0
    7.3100    0.2122   20.3410 H   0  0  0  0  0  0  0  0  0  0  0  0
    6.2310   -3.8765   20.5454 H   0  0  0  0  0  0  0  0  0  0  0  0
    5.9221   -2.8729   21.9597 H   0  0  0  0  0  0  0  0  0  0  0  0
    9.3298   -1.1606   20.7431 H   0  0  0  0  0  0  0  0  0  0  0  0
    8.9796   -0.1417   22.1727 H   0  0  0  0  0  0  0  0  0  0  0  0
    7.9556   -4.2236   22.3490 H   0  0  0  0  0  0  0  0  0  0  0  0
    8.7075   -3.6086   20.8445 H   0  0  0  0  0  0  0  0  0  0  0  0
   10.5589   -2.7576   22.2537 H   0  0  0  0  0  0  0  0  0  0  0  0
    9.7204   -3.3968   23.6746 H   0  0  0  0  0  0  0  0  0  0  0  0
    7.8851   -1.9951   23.1846 H   0  0  0  0  0  0  0  0  0  0  0  0
  1  2  1  0  0  0  0
  1  3  2  0  0  0  0
  2  4  2  0  0  0  0
  3  7  1  0  0  0  0
  4  8  1  0  0  0  0
  5  7  2  0  0  0  0
  5 10  1  0  0  0  0
  6  9  1  0  0  0  0
  6 10  2  0  0  0  0
  7  8  1  0  0  0  0
  8  9  2  0  0  0  0
  9 18  1  0  0  0  0
 10 22  1  0  0  0  0
 11 12  2  0  0  0  0
 12 13  1  0  0  0  0
 13 19  1  0  0  0  0
 13 21  2  0  0  0  0
 14 16  1  0  0  0  0
 14 19  1  0  0  0  0
 15 17  1  0  0  0  0
 15 19  1  0  0  0  0
 16 20  1  0  0  0  0
 17 20  1  0  0  0  0
 18 20  1  0  0  0  0
  1 23  1  0  0  0  0
  2 24  1  0  0  0  0
  3 25  1  0  0  0  0
  4 26  1  0  0  0  0
  5 27  1  0  0  0  0
  6 28  1  0  0  0  0
 11 29  1  0  0  0  0
 11 30  1  0  0  0  0
 12 31  1  0  0  0  0
 14 32  1  0  0  0  0
 14 33  1  0  0  0  0
 15 34  1  0  0  0  0
 15 35  1  0  0  0  0
 16 36  1  0  0  0  0
 16 37  1  0  0  0  0
 17 38  1  0  0  0  0
 17 39  1  0  0  0  0
 18 40  1  0  0  0  0
 18 41  1  0  0  0  0
 20 42  1  0  0  0  0
M  CHG  1  20   1
M  END
> <IC50 (uM)>

> <IC50 (uM) - std>

> <Average Inhibition @ 20 uM>

> <Average Inhibition @ 20 uM - std>

> <Average Inhibition @ 50 uM>

> <Average Inhibition @ 50 uM - std>
27.0

> <Trypsin IC50 (uM)>
1.8

> <Relative Solubility @ 20 uM>

> <Relative Solubility @ 100 uM>

> <Hybrid2>
-10.049481

> <docked_fragment>
x0830

> <Mpro-_dock>
-0.926787

> <site>
active-covalent

$$$$
DAR-DIA-842b4336-3
  -OEChem-05192003313D

 27 28  0     0  0  0  0  0  0999 V2000
    5.9856    1.2247   19.3553 C   0  0  0  0  0  0  0  0  0  0  0  0
    6.8945    0.9737   20.3772 C   0  0  0  0  0  0  0  0  0  0  0  0
   14.3589   -1.9717   22.4937 C   0  0  0  0  0  0  0  0  0  0  0  0
   13.2120   -1.5776   21.7456 C   0  0  0  0  0  0  0  0  0  0  0  0
    6.3518    0.8833   18.0634 C   0  0  0  0  0  0  0  0  0  0  0  0
    8.3948    0.0928   18.7557 C   0  0  0  0  0  0  0  0  0  0  0  0
    8.1244    0.3973   20.0801 C   0  0  0  0  0  0  0  0  0  0  0  0
   14.2107   -1.7187   23.8397 C   0  0  0  0  0  0  0  0  0  0  0  0
   12.2308   -1.0386   22.5485 C   0  0  0  0  0  0  0  0  0  0  0  0
   10.3448   -0.4427   20.9652 C   0  0  0  0  0  0  0  0  0  0  0  0
   15.1680   -1.9799   24.9365 C   0  0  0  0  0  0  0  0  0  0  0  0
    7.5372    0.3218   17.7361 N   0  0  0  0  0  0  0  0  0  0  0  0
    9.0550    0.1344   21.0824 N   0  0  0  0  0  0  0  0  0  0  0  0
   10.9507   -0.5275   22.2290 N   0  0  0  0  0  0  0  0  0  0  0  0
   10.8502   -0.8113   19.9098 O   0  0  0  0  0  0  0  0  0  0  0  0
   12.6937   -1.0091   24.1969 S   0  0  0  0  0  0  0  0  0  0  0  0
    5.0210    1.6733   19.5638 H   0  0  0  0  0  0  0  0  0  0  0  0
    6.6344    1.2311   21.4006 H   0  0  0  0  0  0  0  0  0  0  0  0
   15.2462   -2.4174   22.0622 H   0  0  0  0  0  0  0  0  0  0  0  0
   13.1162   -1.6863   20.6727 H   0  0  0  0  0  0  0  0  0  0  0  0
    5.6785    1.0595   17.2309 H   0  0  0  0  0  0  0  0  0  0  0  0
    9.3376   -0.3587   18.4614 H   0  0  0  0  0  0  0  0  0  0  0  0
   15.8287   -1.1138   25.0977 H   0  0  0  0  0  0  0  0  0  0  0  0
   14.6542   -2.1943   25.8878 H   0  0  0  0  0  0  0  0  0  0  0  0
   15.8040   -2.8555   24.7268 H   0  0  0  0  0  0  0  0  0  0  0  0
    8.7687    0.3932   22.0337 H   0  0  0  0  0  0  0  0  0  0  0  0
   10.4078   -0.1812   23.0160 H   0  0  0  0  0  0  0  0  0  0  0  0
  1  2  2  0  0  0  0
  1  5  1  0  0  0  0
  2  7  1  0  0  0  0
  3  4  1  0  0  0  0
  3  8  2  0  0  0  0
  4  9  2  0  0  0  0
  5 12  2  0  0  0  0
  6  7  2  0  0  0  0
  6 12  1  0  0  0  0
  7 13  1  0  0  0  0
  8 11  1  0  0  0  0
  8 16  1  0  0  0  0
  9 14  1  0  0  0  0
  9 16  1  0  0  0  0
 10 13  1  0  0  0  0
 10 14  1  0  0  0  0
 10 15  2  0  0  0  0
  1 17  1  0  0  0  0
  2 18  1  0  0  0  0
  3 19  1  0  0  0  0
  4 20  1  0  0  0  0
  5 21  1  0  0  0  0
  6 22  1  0  0  0  0
 11 23  1  0  0  0  0
 11 24  1  0  0  0  0
 11 25  1  0  0  0  0
 13 26  1  0  0  0  0
 14 27  1  0  0  0  0
M  END
> <IC50 (uM)>

> <IC50 (uM) - std>

> <Average Inhibition @ 20 uM>

> <Average Inhibition @ 20 uM - std>
1.9

> <Average Inhibition @ 50 uM>
0.0997

> <Average Inhibition @ 50 uM - std>
11.3

> <Trypsin IC50 (uM)>
0.612

> <Relative Solubility @ 20 uM>
1.0

> <Relative Solubility @ 100 uM>
0.96

> <Hybrid2>
-10.044557

> <docked_fragment>
x0678

> <Mpro-_dock>
0.931477

> <site>
active-noncovalent

$$$$
BAR-COM-4e090d3a-45
  -OEChem-05192003313D

 48 50  0     1  0  0  0  0  0999 V2000
    6.7780   -5.5486   23.6497 C   0  0  0  0  0  0  0  0  0  0  0  0
    7.0056   -5.1643   22.3283 C   0  0  0  0  0  0  0  0  0  0  0  0
    7.3398   -4.8164   24.6956 C   0  0  0  0  0  0  0  0  0  0  0  0
    7.7949   -4.0478   22.0527 C   0  0  0  0  0  0  0  0  0  0  0  0
    8.1291   -3.6998   24.4201 C   0  0  0  0  0  0  0  0  0  0  0  0
    6.3318   -0.2744   18.0365 C   0  0  0  0  0  0  0  0  0  0  0  0
    6.1612    0.3286   19.2573 C   0  0  0  0  0  0  0  0  0  0  0  0
    8.3567   -3.3155   23.0987 C   0  0  0  0  0  0  0  0  0  0  0  0
    8.7404    0.1266   21.8018 C   0  0  0  0  0  0  0  0  0  0  0  0
   12.3099   -1.7344   22.4299 C   0  0  0  0  0  0  0  0  0  0  0  0
   12.1228   -0.3082   24.4579 C   0  0  0  0  0  0  0  0  0  0  0  0
   13.3339   -0.7422   21.9053 C   0  0  0  0  0  0  0  0  0  0  0  0
   13.1569    0.6100   23.8287 C   0  0  0  0  0  0  0  0  0  0  0  0
    7.6924    1.2244   21.8223 C   0  0  0  0  0  0  0  0  0  0  0  0
    7.6206    1.9813   20.4999 C   0  0  0  0  0  0  0  0  0  0  0  0
   10.2799   -1.8934   23.8784 C   0  0  0  0  0  0  0  0  0  0  0  0
    9.2143   -2.1030   22.8002 C   0  0  2  0  0  0  0  0  0  0  0  0
    7.5053    0.1473   17.4757 N   0  0  0  0  0  0  0  0  0  0  0  0
    8.0764    1.0014   18.3180 N   0  0  0  0  0  0  0  0  0  0  0  0
    7.2690    1.1086   19.3856 N   0  0  0  0  0  0  0  0  0  0  0  0
    8.3899   -0.9263   22.6327 N   0  0  0  0  0  0  0  0  0  0  0  0
   11.3636   -0.9986   23.3491 N   0  3  0  0  0  0  0  0  0  0  0  0
    9.7639    0.1873   21.1259 O   0  0  0  0  0  0  0  0  0  0  0  0
   14.0401   -0.1323   22.9866 O   0  0  0  0  0  0  0  0  0  0  0  0
    6.1622   -6.4172   23.8641 H   0  0  0  0  0  0  0  0  0  0  0  0
    6.5673   -5.7337   21.5138 H   0  0  0  0  0  0  0  0  0  0  0  0
    7.1619   -5.1146   25.7245 H   0  0  0  0  0  0  0  0  0  0  0  0
    7.9670   -3.7558   21.0201 H   0  0  0  0  0  0  0  0  0  0  0  0
    8.5628   -3.1354   25.2414 H   0  0  0  0  0  0  0  0  0  0  0  0
    5.6814   -0.9780   17.5394 H   0  0  0  0  0  0  0  0  0  0  0  0
    5.3862    0.2720   20.0082 H   0  0  0  0  0  0  0  0  0  0  0  0
   11.7193   -2.1665   21.6165 H   0  0  0  0  0  0  0  0  0  0  0  0
   12.7818   -2.5272   23.0206 H   0  0  0  0  0  0  0  0  0  0  0  0
   12.5927   -1.0920   25.0620 H   0  0  0  0  0  0  0  0  0  0  0  0
   11.4015    0.2540   25.0585 H   0  0  0  0  0  0  0  0  0  0  0  0
   14.0686   -1.2645   21.2843 H   0  0  0  0  0  0  0  0  0  0  0  0
   12.8687    0.0318   21.2832 H   0  0  0  0  0  0  0  0  0  0  0  0
   12.6877    1.4170   23.2532 H   0  0  0  0  0  0  0  0  0  0  0  0
   13.7623    1.0750   24.6131 H   0  0  0  0  0  0  0  0  0  0  0  0
    6.7206    0.7697   22.0514 H   0  0  0  0  0  0  0  0  0  0  0  0
    7.9331    1.9140   22.6408 H   0  0  0  0  0  0  0  0  0  0  0  0
    8.5812    2.4554   20.2638 H   0  0  0  0  0  0  0  0  0  0  0  0
    6.8750    2.7846   20.5445 H   0  0  0  0  0  0  0  0  0  0  0  0
    9.8861   -1.4042   24.7753 H   0  0  0  0  0  0  0  0  0  0  0  0
   10.7653   -2.8325   24.1633 H   0  0  0  0  0  0  0  0  0  0  0  0
    9.7134   -2.2464   21.8333 H   0  0  0  0  0  0  0  0  0  0  0  0
    7.5163   -0.8689   23.1462 H   0  0  0  0  0  0  0  0  0  0  0  0
   10.8972   -0.2685   22.7930 H   0  0  0  0  0  0  0  0  0  0  0  0
  1  2  1  0  0  0  0
  1  3  2  0  0  0  0
  2  4  2  0  0  0  0
  3  5  1  0  0  0  0
  4  8  1  0  0  0  0
  5  8  2  0  0  0  0
  6  7  2  0  0  0  0
  6 18  1  0  0  0  0
  7 20  1  0  0  0  0
  8 17  1  0  0  0  0
  9 14  1  0  0  0  0
  9 21  1  0  0  0  0
  9 23  2  0  0  0  0
 10 12  1  0  0  0  0
 10 22  1  0  0  0  0
 11 13  1  0  0  0  0
 11 22  1  0  0  0  0
 12 24  1  0  0  0  0
 13 24  1  0  0  0  0
 14 15  1  0  0  0  0
 15 20  1  0  0  0  0
 16 17  1  0  0  0  0
 16 22  1  0  0  0  0
 17 21  1  0  0  0  0
 18 19  2  0  0  0  0
 19 20  1  0  0  0  0
  1 25  1  0  0  0  0
  2 26  1  0  0  0  0
  3 27  1  0  0  0  0
  4 28  1  0  0  0  0
  5 29  1  0  0  0  0
  6 30  1  0  0  0  0
  7 31  1  0  0  0  0
 10 32  1  0  0  0  0
 10 33  1  0  0  0  0
 11 34  1  0  0  0  0
 11 35  1  0  0  0  0
 12 36  1  0  0  0  0
 12 37  1  0  0  0  0
 13 38  1  0  0  0  0
 13 39  1  0  0  0  0
 14 40  1  0  0  0  0
 14 41  1  0  0  0  0
 15 42  1  0  0  0  0
 15 43  1  0  0  0  0
 16 44  1  0  0  0  0
 16 45  1  0  0  0  0
 17 46  1  0  0  0  0
 21 47  1  0  0  0  0
 22 48  1  0  0  0  0
M  CHG  1  22   1
M  END
> <IC50 (uM)>

> <IC50 (uM) - std>

> <Average Inhibition @ 20 uM>

> <Average Inhibition @ 20 uM - std>
2.31

> <Average Inhibition @ 50 uM>
2.35

> <Average Inhibition @ 50 uM - std>
5.19

> <Trypsin IC50 (uM)>
0.0531

> <Relative Solubility @ 20 uM>
1.0

> <Relative Solubility @ 100 uM>
1.0

> <Hybrid2>
-10.001107

> <docked_fragment>
x0678

> <Mpro-_dock>
2.025949

> <site>
active-noncovalent

$$$$
MAK-UNK-9159f8ed-7
  -OEChem-05192003313D

 44 46  0     0  0  0  0  0  0999 V2000
   13.4852    4.7785   22.0382 C   0  0  0  0  0  0  0  0  0  0  0  0
   13.8889   -2.4702   24.2324 C   0  0  0  0  0  0  0  0  0  0  0  0
   13.3802    3.4826   22.5433 C   0  0  0  0  0  0  0  0  0  0  0  0
   12.6574   -3.1185   24.3262 C   0  0  0  0  0  0  0  0  0  0  0  0
   12.4453    5.6882   22.2300 C   0  0  0  0  0  0  0  0  0  0  0  0
   13.9501   -1.1505   23.7847 C   0  0  0  0  0  0  0  0  0  0  0  0
   11.1952    4.0059   23.4317 C   0  0  0  0  0  0  0  0  0  0  0  0
   11.5483   -1.1274   23.5246 C   0  0  0  0  0  0  0  0  0  0  0  0
   12.2352    3.0963   23.2400 C   0  0  0  0  0  0  0  0  0  0  0  0
   11.4871   -2.4471   23.9723 C   0  0  0  0  0  0  0  0  0  0  0  0
   11.3003    5.3019   22.9267 C   0  0  0  0  0  0  0  0  0  0  0  0
   12.7798   -0.4791   23.4308 C   0  0  0  0  0  0  0  0  0  0  0  0
    8.9669   -2.5696   23.7502 C   0  0  0  0  0  0  0  0  0  0  0  0
   12.1231    1.7163   23.7777 C   0  0  0  0  0  0  0  0  0  0  0  0
    7.9300   -3.6092   24.1106 C   0  0  0  0  0  0  0  0  0  0  0  0
    8.7258   -4.8983   24.1522 C   0  0  0  0  0  0  0  0  0  0  0  0
   10.0979   -4.4494   24.6097 C   0  0  0  0  0  0  0  0  0  0  0  0
   11.2531    8.0752   24.7926 C   0  0  0  0  0  0  0  0  0  0  0  0
   10.2280   -3.1103   24.0686 N   0  0  0  0  0  0  0  0  0  0  0  0
   10.2366    6.2341   23.1223 N   0  0  0  0  0  0  0  0  0  0  0  0
    8.6686   -1.4640   23.3226 O   0  0  0  0  0  0  0  0  0  0  0  0
   11.4866    1.4400   24.7835 O   0  0  0  0  0  0  0  0  0  0  0  0
    8.7054    7.5535   24.7240 O   0  0  0  0  0  0  0  0  0  0  0  0
   10.2605    5.8341   25.7090 O   0  0  0  0  0  0  0  0  0  0  0  0
   12.8395    0.8086   22.9937 O   0  0  0  0  0  0  0  0  0  0  0  0
    9.9713    6.8444   24.7107 S   0  0  0  0  0  0  0  0  0  0  0  0
   14.3771    5.0796   21.4962 H   0  0  0  0  0  0  0  0  0  0  0  0
   14.7998   -2.9930   24.5089 H   0  0  0  0  0  0  0  0  0  0  0  0
   14.1966    2.7818   22.3875 H   0  0  0  0  0  0  0  0  0  0  0  0
   12.6218   -4.1471   24.6758 H   0  0  0  0  0  0  0  0  0  0  0  0
   12.5372    6.6956   21.8318 H   0  0  0  0  0  0  0  0  0  0  0  0
   14.9125   -0.6512   23.7146 H   0  0  0  0  0  0  0  0  0  0  0  0
   10.3022    3.7054   23.9754 H   0  0  0  0  0  0  0  0  0  0  0  0
   10.6384   -0.5995   23.2479 H   0  0  0  0  0  0  0  0  0  0  0  0
    7.5107   -3.3614   25.0909 H   0  0  0  0  0  0  0  0  0  0  0  0
    7.1351   -3.6445   23.3617 H   0  0  0  0  0  0  0  0  0  0  0  0
    8.2809   -5.6419   24.8194 H   0  0  0  0  0  0  0  0  0  0  0  0
    8.7883   -5.3339   23.1475 H   0  0  0  0  0  0  0  0  0  0  0  0
   10.1562   -4.3859   25.7020 H   0  0  0  0  0  0  0  0  0  0  0  0
   10.8935   -5.0997   24.2334 H   0  0  0  0  0  0  0  0  0  0  0  0
   11.2053    8.5576   25.7701 H   0  0  0  0  0  0  0  0  0  0  0  0
   12.2156    7.5795   24.6574 H   0  0  0  0  0  0  0  0  0  0  0  0
   11.0826    8.8032   23.9980 H   0  0  0  0  0  0  0  0  0  0  0  0
   10.1456    6.9375   22.3707 H   0  0  0  0  0  0  0  0  0  0  0  0
  1  3  1  0  0  0  0
  1  5  2  0  0  0  0
  2  4  1  0  0  0  0
  2  6  2  0  0  0  0
  3  9  2  0  0  0  0
  4 10  2  0  0  0  0
  5 11  1  0  0  0  0
  6 12  1  0  0  0  0
  7  9  1  0  0  0  0
  7 11  2  0  0  0  0
  8 10  1  0  0  0  0
  8 12  2  0  0  0  0
  9 14  1  0  0  0  0
 10 19  1  0  0  0  0
 11 20  1  0  0  0  0
 12 25  1  0  0  0  0
 13 15  1  0  0  0  0
 13 19  1  0  0  0  0
 13 21  2  0  0  0  0
 14 22  2  0  0  0  0
 14 25  1  0  0  0  0
 15 16  1  0  0  0  0
 16 17  1  0  0  0  0
 17 19  1  0  0  0  0
 18 26  1  0  0  0  0
 20 26  1  0  0  0  0
 23 26  2  0  0  0  0
 24 26  2  0  0  0  0
  1 27  1  0  0  0  0
  2 28  1  0  0  0  0
  3 29  1  0  0  0  0
  4 30  1  0  0  0  0
  5 31  1  0  0  0  0
  6 32  1  0  0  0  0
  7 33  1  0  0  0  0
  8 34  1  0  0  0  0
 15 35  1  0  0  0  0
 15 36  1  0  0  0  0
 16 37  1  0  0  0  0
 16 38  1  0  0  0  0
 17 39  1  0  0  0  0
 17 40  1  0  0  0  0
 18 41  1  0  0  0  0
 18 42  1  0  0  0  0
 18 43  1  0  0  0  0
 20 44  1  0  0  0  0
M  END
> <IC50 (uM)>

> <IC50 (uM) - std>

> <Average Inhibition @ 20 uM>

> <Average Inhibition @ 20 uM - std>

> <Average Inhibition @ 50 uM>

> <Average Inhibition @ 50 uM - std>
32.0

> <Trypsin IC50 (uM)>
1.8

> <Relative Solubility @ 20 uM>

> <Relative Solubility @ 100 uM>

> <Hybrid2>
-9.903871

> <docked_fragment>
x0161

> <Mpro-_dock>
2.378839

> <site>
active-noncovalent

$$$$
WAR-XCH-b6889685-26
  -OEChem-05192003313D

 44 46  0     0  0  0  0  0  0999 V2000
    7.2326   -3.8033   26.3206 C   0  0  0  0  0  0  0  0  0  0  0  0
    6.2402   -5.1780   24.5994 C   0  0  0  0  0  0  0  0  0  0  0  0
   11.5445    0.1886   23.5914 C   0  0  0  0  0  0  0  0  0  0  0  0
   12.4132   -1.7815   22.4954 C   0  0  0  0  0  0  0  0  0  0  0  0
   12.6825    0.2427   24.3962 C   0  0  0  0  0  0  0  0  0  0  0  0
   13.5513   -1.7274   23.3001 C   0  0  0  0  0  0  0  0  0  0  0  0
    6.6690   -4.6219   27.2993 C   0  0  0  0  0  0  0  0  0  0  0  0
    5.6767   -5.9966   25.5782 C   0  0  0  0  0  0  0  0  0  0  0  0
    7.0181   -4.0813   24.9706 C   0  0  0  0  0  0  0  0  0  0  0  0
   11.4098   -0.8236   22.6410 C   0  0  0  0  0  0  0  0  0  0  0  0
   13.6859   -0.7153   24.2505 C   0  0  0  0  0  0  0  0  0  0  0  0
    5.8911   -5.7185   26.9281 C   0  0  0  0  0  0  0  0  0  0  0  0
    8.4845   -1.0498   23.4917 C   0  0  0  0  0  0  0  0  0  0  0  0
    9.3852   -3.0975   22.3546 C   0  0  0  0  0  0  0  0  0  0  0  0
    7.2529   -1.8450   23.9269 C   0  0  0  0  0  0  0  0  0  0  0  0
    8.1365   -3.8639   22.7831 C   0  0  0  0  0  0  0  0  0  0  0  0
    9.0893   -1.6042   22.2011 C   0  0  0  0  0  0  0  0  0  0  0  0
    7.5742   -3.2736   24.0040 N   0  0  0  0  0  0  0  0  0  0  0  0
    6.4240   -7.9008   28.3629 N   0  0  0  0  0  0  0  0  0  0  0  0
   10.2824   -0.8772   21.8438 N   0  0  0  0  0  0  0  0  0  0  0  0
    5.0518   -5.9693   29.3788 O   0  0  0  0  0  0  0  0  0  0  0  0
    4.0184   -7.4055   27.5852 O   0  0  0  0  0  0  0  0  0  0  0  0
   14.7787   -0.6633   25.0233 F   0  0  0  0  0  0  0  0  0  0  0  0
    5.1848   -6.7433   28.1525 S   0  0  0  0  0  0  0  0  0  0  0  0
    7.8368   -2.9511   26.6210 H   0  0  0  0  0  0  0  0  0  0  0  0
    6.0676   -5.4043   23.5502 H   0  0  0  0  0  0  0  0  0  0  0  0
   10.7689    0.9403   23.7131 H   0  0  0  0  0  0  0  0  0  0  0  0
   12.3185   -2.5747   21.7582 H   0  0  0  0  0  0  0  0  0  0  0  0
   12.7878    1.0306   25.1360 H   0  0  0  0  0  0  0  0  0  0  0  0
   14.3326   -2.4731   23.1874 H   0  0  0  0  0  0  0  0  0  0  0  0
    6.8426   -4.3957   28.3479 H   0  0  0  0  0  0  0  0  0  0  0  0
    5.0721   -6.8483   25.2774 H   0  0  0  0  0  0  0  0  0  0  0  0
    8.1927   -0.0071   23.3289 H   0  0  0  0  0  0  0  0  0  0  0  0
    9.2270   -1.0448   24.2946 H   0  0  0  0  0  0  0  0  0  0  0  0
   10.1880   -3.2578   23.0746 H   0  0  0  0  0  0  0  0  0  0  0  0
    9.7319   -3.4901   21.3965 H   0  0  0  0  0  0  0  0  0  0  0  0
    6.8907   -1.4863   24.8984 H   0  0  0  0  0  0  0  0  0  0  0  0
    6.4537   -1.6744   23.1950 H   0  0  0  0  0  0  0  0  0  0  0  0
    7.4020   -3.8191   21.9685 H   0  0  0  0  0  0  0  0  0  0  0  0
    8.3742   -4.9224   22.9520 H   0  0  0  0  0  0  0  0  0  0  0  0
    8.3577   -1.4716   21.3837 H   0  0  0  0  0  0  0  0  0  0  0  0
    6.9683   -7.8713   29.2337 H   0  0  0  0  0  0  0  0  0  0  0  0
    6.2619   -8.8506   28.0067 H   0  0  0  0  0  0  0  0  0  0  0  0
   10.2865   -0.3845   20.9613 H   0  0  0  0  0  0  0  0  0  0  0  0
  1  7  2  0  0  0  0
  1  9  1  0  0  0  0
  2  8  1  0  0  0  0
  2  9  2  0  0  0  0
  3  5  2  0  0  0  0
  3 10  1  0  0  0  0
  4  6  1  0  0  0  0
  4 10  2  0  0  0  0
  5 11  1  0  0  0  0
  6 11  2  0  0  0  0
  7 12  1  0  0  0  0
  8 12  2  0  0  0  0
  9 18  1  0  0  0  0
 10 20  1  0  0  0  0
 11 23  1  0  0  0  0
 12 24  1  0  0  0  0
 13 15  1  0  0  0  0
 13 17  1  0  0  0  0
 14 16  1  0  0  0  0
 14 17  1  0  0  0  0
 15 18  1  0  0  0  0
 16 18  1  0  0  0  0
 17 20  1  0  0  0  0
 19 24  1  0  0  0  0
 21 24  2  0  0  0  0
 22 24  2  0  0  0  0
  1 25  1  0  0  0  0
  2 26  1  0  0  0  0
  3 27  1  0  0  0  0
  4 28  1  0  0  0  0
  5 29  1  0  0  0  0
  6 30  1  0  0  0  0
  7 31  1  0  0  0  0
  8 32  1  0  0  0  0
 13 33  1  0  0  0  0
 13 34  1  0  0  0  0
 14 35  1  0  0  0  0
 14 36  1  0  0  0  0
 15 37  1  0  0  0  0
 15 38  1  0  0  0  0
 16 39  1  0  0  0  0
 16 40  1  0  0  0  0
 17 41  1  0  0  0  0
 19 42  1  0  0  0  0
 19 43  1  0  0  0  0
 20 44  1  0  0  0  0
M  END
> <IC50 (uM)>

> <IC50 (uM) - std>

> <Average Inhibition @ 20 uM>

> <Average Inhibition @ 20 uM - std>

> <Average Inhibition @ 50 uM>

> <Average Inhibition @ 50 uM - std>
2.89

> <Trypsin IC50 (uM)>
0.411

> <Relative Solubility @ 20 uM>

> <Relative Solubility @ 100 uM>

> <Hybrid2>
-9.858924

> <docked_fragment>
x0072

> <Mpro-_dock>
3.298033

> <site>
active-noncovalent

$$$$
DAR-DIA-23aa0b97-15
  -OEChem-05192003313D

 26 27  0     0  0  0  0  0  0999 V2000
    4.6746    1.5485   18.7808 C   0  0  0  0  0  0  0  0  0  0  0  0
    4.7853    0.8463   19.9758 C   0  0  0  0  0  0  0  0  0  0  0  0
    7.0365   -3.6259   24.9516 C   0  0  0  0  0  0  0  0  0  0  0  0
    5.5877    1.2686   17.7770 C   0  0  0  0  0  0  0  0  0  0  0  0
    6.6545   -0.3074   19.0640 C   0  0  0  0  0  0  0  0  0  0  0  0
    8.4697   -3.9120   23.0753 C   0  0  0  0  0  0  0  0  0  0  0  0
    8.8342   -5.1830   24.9540 C   0  0  0  0  0  0  0  0  0  0  0  0
    5.7915   -0.1012   20.1282 C   0  0  0  0  0  0  0  0  0  0  0  0
    7.3871   -3.2696   23.6542 C   0  0  0  0  0  0  0  0  0  0  0  0
    7.7688   -4.6000   25.6211 C   0  0  0  0  0  0  0  0  0  0  0  0
    6.8834   -1.8137   21.6427 C   0  0  0  0  0  0  0  0  0  0  0  0
    6.5783    0.3554   17.8882 N   0  0  0  0  0  0  0  0  0  0  0  0
    9.2049   -4.8629   23.6940 N   0  0  0  0  0  0  0  0  0  0  0  0
    5.9273   -0.8199   21.3134 N   0  0  0  0  0  0  0  0  0  0  0  0
    6.6604   -2.2826   22.9473 N   0  0  0  0  0  0  0  0  0  0  0  0
    7.7726   -2.2016   20.8917 O   0  0  0  0  0  0  0  0  0  0  0  0
    7.3658   -5.0662   27.2214 Cl  0  0  0  0  0  0  0  0  0  0  0  0
    3.8980    2.2916   18.6398 H   0  0  0  0  0  0  0  0  0  0  0  0
    4.0828    1.0450   20.7809 H   0  0  0  0  0  0  0  0  0  0  0  0
    6.1911   -3.1440   25.4379 H   0  0  0  0  0  0  0  0  0  0  0  0
    5.5445    1.7897   16.8264 H   0  0  0  0  0  0  0  0  0  0  0  0
    7.4597   -1.0338   19.1228 H   0  0  0  0  0  0  0  0  0  0  0  0
    8.7918   -3.6766   22.0653 H   0  0  0  0  0  0  0  0  0  0  0  0
    9.4458   -5.9484   25.4224 H   0  0  0  0  0  0  0  0  0  0  0  0
    5.2435   -0.6007   22.0470 H   0  0  0  0  0  0  0  0  0  0  0  0
    5.8817   -1.8661   23.4515 H   0  0  0  0  0  0  0  0  0  0  0  0
  1  2  2  0  0  0  0
  1  4  1  0  0  0  0
  2  8  1  0  0  0  0
  3  9  2  0  0  0  0
  3 10  1  0  0  0  0
  4 12  2  0  0  0  0
  5  8  2  0  0  0  0
  5 12  1  0  0  0  0
  6  9  1  0  0  0  0
  6 13  2  0  0  0  0
  7 10  2  0  0  0  0
  7 13  1  0  0  0  0
  8 14  1  0  0  0  0
  9 15  1  0  0  0  0
 10 17  1  0  0  0  0
 11 14  1  0  0  0  0
 11 15  1  0  0  0  0
 11 16  2  0  0  0  0
  1 18  1  0  0  0  0
  2 19  1  0  0  0  0
  3 20  1  0  0  0  0
  4 21  1  0  0  0  0
  5 22  1  0  0  0  0
  6 23  1  0  0  0  0
  7 24  1  0  0  0  0
 14 25  1  0  0  0  0
 15 26  1  0  0  0  0
M  END
> <IC50 (uM)>

> <IC50 (uM) - std>

> <Average Inhibition @ 20 uM>

> <Average Inhibition @ 20 uM - std>

> <Average Inhibition @ 50 uM>

> <Average Inhibition @ 50 uM - std>
8.99

> <Trypsin IC50 (uM)>
2.75

> <Relative Solubility @ 20 uM>

> <Relative Solubility @ 100 uM>

> <Hybrid2>
-9.845115

> <docked_fragment>
x0107

> <Mpro-_dock>
1.439826

> <site>
active-noncovalent

$$$$
ANT-DIA-3c79be55-4
  -OEChem-05192003313D

 31 32  0     0  0  0  0  0  0999 V2000
    4.7496    0.7223   19.0537 C   0  0  0  0  0  0  0  0  0  0  0  0
    5.4968    0.6232   20.2221 C   0  0  0  0  0  0  0  0  0  0  0  0
   10.5456    0.9016   23.5341 C   0  0  0  0  0  0  0  0  0  0  0  0
   10.6125    0.2213   24.7734 C   0  0  0  0  0  0  0  0  0  0  0  0
    5.4075    0.5495   17.8465 C   0  0  0  0  0  0  0  0  0  0  0  0
    7.4231    0.2013   18.8925 C   0  0  0  0  0  0  0  0  0  0  0  0
    6.8598    0.3580   20.1487 C   0  0  0  0  0  0  0  0  0  0  0  0
    9.5370    0.2972   22.8205 C   0  0  0  0  0  0  0  0  0  0  0  0
    9.6398   -0.7502   24.7288 C   0  0  0  0  0  0  0  0  0  0  0  0
    9.0008    0.5593   21.4739 C   0  0  0  0  0  0  0  0  0  0  0  0
    8.0724   -4.2917   26.0512 C   0  0  0  0  0  0  0  0  0  0  0  0
    9.2010   -1.7779   25.6836 C   0  0  0  0  0  0  0  0  0  0  0  0
    6.7297    0.2907   17.7355 N   0  0  0  0  0  0  0  0  0  0  0  0
    7.6340    0.2534   21.3016 N   0  0  0  0  0  0  0  0  0  0  0  0
    9.7255    0.9821   20.5756 O   0  0  0  0  0  0  0  0  0  0  0  0
    7.3462   -2.7143   24.0975 O   0  0  0  0  0  0  0  0  0  0  0  0
    9.6447   -3.7557   24.0331 O   0  0  0  0  0  0  0  0  0  0  0  0
    8.9796   -0.7106   23.5418 O   0  0  0  0  0  0  0  0  0  0  0  0
    8.5528   -3.1523   24.7749 S   0  0  0  0  0  0  0  0  0  0  0  0
    3.6859    0.9284   19.0870 H   0  0  0  0  0  0  0  0  0  0  0  0
    5.0075    0.7542   21.1836 H   0  0  0  0  0  0  0  0  0  0  0  0
   11.1581    1.7289   23.2049 H   0  0  0  0  0  0  0  0  0  0  0  0
   11.2874    0.4165   25.5946 H   0  0  0  0  0  0  0  0  0  0  0  0
    4.8696    0.6180   16.9067 H   0  0  0  0  0  0  0  0  0  0  0  0
    8.4819   -0.0074   18.7707 H   0  0  0  0  0  0  0  0  0  0  0  0
    7.6556   -5.1825   25.5786 H   0  0  0  0  0  0  0  0  0  0  0  0
    8.9576   -4.5476   26.6355 H   0  0  0  0  0  0  0  0  0  0  0  0
    7.3247   -3.8077   26.6813 H   0  0  0  0  0  0  0  0  0  0  0  0
    8.4012   -1.4321   26.3620 H   0  0  0  0  0  0  0  0  0  0  0  0
   10.0191   -2.1652   26.3165 H   0  0  0  0  0  0  0  0  0  0  0  0
    7.1455   -0.0922   22.1370 H   0  0  0  0  0  0  0  0  0  0  0  0
  1  2  2  0  0  0  0
  1  5  1  0  0  0  0
  2  7  1  0  0  0  0
  3  4  1  0  0  0  0
  3  8  2  0  0  0  0
  4  9  2  0  0  0  0
  5 13  2  0  0  0  0
  6  7  2  0  0  0  0
  6 13  1  0  0  0  0
  7 14  1  0  0  0  0
  8 10  1  0  0  0  0
  8 18  1  0  0  0  0
  9 12  1  0  0  0  0
  9 18  1  0  0  0  0
 10 14  1  0  0  0  0
 10 15  2  0  0  0  0
 11 19  1  0  0  0  0
 12 19  1  0  0  0  0
 16 19  2  0  0  0  0
 17 19  2  0  0  0  0
  1 20  1  0  0  0  0
  2 21  1  0  0  0  0
  3 22  1  0  0  0  0
  4 23  1  0  0  0  0
  5 24  1  0  0  0  0
  6 25  1  0  0  0  0
 11 26  1  0  0  0  0
 11 27  1  0  0  0  0
 11 28  1  0  0  0  0
 12 29  1  0  0  0  0
 12 30  1  0  0  0  0
 14 31  1  0  0  0  0
M  END
> <IC50 (uM)>

> <IC50 (uM) - std>

> <Average Inhibition @ 20 uM>

> <Average Inhibition @ 20 uM - std>
0.469

> <Average Inhibition @ 50 uM>
4.68

> <Average Inhibition @ 50 uM - std>
6.26

> <Trypsin IC50 (uM)>
0.497

> <Relative Solubility @ 20 uM>
1.0

> <Relative Solubility @ 100 uM>
1.0

> <Hybrid2>
-9.845098

> <docked_fragment>
x0107

> <Mpro-_dock>
1.335997

> <site>
active-noncovalent

$$$$
DAR-DIA-23aa0b97-12
  -OEChem-05192003313D

 32 34  0     0  0  0  0  0  0999 V2000
    6.5265   -5.8869   22.1428 C   0  0  0  0  0  0  0  0  0  0  0  0
    5.1698    1.2448   18.8547 C   0  0  0  0  0  0  0  0  0  0  0  0
    5.6322    1.0082   20.1479 C   0  0  0  0  0  0  0  0  0  0  0  0
    6.8415   -4.5535   21.8812 C   0  0  0  0  0  0  0  0  0  0  0  0
    6.0757   -6.2617   23.4085 C   0  0  0  0  0  0  0  0  0  0  0  0
    6.2550   -3.9697   24.1511 C   0  0  0  0  0  0  0  0  0  0  0  0
    5.9713    0.8793   17.7815 C   0  0  0  0  0  0  0  0  0  0  0  0
    8.8648   -0.5341   20.8633 C   0  0  0  0  0  0  0  0  0  0  0  0
    6.8934    0.4082   20.2938 C   0  0  0  0  0  0  0  0  0  0  0  0
    7.7092    0.0068   21.3845 C   0  0  0  0  0  0  0  0  0  0  0  0
    6.7058   -3.5949   22.8854 C   0  0  0  0  0  0  0  0  0  0  0  0
    5.9399   -5.3031   24.4126 C   0  0  0  0  0  0  0  0  0  0  0  0
    7.5910    0.0932   19.1313 C   0  0  0  0  0  0  0  0  0  0  0  0
    6.9510   -1.1635   23.4961 C   0  0  0  0  0  0  0  0  0  0  0  0
    7.3881    0.1405   22.8196 C   0  0  0  0  0  0  0  0  0  0  0  0
    7.1916    0.2998   17.8622 N   0  0  0  0  0  0  0  0  0  0  0  0
    8.7825   -0.4763   19.4962 N   0  0  0  0  0  0  0  0  0  0  0  0
    7.0267   -2.2425   22.6190 N   0  0  0  0  0  0  0  0  0  0  0  0
    6.5892   -1.1828   24.6682 O   0  0  0  0  0  0  0  0  0  0  0  0
    5.3837   -5.7654   25.9743 Cl  0  0  0  0  0  0  0  0  0  0  0  0
    6.6323   -6.6333   21.3607 H   0  0  0  0  0  0  0  0  0  0  0  0
    4.2018    1.7062   18.6910 H   0  0  0  0  0  0  0  0  0  0  0  0
    5.0302    1.2812   21.0085 H   0  0  0  0  0  0  0  0  0  0  0  0
    7.1921   -4.2732   20.8909 H   0  0  0  0  0  0  0  0  0  0  0  0
    5.8338   -7.3044   23.5972 H   0  0  0  0  0  0  0  0  0  0  0  0
    6.1499   -3.2194   24.9317 H   0  0  0  0  0  0  0  0  0  0  0  0
    5.6264    1.0555   16.7660 H   0  0  0  0  0  0  0  0  0  0  0  0
    9.7383   -0.9556   21.3413 H   0  0  0  0  0  0  0  0  0  0  0  0
    8.2559    0.5310   23.3868 H   0  0  0  0  0  0  0  0  0  0  0  0
    6.5808    0.8822   22.9780 H   0  0  0  0  0  0  0  0  0  0  0  0
    9.4923   -0.8022   18.8549 H   0  0  0  0  0  0  0  0  0  0  0  0
    7.3505   -2.0343   21.6767 H   0  0  0  0  0  0  0  0  0  0  0  0
  1  4  2  0  0  0  0
  1  5  1  0  0  0  0
  2  3  2  0  0  0  0
  2  7  1  0  0  0  0
  3  9  1  0  0  0  0
  4 11  1  0  0  0  0
  5 12  2  0  0  0  0
  6 11  2  0  0  0  0
  6 12  1  0  0  0  0
  7 16  2  0  0  0  0
  8 10  2  0  0  0  0
  8 17  1  0  0  0  0
  9 10  1  0  0  0  0
  9 13  2  0  0  0  0
 10 15  1  0  0  0  0
 11 18  1  0  0  0  0
 12 20  1  0  0  0  0
 13 16  1  0  0  0  0
 13 17  1  0  0  0  0
 14 15  1  0  0  0  0
 14 18  1  0  0  0  0
 14 19  2  0  0  0  0
  1 21  1  0  0  0  0
  2 22  1  0  0  0  0
  3 23  1  0  0  0  0
  4 24  1  0  0  0  0
  5 25  1  0  0  0  0
  6 26  1  0  0  0  0
  7 27  1  0  0  0  0
  8 28  1  0  0  0  0
 15 29  1  0  0  0  0
 15 30  1  0  0  0  0
 17 31  1  0  0  0  0
 18 32  1  0  0  0  0
M  END
> <IC50 (uM)>

> <IC50 (uM) - std>

> <Average Inhibition @ 20 uM>

> <Average Inhibition @ 20 uM - std>
5.95

> <Average Inhibition @ 50 uM>
0.725

> <Average Inhibition @ 50 uM - std>
9.34

> <Trypsin IC50 (uM)>
0.727

> <Relative Solubility @ 20 uM>
0.99

> <Relative Solubility @ 100 uM>
0.97

> <Hybrid2>
-9.791058

> <docked_fragment>
x0397

> <Mpro-_dock>
0.083451

> <site>
active-noncovalent

$$$$
BAR-COM-4e090d3a-11
  -OEChem-05192003313D

 46 48  0     0  0  0  0  0  0999 V2000
    9.5030    6.2494   22.5991 C   0  0  0  0  0  0  0  0  0  0  0  0
    9.1580    4.9383   22.2712 C   0  0  0  0  0  0  0  0  0  0  0  0
   10.7295    6.5165   23.2075 C   0  0  0  0  0  0  0  0  0  0  0  0
   13.9670   -1.7641   22.9554 C   0  0  0  0  0  0  0  0  0  0  0  0
   10.0394    3.8942   22.5517 C   0  0  0  0  0  0  0  0  0  0  0  0
   11.6109    5.4724   23.4880 C   0  0  0  0  0  0  0  0  0  0  0  0
   14.0520   -0.7020   23.8556 C   0  0  0  0  0  0  0  0  0  0  0  0
   12.7522   -2.0578   22.3359 C   0  0  0  0  0  0  0  0  0  0  0  0
   11.7074   -0.2274   23.5169 C   0  0  0  0  0  0  0  0  0  0  0  0
    6.3858    0.1371   20.5687 C   0  0  0  0  0  0  0  0  0  0  0  0
    8.0132   -0.4777   19.0099 C   0  0  0  0  0  0  0  0  0  0  0  0
    6.4154    1.0526   18.4882 C   0  0  0  0  0  0  0  0  0  0  0  0
   11.2659    4.1613   23.1601 C   0  0  0  0  0  0  0  0  0  0  0  0
   12.9222    0.0663   24.1364 C   0  0  0  0  0  0  0  0  0  0  0  0
    7.4951   -0.6311   20.2797 C   0  0  0  0  0  0  0  0  0  0  0  0
   11.6224   -1.2894   22.6167 C   0  0  0  0  0  0  0  0  0  0  0  0
    9.1734   -0.9298   22.1498 C   0  0  0  0  0  0  0  0  0  0  0  0
    8.1019   -1.5747   21.2848 C   0  0  0  0  0  0  0  0  0  0  0  0
   12.2087    3.0453   23.4606 C   0  0  0  0  0  0  0  0  0  0  0  0
   13.0146    1.2145   25.1097 C   0  0  0  0  0  0  0  0  0  0  0  0
   12.0504    2.3816   24.8456 C   0  0  0  0  0  0  0  0  0  0  0  0
    5.8177    0.9925   19.6935 N   0  0  0  0  0  0  0  0  0  0  0  0
    7.4966    0.3581   18.0853 N   0  0  0  0  0  0  0  0  0  0  0  0
   10.4076   -1.5831   21.9964 N   0  0  0  0  0  0  0  0  0  0  0  0
    8.9402    0.0335   22.8728 O   0  0  0  0  0  0  0  0  0  0  0  0
    8.8172    7.0624   22.3794 H   0  0  0  0  0  0  0  0  0  0  0  0
    8.2035    4.7303   21.7965 H   0  0  0  0  0  0  0  0  0  0  0  0
   10.9990    7.5373   23.4619 H   0  0  0  0  0  0  0  0  0  0  0  0
   14.8467   -2.3622   22.7364 H   0  0  0  0  0  0  0  0  0  0  0  0
    9.7621    2.8758   22.2929 H   0  0  0  0  0  0  0  0  0  0  0  0
   12.5643    5.6900   23.9623 H   0  0  0  0  0  0  0  0  0  0  0  0
   15.0024   -0.4814   24.3337 H   0  0  0  0  0  0  0  0  0  0  0  0
   12.6975   -2.8879   21.6362 H   0  0  0  0  0  0  0  0  0  0  0  0
   10.8274    0.3728   23.7381 H   0  0  0  0  0  0  0  0  0  0  0  0
    5.9036    0.0897   21.5401 H   0  0  0  0  0  0  0  0  0  0  0  0
    8.8846   -1.0372   18.6843 H   0  0  0  0  0  0  0  0  0  0  0  0
    5.9787    1.7312   17.7658 H   0  0  0  0  0  0  0  0  0  0  0  0
    7.3150   -1.9726   21.9382 H   0  0  0  0  0  0  0  0  0  0  0  0
    8.5402   -2.4348   20.7627 H   0  0  0  0  0  0  0  0  0  0  0  0
   13.2569    3.3710   23.3500 H   0  0  0  0  0  0  0  0  0  0  0  0
   12.0712    2.2645   22.6936 H   0  0  0  0  0  0  0  0  0  0  0  0
   14.0441    1.5941   25.0695 H   0  0  0  0  0  0  0  0  0  0  0  0
   12.8711    0.8549   26.1364 H   0  0  0  0  0  0  0  0  0  0  0  0
   11.0323    1.9734   24.9006 H   0  0  0  0  0  0  0  0  0  0  0  0
   12.1177    3.1317   25.6415 H   0  0  0  0  0  0  0  0  0  0  0  0
   10.4169   -2.3769   21.3455 H   0  0  0  0  0  0  0  0  0  0  0  0
  1  2  1  0  0  0  0
  1  3  2  0  0  0  0
  2  5  2  0  0  0  0
  3  6  1  0  0  0  0
  4  7  1  0  0  0  0
  4  8  2  0  0  0  0
  5 13  1  0  0  0  0
  6 13  2  0  0  0  0
  7 14  2  0  0  0  0
  8 16  1  0  0  0  0
  9 14  1  0  0  0  0
  9 16  2  0  0  0  0
 10 15  1  0  0  0  0
 10 22  2  0  0  0  0
 11 15  2  0  0  0  0
 11 23  1  0  0  0  0
 12 22  1  0  0  0  0
 12 23  2  0  0  0  0
 13 19  1  0  0  0  0
 14 20  1  0  0  0  0
 15 18  1  0  0  0  0
 16 24  1  0  0  0  0
 17 18  1  0  0  0  0
 17 24  1  0  0  0  0
 17 25  2  0  0  0  0
 19 21  1  0  0  0  0
 20 21  1  0  0  0  0
  1 26  1  0  0  0  0
  2 27  1  0  0  0  0
  3 28  1  0  0  0  0
  4 29  1  0  0  0  0
  5 30  1  0  0  0  0
  6 31  1  0  0  0  0
  7 32  1  0  0  0  0
  8 33  1  0  0  0  0
  9 34  1  0  0  0  0
 10 35  1  0  0  0  0
 11 36  1  0  0  0  0
 12 37  1  0  0  0  0
 18 38  1  0  0  0  0
 18 39  1  0  0  0  0
 19 40  1  0  0  0  0
 19 41  1  0  0  0  0
 20 42  1  0  0  0  0
 20 43  1  0  0  0  0
 21 44  1  0  0  0  0
 21 45  1  0  0  0  0
 24 46  1  0  0  0  0
M  END
> <IC50 (uM)>

> <IC50 (uM) - std>

> <Average Inhibition @ 20 uM>

> <Average Inhibition @ 20 uM - std>
1.12

> <Average Inhibition @ 50 uM>
2.19

> <Average Inhibition @ 50 uM - std>
10.1

> <Trypsin IC50 (uM)>
0.911

> <Relative Solubility @ 20 uM>
0.96

> <Relative Solubility @ 100 uM>
0.94

> <Hybrid2>
-9.786640

> <docked_fragment>
x0678

> <Mpro-_dock>
1.821448

> <site>
active-noncovalent

$$$$
DAR-DIA-842b4336-7
  -OEChem-05192003313D

 26 27  0     0  0  0  0  0  0999 V2000
   12.7114   -1.0240   24.3197 C   0  0  0  0  0  0  0  0  0  0  0  0
   11.8038   -0.8060   23.2892 C   0  0  0  0  0  0  0  0  0  0  0  0
   13.9873   -1.4456   23.9818 C   0  0  0  0  0  0  0  0  0  0  0  0
   13.4934   -1.4352   21.7382 C   0  0  0  0  0  0  0  0  0  0  0  0
    6.1147    0.7420   19.6287 C   0  0  0  0  0  0  0  0  0  0  0  0
   12.1943   -1.0133   21.9709 C   0  0  0  0  0  0  0  0  0  0  0  0
    6.3395    0.5836   18.2837 C   0  0  0  0  0  0  0  0  0  0  0  0
    8.1222    0.0885   19.2837 C   0  0  0  0  0  0  0  0  0  0  0  0
    9.9560   -0.3771   20.9687 C   0  0  0  0  0  0  0  0  0  0  0  0
    5.4144    0.8016   17.1635 C   0  0  0  0  0  0  0  0  0  0  0  0
   14.4032   -1.6575   22.7131 N   0  0  0  0  0  0  0  0  0  0  0  0
    7.6277    0.1650   18.0688 N   0  0  0  0  0  0  0  0  0  0  0  0
   11.3073   -0.8035   20.9179 N   0  0  0  0  0  0  0  0  0  0  0  0
    9.4280   -0.2955   19.6702 N   0  0  0  0  0  0  0  0  0  0  0  0
    9.3448   -0.1191   22.0007 O   0  0  0  0  0  0  0  0  0  0  0  0
    7.2644    0.4235   20.2861 O   0  0  0  0  0  0  0  0  0  0  0  0
   12.4289   -0.8687   25.3547 H   0  0  0  0  0  0  0  0  0  0  0  0
   10.7957   -0.4749   23.5243 H   0  0  0  0  0  0  0  0  0  0  0  0
   14.7320   -1.6304   24.7490 H   0  0  0  0  0  0  0  0  0  0  0  0
   13.8569   -1.6138   20.7306 H   0  0  0  0  0  0  0  0  0  0  0  0
    5.2775    1.0446   20.2398 H   0  0  0  0  0  0  0  0  0  0  0  0
    5.4678    1.8405   16.7914 H   0  0  0  0  0  0  0  0  0  0  0  0
    5.6258    0.1340   16.3073 H   0  0  0  0  0  0  0  0  0  0  0  0
    4.3622    0.6053   17.4424 H   0  0  0  0  0  0  0  0  0  0  0  0
   11.6821   -0.9814   19.9788 H   0  0  0  0  0  0  0  0  0  0  0  0
   10.0559   -0.5420   18.9094 H   0  0  0  0  0  0  0  0  0  0  0  0
  1  2  2  0  0  0  0
  1  3  1  0  0  0  0
  2  6  1  0  0  0  0
  3 11  2  0  0  0  0
  4  6  2  0  0  0  0
  4 11  1  0  0  0  0
  5  7  2  0  0  0  0
  5 16  1  0  0  0  0
  6 13  1  0  0  0  0
  7 10  1  0  0  0  0
  7 12  1  0  0  0  0
  8 12  2  0  0  0  0
  8 14  1  0  0  0  0
  8 16  1  0  0  0  0
  9 13  1  0  0  0  0
  9 14  1  0  0  0  0
  9 15  2  0  0  0  0
  1 17  1  0  0  0  0
  2 18  1  0  0  0  0
  3 19  1  0  0  0  0
  4 20  1  0  0  0  0
  5 21  1  0  0  0  0
 10 22  1  0  0  0  0
 10 23  1  0  0  0  0
 10 24  1  0  0  0  0
 13 25  1  0  0  0  0
 14 26  1  0  0  0  0
M  END
> <IC50 (uM)>

> <IC50 (uM) - std>

> <Average Inhibition @ 20 uM>

> <Average Inhibition @ 20 uM - std>
2.91

> <Average Inhibition @ 50 uM>
1.58

> <Average Inhibition @ 50 uM - std>
8.86

> <Trypsin IC50 (uM)>
1.0

> <Relative Solubility @ 20 uM>
1.0

> <Relative Solubility @ 100 uM>
1.0

> <Hybrid2>
-9.765095

> <docked_fragment>
x0678

> <Mpro-_dock>
-1.054899

> <site>
active-noncovalent

$$$$
TRY-UNI-714a760b-12
  -OEChem-05192003313D

 30 31  0     0  0  0  0  0  0999 V2000
   13.2646   -0.4107   24.8127 C   0  0  0  0  0  0  0  0  0  0  0  0
   12.0197   -0.0182   24.3212 C   0  0  0  0  0  0  0  0  0  0  0  0
   14.1976   -0.9991   23.9588 C   0  0  0  0  0  0  0  0  0  0  0  0
    5.7154    1.2675   18.9399 C   0  0  0  0  0  0  0  0  0  0  0  0
   12.6405   -0.8026   22.1220 C   0  0  0  0  0  0  0  0  0  0  0  0
    6.2301    0.7705   17.7534 C   0  0  0  0  0  0  0  0  0  0  0  0
    8.2180    0.1969   18.7521 C   0  0  0  0  0  0  0  0  0  0  0  0
    6.5198    1.2112   20.0725 C   0  0  0  0  0  0  0  0  0  0  0  0
   11.7076   -0.2142   22.9759 C   0  0  0  0  0  0  0  0  0  0  0  0
    7.7965    0.6672   19.9853 C   0  0  0  0  0  0  0  0  0  0  0  0
   13.8855   -1.1951   22.6135 C   0  0  0  0  0  0  0  0  0  0  0  0
    9.9557    0.0678   21.1675 C   0  0  0  0  0  0  0  0  0  0  0  0
    5.9903    1.7405   21.3649 C   0  0  0  0  0  0  0  0  0  0  0  0
    7.4652    0.2347   17.6299 N   0  0  0  0  0  0  0  0  0  0  0  0
   10.4616    0.1780   22.4858 N   0  0  0  0  0  0  0  0  0  0  0  0
    8.6525    0.5872   21.1090 N   0  0  0  0  0  0  0  0  0  0  0  0
   10.5714   -0.4120   20.2210 O   0  0  0  0  0  0  0  0  0  0  0  0
   15.0366   -1.9210   21.5598 Cl  0  0  0  0  0  0  0  0  0  0  0  0
   13.5076   -0.2581   25.8603 H   0  0  0  0  0  0  0  0  0  0  0  0
   11.3005    0.4392   24.9962 H   0  0  0  0  0  0  0  0  0  0  0  0
   15.1637   -1.2995   24.3561 H   0  0  0  0  0  0  0  0  0  0  0  0
    4.7151    1.6858   18.9742 H   0  0  0  0  0  0  0  0  0  0  0  0
   12.3939   -0.9536   21.0733 H   0  0  0  0  0  0  0  0  0  0  0  0
    5.6428    0.7913   16.8413 H   0  0  0  0  0  0  0  0  0  0  0  0
    9.2039   -0.2392   18.6205 H   0  0  0  0  0  0  0  0  0  0  0  0
    5.4749    0.9466   21.9177 H   0  0  0  0  0  0  0  0  0  0  0  0
    6.7987    2.1355   21.9924 H   0  0  0  0  0  0  0  0  0  0  0  0
    5.2853    2.5640   21.1967 H   0  0  0  0  0  0  0  0  0  0  0  0
    9.8277    0.6024   23.1712 H   0  0  0  0  0  0  0  0  0  0  0  0
    8.2712    0.9532   21.9778 H   0  0  0  0  0  0  0  0  0  0  0  0
  1  2  2  0  0  0  0
  1  3  1  0  0  0  0
  2  9  1  0  0  0  0
  3 11  2  0  0  0  0
  4  6  2  0  0  0  0
  4  8  1  0  0  0  0
  5  9  2  0  0  0  0
  5 11  1  0  0  0  0
  6 14  1  0  0  0  0
  7 10  1  0  0  0  0
  7 14  2  0  0  0  0
  8 10  2  0  0  0  0
  8 13  1  0  0  0  0
  9 15  1  0  0  0  0
 10 16  1  0  0  0  0
 11 18  1  0  0  0  0
 12 15  1  0  0  0  0
 12 16  1  0  0  0  0
 12 17  2  0  0  0  0
  1 19  1  0  0  0  0
  2 20  1  0  0  0  0
  3 21  1  0  0  0  0
  4 22  1  0  0  0  0
  5 23  1  0  0  0  0
  6 24  1  0  0  0  0
  7 25  1  0  0  0  0
 13 26  1  0  0  0  0
 13 27  1  0  0  0  0
 13 28  1  0  0  0  0
 15 29  1  0  0  0  0
 16 30  1  0  0  0  0
M  END
> <IC50 (uM)>
68.0

> <IC50 (uM) - std>
7.1

> <Average Inhibition @ 20 uM>
> 99.0

> <Average Inhibition @ 20 uM - std>
32.1

> <Average Inhibition @ 50 uM>
0.539

> <Average Inhibition @ 50 uM - std>
58.7

> <Trypsin IC50 (uM)>
0.386

> <Relative Solubility @ 20 uM>
0.99

> <Relative Solubility @ 100 uM>
0.96

> <Hybrid2>
-9.759779

> <docked_fragment>
x0678

> <Mpro-_dock>
0.844232

> <site>
active-noncovalent

$$$$
JAG-UCB-cedd89ab-8
  -OEChem-05192003313D

 30 31  0     0  0  0  0  0  0999 V2000
   13.2646   -0.4107   24.8127 C   0  0  0  0  0  0  0  0  0  0  0  0
   12.0197   -0.0182   24.3212 C   0  0  0  0  0  0  0  0  0  0  0  0
   14.1976   -0.9991   23.9588 C   0  0  0  0  0  0  0  0  0  0  0  0
    5.7154    1.2675   18.9399 C   0  0  0  0  0  0  0  0  0  0  0  0
   12.6405   -0.8026   22.1220 C   0  0  0  0  0  0  0  0  0  0  0  0
    6.2301    0.7705   17.7534 C   0  0  0  0  0  0  0  0  0  0  0  0
    8.2180    0.1969   18.7521 C   0  0  0  0  0  0  0  0  0  0  0  0
    6.5198    1.2112   20.0725 C   0  0  0  0  0  0  0  0  0  0  0  0
   11.7076   -0.2142   22.9759 C   0  0  0  0  0  0  0  0  0  0  0  0
    7.7965    0.6672   19.9853 C   0  0  0  0  0  0  0  0  0  0  0  0
   13.8855   -1.1951   22.6135 C   0  0  0  0  0  0  0  0  0  0  0  0
    9.9557    0.0678   21.1675 C   0  0  0  0  0  0  0  0  0  0  0  0
    5.9903    1.7405   21.3649 C   0  0  0  0  0  0  0  0  0  0  0  0
    7.4652    0.2347   17.6299 N   0  0  0  0  0  0  0  0  0  0  0  0
   10.4616    0.1780   22.4858 N   0  0  0  0  0  0  0  0  0  0  0  0
    8.6525    0.5872   21.1090 N   0  0  0  0  0  0  0  0  0  0  0  0
   10.5714   -0.4120   20.2210 O   0  0  0  0  0  0  0  0  0  0  0  0
   15.0366   -1.9210   21.5598 Cl  0  0  0  0  0  0  0  0  0  0  0  0
   13.5076   -0.2581   25.8603 H   0  0  0  0  0  0  0  0  0  0  0  0
   11.3005    0.4392   24.9962 H   0  0  0  0  0  0  0  0  0  0  0  0
   15.1637   -1.2995   24.3561 H   0  0  0  0  0  0  0  0  0  0  0  0
    4.7151    1.6858   18.9742 H   0  0  0  0  0  0  0  0  0  0  0  0
   12.3939   -0.9536   21.0733 H   0  0  0  0  0  0  0  0  0  0  0  0
    5.6428    0.7913   16.8413 H   0  0  0  0  0  0  0  0  0  0  0  0
    9.2039   -0.2392   18.6205 H   0  0  0  0  0  0  0  0  0  0  0  0
    5.4749    0.9466   21.9177 H   0  0  0  0  0  0  0  0  0  0  0  0
    6.7987    2.1355   21.9924 H   0  0  0  0  0  0  0  0  0  0  0  0
    5.2853    2.5640   21.1967 H   0  0  0  0  0  0  0  0  0  0  0  0
    9.8277    0.6024   23.1712 H   0  0  0  0  0  0  0  0  0  0  0  0
    8.2712    0.9532   21.9778 H   0  0  0  0  0  0  0  0  0  0  0  0
  1  2  2  0  0  0  0
  1  3  1  0  0  0  0
  2  9  1  0  0  0  0
  3 11  2  0  0  0  0
  4  6  2  0  0  0  0
  4  8  1  0  0  0  0
  5  9  2  0  0  0  0
  5 11  1  0  0  0  0
  6 14  1  0  0  0  0
  7 10  1  0  0  0  0
  7 14  2  0  0  0  0
  8 10  2  0  0  0  0
  8 13  1  0  0  0  0
  9 15  1  0  0  0  0
 10 16  1  0  0  0  0
 11 18  1  0  0  0  0
 12 15  1  0  0  0  0
 12 16  1  0  0  0  0
 12 17  2  0  0  0  0
  1 19  1  0  0  0  0
  2 20  1  0  0  0  0
  3 21  1  0  0  0  0
  4 22  1  0  0  0  0
  5 23  1  0  0  0  0
  6 24  1  0  0  0  0
  7 25  1  0  0  0  0
 13 26  1  0  0  0  0
 13 27  1  0  0  0  0
 13 28  1  0  0  0  0
 15 29  1  0  0  0  0
 16 30  1  0  0  0  0
M  END
> <IC50 (uM)>
68.0

> <IC50 (uM) - std>
7.1

> <Average Inhibition @ 20 uM>
> 99.0

> <Average Inhibition @ 20 uM - std>
32.1

> <Average Inhibition @ 50 uM>
0.539

> <Average Inhibition @ 50 uM - std>
58.7

> <Trypsin IC50 (uM)>
0.386

> <Relative Solubility @ 20 uM>
0.99

> <Relative Solubility @ 100 uM>
0.96

> <Hybrid2>
-9.759779

> <docked_fragment>
x0678

> <Mpro-_dock>
0.844232

> <site>
active-noncovalent

$$$$
BEN-DND-362d364a-10
  -OEChem-05192003313D

 48 49  0     1  0  0  0  0  0999 V2000
    5.5687    0.6222   19.2537 C   0  0  0  0  0  0  0  0  0  0  0  0
    6.5395    0.7589   20.2397 C   0  0  0  0  0  0  0  0  0  0  0  0
    5.9883    0.3226   17.9676 C   0  0  0  0  0  0  0  0  0  0  0  0
    8.1973    0.2957   18.5986 C   0  0  0  0  0  0  0  0  0  0  0  0
    7.8812    0.5942   19.9142 C   0  0  0  0  0  0  0  0  0  0  0  0
   10.2659    0.5927   20.7220 C   0  0  0  0  0  0  0  0  0  0  0  0
   13.7466   -0.7270   24.1070 C   0  0  0  0  0  0  0  0  0  0  0  0
   13.5832   -0.9128   22.6038 C   0  0  0  0  0  0  0  0  0  0  0  0
   12.6716    0.1947   24.6736 C   0  0  0  0  0  0  0  0  0  0  0  0
   12.1855   -1.3880   22.2393 C   0  0  0  0  0  0  0  0  0  0  0  0
   11.2484   -0.2388   24.3118 C   0  0  2  0  0  0  0  0  0  0  0  0
    6.9573   -3.7855   23.6851 C   0  0  0  0  0  0  0  0  0  0  0  0
   10.9881    0.8152   22.0315 C   0  0  0  0  0  0  0  0  0  0  0  0
   10.7940   -1.4937   25.0564 C   0  0  0  0  0  0  0  0  0  0  0  0
    9.2802   -1.6509   25.0658 C   0  0  0  0  0  0  0  0  0  0  0  0
    7.2822    0.1552   17.6134 N   0  0  0  0  0  0  0  0  0  0  0  0
    8.8918    0.7274   20.8958 N   0  0  0  0  0  0  0  0  0  0  0  0
    8.7325   -1.7694   23.7429 N   0  0  0  0  0  0  0  0  0  0  0  0
   11.1295   -0.4688   22.8113 N   0  3  1  0  0  0  0  0  0  0  0  0
   10.8665    0.3363   19.6837 O   0  0  0  0  0  0  0  0  0  0  0  0
    9.5341   -4.2270   23.5603 O   0  0  0  0  0  0  0  0  0  0  0  0
    8.3768   -3.1732   21.5838 O   0  0  0  0  0  0  0  0  0  0  0  0
    8.5391   -3.3231   23.0172 S   0  0  0  0  0  0  0  0  0  0  0  0
    4.5169    0.7462   19.4847 H   0  0  0  0  0  0  0  0  0  0  0  0
    6.2397    0.9937   21.2577 H   0  0  0  0  0  0  0  0  0  0  0  0
    5.2702    0.2065   17.1626 H   0  0  0  0  0  0  0  0  0  0  0  0
    9.2269    0.1553   18.2833 H   0  0  0  0  0  0  0  0  0  0  0  0
   13.7001   -1.7024   24.6083 H   0  0  0  0  0  0  0  0  0  0  0  0
   14.7396   -0.3080   24.3209 H   0  0  0  0  0  0  0  0  0  0  0  0
   13.7901    0.0373   22.0942 H   0  0  0  0  0  0  0  0  0  0  0  0
   14.3274   -1.6331   22.2363 H   0  0  0  0  0  0  0  0  0  0  0  0
   12.7828    0.2473   25.7696 H   0  0  0  0  0  0  0  0  0  0  0  0
   12.8526    1.2160   24.3026 H   0  0  0  0  0  0  0  0  0  0  0  0
   12.0392   -1.4236   21.1485 H   0  0  0  0  0  0  0  0  0  0  0  0
   12.0091   -2.3924   22.6525 H   0  0  0  0  0  0  0  0  0  0  0  0
   10.5279    0.5921   24.5384 H   0  0  0  0  0  0  0  0  0  0  0  0
    6.6976   -4.7739   23.3028 H   0  0  0  0  0  0  0  0  0  0  0  0
    7.0353   -3.8048   24.7732 H   0  0  0  0  0  0  0  0  0  0  0  0
    6.2201   -3.0466   23.3673 H   0  0  0  0  0  0  0  0  0  0  0  0
   10.4309    1.5119   22.6643 H   0  0  0  0  0  0  0  0  0  0  0  0
   11.9986    1.1911   21.8484 H   0  0  0  0  0  0  0  0  0  0  0  0
   11.1536   -1.4317   26.0883 H   0  0  0  0  0  0  0  0  0  0  0  0
   11.2643   -2.3689   24.5967 H   0  0  0  0  0  0  0  0  0  0  0  0
    9.0049   -2.5605   25.6086 H   0  0  0  0  0  0  0  0  0  0  0  0
    8.7936   -0.8014   25.5553 H   0  0  0  0  0  0  0  0  0  0  0  0
    8.5616    0.9477   21.8332 H   0  0  0  0  0  0  0  0  0  0  0  0
    7.9869   -1.0815   23.4963 H   0  0  0  0  0  0  0  0  0  0  0  0
   10.2018   -0.9673   22.6753 H   0  0  0  0  0  0  0  0  0  0  0  0
  1  2  2  0  0  0  0
  1  3  1  0  0  0  0
  2  5  1  0  0  0  0
  3 16  2  0  0  0  0
  4  5  2  0  0  0  0
  4 16  1  0  0  0  0
  5 17  1  0  0  0  0
  6 13  1  0  0  0  0
  6 17  1  0  0  0  0
  6 20  2  0  0  0  0
  7  8  1  0  0  0  0
  7  9  1  0  0  0  0
  8 10  1  0  0  0  0
  9 11  1  0  0  0  0
 10 19  1  0  0  0  0
 11 14  1  0  0  0  0
 11 19  1  0  0  0  0
 12 23  1  0  0  0  0
 13 19  1  0  0  0  0
 14 15  1  0  0  0  0
 15 18  1  0  0  0  0
 18 23  1  0  0  0  0
 21 23  2  0  0  0  0
 22 23  2  0  0  0  0
  1 24  1  0  0  0  0
  2 25  1  0  0  0  0
  3 26  1  0  0  0  0
  4 27  1  0  0  0  0
  7 28  1  0  0  0  0
  7 29  1  0  0  0  0
  8 30  1  0  0  0  0
  8 31  1  0  0  0  0
  9 32  1  0  0  0  0
  9 33  1  0  0  0  0
 10 34  1  0  0  0  0
 10 35  1  0  0  0  0
 11 36  1  0  0  0  0
 12 37  1  0  0  0  0
 12 38  1  0  0  0  0
 12 39  1  0  0  0  0
 13 40  1  0  0  0  0
 13 41  1  0  0  0  0
 14 42  1  0  0  0  0
 14 43  1  0  0  0  0
 15 44  1  0  0  0  0
 15 45  1  0  0  0  0
 17 46  1  0  0  0  0
 18 47  1  0  0  0  0
 19 48  1  0  0  0  0
M  CHG  1  19   1
M  END
> <IC50 (uM)>

> <IC50 (uM) - std>

> <Average Inhibition @ 20 uM>

> <Average Inhibition @ 20 uM - std>

> <Average Inhibition @ 50 uM>

> <Average Inhibition @ 50 uM - std>
-4.5

> <Trypsin IC50 (uM)>
4.45

> <Relative Solubility @ 20 uM>

> <Relative Solubility @ 100 uM>

> <Hybrid2>
-9.718414

> <docked_fragment>
x0678

> <Mpro-_dock>
3.139141

> <site>
active-noncovalent

$$$$
RUT-UNI-630c5802-20
  -OEChem-05192003313D

 52 54  0     0  0  0  0  0  0999 V2000
    4.5449    1.8276   18.4776 C   0  0  0  0  0  0  0  0  0  0  0  0
    4.6672    1.6993   19.8645 C   0  0  0  0  0  0  0  0  0  0  0  0
    5.4842    1.2518   17.6121 C   0  0  0  0  0  0  0  0  0  0  0  0
    5.7296    0.9926   20.4390 C   0  0  0  0  0  0  0  0  0  0  0  0
   13.1737   -1.1459   21.9747 C   0  0  0  0  0  0  0  0  0  0  0  0
   14.2948   -1.8690   22.3182 C   0  0  0  0  0  0  0  0  0  0  0  0
   13.3739   -0.6277   24.2316 C   0  0  0  0  0  0  0  0  0  0  0  0
   12.6402   -0.4268   23.0830 C   0  0  0  0  0  0  0  0  0  0  0  0
    6.5539    0.5408   18.1753 C   0  0  0  0  0  0  0  0  0  0  0  0
    6.6487    0.4303   19.5558 C   0  0  0  0  0  0  0  0  0  0  0  0
    9.6083    0.0751   21.3722 C   0  0  0  0  0  0  0  0  0  0  0  0
    6.9050   -3.2880   23.8004 C   0  0  0  0  0  0  0  0  0  0  0  0
    7.0375   -1.4287   26.2075 C   0  0  0  0  0  0  0  0  0  0  0  0
    9.4030   -2.1013   26.6005 C   0  0  0  0  0  0  0  0  0  0  0  0
   11.4211    0.4461   23.0061 C   0  0  0  0  0  0  0  0  0  0  0  0
    8.3868   -0.7431   20.9927 C   0  0  0  0  0  0  0  0  0  0  0  0
    8.0086   -3.2977   24.8513 C   0  0  0  0  0  0  0  0  0  0  0  0
    8.8269   -0.8645   24.4991 C   0  0  0  0  0  0  0  0  0  0  0  0
    9.8162   -1.3702   23.4507 C   0  0  0  0  0  0  0  0  0  0  0  0
    8.3219   -1.9281   25.5123 C   0  0  0  0  0  0  0  0  0  0  0  0
    7.6049   -0.1174   17.5932 N   0  0  0  0  0  0  0  0  0  0  0  0
    8.3533   -0.6353   18.5611 N   0  0  0  0  0  0  0  0  0  0  0  0
    7.7828   -0.3083   19.7325 N   0  0  0  0  0  0  0  0  0  0  0  0
   10.2345   -0.3042   22.5798 N   0  0  0  0  0  0  0  0  0  0  0  0
    9.9967    0.9989   20.6523 O   0  0  0  0  0  0  0  0  0  0  0  0
   14.6999   -1.6795   23.9711 S   0  0  0  0  0  0  0  0  0  0  0  0
    3.7076    2.3832   18.0630 H   0  0  0  0  0  0  0  0  0  0  0  0
    3.9221    2.1576   20.5103 H   0  0  0  0  0  0  0  0  0  0  0  0
    5.3813    1.3566   16.5370 H   0  0  0  0  0  0  0  0  0  0  0  0
    5.8258    0.8923   21.5139 H   0  0  0  0  0  0  0  0  0  0  0  0
   12.7590   -1.1366   20.9745 H   0  0  0  0  0  0  0  0  0  0  0  0
   14.8948   -2.4999   21.6778 H   0  0  0  0  0  0  0  0  0  0  0  0
   13.1975   -0.2103   25.2132 H   0  0  0  0  0  0  0  0  0  0  0  0
    7.1147   -2.5735   22.9998 H   0  0  0  0  0  0  0  0  0  0  0  0
    6.8230   -4.2794   23.3419 H   0  0  0  0  0  0  0  0  0  0  0  0
    5.9316   -3.0480   24.2370 H   0  0  0  0  0  0  0  0  0  0  0  0
    6.2278   -1.2858   25.4823 H   0  0  0  0  0  0  0  0  0  0  0  0
    6.6872   -2.1472   26.9571 H   0  0  0  0  0  0  0  0  0  0  0  0
    7.1948   -0.4689   26.7103 H   0  0  0  0  0  0  0  0  0  0  0  0
   10.3494   -2.4557   26.1794 H   0  0  0  0  0  0  0  0  0  0  0  0
    9.0855   -2.8193   27.3648 H   0  0  0  0  0  0  0  0  0  0  0  0
    9.6090   -1.1503   27.1052 H   0  0  0  0  0  0  0  0  0  0  0  0
   11.2045    0.8936   23.9823 H   0  0  0  0  0  0  0  0  0  0  0  0
   11.5701    1.2677   22.2976 H   0  0  0  0  0  0  0  0  0  0  0  0
    8.6617   -1.7970   20.8764 H   0  0  0  0  0  0  0  0  0  0  0  0
    7.6191   -0.6556   21.7692 H   0  0  0  0  0  0  0  0  0  0  0  0
    7.7413   -4.0302   25.6229 H   0  0  0  0  0  0  0  0  0  0  0  0
    8.9211   -3.6854   24.3790 H   0  0  0  0  0  0  0  0  0  0  0  0
    7.9625   -0.4287   23.9781 H   0  0  0  0  0  0  0  0  0  0  0  0
    9.2848   -0.0263   25.0411 H   0  0  0  0  0  0  0  0  0  0  0  0
   10.7212   -1.7755   23.9109 H   0  0  0  0  0  0  0  0  0  0  0  0
    9.3717   -2.1413   22.8160 H   0  0  0  0  0  0  0  0  0  0  0  0
  1  2  1  0  0  0  0
  1  3  2  0  0  0  0
  2  4  2  0  0  0  0
  3  9  1  0  0  0  0
  4 10  1  0  0  0  0
  5  6  2  0  0  0  0
  5  8  1  0  0  0  0
  6 26  1  0  0  0  0
  7  8  2  0  0  0  0
  7 26  1  0  0  0  0
  8 15  1  0  0  0  0
  9 10  2  0  0  0  0
  9 21  1  0  0  0  0
 10 23  1  0  0  0  0
 11 16  1  0  0  0  0
 11 24  1  0  0  0  0
 11 25  2  0  0  0  0
 12 17  1  0  0  0  0
 13 20  1  0  0  0  0
 14 20  1  0  0  0  0
 15 24  1  0  0  0  0
 16 23  1  0  0  0  0
 17 20  1  0  0  0  0
 18 19  1  0  0  0  0
 18 20  1  0  0  0  0
 19 24  1  0  0  0  0
 21 22  2  0  0  0  0
 22 23  1  0  0  0  0
  1 27  1  0  0  0  0
  2 28  1  0  0  0  0
  3 29  1  0  0  0  0
  4 30  1  0  0  0  0
  5 31  1  0  0  0  0
  6 32  1  0  0  0  0
  7 33  1  0  0  0  0
 12 34  1  0  0  0  0
 12 35  1  0  0  0  0
 12 36  1  0  0  0  0
 13 37  1  0  0  0  0
 13 38  1  0  0  0  0
 13 39  1  0  0  0  0
 14 40  1  0  0  0  0
 14 41  1  0  0  0  0
 14 42  1  0  0  0  0
 15 43  1  0  0  0  0
 15 44  1  0  0  0  0
 16 45  1  0  0  0  0
 16 46  1  0  0  0  0
 17 47  1  0  0  0  0
 17 48  1  0  0  0  0
 18 49  1  0  0  0  0
 18 50  1  0  0  0  0
 19 51  1  0  0  0  0
 19 52  1  0  0  0  0
M  END
> <IC50 (uM)>

> <IC50 (uM) - std>

> <Average Inhibition @ 20 uM>

> <Average Inhibition @ 20 uM - std>

> <Average Inhibition @ 50 uM>

> <Average Inhibition @ 50 uM - std>
40.2

> <Trypsin IC50 (uM)>
1.75

> <Relative Solubility @ 20 uM>

> <Relative Solubility @ 100 uM>

> <Hybrid2>
-9.695564

> <docked_fragment>
x0678

> <Mpro-_dock>
3.082506

> <site>
active-noncovalent

$$$$
MED-COV-4280ac29-31
  -OEChem-05192003313D

 41 43  0     0  0  0  0  0  0999 V2000
   10.7361    1.9921   25.8673 C   0  0  0  0  0  0  0  0  0  0  0  0
    9.8184    0.9541   25.7354 C   0  0  0  0  0  0  0  0  0  0  0  0
   13.5992   -0.1172   22.5468 C   0  0  0  0  0  0  0  0  0  0  0  0
   11.9073    1.9895   25.1093 C   0  0  0  0  0  0  0  0  0  0  0  0
   10.0684   -0.0904   24.8449 C   0  0  0  0  0  0  0  0  0  0  0  0
   13.3491    0.9274   23.4372 C   0  0  0  0  0  0  0  0  0  0  0  0
   12.6815   -1.1551   22.4149 C   0  0  0  0  0  0  0  0  0  0  0  0
   12.1754    0.9462   24.2082 C   0  0  0  0  0  0  0  0  0  0  0  0
   11.2421   -0.1093   24.0740 C   0  0  0  0  0  0  0  0  0  0  0  0
   11.5102   -1.1526   23.1728 C   0  0  0  0  0  0  0  0  0  0  0  0
    6.1031   -2.0158   19.7094 C   0  0  0  0  0  0  0  0  0  0  0  0
    6.8763   -2.5260   22.0036 C   0  0  0  0  0  0  0  0  0  0  0  0
    7.8880   -0.6022   20.8424 C   0  0  0  0  0  0  0  0  0  0  0  0
    8.2540   -3.0426   22.3918 C   0  0  0  0  0  0  0  0  0  0  0  0
    9.2819   -1.0891   21.2150 C   0  0  0  0  0  0  0  0  0  0  0  0
   10.5644   -2.3014   22.9816 C   0  0  0  0  0  0  0  0  0  0  0  0
    6.2358   -1.1398   18.4893 C   0  0  0  0  0  0  0  0  0  0  0  0
    6.9411   -1.7209   20.7838 N   0  0  0  0  0  0  0  0  0  0  0  0
    9.2048   -1.8721   22.5066 N   0  3  0  0  0  0  0  0  0  0  0  0
    5.2808   -2.9355   19.7048 O   0  0  0  0  0  0  0  0  0  0  0  0
    5.0869    0.1786   18.6884 Cl  0  0  0  0  0  0  0  0  0  0  0  0
   10.5408    2.8049   26.5608 H   0  0  0  0  0  0  0  0  0  0  0  0
    8.9068    0.9570   26.3259 H   0  0  0  0  0  0  0  0  0  0  0  0
   14.5109   -0.1198   21.9565 H   0  0  0  0  0  0  0  0  0  0  0  0
   12.6105    2.8111   25.2288 H   0  0  0  0  0  0  0  0  0  0  0  0
    9.3273   -0.8828   24.7703 H   0  0  0  0  0  0  0  0  0  0  0  0
   14.0805    1.7282   23.5240 H   0  0  0  0  0  0  0  0  0  0  0  0
   12.8877   -1.9632   21.7178 H   0  0  0  0  0  0  0  0  0  0  0  0
    6.1921   -3.3707   21.8753 H   0  0  0  0  0  0  0  0  0  0  0  0
    6.4624   -1.8906   22.7960 H   0  0  0  0  0  0  0  0  0  0  0  0
    7.5122    0.1029   21.5938 H   0  0  0  0  0  0  0  0  0  0  0  0
    7.9395   -0.0621   19.8955 H   0  0  0  0  0  0  0  0  0  0  0  0
    8.2213   -3.5337   23.3697 H   0  0  0  0  0  0  0  0  0  0  0  0
    8.6595   -3.7338   21.6444 H   0  0  0  0  0  0  0  0  0  0  0  0
    9.7057   -1.7464   20.4476 H   0  0  0  0  0  0  0  0  0  0  0  0
    9.9534   -0.2417   21.3871 H   0  0  0  0  0  0  0  0  0  0  0  0
   10.9474   -3.0103   22.2396 H   0  0  0  0  0  0  0  0  0  0  0  0
   10.4121   -2.8485   23.9182 H   0  0  0  0  0  0  0  0  0  0  0  0
    5.9855   -1.7219   17.6098 H   0  0  0  0  0  0  0  0  0  0  0  0
    7.2462   -0.7498   18.4450 H   0  0  0  0  0  0  0  0  0  0  0  0
    8.8293   -1.2398   23.2270 H   0  0  0  0  0  0  0  0  0  0  0  0
  1  2  1  0  0  0  0
  1  4  2  0  0  0  0
  2  5  2  0  0  0  0
  3  6  1  0  0  0  0
  3  7  2  0  0  0  0
  4  8  1  0  0  0  0
  5  9  1  0  0  0  0
  6  8  2  0  0  0  0
  7 10  1  0  0  0  0
  8  9  1  0  0  0  0
  9 10  2  0  0  0  0
 10 16  1  0  0  0  0
 11 17  1  0  0  0  0
 11 18  1  0  0  0  0
 11 20  2  0  0  0  0
 12 14  1  0  0  0  0
 12 18  1  0  0  0  0
 13 15  1  0  0  0  0
 13 18  1  0  0  0  0
 14 19  1  0  0  0  0
 15 19  1  0  0  0  0
 16 19  1  0  0  0  0
 17 21  1  0  0  0  0
  1 22  1  0  0  0  0
  2 23  1  0  0  0  0
  3 24  1  0  0  0  0
  4 25  1  0  0  0  0
  5 26  1  0  0  0  0
  6 27  1  0  0  0  0
  7 28  1  0  0  0  0
 12 29  1  0  0  0  0
 12 30  1  0  0  0  0
 13 31  1  0  0  0  0
 13 32  1  0  0  0  0
 14 33  1  0  0  0  0
 14 34  1  0  0  0  0
 15 35  1  0  0  0  0
 15 36  1  0  0  0  0
 16 37  1  0  0  0  0
 16 38  1  0  0  0  0
 17 39  1  0  0  0  0
 17 40  1  0  0  0  0
 19 41  1  0  0  0  0
M  CHG  1  19   1
M  END
> <IC50 (uM)>

> <IC50 (uM) - std>

> <Average Inhibition @ 20 uM>

> <Average Inhibition @ 20 uM - std>

> <Average Inhibition @ 50 uM>

> <Average Inhibition @ 50 uM - std>
105.0

> <Trypsin IC50 (uM)>
1.63

> <Relative Solubility @ 20 uM>

> <Relative Solubility @ 100 uM>

> <Hybrid2>
-9.686901

> <docked_fragment>
x0830

> <Mpro-_dock>
-0.848441

> <site>
active-covalent

$$$$
AAR-POS-d2a4d1df-40
  -OEChem-05192003313D

 41 43  0     0  0  0  0  0  0999 V2000
   10.7361    1.9921   25.8673 C   0  0  0  0  0  0  0  0  0  0  0  0
    9.8184    0.9541   25.7354 C   0  0  0  0  0  0  0  0  0  0  0  0
   13.5992   -0.1172   22.5468 C   0  0  0  0  0  0  0  0  0  0  0  0
   11.9073    1.9895   25.1093 C   0  0  0  0  0  0  0  0  0  0  0  0
   10.0684   -0.0904   24.8449 C   0  0  0  0  0  0  0  0  0  0  0  0
   13.3491    0.9274   23.4372 C   0  0  0  0  0  0  0  0  0  0  0  0
   12.6815   -1.1551   22.4149 C   0  0  0  0  0  0  0  0  0  0  0  0
   12.1754    0.9462   24.2082 C   0  0  0  0  0  0  0  0  0  0  0  0
   11.2421   -0.1093   24.0740 C   0  0  0  0  0  0  0  0  0  0  0  0
   11.5102   -1.1526   23.1728 C   0  0  0  0  0  0  0  0  0  0  0  0
    6.1031   -2.0158   19.7094 C   0  0  0  0  0  0  0  0  0  0  0  0
    6.8763   -2.5260   22.0036 C   0  0  0  0  0  0  0  0  0  0  0  0
    7.8880   -0.6022   20.8424 C   0  0  0  0  0  0  0  0  0  0  0  0
    8.2540   -3.0426   22.3918 C   0  0  0  0  0  0  0  0  0  0  0  0
    9.2819   -1.0891   21.2150 C   0  0  0  0  0  0  0  0  0  0  0  0
   10.5644   -2.3014   22.9816 C   0  0  0  0  0  0  0  0  0  0  0  0
    6.2358   -1.1398   18.4893 C   0  0  0  0  0  0  0  0  0  0  0  0
    6.9411   -1.7209   20.7838 N   0  0  0  0  0  0  0  0  0  0  0  0
    9.2048   -1.8721   22.5066 N   0  3  0  0  0  0  0  0  0  0  0  0
    5.2808   -2.9355   19.7048 O   0  0  0  0  0  0  0  0  0  0  0  0
    5.0869    0.1786   18.6884 Cl  0  0  0  0  0  0  0  0  0  0  0  0
   10.5408    2.8049   26.5608 H   0  0  0  0  0  0  0  0  0  0  0  0
    8.9068    0.9570   26.3259 H   0  0  0  0  0  0  0  0  0  0  0  0
   14.5109   -0.1198   21.9565 H   0  0  0  0  0  0  0  0  0  0  0  0
   12.6105    2.8111   25.2288 H   0  0  0  0  0  0  0  0  0  0  0  0
    9.3273   -0.8828   24.7703 H   0  0  0  0  0  0  0  0  0  0  0  0
   14.0805    1.7282   23.5240 H   0  0  0  0  0  0  0  0  0  0  0  0
   12.8877   -1.9632   21.7178 H   0  0  0  0  0  0  0  0  0  0  0  0
    6.1921   -3.3707   21.8753 H   0  0  0  0  0  0  0  0  0  0  0  0
    6.4624   -1.8906   22.7960 H   0  0  0  0  0  0  0  0  0  0  0  0
    7.5122    0.1029   21.5938 H   0  0  0  0  0  0  0  0  0  0  0  0
    7.9395   -0.0621   19.8955 H   0  0  0  0  0  0  0  0  0  0  0  0
    8.2213   -3.5337   23.3697 H   0  0  0  0  0  0  0  0  0  0  0  0
    8.6595   -3.7338   21.6444 H   0  0  0  0  0  0  0  0  0  0  0  0
    9.7057   -1.7464   20.4476 H   0  0  0  0  0  0  0  0  0  0  0  0
    9.9534   -0.2417   21.3871 H   0  0  0  0  0  0  0  0  0  0  0  0
   10.9474   -3.0103   22.2396 H   0  0  0  0  0  0  0  0  0  0  0  0
   10.4121   -2.8485   23.9182 H   0  0  0  0  0  0  0  0  0  0  0  0
    5.9855   -1.7219   17.6098 H   0  0  0  0  0  0  0  0  0  0  0  0
    7.2462   -0.7498   18.4450 H   0  0  0  0  0  0  0  0  0  0  0  0
    8.8293   -1.2398   23.2270 H   0  0  0  0  0  0  0  0  0  0  0  0
  1  2  1  0  0  0  0
  1  4  2  0  0  0  0
  2  5  2  0  0  0  0
  3  6  1  0  0  0  0
  3  7  2  0  0  0  0
  4  8  1  0  0  0  0
  5  9  1  0  0  0  0
  6  8  2  0  0  0  0
  7 10  1  0  0  0  0
  8  9  1  0  0  0  0
  9 10  2  0  0  0  0
 10 16  1  0  0  0  0
 11 17  1  0  0  0  0
 11 18  1  0  0  0  0
 11 20  2  0  0  0  0
 12 14  1  0  0  0  0
 12 18  1  0  0  0  0
 13 15  1  0  0  0  0
 13 18  1  0  0  0  0
 14 19  1  0  0  0  0
 15 19  1  0  0  0  0
 16 19  1  0  0  0  0
 17 21  1  0  0  0  0
  1 22  1  0  0  0  0
  2 23  1  0  0  0  0
  3 24  1  0  0  0  0
  4 25  1  0  0  0  0
  5 26  1  0  0  0  0
  6 27  1  0  0  0  0
  7 28  1  0  0  0  0
 12 29  1  0  0  0  0
 12 30  1  0  0  0  0
 13 31  1  0  0  0  0
 13 32  1  0  0  0  0
 14 33  1  0  0  0  0
 14 34  1  0  0  0  0
 15 35  1  0  0  0  0
 15 36  1  0  0  0  0
 16 37  1  0  0  0  0
 16 38  1  0  0  0  0
 17 39  1  0  0  0  0
 17 40  1  0  0  0  0
 19 41  1  0  0  0  0
M  CHG  1  19   1
M  END
> <IC50 (uM)>

> <IC50 (uM) - std>

> <Average Inhibition @ 20 uM>

> <Average Inhibition @ 20 uM - std>

> <Average Inhibition @ 50 uM>

> <Average Inhibition @ 50 uM - std>
105.0

> <Trypsin IC50 (uM)>
1.63

> <Relative Solubility @ 20 uM>

> <Relative Solubility @ 100 uM>

> <Hybrid2>
-9.686901

> <docked_fragment>
x0830

> <Mpro-_dock>
-0.848441

> <site>
active-covalent

$$$$
DAR-DIA-23aa0b97-13
  -OEChem-05192003313D

 29 30  0     0  0  0  0  0  0999 V2000
   14.1747   -0.2285   24.1266 C   0  0  0  0  0  0  0  0  0  0  0  0
   13.0207    0.3468   23.5948 C   0  0  0  0  0  0  0  0  0  0  0  0
   14.4194   -1.5906   23.9515 C   0  0  0  0  0  0  0  0  0  0  0  0
    6.8532    1.0060   20.2332 C   0  0  0  0  0  0  0  0  0  0  0  0
   12.3559   -1.8020   22.7128 C   0  0  0  0  0  0  0  0  0  0  0  0
    6.3327    0.4814   17.9726 C   0  0  0  0  0  0  0  0  0  0  0  0
    8.4691    0.1140   18.7334 C   0  0  0  0  0  0  0  0  0  0  0  0
   12.1113   -0.4400   22.8879 C   0  0  0  0  0  0  0  0  0  0  0  0
    5.9185    0.9608   19.2048 C   0  0  0  0  0  0  0  0  0  0  0  0
    8.1551    0.5764   20.0012 C   0  0  0  0  0  0  0  0  0  0  0  0
   13.5100   -2.3773   23.2447 C   0  0  0  0  0  0  0  0  0  0  0  0
   10.2319   -0.2408   21.2006 C   0  0  0  0  0  0  0  0  0  0  0  0
    7.5884    0.0553   17.7094 N   0  0  0  0  0  0  0  0  0  0  0  0
    4.5963    1.3882   19.4089 N   0  0  0  0  0  0  0  0  0  0  0  0
   10.9569    0.1365   22.3573 N   0  0  0  0  0  0  0  0  0  0  0  0
    9.1285    0.6102   21.0276 N   0  0  0  0  0  0  0  0  0  0  0  0
   10.5300   -1.1748   20.4632 O   0  0  0  0  0  0  0  0  0  0  0  0
   13.8117   -4.0579   23.0285 Cl  0  0  0  0  0  0  0  0  0  0  0  0
   14.8829    0.3842   24.6771 H   0  0  0  0  0  0  0  0  0  0  0  0
   12.8406    1.4094   23.7377 H   0  0  0  0  0  0  0  0  0  0  0  0
   15.3230   -2.0247   24.3714 H   0  0  0  0  0  0  0  0  0  0  0  0
    6.5665    1.3778   21.2143 H   0  0  0  0  0  0  0  0  0  0  0  0
   11.6447   -2.4125   22.1607 H   0  0  0  0  0  0  0  0  0  0  0  0
    5.6476    0.4207   17.1322 H   0  0  0  0  0  0  0  0  0  0  0  0
    9.4685   -0.2352   18.4911 H   0  0  0  0  0  0  0  0  0  0  0  0
    4.3093    1.6869   20.3222 H   0  0  0  0  0  0  0  0  0  0  0  0
    3.9293    1.3016   18.6650 H   0  0  0  0  0  0  0  0  0  0  0  0
   10.5837    0.9402   22.8734 H   0  0  0  0  0  0  0  0  0  0  0  0
    9.0087    1.3437   21.7216 H   0  0  0  0  0  0  0  0  0  0  0  0
  1  2  2  0  0  0  0
  1  3  1  0  0  0  0
  2  8  1  0  0  0  0
  3 11  2  0  0  0  0
  4  9  2  0  0  0  0
  4 10  1  0  0  0  0
  5  8  2  0  0  0  0
  5 11  1  0  0  0  0
  6  9  1  0  0  0  0
  6 13  2  0  0  0  0
  7 10  2  0  0  0  0
  7 13  1  0  0  0  0
  8 15  1  0  0  0  0
  9 14  1  0  0  0  0
 10 16  1  0  0  0  0
 11 18  1  0  0  0  0
 12 15  1  0  0  0  0
 12 16  1  0  0  0  0
 12 17  2  0  0  0  0
  1 19  1  0  0  0  0
  2 20  1  0  0  0  0
  3 21  1  0  0  0  0
  4 22  1  0  0  0  0
  5 23  1  0  0  0  0
  6 24  1  0  0  0  0
  7 25  1  0  0  0  0
 14 26  1  0  0  0  0
 14 27  1  0  0  0  0
 15 28  1  0  0  0  0
 16 29  1  0  0  0  0
M  END
> <IC50 (uM)>

> <IC50 (uM) - std>

> <Average Inhibition @ 20 uM>

> <Average Inhibition @ 20 uM - std>

> <Average Inhibition @ 50 uM>

> <Average Inhibition @ 50 uM - std>
38.7

> <Trypsin IC50 (uM)>
0.694

> <Relative Solubility @ 20 uM>

> <Relative Solubility @ 100 uM>

> <Hybrid2>
-9.678142

> <docked_fragment>
x0678

> <Mpro-_dock>
1.872844

> <site>
active-noncovalent

$$$$
WAR-XCH-b72a1bbc-48
  -OEChem-05192003313D

 50 51  0     1  0  0  0  0  0999 V2000
   10.8061   -2.0902   23.3343 C   0  0  0  0  0  0  0  0  0  0  0  0
    8.8646   -0.7295   23.7991 C   0  0  0  0  0  0  0  0  0  0  0  0
   10.0916   -3.2328   23.6944 C   0  0  0  0  0  0  0  0  0  0  0  0
    8.1500   -1.8721   24.1592 C   0  0  0  0  0  0  0  0  0  0  0  0
   10.1926   -0.8386   23.3867 C   0  0  0  0  0  0  0  0  0  0  0  0
    8.7636   -3.1237   24.1068 C   0  0  0  0  0  0  0  0  0  0  0  0
   13.0785    1.4795   22.9688 C   0  0  0  0  0  0  0  0  0  0  0  0
   11.1496    2.3107   21.6088 C   0  0  0  0  0  0  0  0  0  0  0  0
   12.1223    0.6191   23.7944 C   0  0  0  0  0  0  0  0  0  0  0  0
   10.1964    1.4465   22.4351 C   0  0  0  0  0  0  0  0  0  0  0  0
   12.4061    2.7258   22.3816 C   0  0  0  0  0  0  0  0  0  0  0  0
   11.5324    5.9290   25.0765 C   0  0  0  0  0  0  0  0  0  0  0  0
    9.6636    5.7529   23.3880 C   0  0  0  0  0  0  0  0  0  0  0  0
   13.2896    5.7014   22.4209 C   0  0  0  0  0  0  0  0  0  0  0  0
   12.0999    3.7732   23.4540 C   0  0  0  0  0  0  0  0  0  0  0  0
   11.1345    6.0629   23.6154 C   0  0  0  0  0  0  0  0  0  0  0  0
   10.9095    0.3089   23.0252 N   0  0  0  0  0  0  0  0  0  0  0  0
    6.3541   -3.8743   24.9647 N   0  0  0  0  0  0  0  0  0  0  0  0
   11.9602    5.0917   22.8029 N   0  3  1  0  0  0  0  0  0  0  0  0
    7.7075   -5.3872   23.3756 O   0  0  0  0  0  0  0  0  0  0  0  0
    8.4676   -5.1130   25.7620 O   0  0  0  0  0  0  0  0  0  0  0  0
    7.8686   -4.5532   24.5584 S   0  0  0  0  0  0  0  0  0  0  0  0
   11.8406   -2.1867   23.0147 H   0  0  0  0  0  0  0  0  0  0  0  0
    8.3765    0.2409   23.8425 H   0  0  0  0  0  0  0  0  0  0  0  0
   10.5797   -4.2026   23.6499 H   0  0  0  0  0  0  0  0  0  0  0  0
    7.1159   -1.7752   24.4792 H   0  0  0  0  0  0  0  0  0  0  0  0
   13.9344    1.7755   23.5994 H   0  0  0  0  0  0  0  0  0  0  0  0
   13.5004    0.8666   22.1554 H   0  0  0  0  0  0  0  0  0  0  0  0
   11.4377    1.7560   20.6993 H   0  0  0  0  0  0  0  0  0  0  0  0
   10.6099    3.2075   21.2551 H   0  0  0  0  0  0  0  0  0  0  0  0
   12.6216   -0.3121   24.0922 H   0  0  0  0  0  0  0  0  0  0  0  0
   11.8618    1.1629   24.7110 H   0  0  0  0  0  0  0  0  0  0  0  0
    9.7535    2.0692   23.2233 H   0  0  0  0  0  0  0  0  0  0  0  0
    9.3767    1.0850   21.7999 H   0  0  0  0  0  0  0  0  0  0  0  0
   13.1151    3.1868   21.6578 H   0  0  0  0  0  0  0  0  0  0  0  0
   11.2893    4.9294   25.4517 H   0  0  0  0  0  0  0  0  0  0  0  0
   12.6070    6.0898   25.2174 H   0  0  0  0  0  0  0  0  0  0  0  0
   10.9988    6.6575   25.6967 H   0  0  0  0  0  0  0  0  0  0  0  0
    9.4188    4.7530   23.7615 H   0  0  0  0  0  0  0  0  0  0  0  0
    9.4046    5.7880   22.3241 H   0  0  0  0  0  0  0  0  0  0  0  0
    9.0256    6.4712   23.9140 H   0  0  0  0  0  0  0  0  0  0  0  0
   13.8621    5.8553   23.3375 H   0  0  0  0  0  0  0  0  0  0  0  0
   13.7978    5.0033   21.7531 H   0  0  0  0  0  0  0  0  0  0  0  0
   13.0901    6.6502   21.9190 H   0  0  0  0  0  0  0  0  0  0  0  0
   12.9131    3.8448   24.1739 H   0  0  0  0  0  0  0  0  0  0  0  0
   11.1609    3.5528   23.9585 H   0  0  0  0  0  0  0  0  0  0  0  0
   11.3781    7.0627   23.2416 H   0  0  0  0  0  0  0  0  0  0  0  0
    5.5658   -4.0382   24.3266 H   0  0  0  0  0  0  0  0  0  0  0  0
    6.0873   -3.8499   25.9564 H   0  0  0  0  0  0  0  0  0  0  0  0
   11.4450    4.9598   21.9133 H   0  0  0  0  0  0  0  0  0  0  0  0
  1  3  2  0  0  0  0
  1  5  1  0  0  0  0
  2  4  1  0  0  0  0
  2  5  2  0  0  0  0
  3  6  1  0  0  0  0
  4  6  2  0  0  0  0
  5 17  1  0  0  0  0
  6 22  1  0  0  0  0
  7  9  1  0  0  0  0
  7 11  1  0  0  0  0
  8 10  1  0  0  0  0
  8 11  1  0  0  0  0
  9 17  1  0  0  0  0
 10 17  1  0  0  0  0
 11 15  1  0  0  0  0
 12 16  1  0  0  0  0
 13 16  1  0  0  0  0
 14 19  1  0  0  0  0
 15 19  1  0  0  0  0
 16 19  1  0  0  0  0
 18 22  1  0  0  0  0
 20 22  2  0  0  0  0
 21 22  2  0  0  0  0
  1 23  1  0  0  0  0
  2 24  1  0  0  0  0
  3 25  1  0  0  0  0
  4 26  1  0  0  0  0
  7 27  1  0  0  0  0
  7 28  1  0  0  0  0
  8 29  1  0  0  0  0
  8 30  1  0  0  0  0
  9 31  1  0  0  0  0
  9 32  1  0  0  0  0
 10 33  1  0  0  0  0
 10 34  1  0  0  0  0
 11 35  1  0  0  0  0
 12 36  1  0  0  0  0
 12 37  1  0  0  0  0
 12 38  1  0  0  0  0
 13 39  1  0  0  0  0
 13 40  1  0  0  0  0
 13 41  1  0  0  0  0
 14 42  1  0  0  0  0
 14 43  1  0  0  0  0
 14 44  1  0  0  0  0
 15 45  1  0  0  0  0
 15 46  1  0  0  0  0
 16 47  1  0  0  0  0
 18 48  1  0  0  0  0
 18 49  1  0  0  0  0
 19 50  1  0  0  0  0
M  CHG  1  19   1
M  END
> <IC50 (uM)>

> <IC50 (uM) - std>

> <Average Inhibition @ 20 uM>

> <Average Inhibition @ 20 uM - std>

> <Average Inhibition @ 50 uM>

> <Average Inhibition @ 50 uM - std>
2.5

> <Trypsin IC50 (uM)>
1.96

> <Relative Solubility @ 20 uM>

> <Relative Solubility @ 100 uM>

> <Hybrid2>
-9.625897

> <docked_fragment>
x0104

> <Mpro-_dock>
2.55227

> <site>
active-noncovalent

$$$$
CHR-SOS-7098f804-12
  -OEChem-05192003313D

 25 26  0     0  0  0  0  0  0999 V2000
   13.1452   -0.4387   24.2904 C   0  0  0  0  0  0  0  0  0  0  0  0
    6.4766    0.4467   19.7640 C   0  0  0  0  0  0  0  0  0  0  0  0
   11.8572   -0.1758   23.8242 C   0  0  0  0  0  0  0  0  0  0  0  0
    7.5976    0.1880   20.5448 C   0  0  0  0  0  0  0  0  0  0  0  0
   14.0265   -1.1937   23.5164 C   0  0  0  0  0  0  0  0  0  0  0  0
   12.3315   -1.4230   21.8101 C   0  0  0  0  0  0  0  0  0  0  0  0
    6.6179    0.3890   18.3869 C   0  0  0  0  0  0  0  0  0  0  0  0
    8.8456   -0.1490   18.5485 C   0  0  0  0  0  0  0  0  0  0  0  0
   11.4503   -0.6679   22.5841 C   0  0  0  0  0  0  0  0  0  0  0  0
    8.8087   -0.1163   19.9332 C   0  0  0  0  0  0  0  0  0  0  0  0
   13.6196   -1.6859   22.2763 C   0  0  0  0  0  0  0  0  0  0  0  0
   10.1070   -0.3939   22.0992 C   0  0  0  0  0  0  0  0  0  0  0  0
    7.7777    0.0968   17.7568 N   0  0  0  0  0  0  0  0  0  0  0  0
    9.9690   -0.3845   20.7025 N   0  0  0  0  0  0  0  0  0  0  0  0
    9.1709   -0.1535   22.8745 O   0  0  0  0  0  0  0  0  0  0  0  0
   14.7077   -2.6171   21.3215 Cl  0  0  0  0  0  0  0  0  0  0  0  0
   13.4620   -0.0551   25.2557 H   0  0  0  0  0  0  0  0  0  0  0  0
    5.5223    0.6860   20.2193 H   0  0  0  0  0  0  0  0  0  0  0  0
   11.1795    0.4137   24.4365 H   0  0  0  0  0  0  0  0  0  0  0  0
    7.5165    0.2261   21.6279 H   0  0  0  0  0  0  0  0  0  0  0  0
   15.0271   -1.3904   23.8926 H   0  0  0  0  0  0  0  0  0  0  0  0
   12.0115   -1.8052   20.8429 H   0  0  0  0  0  0  0  0  0  0  0  0
    5.7737    0.5836   17.7338 H   0  0  0  0  0  0  0  0  0  0  0  0
    9.7619   -0.3807   18.0135 H   0  0  0  0  0  0  0  0  0  0  0  0
   10.8109   -0.5978   20.1734 H   0  0  0  0  0  0  0  0  0  0  0  0
  1  3  2  0  0  0  0
  1  5  1  0  0  0  0
  2  4  2  0  0  0  0
  2  7  1  0  0  0  0
  3  9  1  0  0  0  0
  4 10  1  0  0  0  0
  5 11  2  0  0  0  0
  6  9  2  0  0  0  0
  6 11  1  0  0  0  0
  7 13  2  0  0  0  0
  8 10  2  0  0  0  0
  8 13  1  0  0  0  0
  9 12  1  0  0  0  0
 10 14  1  0  0  0  0
 11 16  1  0  0  0  0
 12 14  1  0  0  0  0
 12 15  2  0  0  0  0
  1 17  1  0  0  0  0
  2 18  1  0  0  0  0
  3 19  1  0  0  0  0
  4 20  1  0  0  0  0
  5 21  1  0  0  0  0
  6 22  1  0  0  0  0
  7 23  1  0  0  0  0
  8 24  1  0  0  0  0
 14 25  1  0  0  0  0
M  END
> <IC50 (uM)>

> <IC50 (uM) - std>

> <Average Inhibition @ 20 uM>

> <Average Inhibition @ 20 uM - std>
5.47

> <Average Inhibition @ 50 uM>
4.83

> <Average Inhibition @ 50 uM - std>
6.67

> <Trypsin IC50 (uM)>
1.98

> <Relative Solubility @ 20 uM>
1.0

> <Relative Solubility @ 100 uM>
0.92

> <Hybrid2>
-9.620449

> <docked_fragment>
x0678

> <Mpro-_dock>
-0.643055

> <site>
active-noncovalent

$$$$
WAR-XCH-b6889685-25
  -OEChem-05192003313D

 47 49  0     0  0  0  0  0  0999 V2000
   12.7792   -0.0669   24.1447 C   0  0  0  0  0  0  0  0  0  0  0  0
   13.5919   -2.0878   23.0994 C   0  0  0  0  0  0  0  0  0  0  0  0
    7.4692   -4.0231   26.5749 C   0  0  0  0  0  0  0  0  0  0  0  0
    6.3863   -5.4830   24.9833 C   0  0  0  0  0  0  0  0  0  0  0  0
   11.5978   -0.1616   23.4093 C   0  0  0  0  0  0  0  0  0  0  0  0
   12.4104   -2.1825   22.3640 C   0  0  0  0  0  0  0  0  0  0  0  0
    6.9669   -4.7936   27.6234 C   0  0  0  0  0  0  0  0  0  0  0  0
    5.8840   -6.2536   26.0319 C   0  0  0  0  0  0  0  0  0  0  0  0
   13.7763   -1.0299   23.9897 C   0  0  0  0  0  0  0  0  0  0  0  0
    7.1788   -4.3677   25.2548 C   0  0  0  0  0  0  0  0  0  0  0  0
   11.4133   -1.2194   22.5190 C   0  0  0  0  0  0  0  0  0  0  0  0
    6.1743   -5.9089   27.3520 C   0  0  0  0  0  0  0  0  0  0  0  0
    8.5428   -1.4097   23.5469 C   0  0  0  0  0  0  0  0  0  0  0  0
    9.3868   -3.5089   22.4616 C   0  0  0  0  0  0  0  0  0  0  0  0
    7.3422   -2.1849   24.0908 C   0  0  0  0  0  0  0  0  0  0  0  0
    8.1686   -4.2559   22.9984 C   0  0  0  0  0  0  0  0  0  0  0  0
    9.0752   -2.0256   22.2523 C   0  0  0  0  0  0  0  0  0  0  0  0
   15.0400   -0.9293   24.7752 C   0  0  0  0  0  0  0  0  0  0  0  0
    7.6744   -3.6074   24.2193 N   0  0  0  0  0  0  0  0  0  0  0  0
    6.7995   -8.0167   28.8589 N   0  0  0  0  0  0  0  0  0  0  0  0
   10.2422   -1.3146   21.7916 N   0  0  0  0  0  0  0  0  0  0  0  0
    5.4785   -6.0405   29.8563 O   0  0  0  0  0  0  0  0  0  0  0  0
    4.3508   -7.5654   28.1978 O   0  0  0  0  0  0  0  0  0  0  0  0
    5.5446   -6.8736   28.6638 S   0  0  0  0  0  0  0  0  0  0  0  0
   12.9149    0.7611   24.8352 H   0  0  0  0  0  0  0  0  0  0  0  0
   14.3638   -2.8417   22.9708 H   0  0  0  0  0  0  0  0  0  0  0  0
    8.0855   -3.1559   26.7979 H   0  0  0  0  0  0  0  0  0  0  0  0
    6.1548   -5.7610   23.9581 H   0  0  0  0  0  0  0  0  0  0  0  0
   10.8278    0.5950   23.5366 H   0  0  0  0  0  0  0  0  0  0  0  0
   12.2776   -3.0106   21.6726 H   0  0  0  0  0  0  0  0  0  0  0  0
    7.1993   -4.5157   28.6479 H   0  0  0  0  0  0  0  0  0  0  0  0
    5.2674   -7.1203   25.8086 H   0  0  0  0  0  0  0  0  0  0  0  0
    8.2370   -0.3768   23.3502 H   0  0  0  0  0  0  0  0  0  0  0  0
    9.3302   -1.3635   24.3044 H   0  0  0  0  0  0  0  0  0  0  0  0
   10.2304   -3.6319   23.1411 H   0  0  0  0  0  0  0  0  0  0  0  0
    9.6798   -3.9475   21.5055 H   0  0  0  0  0  0  0  0  0  0  0  0
    7.0347   -1.7797   25.0628 H   0  0  0  0  0  0  0  0  0  0  0  0
    6.5014   -2.0523   23.3987 H   0  0  0  0  0  0  0  0  0  0  0  0
    7.3882   -4.2528   22.2263 H   0  0  0  0  0  0  0  0  0  0  0  0
    8.4208   -5.3043   23.2051 H   0  0  0  0  0  0  0  0  0  0  0  0
    8.2972   -1.9349   21.4730 H   0  0  0  0  0  0  0  0  0  0  0  0
   14.9407   -1.4625   25.7286 H   0  0  0  0  0  0  0  0  0  0  0  0
   15.8872   -1.3574   24.2237 H   0  0  0  0  0  0  0  0  0  0  0  0
   15.2953    0.1173   24.9868 H   0  0  0  0  0  0  0  0  0  0  0  0
    7.3928   -7.9432   29.6944 H   0  0  0  0  0  0  0  0  0  0  0  0
    6.6219   -8.9833   28.5596 H   0  0  0  0  0  0  0  0  0  0  0  0
   10.1932   -0.8659   20.8873 H   0  0  0  0  0  0  0  0  0  0  0  0
  1  5  2  0  0  0  0
  1  9  1  0  0  0  0
  2  6  1  0  0  0  0
  2  9  2  0  0  0  0
  3  7  2  0  0  0  0
  3 10  1  0  0  0  0
  4  8  1  0  0  0  0
  4 10  2  0  0  0  0
  5 11  1  0  0  0  0
  6 11  2  0  0  0  0
  7 12  1  0  0  0  0
  8 12  2  0  0  0  0
  9 18  1  0  0  0  0
 10 19  1  0  0  0  0
 11 21  1  0  0  0  0
 12 24  1  0  0  0  0
 13 15  1  0  0  0  0
 13 17  1  0  0  0  0
 14 16  1  0  0  0  0
 14 17  1  0  0  0  0
 15 19  1  0  0  0  0
 16 19  1  0  0  0  0
 17 21  1  0  0  0  0
 20 24  1  0  0  0  0
 22 24  2  0  0  0  0
 23 24  2  0  0  0  0
  1 25  1  0  0  0  0
  2 26  1  0  0  0  0
  3 27  1  0  0  0  0
  4 28  1  0  0  0  0
  5 29  1  0  0  0  0
  6 30  1  0  0  0  0
  7 31  1  0  0  0  0
  8 32  1  0  0  0  0
 13 33  1  0  0  0  0
 13 34  1  0  0  0  0
 14 35  1  0  0  0  0
 14 36  1  0  0  0  0
 15 37  1  0  0  0  0
 15 38  1  0  0  0  0
 16 39  1  0  0  0  0
 16 40  1  0  0  0  0
 17 41  1  0  0  0  0
 18 42  1  0  0  0  0
 18 43  1  0  0  0  0
 18 44  1  0  0  0  0
 20 45  1  0  0  0  0
 20 46  1  0  0  0  0
 21 47  1  0  0  0  0
M  END
> <IC50 (uM)>

> <IC50 (uM) - std>

> <Average Inhibition @ 20 uM>

> <Average Inhibition @ 20 uM - std>
2.67

> <Average Inhibition @ 50 uM>
1.97

> <Average Inhibition @ 50 uM - std>
5.62

> <Trypsin IC50 (uM)>
1.35

> <Relative Solubility @ 20 uM>
0.92

> <Relative Solubility @ 100 uM>
0.84

> <Hybrid2>
-9.584717

> <docked_fragment>
x0072

> <Mpro-_dock>
3.504407

> <site>
active-noncovalent

$$$$
CHR-SOS-7098f804-11
  -OEChem-05192003313D

 26 27  0     0  0  0  0  0  0999 V2000
    6.5307    0.8273   19.5935 C   0  0  0  0  0  0  0  0  0  0  0  0
    7.6108    0.5415   20.4211 C   0  0  0  0  0  0  0  0  0  0  0  0
   12.9083   -0.6648   24.3896 C   0  0  0  0  0  0  0  0  0  0  0  0
   13.8819   -1.2111   23.5534 C   0  0  0  0  0  0  0  0  0  0  0  0
   12.4960   -0.7392   21.6314 C   0  0  0  0  0  0  0  0  0  0  0  0
    6.6606    0.5567   18.2408 C   0  0  0  0  0  0  0  0  0  0  0  0
    8.8010   -0.2324   18.5130 C   0  0  0  0  0  0  0  0  0  0  0  0
   11.5224   -0.1930   22.4677 C   0  0  0  0  0  0  0  0  0  0  0  0
    8.7715    0.0014   19.8784 C   0  0  0  0  0  0  0  0  0  0  0  0
   11.7285   -0.1558   23.8467 C   0  0  0  0  0  0  0  0  0  0  0  0
   13.6758   -1.2483   22.1743 C   0  0  0  0  0  0  0  0  0  0  0  0
   10.2967    0.3310   21.8811 C   0  0  0  0  0  0  0  0  0  0  0  0
    7.7719    0.0323   17.6772 N   0  0  0  0  0  0  0  0  0  0  0  0
    9.8892   -0.3003   20.6967 N   0  0  0  0  0  0  0  0  0  0  0  0
    9.6922    1.2861   22.3855 O   0  0  0  0  0  0  0  0  0  0  0  0
   10.7882    0.3718   24.6805 O   0  0  0  0  0  0  0  0  0  0  0  0
   14.8780   -1.9204   21.1424 Cl  0  0  0  0  0  0  0  0  0  0  0  0
    5.6160    1.2487   19.9947 H   0  0  0  0  0  0  0  0  0  0  0  0
    7.5374    0.7434   21.4864 H   0  0  0  0  0  0  0  0  0  0  0  0
   13.0742   -0.6392   25.4632 H   0  0  0  0  0  0  0  0  0  0  0  0
   14.7968   -1.6028   23.9903 H   0  0  0  0  0  0  0  0  0  0  0  0
   12.3327   -0.7679   20.5561 H   0  0  0  0  0  0  0  0  0  0  0  0
    5.8470    0.7625   17.5531 H   0  0  0  0  0  0  0  0  0  0  0  0
    9.6788   -0.6527   18.0312 H   0  0  0  0  0  0  0  0  0  0  0  0
   10.4706   -1.0742   20.3846 H   0  0  0  0  0  0  0  0  0  0  0  0
   10.0260    0.6853   24.1693 H   0  0  0  0  0  0  0  0  0  0  0  0
  1  2  2  0  0  0  0
  1  6  1  0  0  0  0
  2  9  1  0  0  0  0
  3  4  2  0  0  0  0
  3 10  1  0  0  0  0
  4 11  1  0  0  0  0
  5  8  1  0  0  0  0
  5 11  2  0  0  0  0
  6 13  2  0  0  0  0
  7  9  2  0  0  0  0
  7 13  1  0  0  0  0
  8 10  2  0  0  0  0
  8 12  1  0  0  0  0
  9 14  1  0  0  0  0
 10 16  1  0  0  0  0
 11 17  1  0  0  0  0
 12 14  1  0  0  0  0
 12 15  2  0  0  0  0
  1 18  1  0  0  0  0
  2 19  1  0  0  0  0
  3 20  1  0  0  0  0
  4 21  1  0  0  0  0
  5 22  1  0  0  0  0
  6 23  1  0  0  0  0
  7 24  1  0  0  0  0
 14 25  1  0  0  0  0
 16 26  1  0  0  0  0
M  END
> <IC50 (uM)>

> <IC50 (uM) - std>

> <Average Inhibition @ 20 uM>

> <Average Inhibition @ 20 uM - std>
18.3

> <Average Inhibition @ 50 uM>
5.97

> <Average Inhibition @ 50 uM - std>
22.8

> <Trypsin IC50 (uM)>
0.315

> <Relative Solubility @ 20 uM>
1.0

> <Relative Solubility @ 100 uM>
0.89

> <Hybrid2>
-9.563734

> <docked_fragment>
x0678

> <Mpro-_dock>
-1.265068

> <site>
active-noncovalent

$$$$
BAR-COM-4e090d3a-58
  -OEChem-05192003313D

 40 42  0     0  0  0  0  0  0999 V2000
   13.8283   -1.7750   23.1899 C   0  0  0  0  0  0  0  0  0  0  0  0
   12.4719   -2.0989   23.1633 C   0  0  0  0  0  0  0  0  0  0  0  0
   14.2311   -0.4466   23.0523 C   0  0  0  0  0  0  0  0  0  0  0  0
   11.9208    0.2340   22.8613 C   0  0  0  0  0  0  0  0  0  0  0  0
   12.5467    6.0416   24.7827 C   0  0  0  0  0  0  0  0  0  0  0  0
   10.4295    6.6067   24.8717 C   0  0  0  0  0  0  0  0  0  0  0  0
   11.5181   -1.0944   22.9989 C   0  0  0  0  0  0  0  0  0  0  0  0
   13.2773    0.5578   22.8879 C   0  0  0  0  0  0  0  0  0  0  0  0
   12.2411    5.9122   23.4441 C   0  0  0  0  0  0  0  0  0  0  0  0
   12.8791    3.0326   22.5759 C   0  0  0  0  0  0  0  0  0  0  0  0
    9.6710   -2.7041   22.4807 C   0  0  0  0  0  0  0  0  0  0  0  0
    9.2096   -0.7079   23.8280 C   0  0  0  0  0  0  0  0  0  0  0  0
    9.2792   -3.5636   23.6778 C   0  0  0  0  0  0  0  0  0  0  0  0
    8.8200   -1.6370   24.9786 C   0  0  0  0  0  0  0  0  0  0  0  0
   13.1157    5.5052   22.2936 C   0  0  0  0  0  0  0  0  0  0  0  0
   11.5092    6.4402   25.6028 N   0  0  0  0  0  0  0  0  0  0  0  0
   10.1673   -1.4172   22.9731 N   0  0  0  0  0  0  0  0  0  0  0  0
   13.6807    1.8863   22.7491 N   0  0  0  0  0  0  0  0  0  0  0  0
   13.6685    4.1829   22.4761 N   0  0  0  0  0  0  0  0  0  0  0  0
   11.6520    3.0533   22.5168 O   0  0  0  0  0  0  0  0  0  0  0  0
    8.3078   -2.8761   24.4757 O   0  0  0  0  0  0  0  0  0  0  0  0
   10.5900    6.3009   23.1908 S   0  0  0  0  0  0  0  0  0  0  0  0
   14.5710   -2.5572   23.3181 H   0  0  0  0  0  0  0  0  0  0  0  0
   12.1691   -3.1374   23.2710 H   0  0  0  0  0  0  0  0  0  0  0  0
   15.2913   -0.2067   23.0735 H   0  0  0  0  0  0  0  0  0  0  0  0
   11.1775    1.0179   22.7324 H   0  0  0  0  0  0  0  0  0  0  0  0
   13.5193    5.8569   25.2194 H   0  0  0  0  0  0  0  0  0  0  0  0
    9.4871    6.9191   25.3004 H   0  0  0  0  0  0  0  0  0  0  0  0
   10.4349   -3.2202   21.8955 H   0  0  0  0  0  0  0  0  0  0  0  0
    8.7946   -2.5353   21.8493 H   0  0  0  0  0  0  0  0  0  0  0  0
    8.3223   -0.4571   23.2453 H   0  0  0  0  0  0  0  0  0  0  0  0
    9.6453    0.2059   24.2296 H   0  0  0  0  0  0  0  0  0  0  0  0
    8.8246   -4.4948   23.3331 H   0  0  0  0  0  0  0  0  0  0  0  0
   10.1469   -3.8211   24.2917 H   0  0  0  0  0  0  0  0  0  0  0  0
    9.6696   -1.8299   25.6441 H   0  0  0  0  0  0  0  0  0  0  0  0
    8.0315   -1.1711   25.5774 H   0  0  0  0  0  0  0  0  0  0  0  0
   12.5473    5.5068   21.3571 H   0  0  0  0  0  0  0  0  0  0  0  0
   13.9505    6.2027   22.1686 H   0  0  0  0  0  0  0  0  0  0  0  0
   14.6898    2.0664   22.7753 H   0  0  0  0  0  0  0  0  0  0  0  0
   14.6771    4.0840   22.5347 H   0  0  0  0  0  0  0  0  0  0  0  0
  1  2  1  0  0  0  0
  1  3  2  0  0  0  0
  2  7  2  0  0  0  0
  3  8  1  0  0  0  0
  4  7  1  0  0  0  0
  4  8  2  0  0  0  0
  5  9  2  0  0  0  0
  5 16  1  0  0  0  0
  6 16  2  0  0  0  0
  6 22  1  0  0  0  0
  7 17  1  0  0  0  0
  8 18  1  0  0  0  0
  9 15  1  0  0  0  0
  9 22  1  0  0  0  0
 10 18  1  0  0  0  0
 10 19  1  0  0  0  0
 10 20  2  0  0  0  0
 11 13  1  0  0  0  0
 11 17  1  0  0  0  0
 12 14  1  0  0  0  0
 12 17  1  0  0  0  0
 13 21  1  0  0  0  0
 14 21  1  0  0  0  0
 15 19  1  0  0  0  0
  1 23  1  0  0  0  0
  2 24  1  0  0  0  0
  3 25  1  0  0  0  0
  4 26  1  0  0  0  0
  5 27  1  0  0  0  0
  6 28  1  0  0  0  0
 11 29  1  0  0  0  0
 11 30  1  0  0  0  0
 12 31  1  0  0  0  0
 12 32  1  0  0  0  0
 13 33  1  0  0  0  0
 13 34  1  0  0  0  0
 14 35  1  0  0  0  0
 14 36  1  0  0  0  0
 15 37  1  0  0  0  0
 15 38  1  0  0  0  0
 18 39  1  0  0  0  0
 19 40  1  0  0  0  0
M  END
> <IC50 (uM)>

> <IC50 (uM) - std>

> <Average Inhibition @ 20 uM>

> <Average Inhibition @ 20 uM - std>
5.65

> <Average Inhibition @ 50 uM>
0.438

> <Average Inhibition @ 50 uM - std>
13.6

> <Trypsin IC50 (uM)>
0.678

> <Relative Solubility @ 20 uM>
1.0

> <Relative Solubility @ 100 uM>
1.01

> <Hybrid2>
-9.563450

> <docked_fragment>
x0195

> <Mpro-_dock>
1.044545

> <site>
active-noncovalent

$$$$
ALV-UNI-7ff1a6f9-45
  -OEChem-05192003313D

 37 39  0     0  0  0  0  0  0999 V2000
    5.2413    1.4352   18.0517 C   0  0  0  0  0  0  0  0  0  0  0  0
    6.3229    0.5851   17.8408 C   0  0  0  0  0  0  0  0  0  0  0  0
    4.7277    1.6064   19.3374 C   0  0  0  0  0  0  0  0  0  0  0  0
    6.8949   -0.0971   18.9150 C   0  0  0  0  0  0  0  0  0  0  0  0
    4.7868    1.0881   21.7313 C   0  0  0  0  0  0  0  0  0  0  0  0
    5.3588    0.4059   22.8055 C   0  0  0  0  0  0  0  0  0  0  0  0
   13.3519    0.1243   22.9205 C   0  0  0  0  0  0  0  0  0  0  0  0
    6.9541   -0.6154   21.3089 C   0  0  0  0  0  0  0  0  0  0  0  0
   11.4204   -1.2772   23.2193 C   0  0  0  0  0  0  0  0  0  0  0  0
   12.5009    1.2164   22.9742 C   0  0  0  0  0  0  0  0  0  0  0  0
    5.2910    0.9277   20.4304 C   0  0  0  0  0  0  0  0  0  0  0  0
    6.3908    0.0632   20.2160 C   0  0  0  0  0  0  0  0  0  0  0  0
    6.4404   -0.4442   22.5947 C   0  0  0  0  0  0  0  0  0  0  0  0
   12.7935   -1.1428   23.0462 C   0  0  0  0  0  0  0  0  0  0  0  0
   10.6559   -0.1224   23.2599 C   0  0  0  0  0  0  0  0  0  0  0  0
    8.5417   -1.4544   23.5781 C   0  0  0  0  0  0  0  0  0  0  0  0
   13.6638   -2.3521   22.9953 C   0  0  0  0  0  0  0  0  0  0  0  0
    7.0507   -1.1725   23.7444 C   0  0  0  0  0  0  0  0  0  0  0  0
   11.1625    1.1254   23.1413 N   0  0  0  0  0  0  0  0  0  0  0  0
    9.2594   -0.2693   23.4366 N   0  0  0  0  0  0  0  0  0  0  0  0
    8.9872   -2.5974   23.5759 O   0  0  0  0  0  0  0  0  0  0  0  0
    4.7966    1.9655   17.2149 H   0  0  0  0  0  0  0  0  0  0  0  0
    6.7218    0.4520   16.8395 H   0  0  0  0  0  0  0  0  0  0  0  0
    3.8819    2.2763   19.4785 H   0  0  0  0  0  0  0  0  0  0  0  0
    7.7396   -0.7568   18.7268 H   0  0  0  0  0  0  0  0  0  0  0  0
    3.9418    1.7475   21.9194 H   0  0  0  0  0  0  0  0  0  0  0  0
    4.9524    0.5447   23.8038 H   0  0  0  0  0  0  0  0  0  0  0  0
   14.4191    0.2624   22.7843 H   0  0  0  0  0  0  0  0  0  0  0  0
    7.8007   -1.2833   21.1578 H   0  0  0  0  0  0  0  0  0  0  0  0
   10.9676   -2.2591   23.3191 H   0  0  0  0  0  0  0  0  0  0  0  0
   12.8868    2.2262   22.8812 H   0  0  0  0  0  0  0  0  0  0  0  0
   14.0113   -2.6160   24.0019 H   0  0  0  0  0  0  0  0  0  0  0  0
   13.1266   -3.2131   22.5764 H   0  0  0  0  0  0  0  0  0  0  0  0
   14.5418   -2.1852   22.3573 H   0  0  0  0  0  0  0  0  0  0  0  0
    6.9142   -0.5998   24.6765 H   0  0  0  0  0  0  0  0  0  0  0  0
    6.5363   -2.1346   23.9032 H   0  0  0  0  0  0  0  0  0  0  0  0
    8.7165    0.5912   23.4635 H   0  0  0  0  0  0  0  0  0  0  0  0
  1  2  1  0  0  0  0
  1  3  2  0  0  0  0
  2  4  2  0  0  0  0
  3 11  1  0  0  0  0
  4 12  1  0  0  0  0
  5  6  2  0  0  0  0
  5 11  1  0  0  0  0
  6 13  1  0  0  0  0
  7 10  2  0  0  0  0
  7 14  1  0  0  0  0
  8 12  1  0  0  0  0
  8 13  2  0  0  0  0
  9 14  2  0  0  0  0
  9 15  1  0  0  0  0
 10 19  1  0  0  0  0
 11 12  2  0  0  0  0
 13 18  1  0  0  0  0
 14 17  1  0  0  0  0
 15 19  2  0  0  0  0
 15 20  1  0  0  0  0
 16 18  1  0  0  0  0
 16 20  1  0  0  0  0
 16 21  2  0  0  0  0
  1 22  1  0  0  0  0
  2 23  1  0  0  0  0
  3 24  1  0  0  0  0
  4 25  1  0  0  0  0
  5 26  1  0  0  0  0
  6 27  1  0  0  0  0
  7 28  1  0  0  0  0
  8 29  1  0  0  0  0
  9 30  1  0  0  0  0
 10 31  1  0  0  0  0
 17 32  1  0  0  0  0
 17 33  1  0  0  0  0
 17 34  1  0  0  0  0
 18 35  1  0  0  0  0
 18 36  1  0  0  0  0
 20 37  1  0  0  0  0
M  END
> <IC50 (uM)>

> <IC50 (uM) - std>

> <Average Inhibition @ 20 uM>

> <Average Inhibition @ 20 uM - std>
3.57

> <Average Inhibition @ 50 uM>
2.7

> <Average Inhibition @ 50 uM - std>
8.23

> <Trypsin IC50 (uM)>
1.36

> <Relative Solubility @ 20 uM>
0.98

> <Relative Solubility @ 100 uM>
0.94

> <Hybrid2>
-9.554324

> <docked_fragment>
x1093

> <Mpro-_dock>
-7.9e-05

> <site>
active-noncovalent

$$$$
TRY-UNI-1fd04853-9
  -OEChem-05192003313D

 34 36  0     0  0  0  0  0  0999 V2000
    5.2301    1.2969   18.2343 C   0  0  0  0  0  0  0  0  0  0  0  0
    5.6709    1.1238   19.5451 C   0  0  0  0  0  0  0  0  0  0  0  0
   13.8950    0.9454   23.3332 C   0  0  0  0  0  0  0  0  0  0  0  0
   12.0473   -0.1445   24.4205 C   0  0  0  0  0  0  0  0  0  0  0  0
    6.0530    0.8878   17.1935 C   0  0  0  0  0  0  0  0  0  0  0  0
   13.1427    2.1089   23.3397 C   0  0  0  0  0  0  0  0  0  0  0  0
    8.9002   -0.3601   20.3879 C   0  0  0  0  0  0  0  0  0  0  0  0
    6.9332    0.5405   19.7407 C   0  0  0  0  0  0  0  0  0  0  0  0
    7.7320    0.1960   20.8631 C   0  0  0  0  0  0  0  0  0  0  0  0
   13.3296   -0.1983   23.8858 C   0  0  0  0  0  0  0  0  0  0  0  0
   11.3777    1.0678   24.3785 C   0  0  0  0  0  0  0  0  0  0  0  0
    7.6535    0.1770   18.6066 C   0  0  0  0  0  0  0  0  0  0  0  0
    8.3773    1.2579   23.0616 C   0  0  0  0  0  0  0  0  0  0  0  0
    7.3845    0.3938   22.2845 C   0  0  0  0  0  0  0  0  0  0  0  0
    9.9914    1.1625   24.9472 C   0  0  0  0  0  0  0  0  0  0  0  0
   11.8941    2.1999   23.8500 N   0  0  0  0  0  0  0  0  0  0  0  0
    7.2754    0.3216   17.3224 N   0  0  0  0  0  0  0  0  0  0  0  0
    8.8419   -0.3663   19.0183 N   0  0  0  0  0  0  0  0  0  0  0  0
    9.0087    0.5570   24.0793 N   0  0  0  0  0  0  0  0  0  0  0  0
    8.5768    2.4393   22.7910 O   0  0  0  0  0  0  0  0  0  0  0  0
   14.2134   -1.6739   23.9064 Cl  0  0  0  0  0  0  0  0  0  0  0  0
    4.2622    1.7431   18.0324 H   0  0  0  0  0  0  0  0  0  0  0  0
    5.0519    1.4320   20.3814 H   0  0  0  0  0  0  0  0  0  0  0  0
   14.8930    0.9407   22.9074 H   0  0  0  0  0  0  0  0  0  0  0  0
   11.5818   -1.0221   24.8582 H   0  0  0  0  0  0  0  0  0  0  0  0
    5.7252    1.0142   16.1650 H   0  0  0  0  0  0  0  0  0  0  0  0
   13.5386    3.0283   22.9210 H   0  0  0  0  0  0  0  0  0  0  0  0
    9.7677   -0.7526   20.9001 H   0  0  0  0  0  0  0  0  0  0  0  0
    6.3859    0.8615   22.3875 H   0  0  0  0  0  0  0  0  0  0  0  0
    7.3063   -0.5750   22.8155 H   0  0  0  0  0  0  0  0  0  0  0  0
    9.9378    0.6604   25.9194 H   0  0  0  0  0  0  0  0  0  0  0  0
    9.7014    2.2068   25.1041 H   0  0  0  0  0  0  0  0  0  0  0  0
    9.5651   -0.7164   18.4054 H   0  0  0  0  0  0  0  0  0  0  0  0
    8.7703   -0.4204   24.2193 H   0  0  0  0  0  0  0  0  0  0  0  0
  1  2  2  0  0  0  0
  1  5  1  0  0  0  0
  2  8  1  0  0  0  0
  3  6  2  0  0  0  0
  3 10  1  0  0  0  0
  4 10  2  0  0  0  0
  4 11  1  0  0  0  0
  5 17  2  0  0  0  0
  6 16  1  0  0  0  0
  7  9  2  0  0  0  0
  7 18  1  0  0  0  0
  8  9  1  0  0  0  0
  8 12  2  0  0  0  0
  9 14  1  0  0  0  0
 10 21  1  0  0  0  0
 11 15  1  0  0  0  0
 11 16  2  0  0  0  0
 12 17  1  0  0  0  0
 12 18  1  0  0  0  0
 13 14  1  0  0  0  0
 13 19  1  0  0  0  0
 13 20  2  0  0  0  0
 15 19  1  0  0  0  0
  1 22  1  0  0  0  0
  2 23  1  0  0  0  0
  3 24  1  0  0  0  0
  4 25  1  0  0  0  0
  5 26  1  0  0  0  0
  6 27  1  0  0  0  0
  7 28  1  0  0  0  0
 14 29  1  0  0  0  0
 14 30  1  0  0  0  0
 15 31  1  0  0  0  0
 15 32  1  0  0  0  0
 18 33  1  0  0  0  0
 19 34  1  0  0  0  0
M  END
> <IC50 (uM)>

> <IC50 (uM) - std>

> <Average Inhibition @ 20 uM>

> <Average Inhibition @ 20 uM - std>
2.58

> <Average Inhibition @ 50 uM>
5.3

> <Average Inhibition @ 50 uM - std>
8.45

> <Trypsin IC50 (uM)>
0.533

> <Relative Solubility @ 20 uM>
1.0

> <Relative Solubility @ 100 uM>
0.98

> <Hybrid2>
-9.539196

> <docked_fragment>
x0678

> <Mpro-_dock>
1.212471

> <site>
active-noncovalent

$$$$
DAR-DIA-842b4336-4
  -OEChem-05192003313D

 24 25  0     0  0  0  0  0  0999 V2000
    5.8174    0.9896   19.4620 C   0  0  0  0  0  0  0  0  0  0  0  0
    6.7288    0.7398   20.4820 C   0  0  0  0  0  0  0  0  0  0  0  0
   13.1251   -1.6289   21.8161 C   0  0  0  0  0  0  0  0  0  0  0  0
   14.2806   -2.0043   22.5604 C   0  0  0  0  0  0  0  0  0  0  0  0
    6.2027    0.7007   18.1628 C   0  0  0  0  0  0  0  0  0  0  0  0
    8.2684   -0.0383   18.8447 C   0  0  0  0  0  0  0  0  0  0  0  0
    7.9800    0.2161   20.1759 C   0  0  0  0  0  0  0  0  0  0  0  0
   12.1204   -1.1493   22.6274 C   0  0  0  0  0  0  0  0  0  0  0  0
   14.1152   -1.7970   23.9123 C   0  0  0  0  0  0  0  0  0  0  0  0
   10.2235   -0.5719   21.0501 C   0  0  0  0  0  0  0  0  0  0  0  0
    7.4090    0.1914   17.8267 N   0  0  0  0  0  0  0  0  0  0  0  0
    8.9136   -0.0443   21.1760 N   0  0  0  0  0  0  0  0  0  0  0  0
   10.8249   -0.6738   22.3148 N   0  0  0  0  0  0  0  0  0  0  0  0
   10.7476   -0.8905   19.9875 O   0  0  0  0  0  0  0  0  0  0  0  0
   12.5717   -1.1526   24.2793 S   0  0  0  0  0  0  0  0  0  0  0  0
   15.2403   -2.1069   25.1671 Cl  0  0  0  0  0  0  0  0  0  0  0  0
    4.8365    1.3976   19.6774 H   0  0  0  0  0  0  0  0  0  0  0  0
    6.4540    0.9567   21.5109 H   0  0  0  0  0  0  0  0  0  0  0  0
   13.0402   -1.7089   20.7395 H   0  0  0  0  0  0  0  0  0  0  0  0
   15.1849   -2.4057   22.1200 H   0  0  0  0  0  0  0  0  0  0  0  0
    5.5284    0.8784   17.3316 H   0  0  0  0  0  0  0  0  0  0  0  0
    9.2282   -0.4474   18.5433 H   0  0  0  0  0  0  0  0  0  0  0  0
    8.6129    0.1753   22.1327 H   0  0  0  0  0  0  0  0  0  0  0  0
   10.2657   -0.3708   23.1082 H   0  0  0  0  0  0  0  0  0  0  0  0
  1  2  2  0  0  0  0
  1  5  1  0  0  0  0
  2  7  1  0  0  0  0
  3  4  1  0  0  0  0
  3  8  2  0  0  0  0
  4  9  2  0  0  0  0
  5 11  2  0  0  0  0
  6  7  2  0  0  0  0
  6 11  1  0  0  0  0
  7 12  1  0  0  0  0
  8 13  1  0  0  0  0
  8 15  1  0  0  0  0
  9 15  1  0  0  0  0
  9 16  1  0  0  0  0
 10 12  1  0  0  0  0
 10 13  1  0  0  0  0
 10 14  2  0  0  0  0
  1 17  1  0  0  0  0
  2 18  1  0  0  0  0
  3 19  1  0  0  0  0
  4 20  1  0  0  0  0
  5 21  1  0  0  0  0
  6 22  1  0  0  0  0
 12 23  1  0  0  0  0
 13 24  1  0  0  0  0
M  END
> <IC50 (uM)>

> <IC50 (uM) - std>

> <Average Inhibition @ 20 uM>

> <Average Inhibition @ 20 uM - std>
8.85

> <Average Inhibition @ 50 uM>
1.1

> <Average Inhibition @ 50 uM - std>
23.7

> <Trypsin IC50 (uM)>
0.259

> <Relative Solubility @ 20 uM>
0.99

> <Relative Solubility @ 100 uM>
0.95

> <Hybrid2>
-9.498690

> <docked_fragment>
x0678

> <Mpro-_dock>
0.434402

> <site>
active-noncovalent

$$$$
BAR-COM-4e090d3a-61
  -OEChem-05192003313D

 41 43  0     0  0  0  0  0  0999 V2000
   14.2144   -1.9052   22.7576 C   0  0  0  0  0  0  0  0  0  0  0  0
   12.8564   -2.2229   22.7348 C   0  0  0  0  0  0  0  0  0  0  0  0
   14.6215   -0.5754   22.6506 C   0  0  0  0  0  0  0  0  0  0  0  0
   12.9636    5.8740   24.5693 C   0  0  0  0  0  0  0  0  0  0  0  0
   12.3125    0.1192   22.4980 C   0  0  0  0  0  0  0  0  0  0  0  0
   11.8108    6.2719   25.3049 C   0  0  0  0  0  0  0  0  0  0  0  0
   11.9054   -1.2107   22.6050 C   0  0  0  0  0  0  0  0  0  0  0  0
   13.6706    0.4368   22.5208 C   0  0  0  0  0  0  0  0  0  0  0  0
   12.6599    5.7781   23.2287 C   0  0  0  0  0  0  0  0  0  0  0  0
    9.1559   -0.0260   24.1230 C   0  0  0  0  0  0  0  0  0  0  0  0
   13.2797    2.9206   22.2785 C   0  0  0  0  0  0  0  0  0  0  0  0
    8.5112   -0.1850   25.4800 C   0  0  0  0  0  0  0  0  0  0  0  0
    9.2396   -1.3828   26.0775 C   0  0  0  0  0  0  0  0  0  0  0  0
    9.6187   -2.2174   24.8705 C   0  0  0  0  0  0  0  0  0  0  0  0
   10.4438   -1.5531   22.5806 C   0  0  0  0  0  0  0  0  0  0  0  0
   13.5238    5.3989   22.0608 C   0  0  0  0  0  0  0  0  0  0  0  0
   10.6898    6.4761   24.6171 N   0  0  0  0  0  0  0  0  0  0  0  0
    9.7913   -1.2306   23.8309 N   0  0  0  0  0  0  0  0  0  0  0  0
   14.0781    1.7670   22.4145 N   0  0  0  0  0  0  0  0  0  0  0  0
   14.0729    4.0701   22.2034 N   0  0  0  0  0  0  0  0  0  0  0  0
    9.0706    0.9735   23.4252 O   0  0  0  0  0  0  0  0  0  0  0  0
   12.0523    2.9474   22.2296 O   0  0  0  0  0  0  0  0  0  0  0  0
   11.0096    6.1826   23.0128 S   0  0  0  0  0  0  0  0  0  0  0  0
   14.9548   -2.6933   22.8590 H   0  0  0  0  0  0  0  0  0  0  0  0
   12.5491   -3.2617   22.8181 H   0  0  0  0  0  0  0  0  0  0  0  0
   15.6825   -0.3395   22.6693 H   0  0  0  0  0  0  0  0  0  0  0  0
   13.9385    5.6740   24.9937 H   0  0  0  0  0  0  0  0  0  0  0  0
   11.5691    0.9068   22.3961 H   0  0  0  0  0  0  0  0  0  0  0  0
   11.7685    6.4227   26.3750 H   0  0  0  0  0  0  0  0  0  0  0  0
    8.6434    0.7149   26.0855 H   0  0  0  0  0  0  0  0  0  0  0  0
    7.4456   -0.3924   25.3410 H   0  0  0  0  0  0  0  0  0  0  0  0
   10.1434   -1.0454   26.5995 H   0  0  0  0  0  0  0  0  0  0  0  0
    8.6192   -1.9315   26.7917 H   0  0  0  0  0  0  0  0  0  0  0  0
   10.5437   -2.7787   25.0297 H   0  0  0  0  0  0  0  0  0  0  0  0
    8.8137   -2.8969   24.5725 H   0  0  0  0  0  0  0  0  0  0  0  0
    9.9322   -1.0051   21.7819 H   0  0  0  0  0  0  0  0  0  0  0  0
   10.2935   -2.6210   22.3902 H   0  0  0  0  0  0  0  0  0  0  0  0
   12.9482    5.4278   21.1292 H   0  0  0  0  0  0  0  0  0  0  0  0
   14.3604    6.0965   21.9480 H   0  0  0  0  0  0  0  0  0  0  0  0
   15.0881    1.9426   22.4375 H   0  0  0  0  0  0  0  0  0  0  0  0
   15.0815    3.9660   22.2513 H   0  0  0  0  0  0  0  0  0  0  0  0
  1  2  1  0  0  0  0
  1  3  2  0  0  0  0
  2  7  2  0  0  0  0
  3  8  1  0  0  0  0
  4  6  1  0  0  0  0
  4  9  2  0  0  0  0
  5  7  1  0  0  0  0
  5  8  2  0  0  0  0
  6 17  2  0  0  0  0
  7 15  1  0  0  0  0
  8 19  1  0  0  0  0
  9 16  1  0  0  0  0
  9 23  1  0  0  0  0
 10 12  1  0  0  0  0
 10 18  1  0  0  0  0
 10 21  2  0  0  0  0
 11 19  1  0  0  0  0
 11 20  1  0  0  0  0
 11 22  2  0  0  0  0
 12 13  1  0  0  0  0
 13 14  1  0  0  0  0
 14 18  1  0  0  0  0
 15 18  1  0  0  0  0
 16 20  1  0  0  0  0
 17 23  1  0  0  0  0
  1 24  1  0  0  0  0
  2 25  1  0  0  0  0
  3 26  1  0  0  0  0
  4 27  1  0  0  0  0
  5 28  1  0  0  0  0
  6 29  1  0  0  0  0
 12 30  1  0  0  0  0
 12 31  1  0  0  0  0
 13 32  1  0  0  0  0
 13 33  1  0  0  0  0
 14 34  1  0  0  0  0
 14 35  1  0  0  0  0
 15 36  1  0  0  0  0
 15 37  1  0  0  0  0
 16 38  1  0  0  0  0
 16 39  1  0  0  0  0
 19 40  1  0  0  0  0
 20 41  1  0  0  0  0
M  END
> <IC50 (uM)>

> <IC50 (uM) - std>

> <Average Inhibition @ 20 uM>

> <Average Inhibition @ 20 uM - std>
-0.28

> <Average Inhibition @ 50 uM>
2.18

> <Average Inhibition @ 50 uM - std>
-2.05

> <Trypsin IC50 (uM)>
4.67

> <Relative Solubility @ 20 uM>
1.0

> <Relative Solubility @ 100 uM>
0.97

> <Hybrid2>
-9.494002

> <docked_fragment>
x0195

> <Mpro-_dock>
1.589024

> <site>
active-noncovalent

$$$$
BAR-COM-4e090d3a-20
  -OEChem-05192003313D

 45 47  0     1  0  0  0  0  0999 V2000
   13.6589   -1.6277   23.5165 C   0  0  0  0  0  0  0  0  0  0  0  0
   12.4272   -1.9452   22.9441 C   0  0  0  0  0  0  0  0  0  0  0  0
   14.0514   -0.2941   23.6317 C   0  0  0  0  0  0  0  0  0  0  0  0
   11.9804    0.4044   22.6020 C   0  0  0  0  0  0  0  0  0  0  0  0
    6.4316    0.9165   17.6371 C   0  0  0  0  0  0  0  0  0  0  0  0
    5.9928    1.1262   18.9259 C   0  0  0  0  0  0  0  0  0  0  0  0
    7.9690   -0.5918   18.4059 C   0  0  0  0  0  0  0  0  0  0  0  0
   11.5880   -0.9292   22.4868 C   0  0  0  0  0  0  0  0  0  0  0  0
   13.2122    0.7219   23.1744 C   0  0  0  0  0  0  0  0  0  0  0  0
    7.5308   -0.3816   19.6948 C   0  0  0  0  0  0  0  0  0  0  0  0
    9.3856   -0.3730   21.3970 C   0  0  0  0  0  0  0  0  0  0  0  0
   11.3376    4.9833   23.4160 C   0  0  0  0  0  0  0  0  0  0  0  0
   12.5462    5.5496   22.6655 C   0  0  0  0  0  0  0  0  0  0  0  0
   11.7346    3.5759   23.8535 C   0  0  0  0  0  0  0  0  0  0  0  0
   13.6083    4.4535   22.6884 C   0  0  0  0  0  0  0  0  0  0  0  0
   12.7987    3.1713   22.8404 C   0  0  0  0  0  0  0  0  0  0  0  0
    7.1402   -1.3989   21.9595 C   0  0  0  0  0  0  0  0  0  0  0  0
    8.1653   -1.1268   20.8554 C   0  0  1  0  0  0  0  0  0  0  0  0
    7.4276    0.0537   17.3540 N   0  0  0  0  0  0  0  0  0  0  0  0
    6.5346    0.4809   19.9779 N   0  0  0  0  0  0  0  0  0  0  0  0
   10.3561   -1.2474   21.9142 N   0  0  0  0  0  0  0  0  0  0  0  0
   13.6033    2.0490   23.2888 N   0  0  0  0  0  0  0  0  0  0  0  0
    9.4572    0.8518   21.3525 O   0  0  0  0  0  0  0  0  0  0  0  0
   14.3122   -2.4189   23.8730 H   0  0  0  0  0  0  0  0  0  0  0  0
   12.1324   -2.9883   22.8593 H   0  0  0  0  0  0  0  0  0  0  0  0
   15.0137   -0.0580   24.0788 H   0  0  0  0  0  0  0  0  0  0  0  0
   11.3257    1.1962   22.2446 H   0  0  0  0  0  0  0  0  0  0  0  0
    5.9959    1.4356   16.7924 H   0  0  0  0  0  0  0  0  0  0  0  0
    5.1924    1.8195   19.1527 H   0  0  0  0  0  0  0  0  0  0  0  0
    8.7690   -1.2839   18.1707 H   0  0  0  0  0  0  0  0  0  0  0  0
   11.0619    5.6049   24.2739 H   0  0  0  0  0  0  0  0  0  0  0  0
   10.4709    4.9443   22.7461 H   0  0  0  0  0  0  0  0  0  0  0  0
   12.2636    5.7856   21.6331 H   0  0  0  0  0  0  0  0  0  0  0  0
   12.9152    6.4724   23.1243 H   0  0  0  0  0  0  0  0  0  0  0  0
   12.1488    3.6160   24.8690 H   0  0  0  0  0  0  0  0  0  0  0  0
   10.8808    2.8914   23.8624 H   0  0  0  0  0  0  0  0  0  0  0  0
   14.2234    4.4581   21.7833 H   0  0  0  0  0  0  0  0  0  0  0  0
   14.2702    4.6064   23.5504 H   0  0  0  0  0  0  0  0  0  0  0  0
   12.3185    2.9117   21.8776 H   0  0  0  0  0  0  0  0  0  0  0  0
    6.7408   -0.4578   22.3538 H   0  0  0  0  0  0  0  0  0  0  0  0
    6.2897   -1.9879   21.5983 H   0  0  0  0  0  0  0  0  0  0  0  0
    7.5965   -1.9475   22.7910 H   0  0  0  0  0  0  0  0  0  0  0  0
    8.5233   -2.1056   20.5067 H   0  0  0  0  0  0  0  0  0  0  0  0
   10.1270   -2.2464   21.8589 H   0  0  0  0  0  0  0  0  0  0  0  0
   14.5073    2.2421   23.7108 H   0  0  0  0  0  0  0  0  0  0  0  0
  1  2  2  0  0  0  0
  1  3  1  0  0  0  0
  2  8  1  0  0  0  0
  3  9  2  0  0  0  0
  4  8  2  0  0  0  0
  4  9  1  0  0  0  0
  5  6  2  0  0  0  0
  5 19  1  0  0  0  0
  6 20  1  0  0  0  0
  7 10  1  0  0  0  0
  7 19  2  0  0  0  0
  8 21  1  0  0  0  0
  9 22  1  0  0  0  0
 10 18  1  0  0  0  0
 10 20  2  0  0  0  0
 11 18  1  0  0  0  0
 11 21  1  0  0  0  0
 11 23  2  0  0  0  0
 12 13  1  0  0  0  0
 12 14  1  0  0  0  0
 13 15  1  0  0  0  0
 14 16  1  0  0  0  0
 15 16  1  0  0  0  0
 16 22  1  0  0  0  0
 17 18  1  0  0  0  0
  1 24  1  0  0  0  0
  2 25  1  0  0  0  0
  3 26  1  0  0  0  0
  4 27  1  0  0  0  0
  5 28  1  0  0  0  0
  6 29  1  0  0  0  0
  7 30  1  0  0  0  0
 12 31  1  0  0  0  0
 12 32  1  0  0  0  0
 13 33  1  0  0  0  0
 13 34  1  0  0  0  0
 14 35  1  0  0  0  0
 14 36  1  0  0  0  0
 15 37  1  0  0  0  0
 15 38  1  0  0  0  0
 16 39  1  0  0  0  0
 17 40  1  0  0  0  0
 17 41  1  0  0  0  0
 17 42  1  0  0  0  0
 18 43  1  0  0  0  0
 21 44  1  0  0  0  0
 22 45  1  0  0  0  0
M  END
> <IC50 (uM)>

> <IC50 (uM) - std>

> <Average Inhibition @ 20 uM>

> <Average Inhibition @ 20 uM - std>
-2.77

> <Average Inhibition @ 50 uM>
1.4

> <Average Inhibition @ 50 uM - std>
0.913

> <Trypsin IC50 (uM)>
1.17

> <Relative Solubility @ 20 uM>
1.0

> <Relative Solubility @ 100 uM>
0.98

> <Hybrid2>
-9.470178

> <docked_fragment>
x0678

> <Mpro-_dock>
2.061615

> <site>
active-noncovalent

$$$$
WAR-XCH-b72a1bbc-4
  -OEChem-05192003313D

 29 30  0     0  0  0  0  0  0999 V2000
   10.7891    1.0601   21.2145 C   0  0  0  0  0  0  0  0  0  0  0  0
   10.2042   -1.2689   21.4800 C   0  0  0  0  0  0  0  0  0  0  0  0
   11.9202    0.8665   22.0073 C   0  0  0  0  0  0  0  0  0  0  0  0
   11.3354   -1.4626   22.2728 C   0  0  0  0  0  0  0  0  0  0  0  0
    6.4353    0.7427   19.8322 C   0  0  0  0  0  0  0  0  0  0  0  0
    6.6166    0.5418   18.4733 C   0  0  0  0  0  0  0  0  0  0  0  0
    8.8351    0.0163   18.7560 C   0  0  0  0  0  0  0  0  0  0  0  0
    9.9310   -0.0076   20.9508 C   0  0  0  0  0  0  0  0  0  0  0  0
    8.7579    0.1927   20.1281 C   0  0  0  0  0  0  0  0  0  0  0  0
    7.5314    0.5627   20.6686 C   0  0  0  0  0  0  0  0  0  0  0  0
   12.1934   -0.3949   22.5365 C   0  0  0  0  0  0  0  0  0  0  0  0
    7.3557    0.7760   22.1372 C   0  0  0  0  0  0  0  0  0  0  0  0
    7.7925    0.1820   17.9116 N   0  0  0  0  0  0  0  0  0  0  0  0
   12.9826   -0.3015   25.0808 N   0  0  0  0  0  0  0  0  0  0  0  0
   13.9800   -2.0443   23.4642 O   0  0  0  0  0  0  0  0  0  0  0  0
   14.5916    0.3843   23.1893 O   0  0  0  0  0  0  0  0  0  0  0  0
   13.6104   -0.6373   23.5275 S   0  0  0  0  0  0  0  0  0  0  0  0
   10.5895    2.0493   20.8095 H   0  0  0  0  0  0  0  0  0  0  0  0
    9.5451   -2.1115   21.2840 H   0  0  0  0  0  0  0  0  0  0  0  0
   12.5821    1.7049   22.2069 H   0  0  0  0  0  0  0  0  0  0  0  0
   11.5390   -2.4489   22.6806 H   0  0  0  0  0  0  0  0  0  0  0  0
    5.4649    1.0321   20.2216 H   0  0  0  0  0  0  0  0  0  0  0  0
    5.7936    0.6705   17.7777 H   0  0  0  0  0  0  0  0  0  0  0  0
    9.7627   -0.2738   18.2709 H   0  0  0  0  0  0  0  0  0  0  0  0
    7.0615   -0.1608   22.6236 H   0  0  0  0  0  0  0  0  0  0  0  0
    8.2840    1.1339   22.5986 H   0  0  0  0  0  0  0  0  0  0  0  0
    6.5866    1.5317   22.3378 H   0  0  0  0  0  0  0  0  0  0  0  0
   12.8544   -1.0881   25.7291 H   0  0  0  0  0  0  0  0  0  0  0  0
   13.2713    0.5714   25.5390 H   0  0  0  0  0  0  0  0  0  0  0  0
  1  3  2  0  0  0  0
  1  8  1  0  0  0  0
  2  4  1  0  0  0  0
  2  8  2  0  0  0  0
  3 11  1  0  0  0  0
  4 11  2  0  0  0  0
  5  6  2  0  0  0  0
  5 10  1  0  0  0  0
  6 13  1  0  0  0  0
  7  9  1  0  0  0  0
  7 13  2  0  0  0  0
  8  9  1  0  0  0  0
  9 10  2  0  0  0  0
 10 12  1  0  0  0  0
 11 17  1  0  0  0  0
 14 17  1  0  0  0  0
 15 17  2  0  0  0  0
 16 17  2  0  0  0  0
  1 18  1  0  0  0  0
  2 19  1  0  0  0  0
  3 20  1  0  0  0  0
  4 21  1  0  0  0  0
  5 22  1  0  0  0  0
  6 23  1  0  0  0  0
  7 24  1  0  0  0  0
 12 25  1  0  0  0  0
 12 26  1  0  0  0  0
 12 27  1  0  0  0  0
 14 28  1  0  0  0  0
 14 29  1  0  0  0  0
M  END
> <IC50 (uM)>

> <IC50 (uM) - std>

> <Average Inhibition @ 20 uM>

> <Average Inhibition @ 20 uM - std>

> <Average Inhibition @ 50 uM>

> <Average Inhibition @ 50 uM - std>
3.16

> <Trypsin IC50 (uM)>
1.64

> <Relative Solubility @ 20 uM>

> <Relative Solubility @ 100 uM>

> <Hybrid2>
-9.448851

> <docked_fragment>
x0678

> <Mpro-_dock>
1.01328

> <site>
active-noncovalent

$$$$
BAR-COM-4e090d3a-26
  -OEChem-05192003313D

 47 49  0     1  0  0  0  0  0999 V2000
    9.9046    4.2003   23.8093 C   0  0  0  0  0  0  0  0  0  0  0  0
   11.0335    4.0682   24.6179 C   0  0  0  0  0  0  0  0  0  0  0  0
    9.6235    3.2362   22.8412 C   0  0  0  0  0  0  0  0  0  0  0  0
   11.8813    2.9722   24.4582 C   0  0  0  0  0  0  0  0  0  0  0  0
    6.4708    1.0891   17.5915 C   0  0  0  0  0  0  0  0  0  0  0  0
    5.9615    1.2062   18.8661 C   0  0  0  0  0  0  0  0  0  0  0  0
    8.2628   -0.0693   18.4138 C   0  0  0  0  0  0  0  0  0  0  0  0
   10.4713    2.1402   22.6815 C   0  0  0  0  0  0  0  0  0  0  0  0
   11.6003    2.0081   23.4901 C   0  0  0  0  0  0  0  0  0  0  0  0
    7.7540    0.0483   19.6885 C   0  0  0  0  0  0  0  0  0  0  0  0
   10.1595    1.1453   21.6648 C   0  0  0  0  0  0  0  0  0  0  0  0
   14.2945   -2.1268   23.4133 C   0  0  0  0  0  0  0  0  0  0  0  0
   13.1329   -1.8526   22.4623 C   0  0  0  0  0  0  0  0  0  0  0  0
   14.5799   -0.9291   24.3148 C   0  0  0  0  0  0  0  0  0  0  0  0
   11.8795   -1.4102   23.2178 C   0  0  0  0  0  0  0  0  0  0  0  0
   13.3287   -0.4826   25.0721 C   0  0  0  0  0  0  0  0  0  0  0  0
   12.1511   -0.2162   24.1345 C   0  0  0  0  0  0  0  0  0  0  0  0
    7.6672   -1.6015   21.6024 C   0  0  0  0  0  0  0  0  0  0  0  0
    8.4924   -0.5467   20.8681 C   0  0  2  0  0  0  0  0  0  0  0  0
    7.6305    0.4492   17.3425 N   0  0  0  0  0  0  0  0  0  0  0  0
    6.5940    0.6879   19.9375 N   0  0  0  0  0  0  0  0  0  0  0  0
    8.9340    0.4812   21.7831 N   0  0  0  0  0  0  0  0  0  0  0  0
   10.9698    0.8998   20.7550 O   0  0  0  0  0  0  0  0  0  0  0  0
   12.4437    0.9382   23.3499 O   0  0  0  0  0  0  0  0  0  0  0  0
    9.2445    5.0540   23.9339 H   0  0  0  0  0  0  0  0  0  0  0  0
   11.2520    4.8195   25.3710 H   0  0  0  0  0  0  0  0  0  0  0  0
    8.7406    3.3492   22.2171 H   0  0  0  0  0  0  0  0  0  0  0  0
   12.7591    2.8753   25.0915 H   0  0  0  0  0  0  0  0  0  0  0  0
    5.9620    1.5060   16.7312 H   0  0  0  0  0  0  0  0  0  0  0  0
    5.0295    1.7204   19.0654 H   0  0  0  0  0  0  0  0  0  0  0  0
    9.1944   -0.5824   18.2060 H   0  0  0  0  0  0  0  0  0  0  0  0
   14.0691   -3.0059   24.0273 H   0  0  0  0  0  0  0  0  0  0  0  0
   15.1927   -2.3663   22.8308 H   0  0  0  0  0  0  0  0  0  0  0  0
   13.4193   -1.0797   21.7406 H   0  0  0  0  0  0  0  0  0  0  0  0
   12.9086   -2.7599   21.8885 H   0  0  0  0  0  0  0  0  0  0  0  0
   15.3645   -1.1921   25.0348 H   0  0  0  0  0  0  0  0  0  0  0  0
   14.9619   -0.0964   23.7141 H   0  0  0  0  0  0  0  0  0  0  0  0
   11.0859   -1.1535   22.5010 H   0  0  0  0  0  0  0  0  0  0  0  0
   11.4809   -2.2471   23.8071 H   0  0  0  0  0  0  0  0  0  0  0  0
   13.0496   -1.2437   25.8138 H   0  0  0  0  0  0  0  0  0  0  0  0
   13.5503    0.4243   25.6539 H   0  0  0  0  0  0  0  0  0  0  0  0
   11.2535    0.0037   24.7268 H   0  0  0  0  0  0  0  0  0  0  0  0
    6.7330   -1.1758   21.9846 H   0  0  0  0  0  0  0  0  0  0  0  0
    7.4131   -2.4276   20.9287 H   0  0  0  0  0  0  0  0  0  0  0  0
    8.2132   -2.0330   22.4488 H   0  0  0  0  0  0  0  0  0  0  0  0
    9.4098   -1.0306   20.5110 H   0  0  0  0  0  0  0  0  0  0  0  0
    8.3381    0.6758   22.5811 H   0  0  0  0  0  0  0  0  0  0  0  0
  1  2  1  0  0  0  0
  1  3  2  0  0  0  0
  2  4  2  0  0  0  0
  3  8  1  0  0  0  0
  4  9  1  0  0  0  0
  5  6  2  0  0  0  0
  5 20  1  0  0  0  0
  6 21  1  0  0  0  0
  7 10  1  0  0  0  0
  7 20  2  0  0  0  0
  8  9  2  0  0  0  0
  8 11  1  0  0  0  0
  9 24  1  0  0  0  0
 10 19  1  0  0  0  0
 10 21  2  0  0  0  0
 11 22  1  0  0  0  0
 11 23  2  0  0  0  0
 12 13  1  0  0  0  0
 12 14  1  0  0  0  0
 13 15  1  0  0  0  0
 14 16  1  0  0  0  0
 15 17  1  0  0  0  0
 16 17  1  0  0  0  0
 17 24  1  0  0  0  0
 18 19  1  0  0  0  0
 19 22  1  0  0  0  0
  1 25  1  0  0  0  0
  2 26  1  0  0  0  0
  3 27  1  0  0  0  0
  4 28  1  0  0  0  0
  5 29  1  0  0  0  0
  6 30  1  0  0  0  0
  7 31  1  0  0  0  0
 12 32  1  0  0  0  0
 12 33  1  0  0  0  0
 13 34  1  0  0  0  0
 13 35  1  0  0  0  0
 14 36  1  0  0  0  0
 14 37  1  0  0  0  0
 15 38  1  0  0  0  0
 15 39  1  0  0  0  0
 16 40  1  0  0  0  0
 16 41  1  0  0  0  0
 17 42  1  0  0  0  0
 18 43  1  0  0  0  0
 18 44  1  0  0  0  0
 18 45  1  0  0  0  0
 19 46  1  0  0  0  0
 22 47  1  0  0  0  0
M  END
> <IC50 (uM)>

> <IC50 (uM) - std>

> <Average Inhibition @ 20 uM>

> <Average Inhibition @ 20 uM - std>

> <Average Inhibition @ 50 uM>

> <Average Inhibition @ 50 uM - std>
-3.41

> <Trypsin IC50 (uM)>
4.65

> <Relative Solubility @ 20 uM>

> <Relative Solubility @ 100 uM>

> <Hybrid2>
-9.447334

> <docked_fragment>
x0678

> <Mpro-_dock>
1.952261

> <site>
active-noncovalent

$$$$
WAR-XCH-b6889685-27
  -OEChem-05192003313D

 47 49  0     0  0  0  0  0  0999 V2000
   13.2810   -1.4108   23.7214 C   0  0  0  0  0  0  0  0  0  0  0  0
   13.1821   -0.2606   24.5041 C   0  0  0  0  0  0  0  0  0  0  0  0
    5.8799   -4.5477   26.0154 C   0  0  0  0  0  0  0  0  0  0  0  0
    8.0726   -5.5345   26.2503 C   0  0  0  0  0  0  0  0  0  0  0  0
   12.2139   -1.7960   22.9098 C   0  0  0  0  0  0  0  0  0  0  0  0
    5.4249   -5.3010   27.0975 C   0  0  0  0  0  0  0  0  0  0  0  0
    7.6176   -6.2879   27.3325 C   0  0  0  0  0  0  0  0  0  0  0  0
   10.9490    0.1193   23.6639 C   0  0  0  0  0  0  0  0  0  0  0  0
   12.0161    0.5045   24.4754 C   0  0  0  0  0  0  0  0  0  0  0  0
    7.2037   -4.6645   25.5917 C   0  0  0  0  0  0  0  0  0  0  0  0
   11.0479   -1.0310   22.8811 C   0  0  0  0  0  0  0  0  0  0  0  0
    6.2937   -6.1711   27.7561 C   0  0  0  0  0  0  0  0  0  0  0  0
    8.1719   -1.6687   23.6904 C   0  0  0  0  0  0  0  0  0  0  0  0
    9.4847   -3.6593   22.9082 C   0  0  0  0  0  0  0  0  0  0  0  0
    7.0837   -2.6052   24.2166 C   0  0  0  0  0  0  0  0  0  0  0  0
    8.3747   -4.5721   23.4230 C   0  0  0  0  0  0  0  0  0  0  0  0
    8.9321   -2.2873   22.5163 C   0  0  0  0  0  0  0  0  0  0  0  0
   11.9106    1.7338   25.3129 C   0  0  0  0  0  0  0  0  0  0  0  0
    7.6534   -3.9211   24.5235 N   0  0  0  0  0  0  0  0  0  0  0  0
    6.0617   -6.0568   30.4090 N   0  0  0  0  0  0  0  0  0  0  0  0
    9.9909   -1.4125   22.0767 N   0  0  0  0  0  0  0  0  0  0  0  0
    4.2817   -7.2671   28.9905 O   0  0  0  0  0  0  0  0  0  0  0  0
    6.5684   -8.2951   29.2385 O   0  0  0  0  0  0  0  0  0  0  0  0
    5.7249   -7.1149   29.1104 S   0  0  0  0  0  0  0  0  0  0  0  0
   14.1891   -2.0065   23.7437 H   0  0  0  0  0  0  0  0  0  0  0  0
   14.0187    0.0321   25.1336 H   0  0  0  0  0  0  0  0  0  0  0  0
    5.1941   -3.8730   25.5093 H   0  0  0  0  0  0  0  0  0  0  0  0
    9.1065   -5.6324   25.9290 H   0  0  0  0  0  0  0  0  0  0  0  0
   12.3017   -2.6941   22.3036 H   0  0  0  0  0  0  0  0  0  0  0  0
    4.3915   -5.2021   27.4188 H   0  0  0  0  0  0  0  0  0  0  0  0
    8.3033   -6.9627   27.8380 H   0  0  0  0  0  0  0  0  0  0  0  0
   10.0406    0.7171   23.6425 H   0  0  0  0  0  0  0  0  0  0  0  0
    7.7053   -0.7349   23.3598 H   0  0  0  0  0  0  0  0  0  0  0  0
    8.8593   -1.4053   24.4991 H   0  0  0  0  0  0  0  0  0  0  0  0
   10.2654   -3.5576   23.6624 H   0  0  0  0  0  0  0  0  0  0  0  0
    9.9451   -4.1191   22.0314 H   0  0  0  0  0  0  0  0  0  0  0  0
    6.6135   -2.1792   25.1116 H   0  0  0  0  0  0  0  0  0  0  0  0
    6.3052   -2.6981   23.4492 H   0  0  0  0  0  0  0  0  0  0  0  0
    7.6868   -4.7873   22.5950 H   0  0  0  0  0  0  0  0  0  0  0  0
    8.7908   -5.5303   23.7608 H   0  0  0  0  0  0  0  0  0  0  0  0
    8.2313   -2.4172   21.6720 H   0  0  0  0  0  0  0  0  0  0  0  0
   12.2693    2.6078   24.7556 H   0  0  0  0  0  0  0  0  0  0  0  0
   10.8730    1.9190   25.6200 H   0  0  0  0  0  0  0  0  0  0  0  0
   12.5022    1.6411   26.2331 H   0  0  0  0  0  0  0  0  0  0  0  0
    5.2692   -5.5995   30.8760 H   0  0  0  0  0  0  0  0  0  0  0  0
    6.8320   -6.3018   31.0430 H   0  0  0  0  0  0  0  0  0  0  0  0
    9.9511   -1.0652   21.1284 H   0  0  0  0  0  0  0  0  0  0  0  0
  1  2  2  0  0  0  0
  1  5  1  0  0  0  0
  2  9  1  0  0  0  0
  3  6  2  0  0  0  0
  3 10  1  0  0  0  0
  4  7  1  0  0  0  0
  4 10  2  0  0  0  0
  5 11  2  0  0  0  0
  6 12  1  0  0  0  0
  7 12  2  0  0  0  0
  8  9  2  0  0  0  0
  8 11  1  0  0  0  0
  9 18  1  0  0  0  0
 10 19  1  0  0  0  0
 11 21  1  0  0  0  0
 12 24  1  0  0  0  0
 13 15  1  0  0  0  0
 13 17  1  0  0  0  0
 14 16  1  0  0  0  0
 14 17  1  0  0  0  0
 15 19  1  0  0  0  0
 16 19  1  0  0  0  0
 17 21  1  0  0  0  0
 20 24  1  0  0  0  0
 22 24  2  0  0  0  0
 23 24  2  0  0  0  0
  1 25  1  0  0  0  0
  2 26  1  0  0  0  0
  3 27  1  0  0  0  0
  4 28  1  0  0  0  0
  5 29  1  0  0  0  0
  6 30  1  0  0  0  0
  7 31  1  0  0  0  0
  8 32  1  0  0  0  0
 13 33  1  0  0  0  0
 13 34  1  0  0  0  0
 14 35  1  0  0  0  0
 14 36  1  0  0  0  0
 15 37  1  0  0  0  0
 15 38  1  0  0  0  0
 16 39  1  0  0  0  0
 16 40  1  0  0  0  0
 17 41  1  0  0  0  0
 18 42  1  0  0  0  0
 18 43  1  0  0  0  0
 18 44  1  0  0  0  0
 20 45  1  0  0  0  0
 20 46  1  0  0  0  0
 21 47  1  0  0  0  0
M  END
> <IC50 (uM)>

> <IC50 (uM) - std>

> <Average Inhibition @ 20 uM>

> <Average Inhibition @ 20 uM - std>
-2.59

> <Average Inhibition @ 50 uM>
1.29

> <Average Inhibition @ 50 uM - std>
-0.838

> <Trypsin IC50 (uM)>
0.583

> <Relative Solubility @ 20 uM>
0.96

> <Relative Solubility @ 100 uM>
0.87

> <Hybrid2>
-9.421846

> <docked_fragment>
x0072

> <Mpro-_dock>
3.046688

> <site>
active-noncovalent

$$$$
KIM-UNI-2ee5d8f9-1
  -OEChem-05192003313D

 36 37  0     0  0  0  0  0  0999 V2000
   12.6052   -3.2355   25.7140 C   0  0  0  0  0  0  0  0  0  0  0  0
   11.0470   -1.5694   24.9186 C   0  0  0  0  0  0  0  0  0  0  0  0
   13.3474   -0.9663   25.3444 C   0  0  0  0  0  0  0  0  0  0  0  0
   11.3190   -2.8812   25.3070 C   0  0  0  0  0  0  0  0  0  0  0  0
   13.6194   -2.2781   25.7328 C   0  0  0  0  0  0  0  0  0  0  0  0
   12.0612   -0.6119   24.9373 C   0  0  0  0  0  0  0  0  0  0  0  0
    5.8710   -4.3260   21.8922 C   0  0  0  0  0  0  0  0  0  0  0  0
    6.5824   -3.6659   24.1680 C   0  0  0  0  0  0  0  0  0  0  0  0
    8.0356   -3.0474   22.2762 C   0  0  0  0  0  0  0  0  0  0  0  0
    7.7766   -4.2206   24.9307 C   0  0  0  0  0  0  0  0  0  0  0  0
    9.2529   -3.5914   23.0117 C   0  0  0  0  0  0  0  0  0  0  0  0
    5.0680   -5.4532   22.4909 C   0  0  0  0  0  0  0  0  0  0  0  0
   10.2286   -3.9116   25.2879 C   0  0  0  0  0  0  0  0  0  0  0  0
    6.8105   -3.7184   22.7239 N   0  0  0  0  0  0  0  0  0  0  0  0
    9.0229   -3.4786   24.5023 N   0  3  0  0  0  0  0  0  0  0  0  0
    5.6661   -3.9953   20.7214 O   0  0  0  0  0  0  0  0  0  0  0  0
   14.8746   -2.6235   26.1301 O   0  0  0  0  0  0  0  0  0  0  0  0
   11.7261    1.0063   24.4570 Cl  0  0  0  0  0  0  0  0  0  0  0  0
   12.8192   -4.2567   26.0193 H   0  0  0  0  0  0  0  0  0  0  0  0
   10.0421   -1.2984   24.6019 H   0  0  0  0  0  0  0  0  0  0  0  0
   14.1438   -0.2258   25.3618 H   0  0  0  0  0  0  0  0  0  0  0  0
    5.6827   -4.2269   24.4396 H   0  0  0  0  0  0  0  0  0  0  0  0
    6.4041   -2.6172   24.4353 H   0  0  0  0  0  0  0  0  0  0  0  0
    7.9113   -1.9762   22.4761 H   0  0  0  0  0  0  0  0  0  0  0  0
    8.1898   -3.1557   21.2013 H   0  0  0  0  0  0  0  0  0  0  0  0
    7.6558   -4.0613   26.0071 H   0  0  0  0  0  0  0  0  0  0  0  0
    7.9335   -5.2864   24.7302 H   0  0  0  0  0  0  0  0  0  0  0  0
    9.4359   -4.6462   22.7782 H   0  0  0  0  0  0  0  0  0  0  0  0
   10.1434   -3.0008   22.7736 H   0  0  0  0  0  0  0  0  0  0  0  0
    4.1692   -5.0474   22.9433 H   0  0  0  0  0  0  0  0  0  0  0  0
    5.6673   -5.9561   23.2431 H   0  0  0  0  0  0  0  0  0  0  0  0
    4.8041   -6.1563   21.7074 H   0  0  0  0  0  0  0  0  0  0  0  0
   10.5767   -4.8481   24.8390 H   0  0  0  0  0  0  0  0  0  0  0  0
    9.8795   -4.1369   26.3013 H   0  0  0  0  0  0  0  0  0  0  0  0
    8.8768   -2.4822   24.7158 H   0  0  0  0  0  0  0  0  0  0  0  0
   14.9053   -3.5639   26.3676 H   0  0  0  0  0  0  0  0  0  0  0  0
  1  4  1  0  0  0  0
  1  5  2  0  0  0  0
  2  4  2  0  0  0  0
  2  6  1  0  0  0  0
  3  5  1  0  0  0  0
  3  6  2  0  0  0  0
  4 13  1  0  0  0  0
  5 17  1  0  0  0  0
  6 18  1  0  0  0  0
  7 12  1  0  0  0  0
  7 14  1  0  0  0  0
  7 16  2  0  0  0  0
  8 10  1  0  0  0  0
  8 14  1  0  0  0  0
  9 11  1  0  0  0  0
  9 14  1  0  0  0  0
 10 15  1  0  0  0  0
 11 15  1  0  0  0  0
 13 15  1  0  0  0  0
  1 19  1  0  0  0  0
  2 20  1  0  0  0  0
  3 21  1  0  0  0  0
  8 22  1  0  0  0  0
  8 23  1  0  0  0  0
  9 24  1  0  0  0  0
  9 25  1  0  0  0  0
 10 26  1  0  0  0  0
 10 27  1  0  0  0  0
 11 28  1  0  0  0  0
 11 29  1  0  0  0  0
 12 30  1  0  0  0  0
 12 31  1  0  0  0  0
 12 32  1  0  0  0  0
 13 33  1  0  0  0  0
 13 34  1  0  0  0  0
 15 35  1  0  0  0  0
 17 36  1  0  0  0  0
M  CHG  1  15   1
M  END
> <IC50 (uM)>

> <IC50 (uM) - std>

> <Average Inhibition @ 20 uM>

> <Average Inhibition @ 20 uM - std>

> <Average Inhibition @ 50 uM>

> <Average Inhibition @ 50 uM - std>
7.39

> <Trypsin IC50 (uM)>
2.3

> <Relative Solubility @ 20 uM>

> <Relative Solubility @ 100 uM>

> <Hybrid2>
-9.378798

> <docked_fragment>
x0749

> <Mpro-_dock>
-0.828812

> <site>
active-covalent

$$$$
GIA-UNK-595fac82-3
  -OEChem-05192003313D

 36 37  0     0  0  0  0  0  0999 V2000
    8.8153   -1.7610   22.2467 C   0  0  0  0  0  0  0  0  0  0  0  0
    9.8701   -3.1033   23.9408 C   0  0  0  0  0  0  0  0  0  0  0  0
    7.6389   -2.4416   22.5162 C   0  0  0  0  0  0  0  0  0  0  0  0
    8.6465   -3.7237   24.1346 C   0  0  0  0  0  0  0  0  0  0  0  0
    9.9477   -2.1042   22.9769 C   0  0  0  0  0  0  0  0  0  0  0  0
   11.2200   -1.4140   22.7314 C   0  0  0  0  0  0  0  0  0  0  0  0
   12.3346    4.7365   23.3895 C   0  0  0  0  0  0  0  0  0  0  0  0
   12.4781    1.9279   22.9396 C   0  0  0  0  0  0  0  0  0  0  0  0
   10.3337    1.7593   24.2530 C   0  0  0  0  0  0  0  0  0  0  0  0
   12.7518    0.4582   23.2435 C   0  0  0  0  0  0  0  0  0  0  0  0
   10.6532    0.2952   24.5362 C   0  0  0  0  0  0  0  0  0  0  0  0
   11.6127    2.5689   24.0258 C   0  0  0  0  0  0  0  0  0  0  0  0
   13.2753    6.0869   21.5208 C   0  0  0  0  0  0  0  0  0  0  0  0
    7.5249   -3.4175   23.4447 N   0  0  0  0  0  0  0  0  0  0  0  0
   11.4981   -0.2623   23.4710 N   0  0  0  0  0  0  0  0  0  0  0  0
   12.3005    5.1821   22.0849 N   0  0  0  0  0  0  0  0  0  0  0  0
   11.9486   -1.9078   21.8722 O   0  0  0  0  0  0  0  0  0  0  0  0
   13.1764    5.0401   24.2285 O   0  0  0  0  0  0  0  0  0  0  0  0
   11.2804    3.8928   23.6254 O   0  0  0  0  0  0  0  0  0  0  0  0
    8.8405   -0.9855   21.4884 H   0  0  0  0  0  0  0  0  0  0  0  0
   10.7344   -3.3947   24.5282 H   0  0  0  0  0  0  0  0  0  0  0  0
    6.7274   -2.2109   21.9751 H   0  0  0  0  0  0  0  0  0  0  0  0
    8.5333   -4.5093   24.8741 H   0  0  0  0  0  0  0  0  0  0  0  0
   13.4235    2.4763   22.8499 H   0  0  0  0  0  0  0  0  0  0  0  0
   11.9849    2.0245   21.9634 H   0  0  0  0  0  0  0  0  0  0  0  0
    9.6785    1.8400   23.3760 H   0  0  0  0  0  0  0  0  0  0  0  0
    9.7687    2.1891   25.0886 H   0  0  0  0  0  0  0  0  0  0  0  0
   13.3140    0.0061   22.4202 H   0  0  0  0  0  0  0  0  0  0  0  0
   13.3583    0.3582   24.1513 H   0  0  0  0  0  0  0  0  0  0  0  0
   11.2087    0.1991   25.4768 H   0  0  0  0  0  0  0  0  0  0  0  0
    9.7230   -0.2669   24.6493 H   0  0  0  0  0  0  0  0  0  0  0  0
   12.1855    2.6331   24.9588 H   0  0  0  0  0  0  0  0  0  0  0  0
   12.9417    7.1247   21.6685 H   0  0  0  0  0  0  0  0  0  0  0  0
   14.2445    5.9390   22.0195 H   0  0  0  0  0  0  0  0  0  0  0  0
   13.3823    5.8860   20.4446 H   0  0  0  0  0  0  0  0  0  0  0  0
   11.5476    4.8557   21.4870 H   0  0  0  0  0  0  0  0  0  0  0  0
  1  3  2  0  0  0  0
  1  5  1  0  0  0  0
  2  4  1  0  0  0  0
  2  5  2  0  0  0  0
  3 14  1  0  0  0  0
  4 14  2  0  0  0  0
  5  6  1  0  0  0  0
  6 15  1  0  0  0  0
  6 17  2  0  0  0  0
  7 16  1  0  0  0  0
  7 18  2  0  0  0  0
  7 19  1  0  0  0  0
  8 10  1  0  0  0  0
  8 12  1  0  0  0  0
  9 11  1  0  0  0  0
  9 12  1  0  0  0  0
 10 15  1  0  0  0  0
 11 15  1  0  0  0  0
 12 19  1  0  0  0  0
 13 16  1  0  0  0  0
  1 20  1  0  0  0  0
  2 21  1  0  0  0  0
  3 22  1  0  0  0  0
  4 23  1  0  0  0  0
  8 24  1  0  0  0  0
  8 25  1  0  0  0  0
  9 26  1  0  0  0  0
  9 27  1  0  0  0  0
 10 28  1  0  0  0  0
 10 29  1  0  0  0  0
 11 30  1  0  0  0  0
 11 31  1  0  0  0  0
 12 32  1  0  0  0  0
 13 33  1  0  0  0  0
 13 34  1  0  0  0  0
 13 35  1  0  0  0  0
 16 36  1  0  0  0  0
M  END
> <IC50 (uM)>

> <IC50 (uM) - std>

> <Average Inhibition @ 20 uM>

> <Average Inhibition @ 20 uM - std>

> <Average Inhibition @ 50 uM>

> <Average Inhibition @ 50 uM - std>
5.88

> <Trypsin IC50 (uM)>
1.84

> <Relative Solubility @ 20 uM>

> <Relative Solubility @ 100 uM>

> <Hybrid2>
-9.361073

> <docked_fragment>
x0104

> <Mpro-_dock>
-0.075203

> <site>
active-noncovalent

$$$$
GIA-UNK-595fac82-2
  -OEChem-05192003313D

 37 38  0     0  0  0  0  0  0999 V2000
    8.1123   -3.4505   23.5811 C   0  0  0  0  0  0  0  0  0  0  0  0
    8.1115   -2.4647   22.5943 C   0  0  0  0  0  0  0  0  0  0  0  0
    9.2768   -3.7148   24.3020 C   0  0  0  0  0  0  0  0  0  0  0  0
    9.2753   -1.7432   22.3284 C   0  0  0  0  0  0  0  0  0  0  0  0
   10.4406   -2.9933   24.0361 C   0  0  0  0  0  0  0  0  0  0  0  0
   10.4398   -2.0074   23.0493 C   0  0  0  0  0  0  0  0  0  0  0  0
   11.6647   -1.2480   22.7693 C   0  0  0  0  0  0  0  0  0  0  0  0
   12.4215    4.9693   23.2942 C   0  0  0  0  0  0  0  0  0  0  0  0
   12.7248    2.1659   22.8939 C   0  0  0  0  0  0  0  0  0  0  0  0
   10.6155    1.8963   24.2468 C   0  0  0  0  0  0  0  0  0  0  0  0
   13.0903    0.7212   23.2203 C   0  0  0  0  0  0  0  0  0  0  0  0
   11.0261    0.4595   24.5516 C   0  0  0  0  0  0  0  0  0  0  0  0
   11.8402    2.7756   23.9827 C   0  0  0  0  0  0  0  0  0  0  0  0
   13.2502    6.3364   21.3849 C   0  0  0  0  0  0  0  0  0  0  0  0
   11.8855   -0.0677   23.4826 N   0  0  0  0  0  0  0  0  0  0  0  0
   12.3401    5.3866   21.9823 N   0  0  0  0  0  0  0  0  0  0  0  0
   12.4076   -1.7145   21.9070 O   0  0  0  0  0  0  0  0  0  0  0  0
   13.2570    5.3385   24.1128 O   0  0  0  0  0  0  0  0  0  0  0  0
   11.4233    4.0694   23.5636 O   0  0  0  0  0  0  0  0  0  0  0  0
    7.2061   -4.0122   23.7881 H   0  0  0  0  0  0  0  0  0  0  0  0
    7.2047   -2.2592   22.0329 H   0  0  0  0  0  0  0  0  0  0  0  0
    9.2773   -4.4821   25.0706 H   0  0  0  0  0  0  0  0  0  0  0  0
    9.2635   -0.9771   21.5573 H   0  0  0  0  0  0  0  0  0  0  0  0
   11.3422   -3.2078   24.6040 H   0  0  0  0  0  0  0  0  0  0  0  0
   13.6343    2.7675   22.7780 H   0  0  0  0  0  0  0  0  0  0  0  0
   12.2111    2.2141   21.9248 H   0  0  0  0  0  0  0  0  0  0  0  0
    9.9427    1.9209   23.3798 H   0  0  0  0  0  0  0  0  0  0  0  0
   10.0394    2.3081   25.0838 H   0  0  0  0  0  0  0  0  0  0  0  0
   13.6652    0.2872   22.3960 H   0  0  0  0  0  0  0  0  0  0  0  0
   13.7161    0.6751   24.1193 H   0  0  0  0  0  0  0  0  0  0  0  0
   11.6013    0.4148   25.4841 H   0  0  0  0  0  0  0  0  0  0  0  0
   10.1329   -0.1544   24.6909 H   0  0  0  0  0  0  0  0  0  0  0  0
   12.4230    2.8918   24.9045 H   0  0  0  0  0  0  0  0  0  0  0  0
   12.8578    7.3552   21.5190 H   0  0  0  0  0  0  0  0  0  0  0  0
   14.2343    6.2559   21.8696 H   0  0  0  0  0  0  0  0  0  0  0  0
   13.3517    6.1212   20.3110 H   0  0  0  0  0  0  0  0  0  0  0  0
   11.5985    5.0046   21.4035 H   0  0  0  0  0  0  0  0  0  0  0  0
  1  2  1  0  0  0  0
  1  3  2  0  0  0  0
  2  4  2  0  0  0  0
  3  5  1  0  0  0  0
  4  6  1  0  0  0  0
  5  6  2  0  0  0  0
  6  7  1  0  0  0  0
  7 15  1  0  0  0  0
  7 17  2  0  0  0  0
  8 16  1  0  0  0  0
  8 18  2  0  0  0  0
  8 19  1  0  0  0  0
  9 11  1  0  0  0  0
  9 13  1  0  0  0  0
 10 12  1  0  0  0  0
 10 13  1  0  0  0  0
 11 15  1  0  0  0  0
 12 15  1  0  0  0  0
 13 19  1  0  0  0  0
 14 16  1  0  0  0  0
  1 20  1  0  0  0  0
  2 21  1  0  0  0  0
  3 22  1  0  0  0  0
  4 23  1  0  0  0  0
  5 24  1  0  0  0  0
  9 25  1  0  0  0  0
  9 26  1  0  0  0  0
 10 27  1  0  0  0  0
 10 28  1  0  0  0  0
 11 29  1  0  0  0  0
 11 30  1  0  0  0  0
 12 31  1  0  0  0  0
 12 32  1  0  0  0  0
 13 33  1  0  0  0  0
 14 34  1  0  0  0  0
 14 35  1  0  0  0  0
 14 36  1  0  0  0  0
 16 37  1  0  0  0  0
M  END
> <IC50 (uM)>

> <IC50 (uM) - std>

> <Average Inhibition @ 20 uM>

> <Average Inhibition @ 20 uM - std>

> <Average Inhibition @ 50 uM>

> <Average Inhibition @ 50 uM - std>
0.862

> <Trypsin IC50 (uM)>
1.05

> <Relative Solubility @ 20 uM>

> <Relative Solubility @ 100 uM>

> <Hybrid2>
-9.340299

> <docked_fragment>
x0104

> <Mpro-_dock>
-0.294727

> <site>
active-noncovalent

$$$$
JOH-MSK-ec639444-2
  -OEChem-05192003313D

 40 42  0     1  0  0  0  0  0999 V2000
   10.9207   -2.3319   22.5105 C   0  0  0  0  0  0  0  0  0  0  0  0
    9.7180   -2.3056   23.2182 C   0  0  0  0  0  0  0  0  0  0  0  0
   11.8259   -1.2845   22.6806 C   0  0  0  0  0  0  0  0  0  0  0  0
   11.5672   -0.2077   23.5469 C   0  0  0  0  0  0  0  0  0  0  0  0
   10.3923   -0.2047   24.2618 C   0  0  0  0  0  0  0  0  0  0  0  0
    9.4866   -1.2451   24.0848 C   0  0  0  0  0  0  0  0  0  0  0  0
   10.4948    4.6584   23.8055 C   0  0  0  0  0  0  0  0  0  0  0  0
   13.1737   -1.1467   22.0429 C   0  0  0  0  0  0  0  0  0  0  0  0
    9.8272    0.7741   25.2133 C   0  0  0  0  0  0  0  0  0  0  0  0
   13.4419    0.3495   22.2467 C   0  0  0  0  0  0  0  0  0  0  0  0
    8.6861   -0.0673   25.7853 C   0  0  0  0  0  0  0  0  0  0  0  0
   12.7227    0.7518   23.5534 C   0  0  1  0  0  0  0  0  0  0  0  0
    9.0991    6.2971   22.4847 C   0  0  0  0  0  0  0  0  0  0  0  0
   10.2134    6.1180   23.4996 C   0  0  0  0  0  0  0  0  0  0  0  0
   12.3619    2.2296   23.5581 C   0  0  0  0  0  0  0  0  0  0  0  0
   11.1673    2.5480   22.6665 C   0  0  0  0  0  0  0  0  0  0  0  0
   10.8466    3.9484   22.6612 N   0  0  0  0  0  0  0  0  0  0  0  0
   10.4181    4.1818   24.9346 O   0  0  0  0  0  0  0  0  0  0  0  0
    8.3493   -1.1117   24.8438 O   0  0  0  0  0  0  0  0  0  0  0  0
   11.1438   -3.1548   21.8391 H   0  0  0  0  0  0  0  0  0  0  0  0
    8.9921   -3.1032   23.1020 H   0  0  0  0  0  0  0  0  0  0  0  0
   13.9077   -1.7590   22.5766 H   0  0  0  0  0  0  0  0  0  0  0  0
   13.1648   -1.4097   20.9814 H   0  0  0  0  0  0  0  0  0  0  0  0
   10.5238    1.0891   25.9942 H   0  0  0  0  0  0  0  0  0  0  0  0
    9.4400    1.6465   24.6774 H   0  0  0  0  0  0  0  0  0  0  0  0
   14.5133    0.5736   22.2783 H   0  0  0  0  0  0  0  0  0  0  0  0
   13.0218    0.9052   21.3961 H   0  0  0  0  0  0  0  0  0  0  0  0
    8.9835   -0.5489   26.7258 H   0  0  0  0  0  0  0  0  0  0  0  0
    7.7979    0.5412   25.9848 H   0  0  0  0  0  0  0  0  0  0  0  0
   13.3651    0.5205   24.4123 H   0  0  0  0  0  0  0  0  0  0  0  0
    9.3443    5.8014   21.5395 H   0  0  0  0  0  0  0  0  0  0  0  0
    8.1661    5.8688   22.8634 H   0  0  0  0  0  0  0  0  0  0  0  0
    8.9268    7.3576   22.2728 H   0  0  0  0  0  0  0  0  0  0  0  0
    9.9433    6.6224   24.4344 H   0  0  0  0  0  0  0  0  0  0  0  0
   11.1331    6.5772   23.1199 H   0  0  0  0  0  0  0  0  0  0  0  0
   13.2278    2.8035   23.2072 H   0  0  0  0  0  0  0  0  0  0  0  0
   12.1580    2.5481   24.5876 H   0  0  0  0  0  0  0  0  0  0  0  0
   11.3861    2.2660   21.6317 H   0  0  0  0  0  0  0  0  0  0  0  0
   10.2753    2.0009   22.9874 H   0  0  0  0  0  0  0  0  0  0  0  0
   10.8783    4.4482   21.7729 H   0  0  0  0  0  0  0  0  0  0  0  0
  1  2  2  0  0  0  0
  1  3  1  0  0  0  0
  2  6  1  0  0  0  0
  3  4  2  0  0  0  0
  3  8  1  0  0  0  0
  4  5  1  0  0  0  0
  4 12  1  0  0  0  0
  5  6  2  0  0  0  0
  5  9  1  0  0  0  0
  6 19  1  0  0  0  0
  7 14  1  0  0  0  0
  7 17  1  0  0  0  0
  7 18  2  0  0  0  0
  8 10  1  0  0  0  0
  9 11  1  0  0  0  0
 10 12  1  0  0  0  0
 11 19  1  0  0  0  0
 12 15  1  0  0  0  0
 13 14  1  0  0  0  0
 15 16  1  0  0  0  0
 16 17  1  0  0  0  0
  1 20  1  0  0  0  0
  2 21  1  0  0  0  0
  8 22  1  0  0  0  0
  8 23  1  0  0  0  0
  9 24  1  0  0  0  0
  9 25  1  0  0  0  0
 10 26  1  0  0  0  0
 10 27  1  0  0  0  0
 11 28  1  0  0  0  0
 11 29  1  0  0  0  0
 12 30  1  0  0  0  0
 13 31  1  0  0  0  0
 13 32  1  0  0  0  0
 13 33  1  0  0  0  0
 14 34  1  0  0  0  0
 14 35  1  0  0  0  0
 15 36  1  0  0  0  0
 15 37  1  0  0  0  0
 16 38  1  0  0  0  0
 16 39  1  0  0  0  0
 17 40  1  0  0  0  0
M  END
> <IC50 (uM)>

> <IC50 (uM) - std>

> <Average Inhibition @ 20 uM>

> <Average Inhibition @ 20 uM - std>
0.473

> <Average Inhibition @ 50 uM>
4.55

> <Average Inhibition @ 50 uM - std>
6.69

> <Trypsin IC50 (uM)>
0.651

> <Relative Solubility @ 20 uM>
1.0

> <Relative Solubility @ 100 uM>
1.0

> <Hybrid2>
-9.332843

> <docked_fragment>
x0104

> <Mpro-_dock>
-0.012259

> <site>
active-noncovalent

$$$$
MIH-UNI-6b9ca91a-6
  -OEChem-05192003313D

 30 31  0     0  0  0  0  0  0999 V2000
   13.8227   -0.1879   23.4102 C   0  0  0  0  0  0  0  0  0  0  0  0
   13.8259   -0.9434   22.2377 C   0  0  0  0  0  0  0  0  0  0  0  0
   12.7090   -0.2078   24.2498 C   0  0  0  0  0  0  0  0  0  0  0  0
   12.7153   -1.7188   21.9047 C   0  0  0  0  0  0  0  0  0  0  0  0
   11.5984   -0.9832   23.9168 C   0  0  0  0  0  0  0  0  0  0  0  0
    6.7629    0.9175   19.7580 C   0  0  0  0  0  0  0  0  0  0  0  0
    6.5333    0.6195   18.4350 C   0  0  0  0  0  0  0  0  0  0  0  0
    8.6584    0.2744   18.7730 C   0  0  0  0  0  0  0  0  0  0  0  0
   11.6015   -1.7388   22.7442 C   0  0  0  0  0  0  0  0  0  0  0  0
    8.1431    0.6936   19.9775 C   0  0  0  0  0  0  0  0  0  0  0  0
   10.4135   -2.5675   22.3886 C   0  0  0  0  0  0  0  0  0  0  0  0
    9.3768   -1.8206   21.5403 C   0  0  0  0  0  0  0  0  0  0  0  0
    8.8720   -0.6475   22.2019 N   0  0  0  0  0  0  0  0  0  0  0  0
   10.4253    1.1334   21.1642 O   0  0  0  0  0  0  0  0  0  0  0  0
    8.2985    1.8910   22.2721 O   0  0  0  0  0  0  0  0  0  0  0  0
    7.6835    0.2265   17.8275 O   0  0  0  0  0  0  0  0  0  0  0  0
    9.0297    0.9116   21.4912 S   0  0  0  0  0  0  0  0  0  0  0  0
   14.6881    0.4148   23.6700 H   0  0  0  0  0  0  0  0  0  0  0  0
   14.6934   -0.9289   21.5844 H   0  0  0  0  0  0  0  0  0  0  0  0
   12.7066    0.3794   25.1633 H   0  0  0  0  0  0  0  0  0  0  0  0
   12.7265   -2.3042   20.9890 H   0  0  0  0  0  0  0  0  0  0  0  0
   10.7350   -0.9925   24.5768 H   0  0  0  0  0  0  0  0  0  0  0  0
    6.0249    1.2543   20.4722 H   0  0  0  0  0  0  0  0  0  0  0  0
    5.6543    0.6337   17.8071 H   0  0  0  0  0  0  0  0  0  0  0  0
    9.6448   -0.0141   18.4393 H   0  0  0  0  0  0  0  0  0  0  0  0
    9.9228   -2.9182   23.3122 H   0  0  0  0  0  0  0  0  0  0  0  0
   10.7240   -3.4853   21.8604 H   0  0  0  0  0  0  0  0  0  0  0  0
    9.8219   -1.4849   20.5984 H   0  0  0  0  0  0  0  0  0  0  0  0
    8.5205   -2.4609   21.3042 H   0  0  0  0  0  0  0  0  0  0  0  0
    8.0882   -0.7738   22.8761 H   0  0  0  0  0  0  0  0  0  0  0  0
  1  2  1  0  0  0  0
  1  3  2  0  0  0  0
  2  4  2  0  0  0  0
  3  5  1  0  0  0  0
  4  9  1  0  0  0  0
  5  9  2  0  0  0  0
  6  7  2  0  0  0  0
  6 10  1  0  0  0  0
  7 16  1  0  0  0  0
  8 10  2  0  0  0  0
  8 16  1  0  0  0  0
  9 11  1  0  0  0  0
 10 17  1  0  0  0  0
 11 12  1  0  0  0  0
 12 13  1  0  0  0  0
 13 17  1  0  0  0  0
 14 17  2  0  0  0  0
 15 17  2  0  0  0  0
  1 18  1  0  0  0  0
  2 19  1  0  0  0  0
  3 20  1  0  0  0  0
  4 21  1  0  0  0  0
  5 22  1  0  0  0  0
  6 23  1  0  0  0  0
  7 24  1  0  0  0  0
  8 25  1  0  0  0  0
 11 26  1  0  0  0  0
 11 27  1  0  0  0  0
 12 28  1  0  0  0  0
 12 29  1  0  0  0  0
 13 30  1  0  0  0  0
M  END
> <IC50 (uM)>

> <IC50 (uM) - std>

> <Average Inhibition @ 20 uM>

> <Average Inhibition @ 20 uM - std>

> <Average Inhibition @ 50 uM>

> <Average Inhibition @ 50 uM - std>
-0.468

> <Trypsin IC50 (uM)>
0.836

> <Relative Solubility @ 20 uM>

> <Relative Solubility @ 100 uM>

> <Hybrid2>
-9.325847

> <docked_fragment>
x0678

> <Mpro-_dock>
-0.676827

> <site>
active-noncovalent

$$$$
WAR-XCH-b72a1bbc-9
  -OEChem-05192003313D

 36 37  0     0  0  0  0  0  0999 V2000
    9.9267   -2.9196   23.2648 C   0  0  0  0  0  0  0  0  0  0  0  0
   10.3573   -4.6186   24.9277 C   0  0  0  0  0  0  0  0  0  0  0  0
   11.0990   -2.2605   23.6347 C   0  0  0  0  0  0  0  0  0  0  0  0
   11.5296   -3.9595   25.2975 C   0  0  0  0  0  0  0  0  0  0  0  0
    9.5558   -4.0987   23.9113 C   0  0  0  0  0  0  0  0  0  0  0  0
   11.9005   -2.7804   24.6510 C   0  0  0  0  0  0  0  0  0  0  0  0
    7.0623   -5.8186   21.7440 C   0  0  0  0  0  0  0  0  0  0  0  0
    6.4388   -6.1530   24.1459 C   0  0  0  0  0  0  0  0  0  0  0  0
    7.9428   -4.6328   22.1429 C   0  0  0  0  0  0  0  0  0  0  0  0
    7.3226   -4.9666   24.5374 C   0  0  0  0  0  0  0  0  0  0  0  0
    5.9079   -6.0286   22.7200 C   0  0  0  0  0  0  0  0  0  0  0  0
    3.7276   -5.2526   23.1385 C   0  0  0  0  0  0  0  0  0  0  0  0
    8.3791   -4.7608   23.5404 N   0  0  0  0  0  0  0  0  0  0  0  0
   14.5001   -2.6923   24.0690 N   0  0  0  0  0  0  0  0  0  0  0  0
   13.2390   -0.5508   24.7541 O   0  0  0  0  0  0  0  0  0  0  0  0
   13.6909   -2.3232   26.4868 O   0  0  0  0  0  0  0  0  0  0  0  0
    5.0115   -4.9255   22.6256 O   0  0  0  0  0  0  0  0  0  0  0  0
   13.3677   -1.9557   25.1152 S   0  0  0  0  0  0  0  0  0  0  0  0
    9.3094   -2.5054   22.4717 H   0  0  0  0  0  0  0  0  0  0  0  0
   10.0781   -5.5374   25.4373 H   0  0  0  0  0  0  0  0  0  0  0  0
   11.3780   -1.3426   23.1243 H   0  0  0  0  0  0  0  0  0  0  0  0
   12.1464   -4.3736   26.0909 H   0  0  0  0  0  0  0  0  0  0  0  0
    6.6716   -5.6680   20.7265 H   0  0  0  0  0  0  0  0  0  0  0  0
    7.6707   -6.7320   21.6880 H   0  0  0  0  0  0  0  0  0  0  0  0
    7.0060   -7.0877   24.2499 H   0  0  0  0  0  0  0  0  0  0  0  0
    5.5997   -6.2421   24.8509 H   0  0  0  0  0  0  0  0  0  0  0  0
    8.8176   -4.5811   21.4822 H   0  0  0  0  0  0  0  0  0  0  0  0
    7.3683   -3.7083   22.0065 H   0  0  0  0  0  0  0  0  0  0  0  0
    6.6933   -4.0719   24.6176 H   0  0  0  0  0  0  0  0  0  0  0  0
    7.7696   -5.1479   25.5230 H   0  0  0  0  0  0  0  0  0  0  0  0
    5.3507   -6.9373   22.4434 H   0  0  0  0  0  0  0  0  0  0  0  0
    3.0677   -4.3861   23.0506 H   0  0  0  0  0  0  0  0  0  0  0  0
    3.8179   -5.5504   24.1862 H   0  0  0  0  0  0  0  0  0  0  0  0
    3.3147   -6.0825   22.5602 H   0  0  0  0  0  0  0  0  0  0  0  0
   14.8749   -2.1324   23.2933 H   0  0  0  0  0  0  0  0  0  0  0  0
   15.1812   -3.3438   24.4776 H   0  0  0  0  0  0  0  0  0  0  0  0
  1  3  2  0  0  0  0
  1  5  1  0  0  0  0
  2  4  1  0  0  0  0
  2  5  2  0  0  0  0
  3  6  1  0  0  0  0
  4  6  2  0  0  0  0
  5 13  1  0  0  0  0
  6 18  1  0  0  0  0
  7  9  1  0  0  0  0
  7 11  1  0  0  0  0
  8 10  1  0  0  0  0
  8 11  1  0  0  0  0
  9 13  1  0  0  0  0
 10 13  1  0  0  0  0
 11 17  1  0  0  0  0
 12 17  1  0  0  0  0
 14 18  1  0  0  0  0
 15 18  2  0  0  0  0
 16 18  2  0  0  0  0
  1 19  1  0  0  0  0
  2 20  1  0  0  0  0
  3 21  1  0  0  0  0
  4 22  1  0  0  0  0
  7 23  1  0  0  0  0
  7 24  1  0  0  0  0
  8 25  1  0  0  0  0
  8 26  1  0  0  0  0
  9 27  1  0  0  0  0
  9 28  1  0  0  0  0
 10 29  1  0  0  0  0
 10 30  1  0  0  0  0
 11 31  1  0  0  0  0
 12 32  1  0  0  0  0
 12 33  1  0  0  0  0
 12 34  1  0  0  0  0
 14 35  1  0  0  0  0
 14 36  1  0  0  0  0
M  END
> <IC50 (uM)>

> <IC50 (uM) - std>

> <Average Inhibition @ 20 uM>

> <Average Inhibition @ 20 uM - std>
2.98

> <Average Inhibition @ 50 uM>
0.417

> <Average Inhibition @ 50 uM - std>
6.82

> <Trypsin IC50 (uM)>
2.32

> <Relative Solubility @ 20 uM>
1.0

> <Relative Solubility @ 100 uM>
1.0

> <Hybrid2>
-9.316606

> <docked_fragment>
x0749

> <Mpro-_dock>
1.088976

> <site>
active-covalent

$$$$
BAR-COM-4e090d3a-29
  -OEChem-05192003313D

 42 44  0     1  0  0  0  0  0999 V2000
    6.4123   -3.6711   27.3368 C   0  0  0  0  0  0  0  0  0  0  0  0
    7.4381   -2.7564   27.0989 C   0  0  0  0  0  0  0  0  0  0  0  0
    6.4206   -4.9104   26.6966 C   0  0  0  0  0  0  0  0  0  0  0  0
    6.3731    1.2794   19.8560 C   0  0  0  0  0  0  0  0  0  0  0  0
    5.8692   -5.3758   21.9869 C   0  0  0  0  0  0  0  0  0  0  0  0
    8.4721   -3.0808   26.2207 C   0  0  0  0  0  0  0  0  0  0  0  0
    7.4545   -5.2348   25.8183 C   0  0  0  0  0  0  0  0  0  0  0  0
    7.4195    1.0243   20.7248 C   0  0  0  0  0  0  0  0  0  0  0  0
    6.7641   -4.4723   22.6297 C   0  0  0  0  0  0  0  0  0  0  0  0
    6.5681    1.0163   18.5150 C   0  0  0  0  0  0  0  0  0  0  0  0
    6.5206   -6.4823   21.4882 C   0  0  0  0  0  0  0  0  0  0  0  0
    8.4803   -4.3200   25.5804 C   0  0  0  0  0  0  0  0  0  0  0  0
    8.5915    0.5228   20.1952 C   0  0  0  0  0  0  0  0  0  0  0  0
    8.0656   -4.9230   22.5979 C   0  0  0  0  0  0  0  0  0  0  0  0
    9.6211   -2.1159   21.9421 C   0  0  0  0  0  0  0  0  0  0  0  0
    9.6005   -4.6721   24.6283 C   0  0  0  0  0  0  0  0  0  0  0  0
    9.7569    0.2272   21.0944 C   0  0  0  0  0  0  0  0  0  0  0  0
    9.3091   -4.2618   23.1675 C   0  0  2  0  0  0  0  0  0  0  0  0
    7.7260    0.5256   18.0244 N   0  0  0  0  0  0  0  0  0  0  0  0
    8.7542    0.2746   18.8784 N   0  0  0  0  0  0  0  0  0  0  0  0
    9.4244   -0.7475   22.1076 N   0  0  0  0  0  0  0  0  0  0  0  0
    9.2156   -2.8241   23.0705 N   0  0  0  0  0  0  0  0  0  0  0  0
   10.0926   -2.6341   20.9308 O   0  0  0  0  0  0  0  0  0  0  0  0
    8.2044   -6.4293   21.7954 S   0  0  0  0  0  0  0  0  0  0  0  0
    5.6080   -3.4189   28.0217 H   0  0  0  0  0  0  0  0  0  0  0  0
    7.4324   -1.7919   27.5982 H   0  0  0  0  0  0  0  0  0  0  0  0
    5.6227   -5.6233   26.8824 H   0  0  0  0  0  0  0  0  0  0  0  0
    5.4302    1.6733   20.2175 H   0  0  0  0  0  0  0  0  0  0  0  0
    4.8018   -5.2229   21.8954 H   0  0  0  0  0  0  0  0  0  0  0  0
    9.2670   -2.3617   26.0413 H   0  0  0  0  0  0  0  0  0  0  0  0
    7.4526   -6.2026   25.3239 H   0  0  0  0  0  0  0  0  0  0  0  0
    7.3127    1.2163   21.7871 H   0  0  0  0  0  0  0  0  0  0  0  0
    6.4632   -3.5407   23.0920 H   0  0  0  0  0  0  0  0  0  0  0  0
    5.7876    1.1948   17.7845 H   0  0  0  0  0  0  0  0  0  0  0  0
    6.0884   -7.3191   20.9579 H   0  0  0  0  0  0  0  0  0  0  0  0
    9.7558   -5.7586   24.6859 H   0  0  0  0  0  0  0  0  0  0  0  0
   10.5392   -4.2257   24.9822 H   0  0  0  0  0  0  0  0  0  0  0  0
   10.6017   -0.1624   20.5160 H   0  0  0  0  0  0  0  0  0  0  0  0
   10.1012    1.1341   21.6025 H   0  0  0  0  0  0  0  0  0  0  0  0
   10.1681   -4.5527   22.5493 H   0  0  0  0  0  0  0  0  0  0  0  0
    9.0282   -0.4187   22.9826 H   0  0  0  0  0  0  0  0  0  0  0  0
    8.8808   -2.3075   23.8778 H   0  0  0  0  0  0  0  0  0  0  0  0
  1  2  1  0  0  0  0
  1  3  2  0  0  0  0
  2  6  2  0  0  0  0
  3  7  1  0  0  0  0
  4  8  2  0  0  0  0
  4 10  1  0  0  0  0
  5  9  1  0  0  0  0
  5 11  2  0  0  0  0
  6 12  1  0  0  0  0
  7 12  2  0  0  0  0
  8 13  1  0  0  0  0
  9 14  2  0  0  0  0
 10 19  2  0  0  0  0
 11 24  1  0  0  0  0
 12 16  1  0  0  0  0
 13 17  1  0  0  0  0
 13 20  2  0  0  0  0
 14 18  1  0  0  0  0
 14 24  1  0  0  0  0
 15 21  1  0  0  0  0
 15 22  1  0  0  0  0
 15 23  2  0  0  0  0
 16 18  1  0  0  0  0
 17 21  1  0  0  0  0
 18 22  1  0  0  0  0
 19 20  1  0  0  0  0
  1 25  1  0  0  0  0
  2 26  1  0  0  0  0
  3 27  1  0  0  0  0
  4 28  1  0  0  0  0
  5 29  1  0  0  0  0
  6 30  1  0  0  0  0
  7 31  1  0  0  0  0
  8 32  1  0  0  0  0
  9 33  1  0  0  0  0
 10 34  1  0  0  0  0
 11 35  1  0  0  0  0
 16 36  1  0  0  0  0
 16 37  1  0  0  0  0
 17 38  1  0  0  0  0
 17 39  1  0  0  0  0
 18 40  1  0  0  0  0
 21 41  1  0  0  0  0
 22 42  1  0  0  0  0
M  END
> <IC50 (uM)>

> <IC50 (uM) - std>

> <Average Inhibition @ 20 uM>

> <Average Inhibition @ 20 uM - std>

> <Average Inhibition @ 50 uM>

> <Average Inhibition @ 50 uM - std>
-3.45

> <Trypsin IC50 (uM)>
2.61

> <Relative Solubility @ 20 uM>

> <Relative Solubility @ 100 uM>

> <Hybrid2>
-9.271416

> <docked_fragment>
x1077

> <Mpro-_dock>
1.003721

> <site>
active-noncovalent

$$$$
JON-UIO-066ce08b-3
  -OEChem-05192003313D

 35 36  0     0  0  0  0  0  0999 V2000
    5.2205    0.7822   20.3387 C   0  0  0  0  0  0  0  0  0  0  0  0
    4.8311    1.1907   19.0680 C   0  0  0  0  0  0  0  0  0  0  0  0
    6.4628    0.1848   20.5206 C   0  0  0  0  0  0  0  0  0  0  0  0
    5.7134    0.9809   18.0205 C   0  0  0  0  0  0  0  0  0  0  0  0
    7.2720    0.0198   19.4081 C   0  0  0  0  0  0  0  0  0  0  0  0
    8.7582   -4.5935   24.6719 C   0  0  0  0  0  0  0  0  0  0  0  0
    9.2144   -0.3618   20.9295 C   0  0  0  0  0  0  0  0  0  0  0  0
    7.6665   -3.1693   22.9720 C   0  0  0  0  0  0  0  0  0  0  0  0
    9.8752   -2.4663   23.8926 C   0  0  0  0  0  0  0  0  0  0  0  0
    8.1429   -2.5240   21.6754 C   0  0  0  0  0  0  0  0  0  0  0  0
    9.4769   -1.1367   23.2617 C   0  0  0  0  0  0  0  0  0  0  0  0
    9.9444   -4.7968   25.5828 C   0  0  0  0  0  0  0  0  0  0  0  0
    8.6186   -0.6211   19.5672 C   0  0  0  0  0  0  0  0  0  0  0  0
    6.9282    0.4039   18.1583 N   0  0  0  0  0  0  0  0  0  0  0  0
    8.7815   -3.4453   23.8789 N   0  0  0  0  0  0  0  0  0  0  0  0
    8.9460   -1.3181   21.9100 N   0  0  0  0  0  0  0  0  0  0  0  0
    7.8430   -5.4200   24.6683 O   0  0  0  0  0  0  0  0  0  0  0  0
    9.8879    0.6538   21.1178 O   0  0  0  0  0  0  0  0  0  0  0  0
    4.5570    0.9292   21.1856 H   0  0  0  0  0  0  0  0  0  0  0  0
    3.8674    1.6586   18.9028 H   0  0  0  0  0  0  0  0  0  0  0  0
    6.7785   -0.1383   21.5068 H   0  0  0  0  0  0  0  0  0  0  0  0
    5.4572    1.2816   17.0100 H   0  0  0  0  0  0  0  0  0  0  0  0
    6.9744   -2.4962   23.5021 H   0  0  0  0  0  0  0  0  0  0  0  0
    7.0989   -4.0769   22.7341 H   0  0  0  0  0  0  0  0  0  0  0  0
   10.7597   -2.8704   23.3755 H   0  0  0  0  0  0  0  0  0  0  0  0
   10.1677   -2.3208   24.9461 H   0  0  0  0  0  0  0  0  0  0  0  0
    8.7717   -3.2271   21.1035 H   0  0  0  0  0  0  0  0  0  0  0  0
    7.2754   -2.2907   21.0382 H   0  0  0  0  0  0  0  0  0  0  0  0
    8.7601   -0.6281   23.9176 H   0  0  0  0  0  0  0  0  0  0  0  0
   10.3532   -0.4744   23.1812 H   0  0  0  0  0  0  0  0  0  0  0  0
    9.7437   -4.3231   26.5380 H   0  0  0  0  0  0  0  0  0  0  0  0
   10.8234   -4.3530   25.1262 H   0  0  0  0  0  0  0  0  0  0  0  0
   10.1063   -5.8607   25.7230 H   0  0  0  0  0  0  0  0  0  0  0  0
    8.5418   -1.6999   19.4209 H   0  0  0  0  0  0  0  0  0  0  0  0
    9.3142   -0.2533   18.8113 H   0  0  0  0  0  0  0  0  0  0  0  0
  1  2  1  0  0  0  0
  1  3  2  0  0  0  0
  2  4  2  0  0  0  0
  3  5  1  0  0  0  0
  4 14  1  0  0  0  0
  5 13  1  0  0  0  0
  5 14  2  0  0  0  0
  6 12  1  0  0  0  0
  6 15  1  0  0  0  0
  6 17  2  0  0  0  0
  7 13  1  0  0  0  0
  7 16  1  0  0  0  0
  7 18  2  0  0  0  0
  8 10  1  0  0  0  0
  8 15  1  0  0  0  0
  9 11  1  0  0  0  0
  9 15  1  0  0  0  0
 10 16  1  0  0  0  0
 11 16  1  0  0  0  0
  1 19  1  0  0  0  0
  2 20  1  0  0  0  0
  3 21  1  0  0  0  0
  4 22  1  0  0  0  0
  8 23  1  0  0  0  0
  8 24  1  0  0  0  0
  9 25  1  0  0  0  0
  9 26  1  0  0  0  0
 10 27  1  0  0  0  0
 10 28  1  0  0  0  0
 11 29  1  0  0  0  0
 11 30  1  0  0  0  0
 12 31  1  0  0  0  0
 12 32  1  0  0  0  0
 12 33  1  0  0  0  0
 13 34  1  0  0  0  0
 13 35  1  0  0  0  0
M  END
> <IC50 (uM)>

> <IC50 (uM) - std>

> <Average Inhibition @ 20 uM>

> <Average Inhibition @ 20 uM - std>
-0.517

> <Average Inhibition @ 50 uM>
1.67

> <Average Inhibition @ 50 uM - std>
3.52

> <Trypsin IC50 (uM)>
0.855

> <Relative Solubility @ 20 uM>
1.0

> <Relative Solubility @ 100 uM>
1.0

> <Hybrid2>
-9.234826

> <docked_fragment>
x0107

> <Mpro-_dock>
-0.430216

> <site>
active-noncovalent

$$$$
WAR-XCH-b72a1bbc-20
  -OEChem-05192003313D

 54 56  0     0  0  0  0  0  0999 V2000
    9.0805   -1.2653   24.4223 C   0  0  0  0  0  0  0  0  0  0  0  0
   10.0714   -2.0296   22.3557 C   0  0  0  0  0  0  0  0  0  0  0  0
    8.1936   -2.3415   24.3951 C   0  0  0  0  0  0  0  0  0  0  0  0
    9.1844   -3.1059   22.3284 C   0  0  0  0  0  0  0  0  0  0  0  0
   10.0194   -1.1094   23.4026 C   0  0  0  0  0  0  0  0  0  0  0  0
    8.2455   -3.2618   23.3482 C   0  0  0  0  0  0  0  0  0  0  0  0
   10.2285    7.8314   24.7270 C   0  0  0  0  0  0  0  0  0  0  0  0
   11.0535    6.9046   25.6096 C   0  0  0  0  0  0  0  0  0  0  0  0
    9.0532    7.1231   24.0573 C   0  0  0  0  0  0  0  0  0  0  0  0
   12.0345    5.9802   24.8926 C   0  0  0  0  0  0  0  0  0  0  0  0
   10.5957    1.8585   24.9454 C   0  0  0  0  0  0  0  0  0  0  0  0
   10.3148    2.1177   22.4425 C   0  0  0  0  0  0  0  0  0  0  0  0
   11.3659    0.5637   24.6834 C   0  0  0  0  0  0  0  0  0  0  0  0
   11.0905    0.8107   22.2463 C   0  0  0  0  0  0  0  0  0  0  0  0
    9.4122    6.2902   22.8379 C   0  0  0  0  0  0  0  0  0  0  0  0
   11.7882    5.6496   23.4283 C   0  0  0  0  0  0  0  0  0  0  0  0
   10.7164    2.8210   23.7508 C   0  0  0  0  0  0  0  0  0  0  0  0
    9.8719    4.0730   23.9754 C   0  0  0  0  0  0  0  0  0  0  0  0
   10.9042   -0.0363   23.4292 N   0  0  0  0  0  0  0  0  0  0  0  0
    5.8321   -3.9339   22.4379 N   0  0  0  0  0  0  0  0  0  0  0  0
   10.3950    5.1842   23.1104 N   0  3  0  0  0  0  0  0  0  0  0  0
    7.7314   -5.6750   22.5202 O   0  0  0  0  0  0  0  0  0  0  0  0
    6.6935   -4.8799   24.6739 O   0  0  0  0  0  0  0  0  0  0  0  0
    7.1353   -4.6088   23.3130 S   0  0  0  0  0  0  0  0  0  0  0  0
    9.0310   -0.5540   25.2428 H   0  0  0  0  0  0  0  0  0  0  0  0
   10.7998   -1.9181   21.5564 H   0  0  0  0  0  0  0  0  0  0  0  0
    7.4663   -2.4530   25.1947 H   0  0  0  0  0  0  0  0  0  0  0  0
    9.2338   -3.8167   21.5078 H   0  0  0  0  0  0  0  0  0  0  0  0
    9.8581    8.6668   25.3137 H   0  0  0  0  0  0  0  0  0  0  0  0
   10.8684    8.2365   23.9479 H   0  0  0  0  0  0  0  0  0  0  0  0
   11.5722    7.4832   26.4099 H   0  0  0  0  0  0  0  0  0  0  0  0
   10.3355    6.2601   26.1663 H   0  0  0  0  0  0  0  0  0  0  0  0
    8.5927    6.4633   24.8018 H   0  0  0  0  0  0  0  0  0  0  0  0
    8.2854    7.8599   23.7944 H   0  0  0  0  0  0  0  0  0  0  0  0
   13.0441    6.4374   24.9556 H   0  0  0  0  0  0  0  0  0  0  0  0
   12.1369    5.0354   25.4678 H   0  0  0  0  0  0  0  0  0  0  0  0
    9.5439    1.6246   25.1338 H   0  0  0  0  0  0  0  0  0  0  0  0
   10.9882    2.3357   25.8466 H   0  0  0  0  0  0  0  0  0  0  0  0
   10.5064    2.7798   21.5909 H   0  0  0  0  0  0  0  0  0  0  0  0
    9.2390    1.9043   22.4442 H   0  0  0  0  0  0  0  0  0  0  0  0
   12.4376    0.7739   24.6257 H   0  0  0  0  0  0  0  0  0  0  0  0
   11.1974   -0.1201   25.5195 H   0  0  0  0  0  0  0  0  0  0  0  0
   10.7124    0.3109   21.3539 H   0  0  0  0  0  0  0  0  0  0  0  0
   12.1499    1.0260   22.1014 H   0  0  0  0  0  0  0  0  0  0  0  0
    8.5180    5.8474   22.3360 H   0  0  0  0  0  0  0  0  0  0  0  0
    9.8753    6.9639   22.0799 H   0  0  0  0  0  0  0  0  0  0  0  0
   11.9558    6.5438   22.8105 H   0  0  0  0  0  0  0  0  0  0  0  0
   12.4885    4.8701   23.0940 H   0  0  0  0  0  0  0  0  0  0  0  0
   11.7680    3.1448   23.6665 H   0  0  0  0  0  0  0  0  0  0  0  0
    9.9282    4.4185   25.0113 H   0  0  0  0  0  0  0  0  0  0  0  0
    8.8274    3.9119   23.6946 H   0  0  0  0  0  0  0  0  0  0  0  0
    5.6749   -4.2628   21.4774 H   0  0  0  0  0  0  0  0  0  0  0  0
    4.9679   -3.7187   22.9497 H   0  0  0  0  0  0  0  0  0  0  0  0
   10.5092    4.6999   22.1399 H   0  0  0  0  0  0  0  0  0  0  0  0
  1  3  2  0  0  0  0
  1  5  1  0  0  0  0
  2  4  1  0  0  0  0
  2  5  2  0  0  0  0
  3  6  1  0  0  0  0
  4  6  2  0  0  0  0
  5 19  1  0  0  0  0
  6 24  1  0  0  0  0
  7  8  1  0  0  0  0
  7  9  1  0  0  0  0
  8 10  1  0  0  0  0
  9 15  1  0  0  0  0
 10 16  1  0  0  0  0
 11 13  1  0  0  0  0
 11 17  1  0  0  0  0
 12 14  1  0  0  0  0
 12 17  1  0  0  0  0
 13 19  1  0  0  0  0
 14 19  1  0  0  0  0
 15 21  1  0  0  0  0
 16 21  1  0  0  0  0
 17 18  1  0  0  0  0
 18 21  1  0  0  0  0
 20 24  1  0  0  0  0
 22 24  2  0  0  0  0
 23 24  2  0  0  0  0
  1 25  1  0  0  0  0
  2 26  1  0  0  0  0
  3 27  1  0  0  0  0
  4 28  1  0  0  0  0
  7 29  1  0  0  0  0
  7 30  1  0  0  0  0
  8 31  1  0  0  0  0
  8 32  1  0  0  0  0
  9 33  1  0  0  0  0
  9 34  1  0  0  0  0
 10 35  1  0  0  0  0
 10 36  1  0  0  0  0
 11 37  1  0  0  0  0
 11 38  1  0  0  0  0
 12 39  1  0  0  0  0
 12 40  1  0  0  0  0
 13 41  1  0  0  0  0
 13 42  1  0  0  0  0
 14 43  1  0  0  0  0
 14 44  1  0  0  0  0
 15 45  1  0  0  0  0
 15 46  1  0  0  0  0
 16 47  1  0  0  0  0
 16 48  1  0  0  0  0
 17 49  1  0  0  0  0
 18 50  1  0  0  0  0
 18 51  1  0  0  0  0
 20 52  1  0  0  0  0
 20 53  1  0  0  0  0
 21 54  1  0  0  0  0
M  CHG  1  21   1
M  END
> <IC50 (uM)>

> <IC50 (uM) - std>

> <Average Inhibition @ 20 uM>

> <Average Inhibition @ 20 uM - std>
-5.53

> <Average Inhibition @ 50 uM>
5.18

> <Average Inhibition @ 50 uM - std>
-0.987

> <Trypsin IC50 (uM)>
1.55

> <Relative Solubility @ 20 uM>
0.99

> <Relative Solubility @ 100 uM>
0.91

> <Hybrid2>
-9.220327

> <docked_fragment>
x0104

> <Mpro-_dock>
4.040286

> <site>
active-noncovalent

$$$$
AAR-POS-dddeddbf-5
  -OEChem-05192003313D

 65 67  0     1  0  0  0  0  0999 V2000
    7.3392   -5.4354   22.1724 C   0  0  0  0  0  0  0  0  0  0  0  0
    6.5170   -4.6415   21.1830 C   0  0  0  0  0  0  0  0  0  0  0  0
    9.5964   -3.3259   23.7146 C   0  0  0  0  0  0  0  0  0  0  0  0
   13.1092   -1.7336   25.9580 C   0  0  0  0  0  0  0  0  0  0  0  0
   13.0322   -0.7747   24.7756 C   0  0  0  0  0  0  0  0  0  0  0  0
   12.9053   -3.2064   25.6117 C   0  0  0  0  0  0  0  0  0  0  0  0
   11.7272   -0.8254   23.9835 C   0  0  0  0  0  0  0  0  0  0  0  0
   11.4588   -3.5348   25.2517 C   0  0  0  0  0  0  0  0  0  0  0  0
   11.6137   -2.0645   23.0952 C   0  0  0  0  0  0  0  0  0  0  0  0
    5.6179   -5.9903   24.5247 C   0  0  0  0  0  0  0  0  0  0  0  0
    7.4151   -5.0832   26.0217 C   0  0  0  0  0  0  0  0  0  0  0  0
    5.1177   -6.7852   25.7248 C   0  0  0  0  0  0  0  0  0  0  0  0
    6.8141   -5.9286   27.1380 C   0  0  0  0  0  0  0  0  0  0  0  0
    5.5615    0.8158   18.8030 C   0  0  0  0  0  0  0  0  0  0  0  0
   11.1166   -3.3342   23.7797 C   0  0  0  0  0  0  0  0  0  0  0  0
    7.1185   -5.7045   24.6521 C   0  0  0  0  0  0  0  0  0  0  0  0
    6.2446    1.1085   20.1302 C   0  0  1  0  0  0  0  0  0  0  0  0
    6.5738   -1.3408   20.0305 C   0  0  2  0  0  0  0  0  0  0  0  0
    5.5543    2.2483   20.8677 C   0  0  0  0  0  0  0  0  0  0  0  0
    6.9153   -0.1673   22.2224 C   0  0  0  0  0  0  0  0  0  0  0  0
    7.6052   -4.8025   23.5213 C   0  0  1  0  0  0  0  0  0  0  0  0
    6.9955   -3.4207   20.7607 N   0  0  0  0  0  0  0  0  0  0  0  0
    6.0672   -2.6373   20.4776 N   0  0  0  0  0  0  0  0  0  0  0  0
    9.0315   -4.5816   23.5975 N   0  0  0  0  0  0  0  0  0  0  0  0
    6.1564   -0.1817   20.9245 N   0  3  1  0  0  0  0  0  0  0  0  0
    7.7062   -6.5537   21.8370 O   0  0  0  0  0  0  0  0  0  0  0  0
    5.4578   -5.1706   20.8531 O   0  0  0  0  0  0  0  0  0  0  0  0
    8.9951   -2.2596   23.7687 O   0  0  0  0  0  0  0  0  0  0  0  0
    5.4110   -6.1014   26.9425 O   0  0  0  0  0  0  0  0  0  0  0  0
    6.0910   -0.8453   18.3449 S   0  0  0  0  0  0  0  0  0  0  0  0
   14.0984   -1.6218   26.4197 H   0  0  0  0  0  0  0  0  0  0  0  0
   12.3818   -1.4299   26.7212 H   0  0  0  0  0  0  0  0  0  0  0  0
   13.1598    0.2444   25.1622 H   0  0  0  0  0  0  0  0  0  0  0  0
   13.8814   -0.9530   24.1044 H   0  0  0  0  0  0  0  0  0  0  0  0
   13.5928   -3.5218   24.8184 H   0  0  0  0  0  0  0  0  0  0  0  0
   13.1694   -3.7900   26.5028 H   0  0  0  0  0  0  0  0  0  0  0  0
   10.8600   -0.7296   24.6465 H   0  0  0  0  0  0  0  0  0  0  0  0
   11.7126    0.0540   23.3267 H   0  0  0  0  0  0  0  0  0  0  0  0
   11.2761   -4.5907   25.4951 H   0  0  0  0  0  0  0  0  0  0  0  0
   10.7730   -2.9701   25.8970 H   0  0  0  0  0  0  0  0  0  0  0  0
   10.9502   -1.8219   22.2541 H   0  0  0  0  0  0  0  0  0  0  0  0
   12.5934   -2.2670   22.6428 H   0  0  0  0  0  0  0  0  0  0  0  0
    5.4074   -6.5370   23.5987 H   0  0  0  0  0  0  0  0  0  0  0  0
    5.0728   -5.0388   24.4777 H   0  0  0  0  0  0  0  0  0  0  0  0
    6.9779   -4.0774   26.0636 H   0  0  0  0  0  0  0  0  0  0  0  0
    8.4957   -4.9795   26.1708 H   0  0  0  0  0  0  0  0  0  0  0  0
    4.0315   -6.9064   25.6637 H   0  0  0  0  0  0  0  0  0  0  0  0
    5.5614   -7.7873   25.7526 H   0  0  0  0  0  0  0  0  0  0  0  0
    7.2978   -6.9106   27.1992 H   0  0  0  0  0  0  0  0  0  0  0  0
    6.9577   -5.4290   28.1013 H   0  0  0  0  0  0  0  0  0  0  0  0
    4.4702    0.8241   18.8926 H   0  0  0  0  0  0  0  0  0  0  0  0
    5.8514    1.5357   18.0323 H   0  0  0  0  0  0  0  0  0  0  0  0
   11.4307   -4.1885   23.2110 H   0  0  0  0  0  0  0  0  0  0  0  0
    7.6599   -6.6566   24.5791 H   0  0  0  0  0  0  0  0  0  0  0  0
    7.3102    1.3297   19.9871 H   0  0  0  0  0  0  0  0  0  0  0  0
    7.6689   -1.3666   20.0509 H   0  0  0  0  0  0  0  0  0  0  0  0
    4.4974    2.0186   21.0044 H   0  0  0  0  0  0  0  0  0  0  0  0
    5.6439    3.1718   20.2953 H   0  0  0  0  0  0  0  0  0  0  0  0
    6.0139    2.3927   21.8457 H   0  0  0  0  0  0  0  0  0  0  0  0
    7.9691   -0.0013   21.9912 H   0  0  0  0  0  0  0  0  0  0  0  0
    6.5151    0.6432   22.8345 H   0  0  0  0  0  0  0  0  0  0  0  0
    6.7675   -1.1346   22.7065 H   0  0  0  0  0  0  0  0  0  0  0  0
    7.1363   -3.8154   23.5752 H   0  0  0  0  0  0  0  0  0  0  0  0
    9.6481   -5.3878   23.5633 H   0  0  0  0  0  0  0  0  0  0  0  0
    5.1651   -0.3386   21.1510 H   0  0  0  0  0  0  0  0  0  0  0  0
  1  2  1  0  0  0  0
  1 21  1  0  0  0  0
  1 26  2  0  0  0  0
  2 22  1  0  0  0  0
  2 27  2  0  0  0  0
  3 15  1  0  0  0  0
  3 24  1  0  0  0  0
  3 28  2  0  0  0  0
  4  5  1  0  0  0  0
  4  6  1  0  0  0  0
  5  7  1  0  0  0  0
  6  8  1  0  0  0  0
  7  9  1  0  0  0  0
  8 15  1  0  0  0  0
  9 15  1  0  0  0  0
 10 12  1  0  0  0  0
 10 16  1  0  0  0  0
 11 13  1  0  0  0  0
 11 16  1  0  0  0  0
 12 29  1  0  0  0  0
 13 29  1  0  0  0  0
 14 17  1  0  0  0  0
 14 30  1  0  0  0  0
 16 21  1  0  0  0  0
 17 19  1  0  0  0  0
 17 25  1  0  0  0  0
 18 23  1  0  0  0  0
 18 25  1  0  0  0  0
 18 30  1  0  0  0  0
 20 25  1  0  0  0  0
 21 24  1  0  0  0  0
 22 23  2  0  0  0  0
  4 31  1  0  0  0  0
  4 32  1  0  0  0  0
  5 33  1  0  0  0  0
  5 34  1  0  0  0  0
  6 35  1  0  0  0  0
  6 36  1  0  0  0  0
  7 37  1  0  0  0  0
  7 38  1  0  0  0  0
  8 39  1  0  0  0  0
  8 40  1  0  0  0  0
  9 41  1  0  0  0  0
  9 42  1  0  0  0  0
 10 43  1  0  0  0  0
 10 44  1  0  0  0  0
 11 45  1  0  0  0  0
 11 46  1  0  0  0  0
 12 47  1  0  0  0  0
 12 48  1  0  0  0  0
 13 49  1  0  0  0  0
 13 50  1  0  0  0  0
 14 51  1  0  0  0  0
 14 52  1  0  0  0  0
 15 53  1  0  0  0  0
 16 54  1  0  0  0  0
 17 55  1  0  0  0  0
 18 56  1  0  0  0  0
 19 57  1  0  0  0  0
 19 58  1  0  0  0  0
 19 59  1  0  0  0  0
 20 60  1  0  0  0  0
 20 61  1  0  0  0  0
 20 62  1  0  0  0  0
 21 63  1  0  0  0  0
 24 64  1  0  0  0  0
 25 65  1  0  0  0  0
M  CHG  1  25   1
M  END
> <IC50 (uM)>

> <IC50 (uM) - std>

> <Average Inhibition @ 20 uM>

> <Average Inhibition @ 20 uM - std>

> <Average Inhibition @ 50 uM>

> <Average Inhibition @ 50 uM - std>
16.8

> <Trypsin IC50 (uM)>
3.67

> <Relative Solubility @ 20 uM>

> <Relative Solubility @ 100 uM>

> <Hybrid2>
-9.213070

> <docked_fragment>
x0749

> <Mpro-_dock>
2.918438

> <site>
active-covalent

$$$$
BAR-COM-4e090d3a-52
  -OEChem-05192003313D

 37 38  0     0  0  0  0  0  0999 V2000
    6.0644    0.5954   17.2907 C   0  0  0  0  0  0  0  0  0  0  0  0
    7.1731   -0.0138   17.8677 C   0  0  0  0  0  0  0  0  0  0  0  0
    5.0573    1.1054   18.1024 C   0  0  0  0  0  0  0  0  0  0  0  0
   12.9790   -1.7024   23.1375 C   0  0  0  0  0  0  0  0  0  0  0  0
   13.1906    0.4155   23.1425 C   0  0  0  0  0  0  0  0  0  0  0  0
   11.7222   -1.2069   22.8817 C   0  0  0  0  0  0  0  0  0  0  0  0
    7.2266   -0.0873   19.2502 C   0  0  0  0  0  0  0  0  0  0  0  0
    5.2054    0.9816   19.4745 C   0  0  0  0  0  0  0  0  0  0  0  0
    8.6332   -0.8999   21.1846 C   0  0  0  0  0  0  0  0  0  0  0  0
   10.8438    1.1391   22.6688 C   0  0  0  0  0  0  0  0  0  0  0  0
   10.4100   -1.8937   22.6352 C   0  0  0  0  0  0  0  0  0  0  0  0
    4.4265    1.3226   21.6955 C   0  0  0  0  0  0  0  0  0  0  0  0
    3.2432    1.8883   22.4454 C   0  0  0  0  0  0  0  0  0  0  0  0
   13.8884   -0.6874   23.2992 N   0  0  0  0  0  0  0  0  0  0  0  0
    6.2678    0.3964   20.0715 N   0  0  0  0  0  0  0  0  0  0  0  0
   11.8735    0.1511   22.8884 N   0  0  0  0  0  0  0  0  0  0  0  0
    8.3470   -0.7022   19.8217 N   0  0  0  0  0  0  0  0  0  0  0  0
    9.8577   -1.5568   21.3433 N   0  0  0  0  0  0  0  0  0  0  0  0
    7.9280   -0.5564   22.1302 O   0  0  0  0  0  0  0  0  0  0  0  0
    4.2255    1.4754   20.2955 O   0  0  0  0  0  0  0  0  0  0  0  0
    3.2176    1.3944   23.7075 F   0  0  0  0  0  0  0  0  0  0  0  0
    3.3614    3.2347   22.5474 F   0  0  0  0  0  0  0  0  0  0  0  0
    5.9851    0.6727   16.2105 H   0  0  0  0  0  0  0  0  0  0  0  0
    7.9635   -0.4143   17.2414 H   0  0  0  0  0  0  0  0  0  0  0  0
    4.1862    1.5833   17.6678 H   0  0  0  0  0  0  0  0  0  0  0  0
   13.2776   -2.7380   23.2141 H   0  0  0  0  0  0  0  0  0  0  0  0
   13.5801    1.4227   23.2014 H   0  0  0  0  0  0  0  0  0  0  0  0
   10.8037    1.3521   21.5973 H   0  0  0  0  0  0  0  0  0  0  0  0
    9.8838    0.7481   23.0172 H   0  0  0  0  0  0  0  0  0  0  0  0
   11.0867    2.0452   23.2310 H   0  0  0  0  0  0  0  0  0  0  0  0
   10.5299   -2.9818   22.6774 H   0  0  0  0  0  0  0  0  0  0  0  0
    9.6730   -1.6179   23.3967 H   0  0  0  0  0  0  0  0  0  0  0  0
    5.3498    1.8426   21.9662 H   0  0  0  0  0  0  0  0  0  0  0  0
    4.5394    0.2548   21.9013 H   0  0  0  0  0  0  0  0  0  0  0  0
    2.2950    1.6532   21.9546 H   0  0  0  0  0  0  0  0  0  0  0  0
    9.0534   -1.0570   19.1719 H   0  0  0  0  0  0  0  0  0  0  0  0
   10.3830   -1.8086   20.5120 H   0  0  0  0  0  0  0  0  0  0  0  0
  1  2  2  0  0  0  0
  1  3  1  0  0  0  0
  2  7  1  0  0  0  0
  3  8  2  0  0  0  0
  4  6  2  0  0  0  0
  4 14  1  0  0  0  0
  5 14  2  0  0  0  0
  5 16  1  0  0  0  0
  6 11  1  0  0  0  0
  6 16  1  0  0  0  0
  7 15  2  0  0  0  0
  7 17  1  0  0  0  0
  8 15  1  0  0  0  0
  8 20  1  0  0  0  0
  9 17  1  0  0  0  0
  9 18  1  0  0  0  0
  9 19  2  0  0  0  0
 10 16  1  0  0  0  0
 11 18  1  0  0  0  0
 12 13  1  0  0  0  0
 12 20  1  0  0  0  0
 13 21  1  0  0  0  0
 13 22  1  0  0  0  0
  1 23  1  0  0  0  0
  2 24  1  0  0  0  0
  3 25  1  0  0  0  0
  4 26  1  0  0  0  0
  5 27  1  0  0  0  0
 10 28  1  0  0  0  0
 10 29  1  0  0  0  0
 10 30  1  0  0  0  0
 11 31  1  0  0  0  0
 11 32  1  0  0  0  0
 12 33  1  0  0  0  0
 12 34  1  0  0  0  0
 13 35  1  0  0  0  0
 17 36  1  0  0  0  0
 18 37  1  0  0  0  0
M  END
> <IC50 (uM)>

> <IC50 (uM) - std>

> <Average Inhibition @ 20 uM>

> <Average Inhibition @ 20 uM - std>

> <Average Inhibition @ 50 uM>

> <Average Inhibition @ 50 uM - std>
27.6

> <Trypsin IC50 (uM)>
5.57

> <Relative Solubility @ 20 uM>

> <Relative Solubility @ 100 uM>

> <Hybrid2>
-9.207413

> <docked_fragment>
x1093

> <Mpro-_dock>
1.514276

> <site>
active-noncovalent

$$$$
BAR-COM-4e090d3a-22
  -OEChem-05192003313D

 38 40  0     0  0  0  0  0  0999 V2000
   13.5587   -0.5307   21.9378 C   0  0  0  0  0  0  0  0  0  0  0  0
   12.7746   -1.6336   22.2521 C   0  0  0  0  0  0  0  0  0  0  0  0
   13.1370    0.7416   22.3132 C   0  0  0  0  0  0  0  0  0  0  0  0
   11.5711   -1.4621   22.9407 C   0  0  0  0  0  0  0  0  0  0  0  0
   10.2782    2.3199   24.0787 C   0  0  0  0  0  0  0  0  0  0  0  0
    6.9236    5.1618   22.6969 C   0  0  0  0  0  0  0  0  0  0  0  0
    7.2090    5.7832   21.5040 C   0  0  0  0  0  0  0  0  0  0  0  0
   11.9265    0.9138   23.0059 C   0  0  0  0  0  0  0  0  0  0  0  0
   11.4781    2.1831   23.3957 C   0  0  0  0  0  0  0  0  0  0  0  0
   11.1253   -0.2015   23.3284 C   0  0  0  0  0  0  0  0  0  0  0  0
    9.5634    1.1708   24.3494 C   0  0  0  0  0  0  0  0  0  0  0  0
    8.8324    6.0638   22.9678 C   0  0  0  0  0  0  0  0  0  0  0  0
   11.0593    5.4240   23.9722 C   0  0  0  0  0  0  0  0  0  0  0  0
    7.6778    0.0560   25.2754 C   0  0  0  0  0  0  0  0  0  0  0  0
   12.2543    3.4282   23.1012 C   0  0  0  0  0  0  0  0  0  0  0  0
   10.1522    6.5472   23.5077 C   0  0  0  0  0  0  0  0  0  0  0  0
    7.9379    5.3404   23.6040 N   0  0  0  0  0  0  0  0  0  0  0  0
    9.9604   -0.0718   23.9911 N   0  0  0  0  0  0  0  0  0  0  0  0
    8.4347    6.3570   21.6930 N   0  0  0  0  0  0  0  0  0  0  0  0
   11.3991    4.5723   22.9270 N   0  0  0  0  0  0  0  0  0  0  0  0
   11.4421    5.2976   25.1325 O   0  0  0  0  0  0  0  0  0  0  0  0
    8.3739    1.2706   25.0222 O   0  0  0  0  0  0  0  0  0  0  0  0
   14.4946   -0.6601   21.4028 H   0  0  0  0  0  0  0  0  0  0  0  0
   13.0962   -2.6299   21.9627 H   0  0  0  0  0  0  0  0  0  0  0  0
   13.7696    1.5873   22.0550 H   0  0  0  0  0  0  0  0  0  0  0  0
   10.9744   -2.3417   23.1751 H   0  0  0  0  0  0  0  0  0  0  0  0
    9.9130    3.2930   24.3904 H   0  0  0  0  0  0  0  0  0  0  0  0
    6.0387    4.5962   22.9491 H   0  0  0  0  0  0  0  0  0  0  0  0
    6.6724    5.8669   20.5703 H   0  0  0  0  0  0  0  0  0  0  0  0
    6.7519    0.2713   25.8143 H   0  0  0  0  0  0  0  0  0  0  0  0
    8.3099   -0.6107   25.8674 H   0  0  0  0  0  0  0  0  0  0  0  0
    7.4393   -0.4223   24.3224 H   0  0  0  0  0  0  0  0  0  0  0  0
   12.9533    3.6551   23.9159 H   0  0  0  0  0  0  0  0  0  0  0  0
   12.8508    3.3184   22.1873 H   0  0  0  0  0  0  0  0  0  0  0  0
   10.6746    7.1275   22.7364 H   0  0  0  0  0  0  0  0  0  0  0  0
    9.9807    7.2300   24.3494 H   0  0  0  0  0  0  0  0  0  0  0  0
    8.9529    6.8968   21.0124 H   0  0  0  0  0  0  0  0  0  0  0  0
   11.0271    4.7664   21.9992 H   0  0  0  0  0  0  0  0  0  0  0  0
  1  2  1  0  0  0  0
  1  3  2  0  0  0  0
  2  4  2  0  0  0  0
  3  8  1  0  0  0  0
  4 10  1  0  0  0  0
  5  9  2  0  0  0  0
  5 11  1  0  0  0  0
  6  7  2  0  0  0  0
  6 17  1  0  0  0  0
  7 19  1  0  0  0  0
  8  9  1  0  0  0  0
  8 10  2  0  0  0  0
  9 15  1  0  0  0  0
 10 18  1  0  0  0  0
 11 18  2  0  0  0  0
 11 22  1  0  0  0  0
 12 16  1  0  0  0  0
 12 17  2  0  0  0  0
 12 19  1  0  0  0  0
 13 16  1  0  0  0  0
 13 20  1  0  0  0  0
 13 21  2  0  0  0  0
 14 22  1  0  0  0  0
 15 20  1  0  0  0  0
  1 23  1  0  0  0  0
  2 24  1  0  0  0  0
  3 25  1  0  0  0  0
  4 26  1  0  0  0  0
  5 27  1  0  0  0  0
  6 28  1  0  0  0  0
  7 29  1  0  0  0  0
 14 30  1  0  0  0  0
 14 31  1  0  0  0  0
 14 32  1  0  0  0  0
 15 33  1  0  0  0  0
 15 34  1  0  0  0  0
 16 35  1  0  0  0  0
 16 36  1  0  0  0  0
 19 37  1  0  0  0  0
 20 38  1  0  0  0  0
M  END
> <IC50 (uM)>

> <IC50 (uM) - std>

> <Average Inhibition @ 20 uM>

> <Average Inhibition @ 20 uM - std>

> <Average Inhibition @ 50 uM>

> <Average Inhibition @ 50 uM - std>
-23.6

> <Trypsin IC50 (uM)>
6.33

> <Relative Solubility @ 20 uM>

> <Relative Solubility @ 100 uM>

> <Hybrid2>
-9.205212

> <docked_fragment>
x0104

> <Mpro-_dock>
0.739302

> <site>
active-noncovalent

$$$$
DUN-NEW-f8ce3686-13
  -OEChem-05192003313D

 47 49  0     0  0  0  0  0  0999 V2000
   13.3076   -0.5653   21.7956 C   0  0  0  0  0  0  0  0  0  0  0  0
   12.3563   -1.3574   22.4355 C   0  0  0  0  0  0  0  0  0  0  0  0
   13.3446    0.8183   22.0035 C   0  0  0  0  0  0  0  0  0  0  0  0
   11.4142   -0.7946   23.3012 C   0  0  0  0  0  0  0  0  0  0  0  0
   11.0861    2.7057   24.1708 C   0  0  0  0  0  0  0  0  0  0  0  0
   12.4047    1.4082   22.8719 C   0  0  0  0  0  0  0  0  0  0  0  0
   12.1548    2.7404   23.3051 C   0  0  0  0  0  0  0  0  0  0  0  0
   11.4631    0.5898   23.4995 C   0  0  0  0  0  0  0  0  0  0  0  0
    8.3760    0.6321   24.2445 C   0  0  0  0  0  0  0  0  0  0  0  0
    9.8504    6.0829   23.2284 C   0  0  0  0  0  0  0  0  0  0  0  0
    6.0320   -0.1532   24.1461 C   0  0  0  0  0  0  0  0  0  0  0  0
    7.0522    0.1598   26.3629 C   0  0  0  0  0  0  0  0  0  0  0  0
    5.4395   -1.4587   24.6573 C   0  0  0  0  0  0  0  0  0  0  0  0
    6.4122   -1.1572   26.7836 C   0  0  0  0  0  0  0  0  0  0  0  0
    8.5948    6.0670   22.4213 C   0  0  0  0  0  0  0  0  0  0  0  0
   12.9014    3.9499   22.9032 C   0  0  0  0  0  0  0  0  0  0  0  0
    9.5674    0.9644   25.1068 C   0  0  0  0  0  0  0  0  0  0  0  0
   12.2001    5.2706   23.2688 C   0  0  0  0  0  0  0  0  0  0  0  0
   10.6759    1.4042   24.2819 N   0  0  0  0  0  0  0  0  0  0  0  0
    7.2315    0.1949   24.9076 N   0  0  0  0  0  0  0  0  0  0  0  0
   10.9017    5.3817   22.6599 N   0  0  0  0  0  0  0  0  0  0  0  0
    8.4623    0.7539   23.0199 O   0  0  0  0  0  0  0  0  0  0  0  0
    9.8760    6.6874   24.2941 O   0  0  0  0  0  0  0  0  0  0  0  0
    5.1955   -1.3730   26.0637 O   0  0  0  0  0  0  0  0  0  0  0  0
   14.0297   -1.0260   21.1266 H   0  0  0  0  0  0  0  0  0  0  0  0
   12.3452   -2.4302   22.2596 H   0  0  0  0  0  0  0  0  0  0  0  0
   14.0920    1.4225   21.4973 H   0  0  0  0  0  0  0  0  0  0  0  0
   10.6760   -1.4162   23.7967 H   0  0  0  0  0  0  0  0  0  0  0  0
   10.5839    3.4960   24.7132 H   0  0  0  0  0  0  0  0  0  0  0  0
    6.2492   -0.2251   23.0764 H   0  0  0  0  0  0  0  0  0  0  0  0
    5.3213    0.6683   24.2941 H   0  0  0  0  0  0  0  0  0  0  0  0
    6.3894    0.9970   26.6112 H   0  0  0  0  0  0  0  0  0  0  0  0
    7.9918    0.3040   26.8988 H   0  0  0  0  0  0  0  0  0  0  0  0
    4.4806   -1.6505   24.1656 H   0  0  0  0  0  0  0  0  0  0  0  0
    6.0978   -2.3102   24.4473 H   0  0  0  0  0  0  0  0  0  0  0  0
    7.0909   -2.0035   26.6237 H   0  0  0  0  0  0  0  0  0  0  0  0
    6.1648   -1.1266   27.8495 H   0  0  0  0  0  0  0  0  0  0  0  0
    7.9403    5.2187   22.6784 H   0  0  0  0  0  0  0  0  0  0  0  0
    7.9806    6.9676   22.5815 H   0  0  0  0  0  0  0  0  0  0  0  0
    8.7365    6.0035   21.3305 H   0  0  0  0  0  0  0  0  0  0  0  0
   13.0690    3.9465   21.8080 H   0  0  0  0  0  0  0  0  0  0  0  0
   13.9207    3.9578   23.3396 H   0  0  0  0  0  0  0  0  0  0  0  0
    9.8580    0.0750   25.6611 H   0  0  0  0  0  0  0  0  0  0  0  0
    9.2909    1.7587   25.7965 H   0  0  0  0  0  0  0  0  0  0  0  0
   12.0494    5.3486   24.3502 H   0  0  0  0  0  0  0  0  0  0  0  0
   12.7923    6.1324   22.9437 H   0  0  0  0  0  0  0  0  0  0  0  0
   10.7471    4.9211   21.7645 H   0  0  0  0  0  0  0  0  0  0  0  0
  1  2  1  0  0  0  0
  1  3  2  0  0  0  0
  2  4  2  0  0  0  0
  3  6  1  0  0  0  0
  4  8  1  0  0  0  0
  5  7  2  0  0  0  0
  5 19  1  0  0  0  0
  6  7  1  0  0  0  0
  6  8  2  0  0  0  0
  7 16  1  0  0  0  0
  8 19  1  0  0  0  0
  9 17  1  0  0  0  0
  9 20  1  0  0  0  0
  9 22  2  0  0  0  0
 10 15  1  0  0  0  0
 10 21  1  0  0  0  0
 10 23  2  0  0  0  0
 11 13  1  0  0  0  0
 11 20  1  0  0  0  0
 12 14  1  0  0  0  0
 12 20  1  0  0  0  0
 13 24  1  0  0  0  0
 14 24  1  0  0  0  0
 16 18  1  0  0  0  0
 17 19  1  0  0  0  0
 18 21  1  0  0  0  0
  1 25  1  0  0  0  0
  2 26  1  0  0  0  0
  3 27  1  0  0  0  0
  4 28  1  0  0  0  0
  5 29  1  0  0  0  0
 11 30  1  0  0  0  0
 11 31  1  0  0  0  0
 12 32  1  0  0  0  0
 12 33  1  0  0  0  0
 13 34  1  0  0  0  0
 13 35  1  0  0  0  0
 14 36  1  0  0  0  0
 14 37  1  0  0  0  0
 15 38  1  0  0  0  0
 15 39  1  0  0  0  0
 15 40  1  0  0  0  0
 16 41  1  0  0  0  0
 16 42  1  0  0  0  0
 17 43  1  0  0  0  0
 17 44  1  0  0  0  0
 18 45  1  0  0  0  0
 18 46  1  0  0  0  0
 21 47  1  0  0  0  0
M  END
> <IC50 (uM)>

> <IC50 (uM) - std>

> <Average Inhibition @ 20 uM>

> <Average Inhibition @ 20 uM - std>

> <Average Inhibition @ 50 uM>

> <Average Inhibition @ 50 uM - std>
3.44

> <Trypsin IC50 (uM)>
2.95

> <Relative Solubility @ 20 uM>

> <Relative Solubility @ 100 uM>

> <Hybrid2>
-9.162056

> <docked_fragment>
x0104

> <Mpro-_dock>
0.718361

> <site>
active-noncovalent

$$$$
BAR-COM-4e090d3a-27
  -OEChem-05192003313D

 56 58  0     1  0  0  0  0  0999 V2000
   13.3073   -1.7547   23.1801 C   0  0  0  0  0  0  0  0  0  0  0  0
   13.5025   -0.5780   23.9032 C   0  0  0  0  0  0  0  0  0  0  0  0
   12.0174   -2.2499   22.9887 C   0  0  0  0  0  0  0  0  0  0  0  0
   12.4078    0.1035   24.4351 C   0  0  0  0  0  0  0  0  0  0  0  0
    4.3472   -5.9685   27.1528 C   0  0  0  0  0  0  0  0  0  0  0  0
    5.2406   -7.0164   27.1171 C   0  0  0  0  0  0  0  0  0  0  0  0
    6.0849   -4.4840   27.0754 C   0  0  0  0  0  0  0  0  0  0  0  0
   10.9227   -1.5684   23.5205 C   0  0  0  0  0  0  0  0  0  0  0  0
   11.1179   -0.3917   24.2437 C   0  0  0  0  0  0  0  0  0  0  0  0
    6.9785   -5.5318   27.0404 C   0  0  0  0  0  0  0  0  0  0  0  0
    8.8241    2.3367   24.7643 C   0  0  0  0  0  0  0  0  0  0  0  0
    8.9511   -3.5132   25.2773 C   0  0  0  0  0  0  0  0  0  0  0  0
    7.9548    5.8794   25.2284 C   0  0  0  0  0  0  0  0  0  0  0  0
    9.4206    5.9914   24.8285 C   0  0  0  0  0  0  0  0  0  0  0  0
    7.5779    4.4878   24.7442 C   0  0  0  0  0  0  0  0  0  0  0  0
    9.9536    4.5896   25.0890 C   0  0  0  0  0  0  0  0  0  0  0  0
    9.1825   -0.8650   21.0954 C   0  0  0  0  0  0  0  0  0  0  0  0
    8.4558   -5.2714   26.9774 C   0  0  0  0  0  0  0  0  0  0  0  0
   10.1804    1.6927   24.9013 C   0  0  0  0  0  0  0  0  0  0  0  0
    9.1810   -2.2124   21.8072 C   0  0  0  0  0  0  0  0  0  0  0  0
    9.5494   -2.1133   23.3061 C   0  0  1  0  0  0  0  0  0  0  0  0
    4.7533   -4.6835   27.1326 N   0  0  0  0  0  0  0  0  0  0  0  0
    6.5724   -6.8168   27.0603 N   0  0  0  0  0  0  0  0  0  0  0  0
    8.8066    3.7162   24.8613 N   0  0  0  0  0  0  0  0  0  0  0  0
    8.8747   -4.8495   25.6607 N   0  0  0  0  0  0  0  0  0  0  0  0
    9.3807   -3.3991   23.9632 N   0  0  0  0  0  0  0  0  0  0  0  0
    7.8218    1.6463   24.5735 O   0  0  0  0  0  0  0  0  0  0  0  0
    8.6748   -2.5625   26.0077 O   0  0  0  0  0  0  0  0  0  0  0  0
   10.0502    0.2916   24.7751 O   0  0  0  0  0  0  0  0  0  0  0  0
   14.1596   -2.2860   22.7662 H   0  0  0  0  0  0  0  0  0  0  0  0
   14.5070   -0.1933   24.0528 H   0  0  0  0  0  0  0  0  0  0  0  0
   11.8761   -3.1683   22.4250 H   0  0  0  0  0  0  0  0  0  0  0  0
   12.5661    1.0196   24.9976 H   0  0  0  0  0  0  0  0  0  0  0  0
    3.2772   -6.1297   27.1987 H   0  0  0  0  0  0  0  0  0  0  0  0
    4.9136   -8.0486   27.1332 H   0  0  0  0  0  0  0  0  0  0  0  0
    6.4041   -3.4486   27.0594 H   0  0  0  0  0  0  0  0  0  0  0  0
    7.8542    5.9429   26.3183 H   0  0  0  0  0  0  0  0  0  0  0  0
    7.3389    6.6615   24.7759 H   0  0  0  0  0  0  0  0  0  0  0  0
    9.5037    6.2371   23.7632 H   0  0  0  0  0  0  0  0  0  0  0  0
    9.9519    6.7546   25.4039 H   0  0  0  0  0  0  0  0  0  0  0  0
    6.7730    4.0318   25.3282 H   0  0  0  0  0  0  0  0  0  0  0  0
    7.2883    4.4936   23.6875 H   0  0  0  0  0  0  0  0  0  0  0  0
   10.7870    4.3269   24.4319 H   0  0  0  0  0  0  0  0  0  0  0  0
   10.2658    4.4675   26.1318 H   0  0  0  0  0  0  0  0  0  0  0  0
   10.1546   -0.3712   21.1929 H   0  0  0  0  0  0  0  0  0  0  0  0
    8.9787   -1.0030   20.0288 H   0  0  0  0  0  0  0  0  0  0  0  0
    8.4146   -0.1986   21.5001 H   0  0  0  0  0  0  0  0  0  0  0  0
    8.7406   -4.4887   27.6889 H   0  0  0  0  0  0  0  0  0  0  0  0
    9.0247   -6.1702   27.2377 H   0  0  0  0  0  0  0  0  0  0  0  0
   10.6038    1.9342   25.8720 H   0  0  0  0  0  0  0  0  0  0  0  0
   10.8302    2.0642   24.1143 H   0  0  0  0  0  0  0  0  0  0  0  0
    8.1920   -2.6716   21.6852 H   0  0  0  0  0  0  0  0  0  0  0  0
    9.9003   -2.8698   21.3021 H   0  0  0  0  0  0  0  0  0  0  0  0
    8.8017   -1.4587   23.7884 H   0  0  0  0  0  0  0  0  0  0  0  0
    9.1255   -5.5619   24.9822 H   0  0  0  0  0  0  0  0  0  0  0  0
    9.6319   -4.2300   23.4458 H   0  0  0  0  0  0  0  0  0  0  0  0
  1  2  1  0  0  0  0
  1  3  2  0  0  0  0
  2  4  2  0  0  0  0
  3  8  1  0  0  0  0
  4  9  1  0  0  0  0
  5  6  2  0  0  0  0
  5 22  1  0  0  0  0
  6 23  1  0  0  0  0
  7 10  1  0  0  0  0
  7 22  2  0  0  0  0
  8  9  2  0  0  0  0
  8 21  1  0  0  0  0
  9 29  1  0  0  0  0
 10 18  1  0  0  0  0
 10 23  2  0  0  0  0
 11 19  1  0  0  0  0
 11 24  1  0  0  0  0
 11 27  2  0  0  0  0
 12 25  1  0  0  0  0
 12 26  1  0  0  0  0
 12 28  2  0  0  0  0
 13 14  1  0  0  0  0
 13 15  1  0  0  0  0
 14 16  1  0  0  0  0
 15 24  1  0  0  0  0
 16 24  1  0  0  0  0
 17 20  1  0  0  0  0
 18 25  1  0  0  0  0
 19 29  1  0  0  0  0
 20 21  1  0  0  0  0
 21 26  1  0  0  0  0
  1 30  1  0  0  0  0
  2 31  1  0  0  0  0
  3 32  1  0  0  0  0
  4 33  1  0  0  0  0
  5 34  1  0  0  0  0
  6 35  1  0  0  0  0
  7 36  1  0  0  0  0
 13 37  1  0  0  0  0
 13 38  1  0  0  0  0
 14 39  1  0  0  0  0
 14 40  1  0  0  0  0
 15 41  1  0  0  0  0
 15 42  1  0  0  0  0
 16 43  1  0  0  0  0
 16 44  1  0  0  0  0
 17 45  1  0  0  0  0
 17 46  1  0  0  0  0
 17 47  1  0  0  0  0
 18 48  1  0  0  0  0
 18 49  1  0  0  0  0
 19 50  1  0  0  0  0
 19 51  1  0  0  0  0
 20 52  1  0  0  0  0
 20 53  1  0  0  0  0
 21 54  1  0  0  0  0
 25 55  1  0  0  0  0
 26 56  1  0  0  0  0
M  END
> <IC50 (uM)>

> <IC50 (uM) - std>

> <Average Inhibition @ 20 uM>

> <Average Inhibition @ 20 uM - std>

> <Average Inhibition @ 50 uM>

> <Average Inhibition @ 50 uM - std>
1.22

> <Trypsin IC50 (uM)>
0.554

> <Relative Solubility @ 20 uM>

> <Relative Solubility @ 100 uM>

> <Hybrid2>
-9.135799

> <docked_fragment>
x0072

> <Mpro-_dock>
4.382787

> <site>
active-noncovalent

$$$$
AAR-POS-0daf6b7e-9
  -OEChem-05192003313D

 39 40  0     0  0  0  0  0  0999 V2000
   10.2570   -1.9161   24.3876 C   0  0  0  0  0  0  0  0  0  0  0  0
    6.2954   -4.9484   22.1297 C   0  0  0  0  0  0  0  0  0  0  0  0
   14.1312   -1.4147   25.9560 C   0  0  0  0  0  0  0  0  0  0  0  0
   13.1394   -0.2723   25.7423 C   0  0  0  0  0  0  0  0  0  0  0  0
   13.7386   -2.6402   25.1320 C   0  0  0  0  0  0  0  0  0  0  0  0
    9.1613   -4.1248   24.4650 C   0  0  0  0  0  0  0  0  0  0  0  0
    9.3247   -2.8252   22.2701 C   0  0  0  0  0  0  0  0  0  0  0  0
   11.7067   -0.7289   26.0036 C   0  0  0  0  0  0  0  0  0  0  0  0
   12.2934   -3.0523   25.4038 C   0  0  0  0  0  0  0  0  0  0  0  0
    8.3369   -5.0844   23.6139 C   0  0  0  0  0  0  0  0  0  0  0  0
    7.8109   -3.0083   22.3247 C   0  0  0  0  0  0  0  0  0  0  0  0
    9.9954   -3.1689   23.6059 C   0  0  0  0  0  0  0  0  0  0  0  0
    5.9868   -6.3673   22.5406 C   0  0  0  0  0  0  0  0  0  0  0  0
   11.3829   -1.9167   25.2104 N   0  0  0  0  0  0  0  0  0  0  0  0
    7.4443   -4.3806   22.6841 N   0  0  0  0  0  0  0  0  0  0  0  0
    9.4852   -0.9607   24.2709 O   0  0  0  0  0  0  0  0  0  0  0  0
    5.5417   -4.3631   21.3485 O   0  0  0  0  0  0  0  0  0  0  0  0
    5.0035   -6.2674   23.9969 Cl  0  0  0  0  0  0  0  0  0  0  0  0
   15.1402   -1.0882   25.6809 H   0  0  0  0  0  0  0  0  0  0  0  0
   14.1578   -1.6820   27.0195 H   0  0  0  0  0  0  0  0  0  0  0  0
   13.3891    0.5606   26.4090 H   0  0  0  0  0  0  0  0  0  0  0  0
   13.2236    0.1016   24.7145 H   0  0  0  0  0  0  0  0  0  0  0  0
   13.8623   -2.4217   24.0639 H   0  0  0  0  0  0  0  0  0  0  0  0
   14.4106   -3.4723   25.3696 H   0  0  0  0  0  0  0  0  0  0  0  0
    8.4943   -3.5621   25.1252 H   0  0  0  0  0  0  0  0  0  0  0  0
    9.8338   -4.7064   25.1047 H   0  0  0  0  0  0  0  0  0  0  0  0
    9.7306   -3.4797   21.4935 H   0  0  0  0  0  0  0  0  0  0  0  0
    9.5550   -1.7965   21.9834 H   0  0  0  0  0  0  0  0  0  0  0  0
   11.5759   -0.9955   27.0591 H   0  0  0  0  0  0  0  0  0  0  0  0
   11.0127    0.0886   25.7845 H   0  0  0  0  0  0  0  0  0  0  0  0
   12.0334   -3.8995   24.7669 H   0  0  0  0  0  0  0  0  0  0  0  0
   12.1803   -3.3824   26.4433 H   0  0  0  0  0  0  0  0  0  0  0  0
    9.0100   -5.7608   23.0642 H   0  0  0  0  0  0  0  0  0  0  0  0
    7.7039   -5.7269   24.2482 H   0  0  0  0  0  0  0  0  0  0  0  0
    7.3652   -2.3466   23.0821 H   0  0  0  0  0  0  0  0  0  0  0  0
    7.3777   -2.7084   21.3637 H   0  0  0  0  0  0  0  0  0  0  0  0
   10.9697   -3.6136   23.4183 H   0  0  0  0  0  0  0  0  0  0  0  0
    6.9169   -6.8815   22.7541 H   0  0  0  0  0  0  0  0  0  0  0  0
    5.4284   -6.8495   21.7465 H   0  0  0  0  0  0  0  0  0  0  0  0
  1 12  1  0  0  0  0
  1 14  1  0  0  0  0
  1 16  2  0  0  0  0
  2 13  1  0  0  0  0
  2 15  1  0  0  0  0
  2 17  2  0  0  0  0
  3  4  1  0  0  0  0
  3  5  1  0  0  0  0
  4  8  1  0  0  0  0
  5  9  1  0  0  0  0
  6 10  1  0  0  0  0
  6 12  1  0  0  0  0
  7 11  1  0  0  0  0
  7 12  1  0  0  0  0
  8 14  1  0  0  0  0
  9 14  1  0  0  0  0
 10 15  1  0  0  0  0
 11 15  1  0  0  0  0
 13 18  1  0  0  0  0
  3 19  1  0  0  0  0
  3 20  1  0  0  0  0
  4 21  1  0  0  0  0
  4 22  1  0  0  0  0
  5 23  1  0  0  0  0
  5 24  1  0  0  0  0
  6 25  1  0  0  0  0
  6 26  1  0  0  0  0
  7 27  1  0  0  0  0
  7 28  1  0  0  0  0
  8 29  1  0  0  0  0
  8 30  1  0  0  0  0
  9 31  1  0  0  0  0
  9 32  1  0  0  0  0
 10 33  1  0  0  0  0
 10 34  1  0  0  0  0
 11 35  1  0  0  0  0
 11 36  1  0  0  0  0
 12 37  1  0  0  0  0
 13 38  1  0  0  0  0
 13 39  1  0  0  0  0
M  END
> <IC50 (uM)>

> <IC50 (uM) - std>

> <Average Inhibition @ 20 uM>

> <Average Inhibition @ 20 uM - std>
18.5

> <Average Inhibition @ 50 uM>
3.55

> <Average Inhibition @ 50 uM - std>
31.4

> <Trypsin IC50 (uM)>
0.724

> <Relative Solubility @ 20 uM>
1.0

> <Relative Solubility @ 100 uM>
1.0

> <Hybrid2>
-9.132237

> <docked_fragment>
x0749

> <Mpro-_dock>
-0.456349

> <site>
active-covalent

$$$$
VIR-GIT-7b3d3065-2
  -OEChem-05192003313D

 39 40  0     0  0  0  0  0  0999 V2000
   10.2570   -1.9161   24.3876 C   0  0  0  0  0  0  0  0  0  0  0  0
    6.2954   -4.9484   22.1297 C   0  0  0  0  0  0  0  0  0  0  0  0
   14.1312   -1.4147   25.9560 C   0  0  0  0  0  0  0  0  0  0  0  0
   13.1394   -0.2723   25.7423 C   0  0  0  0  0  0  0  0  0  0  0  0
   13.7386   -2.6402   25.1320 C   0  0  0  0  0  0  0  0  0  0  0  0
    9.1613   -4.1248   24.4650 C   0  0  0  0  0  0  0  0  0  0  0  0
    9.3247   -2.8252   22.2701 C   0  0  0  0  0  0  0  0  0  0  0  0
   11.7067   -0.7289   26.0036 C   0  0  0  0  0  0  0  0  0  0  0  0
   12.2934   -3.0523   25.4038 C   0  0  0  0  0  0  0  0  0  0  0  0
    8.3369   -5.0844   23.6139 C   0  0  0  0  0  0  0  0  0  0  0  0
    7.8109   -3.0083   22.3247 C   0  0  0  0  0  0  0  0  0  0  0  0
    9.9954   -3.1689   23.6059 C   0  0  0  0  0  0  0  0  0  0  0  0
    5.9868   -6.3673   22.5406 C   0  0  0  0  0  0  0  0  0  0  0  0
   11.3829   -1.9167   25.2104 N   0  0  0  0  0  0  0  0  0  0  0  0
    7.4443   -4.3806   22.6841 N   0  0  0  0  0  0  0  0  0  0  0  0
    9.4852   -0.9607   24.2709 O   0  0  0  0  0  0  0  0  0  0  0  0
    5.5417   -4.3631   21.3485 O   0  0  0  0  0  0  0  0  0  0  0  0
    5.0035   -6.2674   23.9969 Cl  0  0  0  0  0  0  0  0  0  0  0  0
   15.1402   -1.0882   25.6809 H   0  0  0  0  0  0  0  0  0  0  0  0
   14.1578   -1.6820   27.0195 H   0  0  0  0  0  0  0  0  0  0  0  0
   13.3891    0.5606   26.4090 H   0  0  0  0  0  0  0  0  0  0  0  0
   13.2236    0.1016   24.7145 H   0  0  0  0  0  0  0  0  0  0  0  0
   13.8623   -2.4217   24.0639 H   0  0  0  0  0  0  0  0  0  0  0  0
   14.4106   -3.4723   25.3696 H   0  0  0  0  0  0  0  0  0  0  0  0
    8.4943   -3.5621   25.1252 H   0  0  0  0  0  0  0  0  0  0  0  0
    9.8338   -4.7064   25.1047 H   0  0  0  0  0  0  0  0  0  0  0  0
    9.7306   -3.4797   21.4935 H   0  0  0  0  0  0  0  0  0  0  0  0
    9.5550   -1.7965   21.9834 H   0  0  0  0  0  0  0  0  0  0  0  0
   11.5759   -0.9955   27.0591 H   0  0  0  0  0  0  0  0  0  0  0  0
   11.0127    0.0886   25.7845 H   0  0  0  0  0  0  0  0  0  0  0  0
   12.0334   -3.8995   24.7669 H   0  0  0  0  0  0  0  0  0  0  0  0
   12.1803   -3.3824   26.4433 H   0  0  0  0  0  0  0  0  0  0  0  0
    9.0100   -5.7608   23.0642 H   0  0  0  0  0  0  0  0  0  0  0  0
    7.7039   -5.7269   24.2482 H   0  0  0  0  0  0  0  0  0  0  0  0
    7.3652   -2.3466   23.0821 H   0  0  0  0  0  0  0  0  0  0  0  0
    7.3777   -2.7084   21.3637 H   0  0  0  0  0  0  0  0  0  0  0  0
   10.9697   -3.6136   23.4183 H   0  0  0  0  0  0  0  0  0  0  0  0
    6.9169   -6.8815   22.7541 H   0  0  0  0  0  0  0  0  0  0  0  0
    5.4284   -6.8495   21.7465 H   0  0  0  0  0  0  0  0  0  0  0  0
  1 12  1  0  0  0  0
  1 14  1  0  0  0  0
  1 16  2  0  0  0  0
  2 13  1  0  0  0  0
  2 15  1  0  0  0  0
  2 17  2  0  0  0  0
  3  4  1  0  0  0  0
  3  5  1  0  0  0  0
  4  8  1  0  0  0  0
  5  9  1  0  0  0  0
  6 10  1  0  0  0  0
  6 12  1  0  0  0  0
  7 11  1  0  0  0  0
  7 12  1  0  0  0  0
  8 14  1  0  0  0  0
  9 14  1  0  0  0  0
 10 15  1  0  0  0  0
 11 15  1  0  0  0  0
 13 18  1  0  0  0  0
  3 19  1  0  0  0  0
  3 20  1  0  0  0  0
  4 21  1  0  0  0  0
  4 22  1  0  0  0  0
  5 23  1  0  0  0  0
  5 24  1  0  0  0  0
  6 25  1  0  0  0  0
  6 26  1  0  0  0  0
  7 27  1  0  0  0  0
  7 28  1  0  0  0  0
  8 29  1  0  0  0  0
  8 30  1  0  0  0  0
  9 31  1  0  0  0  0
  9 32  1  0  0  0  0
 10 33  1  0  0  0  0
 10 34  1  0  0  0  0
 11 35  1  0  0  0  0
 11 36  1  0  0  0  0
 12 37  1  0  0  0  0
 13 38  1  0  0  0  0
 13 39  1  0  0  0  0
M  END
> <IC50 (uM)>

> <IC50 (uM) - std>

> <Average Inhibition @ 20 uM>

> <Average Inhibition @ 20 uM - std>
18.5

> <Average Inhibition @ 50 uM>
3.55

> <Average Inhibition @ 50 uM - std>
31.4

> <Trypsin IC50 (uM)>
0.724

> <Relative Solubility @ 20 uM>
1.0

> <Relative Solubility @ 100 uM>
1.0

> <Hybrid2>
-9.132237

> <docked_fragment>
x0749

> <Mpro-_dock>
-0.456349

> <site>
active-covalent

$$$$
WAR-XCH-b72a1bbc-14
  -OEChem-05192003313D

 36 37  0     0  0  0  0  0  0999 V2000
    9.4549   -4.6308   23.4009 C   0  0  0  0  0  0  0  0  0  0  0  0
    8.7233   -2.3998   22.8314 C   0  0  0  0  0  0  0  0  0  0  0  0
    8.2964   -5.1567   22.8293 C   0  0  0  0  0  0  0  0  0  0  0  0
    7.5648   -2.9257   22.2597 C   0  0  0  0  0  0  0  0  0  0  0  0
    9.6684   -3.2523   23.4021 C   0  0  0  0  0  0  0  0  0  0  0  0
    7.3513   -4.3042   22.2586 C   0  0  0  0  0  0  0  0  0  0  0  0
   12.5525   -2.8963   25.7327 C   0  0  0  0  0  0  0  0  0  0  0  0
   12.8895   -1.3854   23.7669 C   0  0  0  0  0  0  0  0  0  0  0  0
   11.0631   -2.9897   25.4022 C   0  0  0  0  0  0  0  0  0  0  0  0
   11.3995   -1.4834   23.4378 C   0  0  0  0  0  0  0  0  0  0  0  0
   13.1898   -1.5860   25.2561 C   0  0  0  0  0  0  0  0  0  0  0  0
   12.7420   -0.3892   26.0977 C   0  0  0  0  0  0  0  0  0  0  0  0
   10.8314   -2.7238   23.9760 N   0  0  0  0  0  0  0  0  0  0  0  0
    4.8465   -4.9632   22.8881 N   0  0  0  0  0  0  0  0  0  0  0  0
    5.4033   -4.0118   20.5578 O   0  0  0  0  0  0  0  0  0  0  0  0
    6.1612   -6.3398   21.1523 O   0  0  0  0  0  0  0  0  0  0  0  0
   11.3362   -0.2644   25.9894 O   0  0  0  0  0  0  0  0  0  0  0  0
    5.9006   -4.9614   21.5434 S   0  0  0  0  0  0  0  0  0  0  0  0
   10.1846   -5.3043   23.8432 H   0  0  0  0  0  0  0  0  0  0  0  0
    8.8802   -1.3241   22.8260 H   0  0  0  0  0  0  0  0  0  0  0  0
    8.1405   -6.2321   22.8342 H   0  0  0  0  0  0  0  0  0  0  0  0
    6.8352   -2.2520   21.8181 H   0  0  0  0  0  0  0  0  0  0  0  0
   12.6885   -3.0064   26.8224 H   0  0  0  0  0  0  0  0  0  0  0  0
   13.0754   -3.7520   25.2751 H   0  0  0  0  0  0  0  0  0  0  0  0
   13.4373   -2.1361   23.1718 H   0  0  0  0  0  0  0  0  0  0  0  0
   13.2694   -0.4029   23.4337 H   0  0  0  0  0  0  0  0  0  0  0  0
   10.6860   -3.9880   25.6600 H   0  0  0  0  0  0  0  0  0  0  0  0
   10.5197   -2.2615   26.0174 H   0  0  0  0  0  0  0  0  0  0  0  0
   10.8880   -0.6121   23.8671 H   0  0  0  0  0  0  0  0  0  0  0  0
   11.2556   -1.4478   22.3496 H   0  0  0  0  0  0  0  0  0  0  0  0
   14.2927   -1.6813   25.3720 H   0  0  0  0  0  0  0  0  0  0  0  0
   13.2148    0.5208   25.7295 H   0  0  0  0  0  0  0  0  0  0  0  0
   13.0111   -0.5482   27.1416 H   0  0  0  0  0  0  0  0  0  0  0  0
    4.0808   -4.2784   22.9011 H   0  0  0  0  0  0  0  0  0  0  0  0
    4.6010   -5.8684   23.3070 H   0  0  0  0  0  0  0  0  0  0  0  0
   11.0745    0.5001   26.5306 H   0  0  0  0  0  0  0  0  0  0  0  0
  1  3  2  0  0  0  0
  1  5  1  0  0  0  0
  2  4  1  0  0  0  0
  2  5  2  0  0  0  0
  3  6  1  0  0  0  0
  4  6  2  0  0  0  0
  5 13  1  0  0  0  0
  6 18  1  0  0  0  0
  7  9  1  0  0  0  0
  7 11  1  0  0  0  0
  8 10  1  0  0  0  0
  8 11  1  0  0  0  0
  9 13  1  0  0  0  0
 10 13  1  0  0  0  0
 11 12  1  0  0  0  0
 12 17  1  0  0  0  0
 14 18  1  0  0  0  0
 15 18  2  0  0  0  0
 16 18  2  0  0  0  0
  1 19  1  0  0  0  0
  2 20  1  0  0  0  0
  3 21  1  0  0  0  0
  4 22  1  0  0  0  0
  7 23  1  0  0  0  0
  7 24  1  0  0  0  0
  8 25  1  0  0  0  0
  8 26  1  0  0  0  0
  9 27  1  0  0  0  0
  9 28  1  0  0  0  0
 10 29  1  0  0  0  0
 10 30  1  0  0  0  0
 11 31  1  0  0  0  0
 12 32  1  0  0  0  0
 12 33  1  0  0  0  0
 14 34  1  0  0  0  0
 14 35  1  0  0  0  0
 17 36  1  0  0  0  0
M  END
> <IC50 (uM)>

> <IC50 (uM) - std>

> <Average Inhibition @ 20 uM>

> <Average Inhibition @ 20 uM - std>
3.95

> <Average Inhibition @ 50 uM>
0.594

> <Average Inhibition @ 50 uM - std>
7.03

> <Trypsin IC50 (uM)>
0.975

> <Relative Solubility @ 20 uM>
1.0

> <Relative Solubility @ 100 uM>
1.0

> <Hybrid2>
-9.132140

> <docked_fragment>
x0749

> <Mpro-_dock>
0.321987

> <site>
active-covalent

$$$$
MAK-UNK-129dcd6f-9
  -OEChem-05192003313D

 43 45  0     0  0  0  0  0  0999 V2000
   12.0154    0.5622   24.2218 C   0  0  0  0  0  0  0  0  0  0  0  0
    5.7026   -6.0360   25.7405 C   0  0  0  0  0  0  0  0  0  0  0  0
   11.5296    0.7911   22.9345 C   0  0  0  0  0  0  0  0  0  0  0  0
   11.2899   -0.2316   25.1102 C   0  0  0  0  0  0  0  0  0  0  0  0
    6.5849   -4.9771   25.5570 C   0  0  0  0  0  0  0  0  0  0  0  0
    5.6107    1.1754   18.7529 C   0  0  0  0  0  0  0  0  0  0  0  0
    9.5927   -0.5676   23.4239 C   0  0  0  0  0  0  0  0  0  0  0  0
    5.3319   -6.3540   27.0372 C   0  0  0  0  0  0  0  0  0  0  0  0
    6.2168    0.7852   17.5697 C   0  0  0  0  0  0  0  0  0  0  0  0
    6.6311   -4.6751   27.9156 C   0  0  0  0  0  0  0  0  0  0  0  0
    8.1497    0.1809   18.6547 C   0  0  0  0  0  0  0  0  0  0  0  0
   10.3182    0.2262   22.5355 C   0  0  0  0  0  0  0  0  0  0  0  0
    6.3397    1.0489   19.9302 C   0  0  0  0  0  0  0  0  0  0  0  0
   10.0786   -0.7965   24.7112 C   0  0  0  0  0  0  0  0  0  0  0  0
    7.0628   -4.2785   26.6601 C   0  0  0  0  0  0  0  0  0  0  0  0
    7.6342    0.5430   19.8888 C   0  0  0  0  0  0  0  0  0  0  0  0
    9.8129    0.4656   21.1932 C   0  0  0  0  0  0  0  0  0  0  0  0
    8.4891   -2.6755   25.3128 C   0  0  0  0  0  0  0  0  0  0  0  0
    5.7109    1.4626   21.2202 C   0  0  0  0  0  0  0  0  0  0  0  0
    5.7750   -5.6985   28.1333 N   0  0  0  0  0  0  0  0  0  0  0  0
    7.4720    0.2894   17.4899 N   0  0  0  0  0  0  0  0  0  0  0  0
    8.4174    0.3944   21.0611 N   0  0  0  0  0  0  0  0  0  0  0  0
    9.3532   -1.5908   25.5999 N   0  0  0  0  0  0  0  0  0  0  0  0
    7.9616   -3.1969   26.5051 N   0  0  0  0  0  0  0  0  0  0  0  0
   10.5739    0.6805   20.2394 O   0  0  0  0  0  0  0  0  0  0  0  0
    8.2425   -3.0927   24.1857 O   0  0  0  0  0  0  0  0  0  0  0  0
   12.9587    1.0017   24.5325 H   0  0  0  0  0  0  0  0  0  0  0  0
    5.3173   -6.5946   24.8952 H   0  0  0  0  0  0  0  0  0  0  0  0
   12.1030    1.4122   22.2514 H   0  0  0  0  0  0  0  0  0  0  0  0
   11.6778   -0.4029   26.1114 H   0  0  0  0  0  0  0  0  0  0  0  0
    6.8933   -4.7051   24.5510 H   0  0  0  0  0  0  0  0  0  0  0  0
    4.5990    1.5665   18.7510 H   0  0  0  0  0  0  0  0  0  0  0  0
    8.6472   -1.0075   23.1131 H   0  0  0  0  0  0  0  0  0  0  0  0
    4.6468   -7.1721   27.2336 H   0  0  0  0  0  0  0  0  0  0  0  0
    5.6908    0.8641   16.6239 H   0  0  0  0  0  0  0  0  0  0  0  0
    6.9689   -4.1684   28.8147 H   0  0  0  0  0  0  0  0  0  0  0  0
    9.1540   -0.2206   18.5576 H   0  0  0  0  0  0  0  0  0  0  0  0
    5.1827    0.6160   21.6740 H   0  0  0  0  0  0  0  0  0  0  0  0
    6.4645    1.8256   21.9299 H   0  0  0  0  0  0  0  0  0  0  0  0
    4.9955    2.2802   21.0681 H   0  0  0  0  0  0  0  0  0  0  0  0
    7.9007    0.2126   21.9181 H   0  0  0  0  0  0  0  0  0  0  0  0
    9.4599   -1.3582   26.5929 H   0  0  0  0  0  0  0  0  0  0  0  0
    8.2576   -2.7456   27.3670 H   0  0  0  0  0  0  0  0  0  0  0  0
  1  3  2  0  0  0  0
  1  4  1  0  0  0  0
  2  5  2  0  0  0  0
  2  8  1  0  0  0  0
  3 12  1  0  0  0  0
  4 14  2  0  0  0  0
  5 15  1  0  0  0  0
  6  9  2  0  0  0  0
  6 13  1  0  0  0  0
  7 12  2  0  0  0  0
  7 14  1  0  0  0  0
  8 20  2  0  0  0  0
  9 21  1  0  0  0  0
 10 15  2  0  0  0  0
 10 20  1  0  0  0  0
 11 16  1  0  0  0  0
 11 21  2  0  0  0  0
 12 17  1  0  0  0  0
 13 16  2  0  0  0  0
 13 19  1  0  0  0  0
 14 23  1  0  0  0  0
 15 24  1  0  0  0  0
 16 22  1  0  0  0  0
 17 22  1  0  0  0  0
 17 25  2  0  0  0  0
 18 23  1  0  0  0  0
 18 24  1  0  0  0  0
 18 26  2  0  0  0  0
  1 27  1  0  0  0  0
  2 28  1  0  0  0  0
  3 29  1  0  0  0  0
  4 30  1  0  0  0  0
  5 31  1  0  0  0  0
  6 32  1  0  0  0  0
  7 33  1  0  0  0  0
  8 34  1  0  0  0  0
  9 35  1  0  0  0  0
 10 36  1  0  0  0  0
 11 37  1  0  0  0  0
 19 38  1  0  0  0  0
 19 39  1  0  0  0  0
 19 40  1  0  0  0  0
 22 41  1  0  0  0  0
 23 42  1  0  0  0  0
 24 43  1  0  0  0  0
M  END
> <IC50 (uM)>

> <IC50 (uM) - std>

> <Average Inhibition @ 20 uM>

> <Average Inhibition @ 20 uM - std>

> <Average Inhibition @ 50 uM>

> <Average Inhibition @ 50 uM - std>
10.6

> <Trypsin IC50 (uM)>
0.2

> <Relative Solubility @ 20 uM>

> <Relative Solubility @ 100 uM>

> <Hybrid2>
-9.129883

> <docked_fragment>
x0678

> <Mpro-_dock>
5.986294

> <site>
active-noncovalent

$$$$
MAK-UNK-129dcd6f-11
  -OEChem-05192003313D

 43 45  0     0  0  0  0  0  0999 V2000
   12.0154    0.5622   24.2218 C   0  0  0  0  0  0  0  0  0  0  0  0
    5.7026   -6.0360   25.7405 C   0  0  0  0  0  0  0  0  0  0  0  0
   11.5296    0.7911   22.9345 C   0  0  0  0  0  0  0  0  0  0  0  0
   11.2899   -0.2316   25.1102 C   0  0  0  0  0  0  0  0  0  0  0  0
    6.5849   -4.9771   25.5570 C   0  0  0  0  0  0  0  0  0  0  0  0
    5.6107    1.1754   18.7529 C   0  0  0  0  0  0  0  0  0  0  0  0
    9.5927   -0.5676   23.4239 C   0  0  0  0  0  0  0  0  0  0  0  0
    5.3319   -6.3540   27.0372 C   0  0  0  0  0  0  0  0  0  0  0  0
    6.2168    0.7852   17.5697 C   0  0  0  0  0  0  0  0  0  0  0  0
    6.6311   -4.6751   27.9156 C   0  0  0  0  0  0  0  0  0  0  0  0
    8.1497    0.1809   18.6547 C   0  0  0  0  0  0  0  0  0  0  0  0
   10.3182    0.2262   22.5355 C   0  0  0  0  0  0  0  0  0  0  0  0
    6.3397    1.0489   19.9302 C   0  0  0  0  0  0  0  0  0  0  0  0
   10.0786   -0.7965   24.7112 C   0  0  0  0  0  0  0  0  0  0  0  0
    7.0628   -4.2785   26.6601 C   0  0  0  0  0  0  0  0  0  0  0  0
    7.6342    0.5430   19.8888 C   0  0  0  0  0  0  0  0  0  0  0  0
    9.8129    0.4656   21.1932 C   0  0  0  0  0  0  0  0  0  0  0  0
    8.4891   -2.6755   25.3128 C   0  0  0  0  0  0  0  0  0  0  0  0
    5.7109    1.4626   21.2202 C   0  0  0  0  0  0  0  0  0  0  0  0
    5.7750   -5.6985   28.1333 N   0  0  0  0  0  0  0  0  0  0  0  0
    7.4720    0.2894   17.4899 N   0  0  0  0  0  0  0  0  0  0  0  0
    8.4174    0.3944   21.0611 N   0  0  0  0  0  0  0  0  0  0  0  0
    9.3532   -1.5908   25.5999 N   0  0  0  0  0  0  0  0  0  0  0  0
    7.9616   -3.1969   26.5051 N   0  0  0  0  0  0  0  0  0  0  0  0
   10.5739    0.6805   20.2394 O   0  0  0  0  0  0  0  0  0  0  0  0
    8.2425   -3.0927   24.1857 O   0  0  0  0  0  0  0  0  0  0  0  0
   12.9587    1.0017   24.5325 H   0  0  0  0  0  0  0  0  0  0  0  0
    5.3173   -6.5946   24.8952 H   0  0  0  0  0  0  0  0  0  0  0  0
   12.1030    1.4122   22.2514 H   0  0  0  0  0  0  0  0  0  0  0  0
   11.6778   -0.4029   26.1114 H   0  0  0  0  0  0  0  0  0  0  0  0
    6.8933   -4.7051   24.5510 H   0  0  0  0  0  0  0  0  0  0  0  0
    4.5990    1.5665   18.7510 H   0  0  0  0  0  0  0  0  0  0  0  0
    8.6472   -1.0075   23.1131 H   0  0  0  0  0  0  0  0  0  0  0  0
    4.6468   -7.1721   27.2336 H   0  0  0  0  0  0  0  0  0  0  0  0
    5.6908    0.8641   16.6239 H   0  0  0  0  0  0  0  0  0  0  0  0
    6.9689   -4.1684   28.8147 H   0  0  0  0  0  0  0  0  0  0  0  0
    9.1540   -0.2206   18.5576 H   0  0  0  0  0  0  0  0  0  0  0  0
    5.1827    0.6160   21.6740 H   0  0  0  0  0  0  0  0  0  0  0  0
    6.4645    1.8256   21.9299 H   0  0  0  0  0  0  0  0  0  0  0  0
    4.9955    2.2802   21.0681 H   0  0  0  0  0  0  0  0  0  0  0  0
    7.9007    0.2126   21.9181 H   0  0  0  0  0  0  0  0  0  0  0  0
    9.4599   -1.3582   26.5929 H   0  0  0  0  0  0  0  0  0  0  0  0
    8.2576   -2.7456   27.3670 H   0  0  0  0  0  0  0  0  0  0  0  0
  1  3  2  0  0  0  0
  1  4  1  0  0  0  0
  2  5  2  0  0  0  0
  2  8  1  0  0  0  0
  3 12  1  0  0  0  0
  4 14  2  0  0  0  0
  5 15  1  0  0  0  0
  6  9  2  0  0  0  0
  6 13  1  0  0  0  0
  7 12  2  0  0  0  0
  7 14  1  0  0  0  0
  8 20  2  0  0  0  0
  9 21  1  0  0  0  0
 10 15  2  0  0  0  0
 10 20  1  0  0  0  0
 11 16  1  0  0  0  0
 11 21  2  0  0  0  0
 12 17  1  0  0  0  0
 13 16  2  0  0  0  0
 13 19  1  0  0  0  0
 14 23  1  0  0  0  0
 15 24  1  0  0  0  0
 16 22  1  0  0  0  0
 17 22  1  0  0  0  0
 17 25  2  0  0  0  0
 18 23  1  0  0  0  0
 18 24  1  0  0  0  0
 18 26  2  0  0  0  0
  1 27  1  0  0  0  0
  2 28  1  0  0  0  0
  3 29  1  0  0  0  0
  4 30  1  0  0  0  0
  5 31  1  0  0  0  0
  6 32  1  0  0  0  0
  7 33  1  0  0  0  0
  8 34  1  0  0  0  0
  9 35  1  0  0  0  0
 10 36  1  0  0  0  0
 11 37  1  0  0  0  0
 19 38  1  0  0  0  0
 19 39  1  0  0  0  0
 19 40  1  0  0  0  0
 22 41  1  0  0  0  0
 23 42  1  0  0  0  0
 24 43  1  0  0  0  0
M  END
> <IC50 (uM)>

> <IC50 (uM) - std>

> <Average Inhibition @ 20 uM>

> <Average Inhibition @ 20 uM - std>

> <Average Inhibition @ 50 uM>

> <Average Inhibition @ 50 uM - std>
10.6

> <Trypsin IC50 (uM)>
0.2

> <Relative Solubility @ 20 uM>

> <Relative Solubility @ 100 uM>

> <Hybrid2>
-9.129883

> <docked_fragment>
x0678

> <Mpro-_dock>
5.986294

> <site>
active-noncovalent

$$$$
TRY-UNI-1fd04853-11
  -OEChem-05192003313D

 34 36  0     0  0  0  0  0  0999 V2000
    7.2749   -2.2930   21.1604 C   0  0  0  0  0  0  0  0  0  0  0  0
    8.0278   -3.2233   21.8745 C   0  0  0  0  0  0  0  0  0  0  0  0
   12.0892   -0.7609   25.2344 C   0  0  0  0  0  0  0  0  0  0  0  0
   11.3959   -1.8570   25.7358 C   0  0  0  0  0  0  0  0  0  0  0  0
    5.9934   -2.6409   20.7549 C   0  0  0  0  0  0  0  0  0  0  0  0
   13.8681   -2.2236   24.6406 C   0  0  0  0  0  0  0  0  0  0  0  0
    6.7948   -6.5507   22.7397 C   0  0  0  0  0  0  0  0  0  0  0  0
    7.4428   -4.4707   22.1460 C   0  0  0  0  0  0  0  0  0  0  0  0
    7.8418   -5.6577   22.8155 C   0  0  0  0  0  0  0  0  0  0  0  0
   13.3494   -0.9393   24.6748 C   0  0  0  0  0  0  0  0  0  0  0  0
   12.0019   -3.1003   25.6540 C   0  0  0  0  0  0  0  0  0  0  0  0
    6.1492   -4.6864   21.6798 C   0  0  0  0  0  0  0  0  0  0  0  0
    9.4790   -4.9079   24.5861 C   0  0  0  0  0  0  0  0  0  0  0  0
    9.1400   -5.9018   23.4755 C   0  0  0  0  0  0  0  0  0  0  0  0
   11.2820   -4.3060   26.1851 C   0  0  0  0  0  0  0  0  0  0  0  0
   13.2245   -3.3126   25.1175 N   0  0  0  0  0  0  0  0  0  0  0  0
    5.3803   -3.8248   20.9875 N   0  0  0  0  0  0  0  0  0  0  0  0
    5.7738   -5.9514   22.0486 N   0  0  0  0  0  0  0  0  0  0  0  0
   10.7398   -5.1225   25.1245 N   0  0  0  0  0  0  0  0  0  0  0  0
    8.7029   -4.0242   24.9404 O   0  0  0  0  0  0  0  0  0  0  0  0
   14.2333    0.3887   24.0455 Cl  0  0  0  0  0  0  0  0  0  0  0  0
    7.6837   -1.3159   20.9262 H   0  0  0  0  0  0  0  0  0  0  0  0
    9.0325   -2.9829   22.2067 H   0  0  0  0  0  0  0  0  0  0  0  0
   11.6362    0.2255   25.2859 H   0  0  0  0  0  0  0  0  0  0  0  0
   10.4120   -1.7315   26.1749 H   0  0  0  0  0  0  0  0  0  0  0  0
    5.3915   -1.9277   20.1979 H   0  0  0  0  0  0  0  0  0  0  0  0
   14.8466   -2.4287   24.2168 H   0  0  0  0  0  0  0  0  0  0  0  0
    6.6832   -7.5585   23.1153 H   0  0  0  0  0  0  0  0  0  0  0  0
    9.1762   -6.9171   23.9164 H   0  0  0  0  0  0  0  0  0  0  0  0
    9.9716   -5.8740   22.7446 H   0  0  0  0  0  0  0  0  0  0  0  0
   11.9594   -4.9299   26.7783 H   0  0  0  0  0  0  0  0  0  0  0  0
   10.4537   -4.0129   26.8387 H   0  0  0  0  0  0  0  0  0  0  0  0
    4.8812   -6.3773   21.8411 H   0  0  0  0  0  0  0  0  0  0  0  0
   11.3036   -5.8839   24.7581 H   0  0  0  0  0  0  0  0  0  0  0  0
  1  2  2  0  0  0  0
  1  5  1  0  0  0  0
  2  8  1  0  0  0  0
  3  4  2  0  0  0  0
  3 10  1  0  0  0  0
  4 11  1  0  0  0  0
  5 17  2  0  0  0  0
  6 10  2  0  0  0  0
  6 16  1  0  0  0  0
  7  9  2  0  0  0  0
  7 18  1  0  0  0  0
  8  9  1  0  0  0  0
  8 12  2  0  0  0  0
  9 14  1  0  0  0  0
 10 21  1  0  0  0  0
 11 15  1  0  0  0  0
 11 16  2  0  0  0  0
 12 17  1  0  0  0  0
 12 18  1  0  0  0  0
 13 14  1  0  0  0  0
 13 19  1  0  0  0  0
 13 20  2  0  0  0  0
 15 19  1  0  0  0  0
  1 22  1  0  0  0  0
  2 23  1  0  0  0  0
  3 24  1  0  0  0  0
  4 25  1  0  0  0  0
  5 26  1  0  0  0  0
  6 27  1  0  0  0  0
  7 28  1  0  0  0  0
 14 29  1  0  0  0  0
 14 30  1  0  0  0  0
 15 31  1  0  0  0  0
 15 32  1  0  0  0  0
 18 33  1  0  0  0  0
 19 34  1  0  0  0  0
M  END
> <IC50 (uM)>

> <IC50 (uM) - std>

> <Average Inhibition @ 20 uM>

> <Average Inhibition @ 20 uM - std>
1.55

> <Average Inhibition @ 50 uM>
1.25

> <Average Inhibition @ 50 uM - std>
4.16

> <Trypsin IC50 (uM)>
1.46

> <Relative Solubility @ 20 uM>
1.0

> <Relative Solubility @ 100 uM>
1.0

> <Hybrid2>
-9.105130

> <docked_fragment>
x0749

> <Mpro-_dock>
-0.033133

> <site>
active-covalent

$$$$
BAR-COM-4e090d3a-36
  -OEChem-05192003313D

 47 48  0     1  0  0  0  0  0999 V2000
   14.5080   -2.1321   22.7939 C   0  0  0  0  0  0  0  0  0  0  0  0
   14.5568   -1.6475   24.1009 C   0  0  0  0  0  0  0  0  0  0  0  0
   13.4048   -1.8528   21.9872 C   0  0  0  0  0  0  0  0  0  0  0  0
   13.5025   -0.8836   24.6013 C   0  0  0  0  0  0  0  0  0  0  0  0
   12.3505   -1.0889   22.4876 C   0  0  0  0  0  0  0  0  0  0  0  0
    6.2833   -0.3717   17.8662 C   0  0  0  0  0  0  0  0  0  0  0  0
    6.0729   -0.3020   19.2231 C   0  0  0  0  0  0  0  0  0  0  0  0
    8.0629    0.4703   18.6753 C   0  0  0  0  0  0  0  0  0  0  0  0
   12.3993   -0.6043   23.7947 C   0  0  0  0  0  0  0  0  0  0  0  0
    8.2251   -0.6468   21.8113 C   0  0  0  0  0  0  0  0  0  0  0  0
    9.3640    0.2214   25.9876 C   0  0  0  0  0  0  0  0  0  0  0  0
    6.2289    0.9144   21.8940 C   0  0  0  0  0  0  0  0  0  0  0  0
    8.2412   -2.2671   24.6367 C   0  0  0  0  0  0  0  0  0  0  0  0
    7.9351    2.1019   26.1073 C   0  0  0  0  0  0  0  0  0  0  0  0
   11.2566    0.2230   24.3363 C   0  0  0  0  0  0  0  0  0  0  0  0
    7.5024    0.5218   21.1445 C   0  0  2  0  0  0  0  0  0  0  0  0
   10.1670   -0.6341   25.0132 C   0  0  2  0  0  0  0  0  0  0  0  0
    9.2466   -1.3229   23.9794 C   0  0  2  0  0  0  0  0  0  0  0  0
    7.5241    0.1103   17.5316 N   0  0  0  0  0  0  0  0  0  0  0  0
    7.2217    0.2390   19.7280 N   0  0  0  0  0  0  0  0  0  0  0  0
    8.5593   -0.3770   23.1311 N   0  0  0  0  0  0  0  0  0  0  0  0
    8.4694   -1.6984   21.2237 O   0  0  0  0  0  0  0  0  0  0  0  0
    9.3052    0.0272   27.1951 O   0  0  0  0  0  0  0  0  0  0  0  0
    8.7302    1.2211   25.3076 O   0  0  0  0  0  0  0  0  0  0  0  0
   15.3297   -2.7258   22.4039 H   0  0  0  0  0  0  0  0  0  0  0  0
   15.4162   -1.8640   24.7288 H   0  0  0  0  0  0  0  0  0  0  0  0
   13.3670   -2.2290   20.9692 H   0  0  0  0  0  0  0  0  0  0  0  0
   13.5491   -0.5104   25.6210 H   0  0  0  0  0  0  0  0  0  0  0  0
   11.4950   -0.8764   21.8519 H   0  0  0  0  0  0  0  0  0  0  0  0
    5.6045   -0.7445   17.1131 H   0  0  0  0  0  0  0  0  0  0  0  0
    5.2365   -0.5803   19.8490 H   0  0  0  0  0  0  0  0  0  0  0  0
    9.0476    0.8990   18.8023 H   0  0  0  0  0  0  0  0  0  0  0  0
    5.4943    0.1018   21.9078 H   0  0  0  0  0  0  0  0  0  0  0  0
    6.4573    1.1667   22.9353 H   0  0  0  0  0  0  0  0  0  0  0  0
    5.7539    1.7854   21.4292 H   0  0  0  0  0  0  0  0  0  0  0  0
    7.5846   -1.7239   25.3240 H   0  0  0  0  0  0  0  0  0  0  0  0
    7.6179   -2.7776   23.8947 H   0  0  0  0  0  0  0  0  0  0  0  0
    8.7613   -3.0429   25.2098 H   0  0  0  0  0  0  0  0  0  0  0  0
    7.4753    2.8600   25.4686 H   0  0  0  0  0  0  0  0  0  0  0  0
    8.5655    2.5793   26.8617 H   0  0  0  0  0  0  0  0  0  0  0  0
    7.1524    1.5228   26.6029 H   0  0  0  0  0  0  0  0  0  0  0  0
   11.6518    0.9730   25.0335 H   0  0  0  0  0  0  0  0  0  0  0  0
   10.8227    0.7900   23.5022 H   0  0  0  0  0  0  0  0  0  0  0  0
    8.1831    1.3833   21.1754 H   0  0  0  0  0  0  0  0  0  0  0  0
   10.6634   -1.4291   25.5875 H   0  0  0  0  0  0  0  0  0  0  0  0
    9.8721   -1.9224   23.3065 H   0  0  0  0  0  0  0  0  0  0  0  0
    8.3089    0.5280   23.5186 H   0  0  0  0  0  0  0  0  0  0  0  0
  1  2  1  0  0  0  0
  1  3  2  0  0  0  0
  2  4  2  0  0  0  0
  3  5  1  0  0  0  0
  4  9  1  0  0  0  0
  5  9  2  0  0  0  0
  6  7  2  0  0  0  0
  6 19  1  0  0  0  0
  7 20  1  0  0  0  0
  8 19  2  0  0  0  0
  8 20  1  0  0  0  0
  9 15  1  0  0  0  0
 10 16  1  0  0  0  0
 10 21  1  0  0  0  0
 10 22  2  0  0  0  0
 11 17  1  0  0  0  0
 11 23  2  0  0  0  0
 11 24  1  0  0  0  0
 12 16  1  0  0  0  0
 13 18  1  0  0  0  0
 14 24  1  0  0  0  0
 15 17  1  0  0  0  0
 16 20  1  0  0  0  0
 17 18  1  0  0  0  0
 18 21  1  0  0  0  0
  1 25  1  0  0  0  0
  2 26  1  0  0  0  0
  3 27  1  0  0  0  0
  4 28  1  0  0  0  0
  5 29  1  0  0  0  0
  6 30  1  0  0  0  0
  7 31  1  0  0  0  0
  8 32  1  0  0  0  0
 12 33  1  0  0  0  0
 12 34  1  0  0  0  0
 12 35  1  0  0  0  0
 13 36  1  0  0  0  0
 13 37  1  0  0  0  0
 13 38  1  0  0  0  0
 14 39  1  0  0  0  0
 14 40  1  0  0  0  0
 14 41  1  0  0  0  0
 15 42  1  0  0  0  0
 15 43  1  0  0  0  0
 16 44  1  0  0  0  0
 17 45  1  0  0  0  0
 18 46  1  0  0  0  0
 21 47  1  0  0  0  0
M  END
> <IC50 (uM)>

> <IC50 (uM) - std>

> <Average Inhibition @ 20 uM>

> <Average Inhibition @ 20 uM - std>

> <Average Inhibition @ 50 uM>

> <Average Inhibition @ 50 uM - std>
-2.6

> <Trypsin IC50 (uM)>
2.81

> <Relative Solubility @ 20 uM>

> <Relative Solubility @ 100 uM>

> <Hybrid2>
-9.083750

> <docked_fragment>
x0678

> <Mpro-_dock>
0.680563

> <site>
active-noncovalent

$$$$
ALE-UNK-fca05062-3
  -OEChem-05192003313D

 42 43  0     0  0  0  0  0  0999 V2000
    6.8653    4.8093   21.8201 C   0  0  0  0  0  0  0  0  0  0  0  0
    7.2059    6.1611   21.7727 C   0  0  0  0  0  0  0  0  0  0  0  0
    7.6531    3.9166   22.5468 C   0  0  0  0  0  0  0  0  0  0  0  0
   10.1772   -1.4544   23.4014 C   0  0  0  0  0  0  0  0  0  0  0  0
    8.3344    6.6201   22.4520 C   0  0  0  0  0  0  0  0  0  0  0  0
    8.7816    4.3756   23.2260 C   0  0  0  0  0  0  0  0  0  0  0  0
   11.3158   -1.5450   22.6007 C   0  0  0  0  0  0  0  0  0  0  0  0
    9.9924   -0.3463   24.2282 C   0  0  0  0  0  0  0  0  0  0  0  0
    9.1223    5.7274   23.1786 C   0  0  0  0  0  0  0  0  0  0  0  0
   12.2696   -0.5276   22.6270 C   0  0  0  0  0  0  0  0  0  0  0  0
   10.9462    0.6712   24.2544 C   0  0  0  0  0  0  0  0  0  0  0  0
   12.0848    0.5805   23.4538 C   0  0  0  0  0  0  0  0  0  0  0  0
   12.7121    3.9621   23.2948 C   0  0  0  0  0  0  0  0  0  0  0  0
   13.4816   -0.6430   21.7623 C   0  0  0  0  0  0  0  0  0  0  0  0
   10.7302    1.8492   25.1464 C   0  0  0  0  0  0  0  0  0  0  0  0
   10.3434    6.2233   23.9135 C   0  0  0  0  0  0  0  0  0  0  0  0
   12.8625    2.6446   22.5646 C   0  0  0  0  0  0  0  0  0  0  0  0
   11.6093    6.1814   23.0611 C   0  0  0  0  0  0  0  0  0  0  0  0
   11.9160    4.8507   22.5890 N   0  0  0  0  0  0  0  0  0  0  0  0
   13.2431    4.1846   24.3794 O   0  0  0  0  0  0  0  0  0  0  0  0
   13.0257    1.5827   23.4805 O   0  0  0  0  0  0  0  0  0  0  0  0
    5.9858    4.4522   21.2922 H   0  0  0  0  0  0  0  0  0  0  0  0
    6.5920    6.8565   21.2079 H   0  0  0  0  0  0  0  0  0  0  0  0
    7.3876    2.8642   22.5848 H   0  0  0  0  0  0  0  0  0  0  0  0
    9.4344   -2.2465   23.3808 H   0  0  0  0  0  0  0  0  0  0  0  0
    8.5923    7.6751   22.4093 H   0  0  0  0  0  0  0  0  0  0  0  0
    9.3896    3.6728   23.7895 H   0  0  0  0  0  0  0  0  0  0  0  0
   11.4508   -2.4122   21.9600 H   0  0  0  0  0  0  0  0  0  0  0  0
    9.1022   -0.2848   24.8484 H   0  0  0  0  0  0  0  0  0  0  0  0
   13.2943   -0.1880   20.7827 H   0  0  0  0  0  0  0  0  0  0  0  0
   14.3445   -0.1437   22.2202 H   0  0  0  0  0  0  0  0  0  0  0  0
   13.7630   -1.6927   21.6121 H   0  0  0  0  0  0  0  0  0  0  0  0
   11.1709    1.6647   26.1330 H   0  0  0  0  0  0  0  0  0  0  0  0
   11.1841    2.7545   24.7246 H   0  0  0  0  0  0  0  0  0  0  0  0
    9.6608    2.0585   25.2747 H   0  0  0  0  0  0  0  0  0  0  0  0
   10.4874    5.6031   24.8073 H   0  0  0  0  0  0  0  0  0  0  0  0
   10.1678    7.2432   24.2790 H   0  0  0  0  0  0  0  0  0  0  0  0
   11.9627    2.4560   21.9713 H   0  0  0  0  0  0  0  0  0  0  0  0
   13.7295    2.6816   21.8977 H   0  0  0  0  0  0  0  0  0  0  0  0
   11.4824    6.8097   22.1738 H   0  0  0  0  0  0  0  0  0  0  0  0
   12.4813    6.5447   23.6147 H   0  0  0  0  0  0  0  0  0  0  0  0
   11.5302    4.5523   21.6979 H   0  0  0  0  0  0  0  0  0  0  0  0
  1  2  1  0  0  0  0
  1  3  2  0  0  0  0
  2  5  2  0  0  0  0
  3  6  1  0  0  0  0
  4  7  2  0  0  0  0
  4  8  1  0  0  0  0
  5  9  1  0  0  0  0
  6  9  2  0  0  0  0
  7 10  1  0  0  0  0
  8 11  2  0  0  0  0
  9 16  1  0  0  0  0
 10 12  2  0  0  0  0
 10 14  1  0  0  0  0
 11 12  1  0  0  0  0
 11 15  1  0  0  0  0
 12 21  1  0  0  0  0
 13 17  1  0  0  0  0
 13 19  1  0  0  0  0
 13 20  2  0  0  0  0
 16 18  1  0  0  0  0
 17 21  1  0  0  0  0
 18 19  1  0  0  0  0
  1 22  1  0  0  0  0
  2 23  1  0  0  0  0
  3 24  1  0  0  0  0
  4 25  1  0  0  0  0
  5 26  1  0  0  0  0
  6 27  1  0  0  0  0
  7 28  1  0  0  0  0
  8 29  1  0  0  0  0
 14 30  1  0  0  0  0
 14 31  1  0  0  0  0
 14 32  1  0  0  0  0
 15 33  1  0  0  0  0
 15 34  1  0  0  0  0
 15 35  1  0  0  0  0
 16 36  1  0  0  0  0
 16 37  1  0  0  0  0
 17 38  1  0  0  0  0
 17 39  1  0  0  0  0
 18 40  1  0  0  0  0
 18 41  1  0  0  0  0
 19 42  1  0  0  0  0
M  END
> <IC50 (uM)>

> <IC50 (uM) - std>

> <Average Inhibition @ 20 uM>

> <Average Inhibition @ 20 uM - std>
1.78

> <Average Inhibition @ 50 uM>
1.98

> <Average Inhibition @ 50 uM - std>
7.25

> <Trypsin IC50 (uM)>
1.1

> <Relative Solubility @ 20 uM>
1.0

> <Relative Solubility @ 100 uM>
0.98

> <Hybrid2>
-9.082601

> <docked_fragment>
x0104

> <Mpro-_dock>
1.012458

> <site>
active-noncovalent

$$$$
MAK-UNK-6435e6c2-1
  -OEChem-05192003313D

 31 32  0     0  0  0  0  0  0999 V2000
   13.4156   -1.3751   23.2558 C   0  0  0  0  0  0  0  0  0  0  0  0
   12.2403   -1.9525   22.6941 C   0  0  0  0  0  0  0  0  0  0  0  0
   13.1207   -0.4140   24.1975 C   0  0  0  0  0  0  0  0  0  0  0  0
   11.0917   -1.4107   23.2282 C   0  0  0  0  0  0  0  0  0  0  0  0
    7.0155   -5.4426   26.7278 C   0  0  0  0  0  0  0  0  0  0  0  0
    8.7525   -3.6042   26.4549 C   0  0  0  0  0  0  0  0  0  0  0  0
    8.3213   -5.2120   24.6381 C   0  0  0  0  0  0  0  0  0  0  0  0
    8.6703   -2.4521   25.4580 C   0  0  0  0  0  0  0  0  0  0  0  0
    8.2345   -4.0661   23.6363 C   0  0  0  0  0  0  0  0  0  0  0  0
    5.8865   -6.0751   25.9540 C   0  0  0  0  0  0  0  0  0  0  0  0
    7.9729   -4.7549   25.9841 N   0  0  0  0  0  0  0  0  0  0  0  0
    9.0869   -2.9323   24.1057 N   0  0  0  0  0  0  0  0  0  0  0  0
    7.0455   -5.5596   27.9555 O   0  0  0  0  0  0  0  0  0  0  0  0
    8.6524   -0.5102   23.3376 O   0  0  0  0  0  0  0  0  0  0  0  0
    9.2270   -2.2634   21.6218 O   0  0  0  0  0  0  0  0  0  0  0  0
   11.4326   -0.2109   24.4015 S   0  0  0  0  0  0  0  0  0  0  0  0
    9.3736   -1.7025   22.9476 S   0  0  0  0  0  0  0  0  0  0  0  0
   14.4260   -1.6512   22.9836 H   0  0  0  0  0  0  0  0  0  0  0  0
   12.2398   -2.7258   21.9368 H   0  0  0  0  0  0  0  0  0  0  0  0
   13.8156    0.1782   24.7760 H   0  0  0  0  0  0  0  0  0  0  0  0
    9.7896   -3.9456   26.5592 H   0  0  0  0  0  0  0  0  0  0  0  0
    8.4231   -3.2592   27.4365 H   0  0  0  0  0  0  0  0  0  0  0  0
    7.6695   -6.0325   24.3223 H   0  0  0  0  0  0  0  0  0  0  0  0
    9.3449   -5.6028   24.6866 H   0  0  0  0  0  0  0  0  0  0  0  0
    7.6516   -2.0500   25.4123 H   0  0  0  0  0  0  0  0  0  0  0  0
    9.3456   -1.6525   25.7813 H   0  0  0  0  0  0  0  0  0  0  0  0
    8.5987   -4.4145   22.6637 H   0  0  0  0  0  0  0  0  0  0  0  0
    7.1982   -3.7286   23.5194 H   0  0  0  0  0  0  0  0  0  0  0  0
    6.1677   -7.0862   25.6785 H   0  0  0  0  0  0  0  0  0  0  0  0
    5.6941   -5.4877   25.0618 H   0  0  0  0  0  0  0  0  0  0  0  0
    4.9968   -6.0937   26.5751 H   0  0  0  0  0  0  0  0  0  0  0  0
  1  2  1  0  0  0  0
  1  3  2  0  0  0  0
  2  4  2  0  0  0  0
  3 16  1  0  0  0  0
  4 16  1  0  0  0  0
  4 17  1  0  0  0  0
  5 10  1  0  0  0  0
  5 11  1  0  0  0  0
  5 13  2  0  0  0  0
  6  8  1  0  0  0  0
  6 11  1  0  0  0  0
  7  9  1  0  0  0  0
  7 11  1  0  0  0  0
  8 12  1  0  0  0  0
  9 12  1  0  0  0  0
 12 17  1  0  0  0  0
 14 17  2  0  0  0  0
 15 17  2  0  0  0  0
  1 18  1  0  0  0  0
  2 19  1  0  0  0  0
  3 20  1  0  0  0  0
  6 21  1  0  0  0  0
  6 22  1  0  0  0  0
  7 23  1  0  0  0  0
  7 24  1  0  0  0  0
  8 25  1  0  0  0  0
  8 26  1  0  0  0  0
  9 27  1  0  0  0  0
  9 28  1  0  0  0  0
 10 29  1  0  0  0  0
 10 30  1  0  0  0  0
 10 31  1  0  0  0  0
M  END
> <IC50 (uM)>

> <IC50 (uM) - std>

> <Average Inhibition @ 20 uM>

> <Average Inhibition @ 20 uM - std>
2.33

> <Average Inhibition @ 50 uM>
3.2

> <Average Inhibition @ 50 uM - std>
4.21

> <Trypsin IC50 (uM)>
4.43

> <Relative Solubility @ 20 uM>
1.0

> <Relative Solubility @ 100 uM>
1.0

> <Hybrid2>
-9.079074

> <docked_fragment>
x0072

> <Mpro-_dock>
-0.360562

> <site>
active-noncovalent

$$$$
MAK-UNK-6435e6c2-4
  -OEChem-05192003313D

 30 31  0     0  0  0  0  0  0999 V2000
    9.1582   -5.1319   23.9380 C   0  0  0  0  0  0  0  0  0  0  0  0
   10.3296   -4.5334   24.4017 C   0  0  0  0  0  0  0  0  0  0  0  0
    8.3284   -4.4461   23.0510 C   0  0  0  0  0  0  0  0  0  0  0  0
    9.8415   -2.5630   23.0915 C   0  0  0  0  0  0  0  0  0  0  0  0
   10.6713   -3.2489   23.9785 C   0  0  0  0  0  0  0  0  0  0  0  0
    8.6700   -3.1616   22.6278 C   0  0  0  0  0  0  0  0  0  0  0  0
   12.3476   -1.3553   24.1194 C   0  0  0  0  0  0  0  0  0  0  0  0
    6.6347   -2.9106   21.1721 C   0  0  0  0  0  0  0  0  0  0  0  0
   13.6967   -1.1938   24.7826 C   0  0  0  0  0  0  0  0  0  0  0  0
   13.6730   -2.2354   25.8833 C   0  0  0  0  0  0  0  0  0  0  0  0
   12.8110   -3.3380   25.3049 C   0  0  0  0  0  0  0  0  0  0  0  0
    6.0395   -1.8683   20.2589 C   0  0  0  0  0  0  0  0  0  0  0  0
   11.8696   -2.6377   24.4527 N   0  0  0  0  0  0  0  0  0  0  0  0
    7.8396   -2.4762   21.7405 N   0  0  0  0  0  0  0  0  0  0  0  0
   11.8653   -0.4986   23.3930 O   0  0  0  0  0  0  0  0  0  0  0  0
    6.0714   -3.9858   21.3494 O   0  0  0  0  0  0  0  0  0  0  0  0
    8.8927   -6.1324   24.2667 H   0  0  0  0  0  0  0  0  0  0  0  0
   10.9680   -5.0773   25.0934 H   0  0  0  0  0  0  0  0  0  0  0  0
    7.4176   -4.9227   22.6973 H   0  0  0  0  0  0  0  0  0  0  0  0
   10.1079   -1.5609   22.7616 H   0  0  0  0  0  0  0  0  0  0  0  0
   14.4777   -1.4032   24.0449 H   0  0  0  0  0  0  0  0  0  0  0  0
   13.8184   -0.1832   25.1799 H   0  0  0  0  0  0  0  0  0  0  0  0
   14.6752   -2.5806   26.1526 H   0  0  0  0  0  0  0  0  0  0  0  0
   13.2006   -1.8213   26.7824 H   0  0  0  0  0  0  0  0  0  0  0  0
   13.3978   -4.0208   24.6804 H   0  0  0  0  0  0  0  0  0  0  0  0
   12.2864   -3.9039   26.0807 H   0  0  0  0  0  0  0  0  0  0  0  0
    6.4120   -2.0121   19.2408 H   0  0  0  0  0  0  0  0  0  0  0  0
    6.3235   -0.8696   20.6025 H   0  0  0  0  0  0  0  0  0  0  0  0
    4.9484   -1.9467   20.2643 H   0  0  0  0  0  0  0  0  0  0  0  0
    8.1438   -1.5348   21.4665 H   0  0  0  0  0  0  0  0  0  0  0  0
  1  2  1  0  0  0  0
  1  3  2  0  0  0  0
  2  5  2  0  0  0  0
  3  6  1  0  0  0  0
  4  5  1  0  0  0  0
  4  6  2  0  0  0  0
  5 13  1  0  0  0  0
  6 14  1  0  0  0  0
  7  9  1  0  0  0  0
  7 13  1  0  0  0  0
  7 15  2  0  0  0  0
  8 12  1  0  0  0  0
  8 14  1  0  0  0  0
  8 16  2  0  0  0  0
  9 10  1  0  0  0  0
 10 11  1  0  0  0  0
 11 13  1  0  0  0  0
  1 17  1  0  0  0  0
  2 18  1  0  0  0  0
  3 19  1  0  0  0  0
  4 20  1  0  0  0  0
  9 21  1  0  0  0  0
  9 22  1  0  0  0  0
 10 23  1  0  0  0  0
 10 24  1  0  0  0  0
 11 25  1  0  0  0  0
 11 26  1  0  0  0  0
 12 27  1  0  0  0  0
 12 28  1  0  0  0  0
 12 29  1  0  0  0  0
 14 30  1  0  0  0  0
M  END
> <IC50 (uM)>

> <IC50 (uM) - std>

> <Average Inhibition @ 20 uM>

> <Average Inhibition @ 20 uM - std>
27.1

> <Average Inhibition @ 50 uM>
0.0478

> <Average Inhibition @ 50 uM - std>
51.4

> <Trypsin IC50 (uM)>
0.201

> <Relative Solubility @ 20 uM>

> <Relative Solubility @ 100 uM>

> <Hybrid2>
-9.072135

> <docked_fragment>
x0749

> <Mpro-_dock>
-0.622703

> <site>
active-covalent

$$$$
MAK-UNK-6435e6c2-5
  -OEChem-05192003313D

 34 35  0     0  0  0  0  0  0999 V2000
   12.6078    0.3412   24.6613 C   0  0  0  0  0  0  0  0  0  0  0  0
   13.6861   -0.4354   24.2377 C   0  0  0  0  0  0  0  0  0  0  0  0
   11.3113    0.0075   24.2695 C   0  0  0  0  0  0  0  0  0  0  0  0
   12.1717   -1.8797   23.0303 C   0  0  0  0  0  0  0  0  0  0  0  0
   13.4681   -1.5459   23.4222 C   0  0  0  0  0  0  0  0  0  0  0  0
   11.0933   -1.1030   23.4540 C   0  0  0  0  0  0  0  0  0  0  0  0
    6.6508   -5.2887   26.4188 C   0  0  0  0  0  0  0  0  0  0  0  0
    8.0069   -3.1904   26.0193 C   0  0  0  0  0  0  0  0  0  0  0  0
    7.9792   -5.0371   24.3526 C   0  0  0  0  0  0  0  0  0  0  0  0
    9.3308   -2.8539   25.3457 C   0  0  0  0  0  0  0  0  0  0  0  0
    8.2042   -3.9090   23.3555 C   0  0  0  0  0  0  0  0  0  0  0  0
    5.6855   -4.5258   27.2922 C   0  0  0  0  0  0  0  0  0  0  0  0
    7.5189   -4.5213   25.6419 N   0  0  0  0  0  0  0  0  0  0  0  0
    9.2311   -2.9573   23.8623 N   0  0  0  0  0  0  0  0  0  0  0  0
    6.6387   -6.5218   26.4291 O   0  0  0  0  0  0  0  0  0  0  0  0
    8.5599   -0.5069   23.4670 O   0  0  0  0  0  0  0  0  0  0  0  0
    9.4823   -1.8602   21.5524 O   0  0  0  0  0  0  0  0  0  0  0  0
   14.5040   -2.2914   23.0153 F   0  0  0  0  0  0  0  0  0  0  0  0
    9.4524   -1.5269   22.9602 S   0  0  0  0  0  0  0  0  0  0  0  0
   12.7781    1.2059   25.2960 H   0  0  0  0  0  0  0  0  0  0  0  0
   14.6956   -0.1756   24.5426 H   0  0  0  0  0  0  0  0  0  0  0  0
   10.4783    0.6191   24.6060 H   0  0  0  0  0  0  0  0  0  0  0  0
   12.0141   -2.7468   22.3945 H   0  0  0  0  0  0  0  0  0  0  0  0
    8.1261   -3.1975   27.1155 H   0  0  0  0  0  0  0  0  0  0  0  0
    7.2735   -2.4061   25.7908 H   0  0  0  0  0  0  0  0  0  0  0  0
    7.2636   -5.7597   23.9426 H   0  0  0  0  0  0  0  0  0  0  0  0
    8.9172   -5.5776   24.5401 H   0  0  0  0  0  0  0  0  0  0  0  0
    9.6604   -1.8363   25.6257 H   0  0  0  0  0  0  0  0  0  0  0  0
   10.1022   -3.5573   25.7061 H   0  0  0  0  0  0  0  0  0  0  0  0
    8.5475   -4.3401   22.4018 H   0  0  0  0  0  0  0  0  0  0  0  0
    7.2622   -3.3708   23.1585 H   0  0  0  0  0  0  0  0  0  0  0  0
    4.7725   -4.3418   26.7357 H   0  0  0  0  0  0  0  0  0  0  0  0
    6.1383   -3.5834   27.5837 H   0  0  0  0  0  0  0  0  0  0  0  0
    5.4678   -5.1133   28.1784 H   0  0  0  0  0  0  0  0  0  0  0  0
  1  2  1  0  0  0  0
  1  3  2  0  0  0  0
  2  5  2  0  0  0  0
  3  6  1  0  0  0  0
  4  5  1  0  0  0  0
  4  6  2  0  0  0  0
  5 18  1  0  0  0  0
  6 19  1  0  0  0  0
  7 12  1  0  0  0  0
  7 13  1  0  0  0  0
  7 15  2  0  0  0  0
  8 10  1  0  0  0  0
  8 13  1  0  0  0  0
  9 11  1  0  0  0  0
  9 13  1  0  0  0  0
 10 14  1  0  0  0  0
 11 14  1  0  0  0  0
 14 19  1  0  0  0  0
 16 19  2  0  0  0  0
 17 19  2  0  0  0  0
  1 20  1  0  0  0  0
  2 21  1  0  0  0  0
  3 22  1  0  0  0  0
  4 23  1  0  0  0  0
  8 24  1  0  0  0  0
  8 25  1  0  0  0  0
  9 26  1  0  0  0  0
  9 27  1  0  0  0  0
 10 28  1  0  0  0  0
 10 29  1  0  0  0  0
 11 30  1  0  0  0  0
 11 31  1  0  0  0  0
 12 32  1  0  0  0  0
 12 33  1  0  0  0  0
 12 34  1  0  0  0  0
M  END
> <IC50 (uM)>

> <IC50 (uM) - std>

> <Average Inhibition @ 20 uM>

> <Average Inhibition @ 20 uM - std>
6.2

> <Average Inhibition @ 50 uM>
7.06

> <Average Inhibition @ 50 uM - std>
1.43

> <Trypsin IC50 (uM)>
0.641

> <Relative Solubility @ 20 uM>
1.0

> <Relative Solubility @ 100 uM>
1.0

> <Hybrid2>
-9.055698

> <docked_fragment>
x0072

> <Mpro-_dock>
-0.272488

> <site>
active-noncovalent

$$$$
BAR-COM-4e090d3a-15
  -OEChem-05192003313D

 45 47  0     0  0  0  0  0  0999 V2000
    7.0538   -0.0693   20.9896 C   0  0  0  0  0  0  0  0  0  0  0  0
    7.3285    0.1541   22.3388 C   0  0  0  0  0  0  0  0  0  0  0  0
    7.5225   -1.2248   20.3644 C   0  0  0  0  0  0  0  0  0  0  0  0
   14.4186   -0.7376   22.3000 C   0  0  0  0  0  0  0  0  0  0  0  0
   12.5396    7.2923   26.1358 C   0  0  0  0  0  0  0  0  0  0  0  0
    8.0719   -0.7779   23.0628 C   0  0  0  0  0  0  0  0  0  0  0  0
    8.2660   -2.1568   21.0884 C   0  0  0  0  0  0  0  0  0  0  0  0
   13.0467    6.4441   25.1576 C   0  0  0  0  0  0  0  0  0  0  0  0
   14.4330    0.6571   22.3047 C   0  0  0  0  0  0  0  0  0  0  0  0
   13.3064   -1.4253   22.7857 C   0  0  0  0  0  0  0  0  0  0  0  0
   12.2231    0.6766   23.2810 C   0  0  0  0  0  0  0  0  0  0  0  0
   11.2102    7.6708   26.0404 C   0  0  0  0  0  0  0  0  0  0  0  0
    8.5407   -1.9334   22.4376 C   0  0  0  0  0  0  0  0  0  0  0  0
   12.2205    6.0065   24.1285 C   0  0  0  0  0  0  0  0  0  0  0  0
   13.3352    1.3643   22.7952 C   0  0  0  0  0  0  0  0  0  0  0  0
   12.2087   -0.7182   23.2762 C   0  0  0  0  0  0  0  0  0  0  0  0
   10.9052    6.4423   24.1230 C   0  0  0  0  0  0  0  0  0  0  0  0
   12.3494    3.6375   23.2484 C   0  0  0  0  0  0  0  0  0  0  0  0
   12.7743    5.0869   23.0719 C   0  0  0  0  0  0  0  0  0  0  0  0
    9.3360   -2.9303   23.2111 C   0  0  0  0  0  0  0  0  0  0  0  0
   10.8417   -2.6614   23.1710 C   0  0  0  0  0  0  0  0  0  0  0  0
   10.3769    7.2662   25.0557 N   0  0  0  0  0  0  0  0  0  0  0  0
   13.3500    2.7595   22.7995 N   0  0  0  0  0  0  0  0  0  0  0  0
   11.2624    3.3264   23.7244 O   0  0  0  0  0  0  0  0  0  0  0  0
   11.1162   -1.3936   23.7536 O   0  0  0  0  0  0  0  0  0  0  0  0
    9.7873    5.9729   22.9029 Cl  0  0  0  0  0  0  0  0  0  0  0  0
    6.4737    0.6559   20.4264 H   0  0  0  0  0  0  0  0  0  0  0  0
    6.9626    1.0532   22.8260 H   0  0  0  0  0  0  0  0  0  0  0  0
    7.3079   -1.3995   19.3143 H   0  0  0  0  0  0  0  0  0  0  0  0
   15.2731   -1.2878   21.9172 H   0  0  0  0  0  0  0  0  0  0  0  0
   13.1652    7.6456   26.9476 H   0  0  0  0  0  0  0  0  0  0  0  0
    8.2813   -0.5954   24.1135 H   0  0  0  0  0  0  0  0  0  0  0  0
    8.6272   -3.0541   20.5930 H   0  0  0  0  0  0  0  0  0  0  0  0
   14.0858    6.1302   25.2060 H   0  0  0  0  0  0  0  0  0  0  0  0
   15.3053    1.1824   21.9242 H   0  0  0  0  0  0  0  0  0  0  0  0
   13.3014   -2.5117   22.7785 H   0  0  0  0  0  0  0  0  0  0  0  0
   11.3645    1.2236   23.6640 H   0  0  0  0  0  0  0  0  0  0  0  0
   10.7665    8.3313   26.7779 H   0  0  0  0  0  0  0  0  0  0  0  0
   12.4523    5.4293   22.0801 H   0  0  0  0  0  0  0  0  0  0  0  0
   13.8705    5.1368   23.0799 H   0  0  0  0  0  0  0  0  0  0  0  0
    9.0009   -2.9493   24.2599 H   0  0  0  0  0  0  0  0  0  0  0  0
    9.1504   -3.9396   22.8125 H   0  0  0  0  0  0  0  0  0  0  0  0
   11.3754   -3.4200   23.7526 H   0  0  0  0  0  0  0  0  0  0  0  0
   11.2256   -2.6693   22.1456 H   0  0  0  0  0  0  0  0  0  0  0  0
   14.1994    3.2001   22.4276 H   0  0  0  0  0  0  0  0  0  0  0  0
  1  2  1  0  0  0  0
  1  3  2  0  0  0  0
  2  6  2  0  0  0  0
  3  7  1  0  0  0  0
  4  9  2  0  0  0  0
  4 10  1  0  0  0  0
  5  8  2  0  0  0  0
  5 12  1  0  0  0  0
  6 13  1  0  0  0  0
  7 13  2  0  0  0  0
  8 14  1  0  0  0  0
  9 15  1  0  0  0  0
 10 16  2  0  0  0  0
 11 15  2  0  0  0  0
 11 16  1  0  0  0  0
 12 22  2  0  0  0  0
 13 20  1  0  0  0  0
 14 17  2  0  0  0  0
 14 19  1  0  0  0  0
 15 23  1  0  0  0  0
 16 25  1  0  0  0  0
 17 22  1  0  0  0  0
 17 26  1  0  0  0  0
 18 19  1  0  0  0  0
 18 23  1  0  0  0  0
 18 24  2  0  0  0  0
 20 21  1  0  0  0  0
 21 25  1  0  0  0  0
  1 27  1  0  0  0  0
  2 28  1  0  0  0  0
  3 29  1  0  0  0  0
  4 30  1  0  0  0  0
  5 31  1  0  0  0  0
  6 32  1  0  0  0  0
  7 33  1  0  0  0  0
  8 34  1  0  0  0  0
  9 35  1  0  0  0  0
 10 36  1  0  0  0  0
 11 37  1  0  0  0  0
 12 38  1  0  0  0  0
 19 39  1  0  0  0  0
 19 40  1  0  0  0  0
 20 41  1  0  0  0  0
 20 42  1  0  0  0  0
 21 43  1  0  0  0  0
 21 44  1  0  0  0  0
 23 45  1  0  0  0  0
M  END
> <IC50 (uM)>

> <IC50 (uM) - std>

> <Average Inhibition @ 20 uM>

> <Average Inhibition @ 20 uM - std>
1.54

> <Average Inhibition @ 50 uM>
1.06

> <Average Inhibition @ 50 uM - std>
6.9

> <Trypsin IC50 (uM)>
0.335

> <Relative Solubility @ 20 uM>
0.81

> <Relative Solubility @ 100 uM>
0.27

> <Hybrid2>
-9.012136

> <docked_fragment>
x0195

> <Mpro-_dock>
4.464138

> <site>
active-noncovalent

$$$$
MAK-UNK-6435e6c2-6
  -OEChem-05192003313D

 34 35  0     0  0  0  0  0  0999 V2000
   12.9961   -0.1516   24.5371 C   0  0  0  0  0  0  0  0  0  0  0  0
   12.9914   -1.1202   23.5334 C   0  0  0  0  0  0  0  0  0  0  0  0
   11.8018    0.2168   25.1565 C   0  0  0  0  0  0  0  0  0  0  0  0
   11.7923   -1.7203   23.1491 C   0  0  0  0  0  0  0  0  0  0  0  0
   10.6028   -0.3834   24.7722 C   0  0  0  0  0  0  0  0  0  0  0  0
   10.5980   -1.3520   23.7684 C   0  0  0  0  0  0  0  0  0  0  0  0
    6.8535   -5.6773   27.3150 C   0  0  0  0  0  0  0  0  0  0  0  0
    8.8366   -4.3712   26.6385 C   0  0  0  0  0  0  0  0  0  0  0  0
    7.0874   -4.8501   24.9358 C   0  0  0  0  0  0  0  0  0  0  0  0
    9.0566   -3.1139   25.8089 C   0  0  0  0  0  0  0  0  0  0  0  0
    8.2369   -4.6195   23.9635 C   0  0  0  0  0  0  0  0  0  0  0  0
    5.5439   -6.3024   26.9021 C   0  0  0  0  0  0  0  0  0  0  0  0
    7.5557   -5.0007   26.3176 N   0  0  0  0  0  0  0  0  0  0  0  0
    9.0549   -3.4370   24.3552 N   0  0  0  0  0  0  0  0  0  0  0  0
    7.2416   -5.7883   28.4803 O   0  0  0  0  0  0  0  0  0  0  0  0
    8.0035   -1.2076   23.6234 O   0  0  0  0  0  0  0  0  0  0  0  0
    9.2415   -2.6048   21.9314 O   0  0  0  0  0  0  0  0  0  0  0  0
   11.8004   -2.6493   22.1829 F   0  0  0  0  0  0  0  0  0  0  0  0
    9.4617   -0.0215   25.3753 F   0  0  0  0  0  0  0  0  0  0  0  0
    9.0806   -2.1115   23.2822 S   0  0  0  0  0  0  0  0  0  0  0  0
   13.9303    0.3150   24.8359 H   0  0  0  0  0  0  0  0  0  0  0  0
   13.9206   -1.4069   23.0502 H   0  0  0  0  0  0  0  0  0  0  0  0
   11.8058    0.9707   25.9381 H   0  0  0  0  0  0  0  0  0  0  0  0
    9.6185   -5.1136   26.4218 H   0  0  0  0  0  0  0  0  0  0  0  0
    8.9184   -4.1237   27.7016 H   0  0  0  0  0  0  0  0  0  0  0  0
    6.3631   -4.0263   24.8586 H   0  0  0  0  0  0  0  0  0  0  0  0
    6.5466   -5.7752   24.6804 H   0  0  0  0  0  0  0  0  0  0  0  0
    8.2773   -2.3651   26.0250 H   0  0  0  0  0  0  0  0  0  0  0  0
   10.0282   -2.6731   26.0810 H   0  0  0  0  0  0  0  0  0  0  0  0
    8.8799   -5.5178   23.9536 H   0  0  0  0  0  0  0  0  0  0  0  0
    7.8536   -4.4818   22.9351 H   0  0  0  0  0  0  0  0  0  0  0  0
    5.7262   -7.3166   26.5620 H   0  0  0  0  0  0  0  0  0  0  0  0
    5.1068   -5.7155   26.1005 H   0  0  0  0  0  0  0  0  0  0  0  0
    4.8708   -6.3120   27.7534 H   0  0  0  0  0  0  0  0  0  0  0  0
  1  2  1  0  0  0  0
  1  3  2  0  0  0  0
  2  4  2  0  0  0  0
  3  5  1  0  0  0  0
  4  6  1  0  0  0  0
  4 18  1  0  0  0  0
  5  6  2  0  0  0  0
  5 19  1  0  0  0  0
  6 20  1  0  0  0  0
  7 12  1  0  0  0  0
  7 13  1  0  0  0  0
  7 15  2  0  0  0  0
  8 10  1  0  0  0  0
  8 13  1  0  0  0  0
  9 11  1  0  0  0  0
  9 13  1  0  0  0  0
 10 14  1  0  0  0  0
 11 14  1  0  0  0  0
 14 20  1  0  0  0  0
 16 20  2  0  0  0  0
 17 20  2  0  0  0  0
  1 21  1  0  0  0  0
  2 22  1  0  0  0  0
  3 23  1  0  0  0  0
  8 24  1  0  0  0  0
  8 25  1  0  0  0  0
  9 26  1  0  0  0  0
  9 27  1  0  0  0  0
 10 28  1  0  0  0  0
 10 29  1  0  0  0  0
 11 30  1  0  0  0  0
 11 31  1  0  0  0  0
 12 32  1  0  0  0  0
 12 33  1  0  0  0  0
 12 34  1  0  0  0  0
M  END
> <IC50 (uM)>

> <IC50 (uM) - std>

> <Average Inhibition @ 20 uM>

> <Average Inhibition @ 20 uM - std>
-1.42

> <Average Inhibition @ 50 uM>
5.78

> <Average Inhibition @ 50 uM - std>
4.18

> <Trypsin IC50 (uM)>
0.576

> <Relative Solubility @ 20 uM>
1.0

> <Relative Solubility @ 100 uM>
1.0

> <Hybrid2>
-9.008776

> <docked_fragment>
x0072

> <Mpro-_dock>
-0.472361

> <site>
active-noncovalent

$$$$
TRY-UNI-714a760b-22
  -OEChem-05192003313D

 35 36  0     1  0  0  0  0  0999 V2000
   13.2969   -1.5446   21.3425 C   0  0  0  0  0  0  0  0  0  0  0  0
   12.6325    0.7562   24.1922 C   0  0  0  0  0  0  0  0  0  0  0  0
   13.2476    0.1677   23.0873 C   0  0  0  0  0  0  0  0  0  0  0  0
   11.4357    0.2351   24.6840 C   0  0  0  0  0  0  0  0  0  0  0  0
    7.0401   -0.7145   19.0738 C   0  0  0  0  0  0  0  0  0  0  0  0
   11.4690   -1.4631   22.9659 C   0  0  0  0  0  0  0  0  0  0  0  0
    6.0443   -1.6749   19.1504 C   0  0  0  0  0  0  0  0  0  0  0  0
    6.5852   -2.1909   21.3228 C   0  0  0  0  0  0  0  0  0  0  0  0
   12.6658   -0.9419   22.4741 C   0  0  0  0  0  0  0  0  0  0  0  0
   10.8540   -0.8745   24.0708 C   0  0  0  0  0  0  0  0  0  0  0  0
    7.8316   -0.5066   20.1978 C   0  0  0  0  0  0  0  0  0  0  0  0
    7.6064   -1.2548   21.3479 C   0  0  0  0  0  0  0  0  0  0  0  0
    8.7012   -2.0372   23.4779 C   0  0  0  0  0  0  0  0  0  0  0  0
    8.9129    0.5223   20.1428 C   0  0  0  0  0  0  0  0  0  0  0  0
    9.8123   -2.4676   25.7120 C   0  0  0  0  0  0  0  0  0  0  0  0
    9.5743   -1.4314   24.5968 C   0  0  1  0  0  0  0  0  0  0  0  0
   13.8094   -2.0341   20.4236 N   0  0  0  0  0  0  0  0  0  0  0  0
    5.7956   -2.4212   20.2498 N   0  0  0  0  0  0  0  0  0  0  0  0
    8.3844   -1.0801   22.5169 N   0  0  0  0  0  0  0  0  0  0  0  0
    8.3800   -3.2221   23.4765 O   0  0  0  0  0  0  0  0  0  0  0  0
   13.0846    1.6209   24.6692 H   0  0  0  0  0  0  0  0  0  0  0  0
   14.1804    0.5849   22.7157 H   0  0  0  0  0  0  0  0  0  0  0  0
   10.9643    0.7003   25.5458 H   0  0  0  0  0  0  0  0  0  0  0  0
    7.1900   -0.1478   18.1611 H   0  0  0  0  0  0  0  0  0  0  0  0
   11.0099   -2.3278   22.4911 H   0  0  0  0  0  0  0  0  0  0  0  0
    5.3997   -1.8755   18.3010 H   0  0  0  0  0  0  0  0  0  0  0  0
    6.3604   -2.8054   22.1896 H   0  0  0  0  0  0  0  0  0  0  0  0
    8.5265    1.4968   20.4627 H   0  0  0  0  0  0  0  0  0  0  0  0
    9.7534    0.2490   20.7926 H   0  0  0  0  0  0  0  0  0  0  0  0
    9.3141    0.6215   19.1266 H   0  0  0  0  0  0  0  0  0  0  0  0
   10.4163   -3.3094   25.3552 H   0  0  0  0  0  0  0  0  0  0  0  0
   10.3376   -2.0293   26.5680 H   0  0  0  0  0  0  0  0  0  0  0  0
    8.8581   -2.8656   26.0747 H   0  0  0  0  0  0  0  0  0  0  0  0
    8.9609   -0.6318   25.0577 H   0  0  0  0  0  0  0  0  0  0  0  0
    8.7509   -0.1410   22.6567 H   0  0  0  0  0  0  0  0  0  0  0  0
  1  9  1  0  0  0  0
  1 17  3  0  0  0  0
  2  3  1  0  0  0  0
  2  4  2  0  0  0  0
  3  9  2  0  0  0  0
  4 10  1  0  0  0  0
  5  7  2  0  0  0  0
  5 11  1  0  0  0  0
  6  9  1  0  0  0  0
  6 10  2  0  0  0  0
  7 18  1  0  0  0  0
  8 12  1  0  0  0  0
  8 18  2  0  0  0  0
 10 16  1  0  0  0  0
 11 12  2  0  0  0  0
 11 14  1  0  0  0  0
 12 19  1  0  0  0  0
 13 16  1  0  0  0  0
 13 19  1  0  0  0  0
 13 20  2  0  0  0  0
 15 16  1  0  0  0  0
  2 21  1  0  0  0  0
  3 22  1  0  0  0  0
  4 23  1  0  0  0  0
  5 24  1  0  0  0  0
  6 25  1  0  0  0  0
  7 26  1  0  0  0  0
  8 27  1  0  0  0  0
 14 28  1  0  0  0  0
 14 29  1  0  0  0  0
 14 30  1  0  0  0  0
 15 31  1  0  0  0  0
 15 32  1  0  0  0  0
 15 33  1  0  0  0  0
 16 34  1  0  0  0  0
 19 35  1  0  0  0  0
M  END
> <IC50 (uM)>
55.2

> <IC50 (uM) - std>
3.65

> <Average Inhibition @ 20 uM>
> 99.0

> <Average Inhibition @ 20 uM - std>
35.4

> <Average Inhibition @ 50 uM>
1.38

> <Average Inhibition @ 50 uM - std>
61.4

> <Trypsin IC50 (uM)>
0.439

> <Relative Solubility @ 20 uM>
1.0

> <Relative Solubility @ 100 uM>
1.0

> <Hybrid2>
-8.995143

> <docked_fragment>
x0831

> <Mpro-_dock>
-0.611714

> <site>
active-covalent

$$$$
ALE-UNK-fca05062-4
  -OEChem-05192003313D

 36 37  0     0  0  0  0  0  0999 V2000
   14.5657   -2.6221   23.4139 C   0  0  0  0  0  0  0  0  0  0  0  0
    4.8773    1.2580   19.0119 C   0  0  0  0  0  0  0  0  0  0  0  0
   14.3595   -1.8950   24.5863 C   0  0  0  0  0  0  0  0  0  0  0  0
   14.0982   -2.1287   22.1958 C   0  0  0  0  0  0  0  0  0  0  0  0
    5.5895    1.3388   20.2085 C   0  0  0  0  0  0  0  0  0  0  0  0
    5.4970    0.7655   17.8633 C   0  0  0  0  0  0  0  0  0  0  0  0
   13.6858   -0.6745   24.5406 C   0  0  0  0  0  0  0  0  0  0  0  0
   13.4244   -0.9082   22.1502 C   0  0  0  0  0  0  0  0  0  0  0  0
    6.9215    0.9273   20.2565 C   0  0  0  0  0  0  0  0  0  0  0  0
    6.8289    0.3540   17.9114 C   0  0  0  0  0  0  0  0  0  0  0  0
   13.2182   -0.1811   23.3225 C   0  0  0  0  0  0  0  0  0  0  0  0
    7.5412    0.4349   19.1079 C   0  0  0  0  0  0  0  0  0  0  0  0
    9.8980    0.6280   21.2397 C   0  0  0  0  0  0  0  0  0  0  0  0
   12.4890    1.1391   23.2724 C   0  0  0  0  0  0  0  0  0  0  0  0
    9.3283   -0.4815   20.3816 C   0  0  0  0  0  0  0  0  0  0  0  0
   10.9799    0.9930   23.4515 C   0  0  0  0  0  0  0  0  0  0  0  0
   10.3816    0.1454   22.4458 N   0  0  0  0  0  0  0  0  0  0  0  0
    9.9151    1.8024   20.8814 O   0  0  0  0  0  0  0  0  0  0  0  0
    8.8545    0.0307   19.1543 O   0  0  0  0  0  0  0  0  0  0  0  0
   15.0915   -3.5718   23.4495 H   0  0  0  0  0  0  0  0  0  0  0  0
    3.8401    1.5777   18.9743 H   0  0  0  0  0  0  0  0  0  0  0  0
   14.7244   -2.2785   25.5346 H   0  0  0  0  0  0  0  0  0  0  0  0
   14.2595   -2.6940   21.2828 H   0  0  0  0  0  0  0  0  0  0  0  0
    5.1072    1.7224   21.1029 H   0  0  0  0  0  0  0  0  0  0  0  0
    4.9417    0.7027   16.9319 H   0  0  0  0  0  0  0  0  0  0  0  0
   13.5295   -0.1149   25.4591 H   0  0  0  0  0  0  0  0  0  0  0  0
   13.0636   -0.5317   21.1967 H   0  0  0  0  0  0  0  0  0  0  0  0
    7.4712    0.9943   21.1914 H   0  0  0  0  0  0  0  0  0  0  0  0
    7.3070   -0.0271   17.0131 H   0  0  0  0  0  0  0  0  0  0  0  0
   12.6950    1.6139   22.3048 H   0  0  0  0  0  0  0  0  0  0  0  0
   12.8958    1.8168   24.0338 H   0  0  0  0  0  0  0  0  0  0  0  0
   10.1130   -1.2147   20.1720 H   0  0  0  0  0  0  0  0  0  0  0  0
    8.5060   -0.9777   20.9064 H   0  0  0  0  0  0  0  0  0  0  0  0
   10.7621    0.5342   24.4212 H   0  0  0  0  0  0  0  0  0  0  0  0
   10.4725    1.9625   23.4109 H   0  0  0  0  0  0  0  0  0  0  0  0
   10.3121   -0.8509   22.6313 H   0  0  0  0  0  0  0  0  0  0  0  0
  1  3  1  0  0  0  0
  1  4  2  0  0  0  0
  2  5  1  0  0  0  0
  2  6  2  0  0  0  0
  3  7  2  0  0  0  0
  4  8  1  0  0  0  0
  5  9  2  0  0  0  0
  6 10  1  0  0  0  0
  7 11  1  0  0  0  0
  8 11  2  0  0  0  0
  9 12  1  0  0  0  0
 10 12  2  0  0  0  0
 11 14  1  0  0  0  0
 12 19  1  0  0  0  0
 13 15  1  0  0  0  0
 13 17  1  0  0  0  0
 13 18  2  0  0  0  0
 14 16  1  0  0  0  0
 15 19  1  0  0  0  0
 16 17  1  0  0  0  0
  1 20  1  0  0  0  0
  2 21  1  0  0  0  0
  3 22  1  0  0  0  0
  4 23  1  0  0  0  0
  5 24  1  0  0  0  0
  6 25  1  0  0  0  0
  7 26  1  0  0  0  0
  8 27  1  0  0  0  0
  9 28  1  0  0  0  0
 10 29  1  0  0  0  0
 14 30  1  0  0  0  0
 14 31  1  0  0  0  0
 15 32  1  0  0  0  0
 15 33  1  0  0  0  0
 16 34  1  0  0  0  0
 16 35  1  0  0  0  0
 17 36  1  0  0  0  0
M  END
> <IC50 (uM)>

> <IC50 (uM) - std>

> <Average Inhibition @ 20 uM>

> <Average Inhibition @ 20 uM - std>
-0.178

> <Average Inhibition @ 50 uM>
1.95

> <Average Inhibition @ 50 uM - std>
-0.0738

> <Trypsin IC50 (uM)>
2.77

> <Relative Solubility @ 20 uM>
1.0

> <Relative Solubility @ 100 uM>
1.0

> <Hybrid2>
-8.960869

> <docked_fragment>
x0678

> <Mpro-_dock>
1.511668

> <site>
active-noncovalent

$$$$
WAR-XCH-eb7b662f-5
  -OEChem-05192003313D

 30 31  0     0  0  0  0  0  0999 V2000
    5.6622    1.1977   18.8152 C   0  0  0  0  0  0  0  0  0  0  0  0
    6.4223    1.1523   19.9786 C   0  0  0  0  0  0  0  0  0  0  0  0
   12.4866   -0.6759   22.3201 C   0  0  0  0  0  0  0  0  0  0  0  0
   13.9526   -0.8318   24.2341 C   0  0  0  0  0  0  0  0  0  0  0  0
   11.7268    0.0731   24.4877 C   0  0  0  0  0  0  0  0  0  0  0  0
    6.2384    0.7294   17.6454 C   0  0  0  0  0  0  0  0  0  0  0  0
    8.2012    0.2033   18.7173 C   0  0  0  0  0  0  0  0  0  0  0  0
   13.7172   -1.0295   22.8735 C   0  0  0  0  0  0  0  0  0  0  0  0
    7.7170    0.6472   19.9373 C   0  0  0  0  0  0  0  0  0  0  0  0
   11.4915   -0.1245   23.1271 C   0  0  0  0  0  0  0  0  0  0  0  0
   12.9574   -0.2805   25.0412 C   0  0  0  0  0  0  0  0  0  0  0  0
    9.8292    0.1110   21.2296 C   0  0  0  0  0  0  0  0  0  0  0  0
   14.7815   -1.6183   22.0104 C   0  0  0  0  0  0  0  0  0  0  0  0
    7.4928    0.2316   17.5662 N   0  0  0  0  0  0  0  0  0  0  0  0
    8.5147    0.5884   21.1044 N   0  0  0  0  0  0  0  0  0  0  0  0
   10.2609    0.2300   22.5733 N   0  0  0  0  0  0  0  0  0  0  0  0
   10.5092   -0.3433   20.3151 O   0  0  0  0  0  0  0  0  0  0  0  0
   13.2483   -0.0347   26.7196 Cl  0  0  0  0  0  0  0  0  0  0  0  0
    4.6507    1.5873   18.8240 H   0  0  0  0  0  0  0  0  0  0  0  0
    5.9962    1.5129   20.9112 H   0  0  0  0  0  0  0  0  0  0  0  0
   12.3056   -0.8309   21.2587 H   0  0  0  0  0  0  0  0  0  0  0  0
   14.9139   -1.1095   24.6606 H   0  0  0  0  0  0  0  0  0  0  0  0
   10.9488    0.5032   25.1151 H   0  0  0  0  0  0  0  0  0  0  0  0
    5.6873    0.7440   16.7109 H   0  0  0  0  0  0  0  0  0  0  0  0
    9.2043   -0.2017   18.6216 H   0  0  0  0  0  0  0  0  0  0  0  0
   15.4141   -0.8267   21.5906 H   0  0  0  0  0  0  0  0  0  0  0  0
   15.4186   -2.3085   22.5784 H   0  0  0  0  0  0  0  0  0  0  0  0
   14.3490   -2.1943   21.1818 H   0  0  0  0  0  0  0  0  0  0  0  0
    8.0829    0.9346   21.9574 H   0  0  0  0  0  0  0  0  0  0  0  0
    9.5681    0.6306   23.2146 H   0  0  0  0  0  0  0  0  0  0  0  0
  1  2  2  0  0  0  0
  1  6  1  0  0  0  0
  2  9  1  0  0  0  0
  3  8  2  0  0  0  0
  3 10  1  0  0  0  0
  4  8  1  0  0  0  0
  4 11  2  0  0  0  0
  5 10  2  0  0  0  0
  5 11  1  0  0  0  0
  6 14  2  0  0  0  0
  7  9  2  0  0  0  0
  7 14  1  0  0  0  0
  8 13  1  0  0  0  0
  9 15  1  0  0  0  0
 10 16  1  0  0  0  0
 11 18  1  0  0  0  0
 12 15  1  0  0  0  0
 12 16  1  0  0  0  0
 12 17  2  0  0  0  0
  1 19  1  0  0  0  0
  2 20  1  0  0  0  0
  3 21  1  0  0  0  0
  4 22  1  0  0  0  0
  5 23  1  0  0  0  0
  6 24  1  0  0  0  0
  7 25  1  0  0  0  0
 13 26  1  0  0  0  0
 13 27  1  0  0  0  0
 13 28  1  0  0  0  0
 15 29  1  0  0  0  0
 16 30  1  0  0  0  0
M  END
> <IC50 (uM)>

> <IC50 (uM) - std>

> <Average Inhibition @ 20 uM>

> <Average Inhibition @ 20 uM - std>

> <Average Inhibition @ 50 uM>

> <Average Inhibition @ 50 uM - std>
18.0

> <Trypsin IC50 (uM)>
0.287

> <Relative Solubility @ 20 uM>

> <Relative Solubility @ 100 uM>

> <Hybrid2>
-8.949402

> <docked_fragment>
x0678

> <Mpro-_dock>
1.038997

> <site>
active-noncovalent

$$$$
WAR-XCH-b72a1bbc-7
  -OEChem-05192003313D

 39 41  0     0  0  0  0  0  0999 V2000
    6.1942   -3.3382   22.0946 C   0  0  0  0  0  0  0  0  0  0  0  0
   11.5062    1.5840   23.5413 C   0  0  0  0  0  0  0  0  0  0  0  0
   13.6131    0.6233   22.8521 C   0  0  0  0  0  0  0  0  0  0  0  0
   11.9415    2.8406   23.1205 C   0  0  0  0  0  0  0  0  0  0  0  0
   14.0484    1.8799   22.4313 C   0  0  0  0  0  0  0  0  0  0  0  0
    7.3169   -3.7082   22.8729 C   0  0  0  0  0  0  0  0  0  0  0  0
    6.4645   -2.0803   21.6080 C   0  0  0  0  0  0  0  0  0  0  0  0
   12.3420    0.4753   23.4072 C   0  0  0  0  0  0  0  0  0  0  0  0
   13.2125    2.9886   22.5655 C   0  0  0  0  0  0  0  0  0  0  0  0
    8.1934   -2.6502   22.8063 C   0  0  0  0  0  0  0  0  0  0  0  0
    9.5600   -1.1979   24.3739 C   0  0  0  0  0  0  0  0  0  0  0  0
   10.6469   -2.2274   22.3194 C   0  0  0  0  0  0  0  0  0  0  0  0
   10.9619   -0.9461   24.9329 C   0  0  0  0  0  0  0  0  0  0  0  0
   12.0190   -1.9432   22.9416 C   0  0  0  0  0  0  0  0  0  0  0  0
    9.5644   -2.3994   23.4055 C   0  0  0  0  0  0  0  0  0  0  0  0
   11.9083   -0.7783   23.8268 N   0  0  0  0  0  0  0  0  0  0  0  0
   12.3980    5.5223   22.4195 N   0  0  0  0  0  0  0  0  0  0  0  0
   14.8722    4.9677   22.8847 O   0  0  0  0  0  0  0  0  0  0  0  0
   13.9214    4.5339   20.5922 O   0  0  0  0  0  0  0  0  0  0  0  0
    7.6813   -1.6538   22.0372 O   0  0  0  0  0  0  0  0  0  0  0  0
   13.7585    4.5612   22.0391 S   0  0  0  0  0  0  0  0  0  0  0  0
    5.2997   -3.9157   21.9114 H   0  0  0  0  0  0  0  0  0  0  0  0
   10.5139    1.4802   23.9728 H   0  0  0  0  0  0  0  0  0  0  0  0
   14.2721   -0.2342   22.7420 H   0  0  0  0  0  0  0  0  0  0  0  0
   11.2820    3.6973   23.2300 H   0  0  0  0  0  0  0  0  0  0  0  0
   15.0408    1.9835   22.0004 H   0  0  0  0  0  0  0  0  0  0  0  0
    7.4654   -4.6318   23.4141 H   0  0  0  0  0  0  0  0  0  0  0  0
    5.9231   -1.3908   20.9771 H   0  0  0  0  0  0  0  0  0  0  0  0
    8.8682   -1.3863   25.2007 H   0  0  0  0  0  0  0  0  0  0  0  0
    9.2031   -0.2978   23.8612 H   0  0  0  0  0  0  0  0  0  0  0  0
   10.3781   -1.4078   21.6421 H   0  0  0  0  0  0  0  0  0  0  0  0
   10.7090   -3.1330   21.7061 H   0  0  0  0  0  0  0  0  0  0  0  0
   10.9345   -0.0458   25.5529 H   0  0  0  0  0  0  0  0  0  0  0  0
   11.2670   -1.7854   25.5644 H   0  0  0  0  0  0  0  0  0  0  0  0
   12.3573   -2.8124   23.5063 H   0  0  0  0  0  0  0  0  0  0  0  0
   12.7326   -1.7488   22.1409 H   0  0  0  0  0  0  0  0  0  0  0  0
    9.8146   -3.3189   23.9983 H   0  0  0  0  0  0  0  0  0  0  0  0
   12.4745    6.1745   23.2096 H   0  0  0  0  0  0  0  0  0  0  0  0
   11.8253    5.8757   21.6434 H   0  0  0  0  0  0  0  0  0  0  0  0
  1  6  1  0  0  0  0
  1  7  2  0  0  0  0
  2  4  2  0  0  0  0
  2  8  1  0  0  0  0
  3  5  1  0  0  0  0
  3  8  2  0  0  0  0
  4  9  1  0  0  0  0
  5  9  2  0  0  0  0
  6 10  2  0  0  0  0
  7 20  1  0  0  0  0
  8 16  1  0  0  0  0
  9 21  1  0  0  0  0
 10 15  1  0  0  0  0
 10 20  1  0  0  0  0
 11 13  1  0  0  0  0
 11 15  1  0  0  0  0
 12 14  1  0  0  0  0
 12 15  1  0  0  0  0
 13 16  1  0  0  0  0
 14 16  1  0  0  0  0
 17 21  1  0  0  0  0
 18 21  2  0  0  0  0
 19 21  2  0  0  0  0
  1 22  1  0  0  0  0
  2 23  1  0  0  0  0
  3 24  1  0  0  0  0
  4 25  1  0  0  0  0
  5 26  1  0  0  0  0
  6 27  1  0  0  0  0
  7 28  1  0  0  0  0
 11 29  1  0  0  0  0
 11 30  1  0  0  0  0
 12 31  1  0  0  0  0
 12 32  1  0  0  0  0
 13 33  1  0  0  0  0
 13 34  1  0  0  0  0
 14 35  1  0  0  0  0
 14 36  1  0  0  0  0
 15 37  1  0  0  0  0
 17 38  1  0  0  0  0
 17 39  1  0  0  0  0
M  END
> <IC50 (uM)>

> <IC50 (uM) - std>

> <Average Inhibition @ 20 uM>

> <Average Inhibition @ 20 uM - std>
5.4

> <Average Inhibition @ 50 uM>
0.328

> <Average Inhibition @ 50 uM - std>
8.47

> <Trypsin IC50 (uM)>
1.73

> <Relative Solubility @ 20 uM>
1.0

> <Relative Solubility @ 100 uM>
0.83

> <Hybrid2>
-8.915313

> <docked_fragment>
x0195

> <Mpro-_dock>
1.821337

> <site>
active-noncovalent

$$$$
JOH-MSK-35a8745a-1
  -OEChem-05192003313D

 33 34  0     0  0  0  0  0  0999 V2000
   10.7268   -0.2504   23.9310 C   0  0  0  0  0  0  0  0  0  0  0  0
   11.7849   -0.8493   23.2412 C   0  0  0  0  0  0  0  0  0  0  0  0
   12.8509    1.3042   22.8900 C   0  0  0  0  0  0  0  0  0  0  0  0
   10.3060    3.2810   24.6152 C   0  0  0  0  0  0  0  0  0  0  0  0
   11.7950    1.9302   23.5818 C   0  0  0  0  0  0  0  0  0  0  0  0
   11.4955    3.2786   23.9239 C   0  0  0  0  0  0  0  0  0  0  0  0
   10.7594    1.1400   24.0853 C   0  0  0  0  0  0  0  0  0  0  0  0
   12.8316   -0.0859   22.7280 C   0  0  0  0  0  0  0  0  0  0  0  0
    9.2671    6.6294   23.3799 C   0  0  0  0  0  0  0  0  0  0  0  0
    8.1507    6.5924   22.3897 C   0  0  0  0  0  0  0  0  0  0  0  0
   13.7766   -2.1162   21.9276 C   0  0  0  0  0  0  0  0  0  0  0  0
   12.3081    4.4688   23.6014 C   0  0  0  0  0  0  0  0  0  0  0  0
   11.5735    5.8057   23.8097 C   0  0  0  0  0  0  0  0  0  0  0  0
    9.8699    1.9865   24.7078 N   0  0  0  0  0  0  0  0  0  0  0  0
   10.3856    5.9028   23.0044 N   0  0  0  0  0  0  0  0  0  0  0  0
    9.1350    7.2708   24.4157 O   0  0  0  0  0  0  0  0  0  0  0  0
   13.8500   -0.6984   22.0606 O   0  0  0  0  0  0  0  0  0  0  0  0
    9.9122   -0.8457   24.3297 H   0  0  0  0  0  0  0  0  0  0  0  0
   11.7837   -1.9284   23.1061 H   0  0  0  0  0  0  0  0  0  0  0  0
   13.6717    1.8911   22.4867 H   0  0  0  0  0  0  0  0  0  0  0  0
    9.7302    4.0863   25.0497 H   0  0  0  0  0  0  0  0  0  0  0  0
    7.4550    5.7574   22.5713 H   0  0  0  0  0  0  0  0  0  0  0  0
    7.5290    7.5016   22.4228 H   0  0  0  0  0  0  0  0  0  0  0  0
    8.4579    6.4898   21.3366 H   0  0  0  0  0  0  0  0  0  0  0  0
   14.6485   -2.4768   21.3765 H   0  0  0  0  0  0  0  0  0  0  0  0
   12.8598   -2.3863   21.3974 H   0  0  0  0  0  0  0  0  0  0  0  0
   13.7657   -2.5665   22.9229 H   0  0  0  0  0  0  0  0  0  0  0  0
   12.6423    4.4265   22.5458 H   0  0  0  0  0  0  0  0  0  0  0  0
   13.2482    4.4866   24.1891 H   0  0  0  0  0  0  0  0  0  0  0  0
   11.2589    5.9226   24.8516 H   0  0  0  0  0  0  0  0  0  0  0  0
   12.2181    6.6521   23.5508 H   0  0  0  0  0  0  0  0  0  0  0  0
    9.0179    1.6937   25.1659 H   0  0  0  0  0  0  0  0  0  0  0  0
   10.3656    5.4119   22.1119 H   0  0  0  0  0  0  0  0  0  0  0  0
  1  2  2  0  0  0  0
  1  7  1  0  0  0  0
  2  8  1  0  0  0  0
  3  5  1  0  0  0  0
  3  8  2  0  0  0  0
  4  6  2  0  0  0  0
  4 14  1  0  0  0  0
  5  6  1  0  0  0  0
  5  7  2  0  0  0  0
  6 12  1  0  0  0  0
  7 14  1  0  0  0  0
  8 17  1  0  0  0  0
  9 10  1  0  0  0  0
  9 15  1  0  0  0  0
  9 16  2  0  0  0  0
 11 17  1  0  0  0  0
 12 13  1  0  0  0  0
 13 15  1  0  0  0  0
  1 18  1  0  0  0  0
  2 19  1  0  0  0  0
  3 20  1  0  0  0  0
  4 21  1  0  0  0  0
 10 22  1  0  0  0  0
 10 23  1  0  0  0  0
 10 24  1  0  0  0  0
 11 25  1  0  0  0  0
 11 26  1  0  0  0  0
 11 27  1  0  0  0  0
 12 28  1  0  0  0  0
 12 29  1  0  0  0  0
 13 30  1  0  0  0  0
 13 31  1  0  0  0  0
 14 32  1  0  0  0  0
 15 33  1  0  0  0  0
M  END
> <IC50 (uM)>

> <IC50 (uM) - std>

> <Average Inhibition @ 20 uM>

> <Average Inhibition @ 20 uM - std>
1.37

> <Average Inhibition @ 50 uM>
3.81

> <Average Inhibition @ 50 uM - std>
-0.962

> <Trypsin IC50 (uM)>
1.03

> <Relative Solubility @ 20 uM>
1.0

> <Relative Solubility @ 100 uM>
0.99

> <Hybrid2>
-8.913157

> <docked_fragment>
x0104

> <Mpro-_dock>
-1.58685

> <site>
active-noncovalent

$$$$
ALE-ACE-2610ee4d-1
  -OEChem-05192003313D

 33 34  0     0  0  0  0  0  0999 V2000
   10.7268   -0.2504   23.9310 C   0  0  0  0  0  0  0  0  0  0  0  0
   11.7849   -0.8493   23.2412 C   0  0  0  0  0  0  0  0  0  0  0  0
   12.8509    1.3042   22.8900 C   0  0  0  0  0  0  0  0  0  0  0  0
   10.3060    3.2810   24.6152 C   0  0  0  0  0  0  0  0  0  0  0  0
   11.7950    1.9302   23.5818 C   0  0  0  0  0  0  0  0  0  0  0  0
   11.4955    3.2786   23.9239 C   0  0  0  0  0  0  0  0  0  0  0  0
   10.7594    1.1400   24.0853 C   0  0  0  0  0  0  0  0  0  0  0  0
   12.8316   -0.0859   22.7280 C   0  0  0  0  0  0  0  0  0  0  0  0
    9.2671    6.6294   23.3799 C   0  0  0  0  0  0  0  0  0  0  0  0
    8.1507    6.5924   22.3897 C   0  0  0  0  0  0  0  0  0  0  0  0
   13.7766   -2.1162   21.9276 C   0  0  0  0  0  0  0  0  0  0  0  0
   12.3081    4.4688   23.6014 C   0  0  0  0  0  0  0  0  0  0  0  0
   11.5735    5.8057   23.8097 C   0  0  0  0  0  0  0  0  0  0  0  0
    9.8699    1.9865   24.7078 N   0  0  0  0  0  0  0  0  0  0  0  0
   10.3856    5.9028   23.0044 N   0  0  0  0  0  0  0  0  0  0  0  0
    9.1350    7.2708   24.4157 O   0  0  0  0  0  0  0  0  0  0  0  0
   13.8500   -0.6984   22.0606 O   0  0  0  0  0  0  0  0  0  0  0  0
    9.9122   -0.8457   24.3297 H   0  0  0  0  0  0  0  0  0  0  0  0
   11.7837   -1.9284   23.1061 H   0  0  0  0  0  0  0  0  0  0  0  0
   13.6717    1.8911   22.4867 H   0  0  0  0  0  0  0  0  0  0  0  0
    9.7302    4.0863   25.0497 H   0  0  0  0  0  0  0  0  0  0  0  0
    7.4550    5.7574   22.5713 H   0  0  0  0  0  0  0  0  0  0  0  0
    7.5290    7.5016   22.4228 H   0  0  0  0  0  0  0  0  0  0  0  0
    8.4579    6.4898   21.3366 H   0  0  0  0  0  0  0  0  0  0  0  0
   14.6485   -2.4768   21.3765 H   0  0  0  0  0  0  0  0  0  0  0  0
   12.8598   -2.3863   21.3974 H   0  0  0  0  0  0  0  0  0  0  0  0
   13.7657   -2.5665   22.9229 H   0  0  0  0  0  0  0  0  0  0  0  0
   12.6423    4.4265   22.5458 H   0  0  0  0  0  0  0  0  0  0  0  0
   13.2482    4.4866   24.1891 H   0  0  0  0  0  0  0  0  0  0  0  0
   11.2589    5.9226   24.8516 H   0  0  0  0  0  0  0  0  0  0  0  0
   12.2181    6.6521   23.5508 H   0  0  0  0  0  0  0  0  0  0  0  0
    9.0179    1.6937   25.1659 H   0  0  0  0  0  0  0  0  0  0  0  0
   10.3656    5.4119   22.1119 H   0  0  0  0  0  0  0  0  0  0  0  0
  1  2  2  0  0  0  0
  1  7  1  0  0  0  0
  2  8  1  0  0  0  0
  3  5  1  0  0  0  0
  3  8  2  0  0  0  0
  4  6  2  0  0  0  0
  4 14  1  0  0  0  0
  5  6  1  0  0  0  0
  5  7  2  0  0  0  0
  6 12  1  0  0  0  0
  7 14  1  0  0  0  0
  8 17  1  0  0  0  0
  9 10  1  0  0  0  0
  9 15  1  0  0  0  0
  9 16  2  0  0  0  0
 11 17  1  0  0  0  0
 12 13  1  0  0  0  0
 13 15  1  0  0  0  0
  1 18  1  0  0  0  0
  2 19  1  0  0  0  0
  3 20  1  0  0  0  0
  4 21  1  0  0  0  0
 10 22  1  0  0  0  0
 10 23  1  0  0  0  0
 10 24  1  0  0  0  0
 11 25  1  0  0  0  0
 11 26  1  0  0  0  0
 11 27  1  0  0  0  0
 12 28  1  0  0  0  0
 12 29  1  0  0  0  0
 13 30  1  0  0  0  0
 13 31  1  0  0  0  0
 14 32  1  0  0  0  0
 15 33  1  0  0  0  0
M  END
> <IC50 (uM)>

> <IC50 (uM) - std>

> <Average Inhibition @ 20 uM>

> <Average Inhibition @ 20 uM - std>
1.37

> <Average Inhibition @ 50 uM>
3.81

> <Average Inhibition @ 50 uM - std>
-0.962

> <Trypsin IC50 (uM)>
1.03

> <Relative Solubility @ 20 uM>
1.0

> <Relative Solubility @ 100 uM>
0.99

> <Hybrid2>
-8.913157

> <docked_fragment>
x0104

> <Mpro-_dock>
-1.58685

> <site>
active-noncovalent

$$$$
BAR-COM-4e090d3a-43
  -OEChem-05192003313D

 42 45  0     0  0  0  0  0  0999 V2000
   13.8586   -1.6767   21.4183 C   0  0  0  0  0  0  0  0  0  0  0  0
    6.7579    0.3591   18.8665 C   0  0  0  0  0  0  0  0  0  0  0  0
   14.5744   -2.3538   22.4111 C   0  0  0  0  0  0  0  0  0  0  0  0
    6.3590   -0.9164   19.2659 C   0  0  0  0  0  0  0  0  0  0  0  0
   12.8893   -0.7190   21.7489 C   0  0  0  0  0  0  0  0  0  0  0  0
    7.8156    0.9947   19.5168 C   0  0  0  0  0  0  0  0  0  0  0  0
   14.3505   -2.1016   23.7686 C   0  0  0  0  0  0  0  0  0  0  0  0
    7.0177   -1.5563   20.3157 C   0  0  0  0  0  0  0  0  0  0  0  0
   12.6542   -0.4562   23.1064 C   0  0  0  0  0  0  0  0  0  0  0  0
    8.4743    0.3548   20.5667 C   0  0  0  0  0  0  0  0  0  0  0  0
   13.3819   -1.1458   24.0605 C   0  0  0  0  0  0  0  0  0  0  0  0
    8.0754   -0.9207   20.9662 C   0  0  0  0  0  0  0  0  0  0  0  0
   11.8174    0.3806   23.8700 C   0  0  0  0  0  0  0  0  0  0  0  0
    9.5982    1.0499   21.2456 C   0  0  0  0  0  0  0  0  0  0  0  0
    8.1393   -1.4368   25.1531 C   0  0  0  0  0  0  0  0  0  0  0  0
    7.5673   -2.8159   25.3287 C   0  0  0  0  0  0  0  0  0  0  0  0
    8.4794   -2.5225   24.1699 C   0  0  0  0  0  0  0  0  0  0  0  0
   10.8177    1.3475   23.3857 C   0  0  0  0  0  0  0  0  0  0  0  0
    7.9293   -2.4749   22.7604 C   0  0  0  0  0  0  0  0  0  0  0  0
   12.0058    0.2266   25.1841 N   0  0  0  0  0  0  0  0  0  0  0  0
    9.7809    0.7352   22.5811 N   0  0  0  0  0  0  0  0  0  0  0  0
   10.2733    1.8580   20.6134 O   0  0  0  0  0  0  0  0  0  0  0  0
   12.9966   -0.7404   25.3014 O   0  0  0  0  0  0  0  0  0  0  0  0
    8.7079   -1.5631   21.9885 O   0  0  0  0  0  0  0  0  0  0  0  0
   14.0572   -1.8966   20.3722 H   0  0  0  0  0  0  0  0  0  0  0  0
    6.2446    0.8572   18.0488 H   0  0  0  0  0  0  0  0  0  0  0  0
   15.3198   -3.0908   22.1223 H   0  0  0  0  0  0  0  0  0  0  0  0
    5.5351   -1.4105   18.7594 H   0  0  0  0  0  0  0  0  0  0  0  0
   12.3412   -0.2015   20.9681 H   0  0  0  0  0  0  0  0  0  0  0  0
    8.1181    1.9885   19.1967 H   0  0  0  0  0  0  0  0  0  0  0  0
   14.8990   -2.6215   24.5446 H   0  0  0  0  0  0  0  0  0  0  0  0
    6.7021   -2.5500   20.6219 H   0  0  0  0  0  0  0  0  0  0  0  0
    7.4655   -0.6480   24.8424 H   0  0  0  0  0  0  0  0  0  0  0  0
    8.9130   -1.1206   25.8420 H   0  0  0  0  0  0  0  0  0  0  0  0
    7.9575   -3.4246   26.1351 H   0  0  0  0  0  0  0  0  0  0  0  0
    6.5101   -2.9507   25.1358 H   0  0  0  0  0  0  0  0  0  0  0  0
    9.4813   -2.9334   24.2019 H   0  0  0  0  0  0  0  0  0  0  0  0
   10.3065    1.8672   24.2173 H   0  0  0  0  0  0  0  0  0  0  0  0
   11.2675    2.1435   22.7641 H   0  0  0  0  0  0  0  0  0  0  0  0
    6.8897   -2.1341   22.7654 H   0  0  0  0  0  0  0  0  0  0  0  0
    7.9801   -3.4636   22.2947 H   0  0  0  0  0  0  0  0  0  0  0  0
    9.1447    0.1046   23.0552 H   0  0  0  0  0  0  0  0  0  0  0  0
  1  3  1  0  0  0  0
  1  5  2  0  0  0  0
  2  4  1  0  0  0  0
  2  6  2  0  0  0  0
  3  7  2  0  0  0  0
  4  8  2  0  0  0  0
  5  9  1  0  0  0  0
  6 10  1  0  0  0  0
  7 11  1  0  0  0  0
  8 12  1  0  0  0  0
  9 11  2  0  0  0  0
  9 13  1  0  0  0  0
 10 12  2  0  0  0  0
 10 14  1  0  0  0  0
 11 23  1  0  0  0  0
 12 24  1  0  0  0  0
 13 18  1  0  0  0  0
 13 20  2  0  0  0  0
 14 21  1  0  0  0  0
 14 22  2  0  0  0  0
 15 16  1  0  0  0  0
 15 17  1  0  0  0  0
 16 17  1  0  0  0  0
 17 19  1  0  0  0  0
 18 21  1  0  0  0  0
 19 24  1  0  0  0  0
 20 23  1  0  0  0  0
  1 25  1  0  0  0  0
  2 26  1  0  0  0  0
  3 27  1  0  0  0  0
  4 28  1  0  0  0  0
  5 29  1  0  0  0  0
  6 30  1  0  0  0  0
  7 31  1  0  0  0  0
  8 32  1  0  0  0  0
 15 33  1  0  0  0  0
 15 34  1  0  0  0  0
 16 35  1  0  0  0  0
 16 36  1  0  0  0  0
 17 37  1  0  0  0  0
 18 38  1  0  0  0  0
 18 39  1  0  0  0  0
 19 40  1  0  0  0  0
 19 41  1  0  0  0  0
 21 42  1  0  0  0  0
M  END
> <IC50 (uM)>

> <IC50 (uM) - std>

> <Average Inhibition @ 20 uM>

> <Average Inhibition @ 20 uM - std>
5.31

> <Average Inhibition @ 50 uM>
0.679

> <Average Inhibition @ 50 uM - std>
11.7

> <Trypsin IC50 (uM)>
1.64

> <Relative Solubility @ 20 uM>
1.0

> <Relative Solubility @ 100 uM>
0.64

> <Hybrid2>
-8.908870

> <docked_fragment>
x0678

> <Mpro-_dock>
1.314141

> <site>
active-noncovalent

$$$$
BAR-COM-4e090d3a-66
  -OEChem-05192003313D

 48 50  0     1  0  0  0  0  0999 V2000
   10.2769   -3.0991   23.9721 C   0  0  0  0  0  0  0  0  0  0  0  0
    9.2440   -3.8251   24.5650 C   0  0  0  0  0  0  0  0  0  0  0  0
    9.9882   -1.9516   23.2334 C   0  0  0  0  0  0  0  0  0  0  0  0
    5.2446    0.7088   19.3158 C   0  0  0  0  0  0  0  0  0  0  0  0
    7.6336   -2.2562   23.6805 C   0  0  0  0  0  0  0  0  0  0  0  0
    5.7554    0.2672   18.1059 C   0  0  0  0  0  0  0  0  0  0  0  0
    7.9167    0.6844   18.7641 C   0  0  0  0  0  0  0  0  0  0  0  0
    7.9223   -3.4037   24.4192 C   0  0  0  0  0  0  0  0  0  0  0  0
    7.5071    1.1457   20.0048 C   0  0  0  0  0  0  0  0  0  0  0  0
    8.6666   -1.5302   23.0876 C   0  0  0  0  0  0  0  0  0  0  0  0
    6.1438    1.1548   20.2780 C   0  0  0  0  0  0  0  0  0  0  0  0
    9.2747    0.4722   21.6856 C   0  0  0  0  0  0  0  0  0  0  0  0
    5.0173   -5.8887   24.6492 C   0  0  0  0  0  0  0  0  0  0  0  0
    6.5809   -5.2687   22.8183 C   0  0  0  0  0  0  0  0  0  0  0  0
    4.0636   -6.3897   23.5780 C   0  0  0  0  0  0  0  0  0  0  0  0
    5.5467   -5.8024   21.8416 C   0  0  0  0  0  0  0  0  0  0  0  0
    5.9848   -3.3554   26.0428 C   0  0  0  0  0  0  0  0  0  0  0  0
    8.5379    1.6117   20.9993 C   0  0  0  0  0  0  0  0  0  0  0  0
    6.8035   -4.1907   25.0618 C   0  0  1  0  0  0  0  0  0  0  0  0
    7.0730    0.2434   17.8042 N   0  0  0  0  0  0  0  0  0  0  0  0
    8.3782   -0.3820   22.3493 N   0  0  0  0  0  0  0  0  0  0  0  0
    5.8609   -4.7853   24.0553 N   0  3  0  0  0  0  0  0  0  0  0  0
   10.4953    0.3581   21.6383 O   0  0  0  0  0  0  0  0  0  0  0  0
    4.7894   -6.8557   22.4394 O   0  0  0  0  0  0  0  0  0  0  0  0
    5.5351    1.7128   21.7922 Cl  0  0  0  0  0  0  0  0  0  0  0  0
   11.3061   -3.4269   24.0859 H   0  0  0  0  0  0  0  0  0  0  0  0
    9.4788   -4.7179   25.1379 H   0  0  0  0  0  0  0  0  0  0  0  0
   10.8012   -1.3937   22.7756 H   0  0  0  0  0  0  0  0  0  0  0  0
    4.1741    0.7007   19.4922 H   0  0  0  0  0  0  0  0  0  0  0  0
    6.6020   -1.9300   23.5675 H   0  0  0  0  0  0  0  0  0  0  0  0
    5.0955   -0.0897   17.3221 H   0  0  0  0  0  0  0  0  0  0  0  0
    8.9677    0.6515   18.4943 H   0  0  0  0  0  0  0  0  0  0  0  0
    4.4751   -5.4732   25.5040 H   0  0  0  0  0  0  0  0  0  0  0  0
    5.7030   -6.6764   24.9797 H   0  0  0  0  0  0  0  0  0  0  0  0
    7.2773   -6.0519   23.1373 H   0  0  0  0  0  0  0  0  0  0  0  0
    7.1291   -4.4209   22.3966 H   0  0  0  0  0  0  0  0  0  0  0  0
    3.4829   -7.2324   23.9664 H   0  0  0  0  0  0  0  0  0  0  0  0
    3.3520   -5.6137   23.2715 H   0  0  0  0  0  0  0  0  0  0  0  0
    4.8709   -5.0123   21.4929 H   0  0  0  0  0  0  0  0  0  0  0  0
    6.0498   -6.2163   20.9621 H   0  0  0  0  0  0  0  0  0  0  0  0
    5.5438   -2.4737   25.5646 H   0  0  0  0  0  0  0  0  0  0  0  0
    5.1662   -3.9462   26.4690 H   0  0  0  0  0  0  0  0  0  0  0  0
    6.6100   -3.0055   26.8719 H   0  0  0  0  0  0  0  0  0  0  0  0
    9.2728    2.2523   20.4951 H   0  0  0  0  0  0  0  0  0  0  0  0
    8.0550    2.2318   21.7651 H   0  0  0  0  0  0  0  0  0  0  0  0
    7.2163   -5.0537   25.5972 H   0  0  0  0  0  0  0  0  0  0  0  0
    7.3854   -0.1294   22.2825 H   0  0  0  0  0  0  0  0  0  0  0  0
    5.2237   -4.0300   23.7665 H   0  0  0  0  0  0  0  0  0  0  0  0
  1  2  2  0  0  0  0
  1  3  1  0  0  0  0
  2  8  1  0  0  0  0
  3 10  2  0  0  0  0
  4  6  2  0  0  0  0
  4 11  1  0  0  0  0
  5  8  2  0  0  0  0
  5 10  1  0  0  0  0
  6 20  1  0  0  0  0
  7  9  1  0  0  0  0
  7 20  2  0  0  0  0
  8 19  1  0  0  0  0
  9 11  2  0  0  0  0
  9 18  1  0  0  0  0
 10 21  1  0  0  0  0
 11 25  1  0  0  0  0
 12 18  1  0  0  0  0
 12 21  1  0  0  0  0
 12 23  2  0  0  0  0
 13 15  1  0  0  0  0
 13 22  1  0  0  0  0
 14 16  1  0  0  0  0
 14 22  1  0  0  0  0
 15 24  1  0  0  0  0
 16 24  1  0  0  0  0
 17 19  1  0  0  0  0
 19 22  1  0  0  0  0
  1 26  1  0  0  0  0
  2 27  1  0  0  0  0
  3 28  1  0  0  0  0
  4 29  1  0  0  0  0
  5 30  1  0  0  0  0
  6 31  1  0  0  0  0
  7 32  1  0  0  0  0
 13 33  1  0  0  0  0
 13 34  1  0  0  0  0
 14 35  1  0  0  0  0
 14 36  1  0  0  0  0
 15 37  1  0  0  0  0
 15 38  1  0  0  0  0
 16 39  1  0  0  0  0
 16 40  1  0  0  0  0
 17 41  1  0  0  0  0
 17 42  1  0  0  0  0
 17 43  1  0  0  0  0
 18 44  1  0  0  0  0
 18 45  1  0  0  0  0
 19 46  1  0  0  0  0
 21 47  1  0  0  0  0
 22 48  1  0  0  0  0
M  CHG  1  22   1
M  END
> <IC50 (uM)>

> <IC50 (uM) - std>

> <Average Inhibition @ 20 uM>

> <Average Inhibition @ 20 uM - std>
2.12

> <Average Inhibition @ 50 uM>
1.78

> <Average Inhibition @ 50 uM - std>
3.92

> <Trypsin IC50 (uM)>
0.0791

> <Relative Solubility @ 20 uM>
0.97

> <Relative Solubility @ 100 uM>
0.92

> <Hybrid2>
-8.907784

> <docked_fragment>
x0107

> <Mpro-_dock>
2.379714

> <site>
active-noncovalent

$$$$
TRY-UNI-1fd04853-8
  -OEChem-05192003313D

 36 38  0     0  0  0  0  0  0999 V2000
   13.5006    1.2970   24.4746 C   0  0  0  0  0  0  0  0  0  0  0  0
    7.1871   -2.2072   21.2092 C   0  0  0  0  0  0  0  0  0  0  0  0
   13.7370   -1.1056   24.8648 C   0  0  0  0  0  0  0  0  0  0  0  0
   11.6656   -0.0015   25.4367 C   0  0  0  0  0  0  0  0  0  0  0  0
    8.0678   -3.0208   21.9197 C   0  0  0  0  0  0  0  0  0  0  0  0
   13.2127   -2.3194   25.3091 C   0  0  0  0  0  0  0  0  0  0  0  0
   11.1413   -1.2153   25.8810 C   0  0  0  0  0  0  0  0  0  0  0  0
    5.9927   -2.7514   20.7565 C   0  0  0  0  0  0  0  0  0  0  0  0
    7.3907   -6.5335   22.6563 C   0  0  0  0  0  0  0  0  0  0  0  0
   12.9634    0.0534   24.9286 C   0  0  0  0  0  0  0  0  0  0  0  0
    7.6942   -4.3565   22.1394 C   0  0  0  0  0  0  0  0  0  0  0  0
   11.9149   -2.3743   25.8172 C   0  0  0  0  0  0  0  0  0  0  0  0
    8.2705   -5.4808   22.7877 C   0  0  0  0  0  0  0  0  0  0  0  0
    6.4672   -4.7705   21.6292 C   0  0  0  0  0  0  0  0  0  0  0  0
    9.7140   -4.5246   24.6261 C   0  0  0  0  0  0  0  0  0  0  0  0
    9.5745   -5.5252   23.4792 C   0  0  0  0  0  0  0  0  0  0  0  0
   11.3500   -3.6811   26.2940 C   0  0  0  0  0  0  0  0  0  0  0  0
   13.9371    2.3070   24.1058 N   0  0  0  0  0  0  0  0  0  0  0  0
    5.5818   -4.0280   20.9382 N   0  0  0  0  0  0  0  0  0  0  0  0
    6.3009   -6.0916   21.9518 N   0  0  0  0  0  0  0  0  0  0  0  0
   10.9792   -4.5424   25.1957 N   0  0  0  0  0  0  0  0  0  0  0  0
    8.7918   -3.7950   24.9813 O   0  0  0  0  0  0  0  0  0  0  0  0
    7.4314   -1.1685   21.0142 H   0  0  0  0  0  0  0  0  0  0  0  0
   14.7511   -1.0785   24.4730 H   0  0  0  0  0  0  0  0  0  0  0  0
   11.0492    0.8928   25.4917 H   0  0  0  0  0  0  0  0  0  0  0  0
    9.0092   -2.6263   22.2882 H   0  0  0  0  0  0  0  0  0  0  0  0
   13.8230   -3.2171   25.2564 H   0  0  0  0  0  0  0  0  0  0  0  0
   10.1284   -1.2490   26.2737 H   0  0  0  0  0  0  0  0  0  0  0  0
    5.2935   -2.1315   20.2015 H   0  0  0  0  0  0  0  0  0  0  0  0
    7.4409   -7.5572   23.0008 H   0  0  0  0  0  0  0  0  0  0  0  0
    9.7700   -6.5338   23.8930 H   0  0  0  0  0  0  0  0  0  0  0  0
   10.4074   -5.3353   22.7743 H   0  0  0  0  0  0  0  0  0  0  0  0
   12.0810   -4.2159   26.9101 H   0  0  0  0  0  0  0  0  0  0  0  0
   10.4590   -3.5224   26.9106 H   0  0  0  0  0  0  0  0  0  0  0  0
    5.4980   -6.6540   21.7063 H   0  0  0  0  0  0  0  0  0  0  0  0
   11.6719   -5.1866   24.8256 H   0  0  0  0  0  0  0  0  0  0  0  0
  1 10  1  0  0  0  0
  1 18  3  0  0  0  0
  2  5  2  0  0  0  0
  2  8  1  0  0  0  0
  3  6  2  0  0  0  0
  3 10  1  0  0  0  0
  4  7  1  0  0  0  0
  4 10  2  0  0  0  0
  5 11  1  0  0  0  0
  6 12  1  0  0  0  0
  7 12  2  0  0  0  0
  8 19  2  0  0  0  0
  9 13  2  0  0  0  0
  9 20  1  0  0  0  0
 11 13  1  0  0  0  0
 11 14  2  0  0  0  0
 12 17  1  0  0  0  0
 13 16  1  0  0  0  0
 14 19  1  0  0  0  0
 14 20  1  0  0  0  0
 15 16  1  0  0  0  0
 15 21  1  0  0  0  0
 15 22  2  0  0  0  0
 17 21  1  0  0  0  0
  2 23  1  0  0  0  0
  3 24  1  0  0  0  0
  4 25  1  0  0  0  0
  5 26  1  0  0  0  0
  6 27  1  0  0  0  0
  7 28  1  0  0  0  0
  8 29  1  0  0  0  0
  9 30  1  0  0  0  0
 16 31  1  0  0  0  0
 16 32  1  0  0  0  0
 17 33  1  0  0  0  0
 17 34  1  0  0  0  0
 20 35  1  0  0  0  0
 21 36  1  0  0  0  0
M  END
> <IC50 (uM)>

> <IC50 (uM) - std>

> <Average Inhibition @ 20 uM>

> <Average Inhibition @ 20 uM - std>
2.44

> <Average Inhibition @ 50 uM>
4.57

> <Average Inhibition @ 50 uM - std>
1.71

> <Trypsin IC50 (uM)>
1.04

> <Relative Solubility @ 20 uM>
1.0

> <Relative Solubility @ 100 uM>
0.99

> <Hybrid2>
-8.901452

> <docked_fragment>
x0749

> <Mpro-_dock>
-0.271994

> <site>
active-covalent

$$$$
BAR-COM-4e090d3a-55
  -OEChem-05192003313D

 58 60  0     1  0  0  0  0  0999 V2000
   14.6379   -2.2578   22.7693 C   0  0  0  0  0  0  0  0  0  0  0  0
   13.7797   -2.2557   23.8689 C   0  0  0  0  0  0  0  0  0  0  0  0
   14.4078   -1.3883   21.7032 C   0  0  0  0  0  0  0  0  0  0  0  0
    5.7667    0.1082   19.3371 C   0  0  0  0  0  0  0  0  0  0  0  0
   12.6912   -1.3840   23.9022 C   0  0  0  0  0  0  0  0  0  0  0  0
   13.3193   -0.5167   21.7366 C   0  0  0  0  0  0  0  0  0  0  0  0
    6.5627    0.6800   20.3233 C   0  0  0  0  0  0  0  0  0  0  0  0
    6.3434   -0.1420   18.1023 C   0  0  0  0  0  0  0  0  0  0  0  0
    8.3740    0.6906   18.7821 C   0  0  0  0  0  0  0  0  0  0  0  0
   12.4610   -0.5145   22.8361 C   0  0  0  0  0  0  0  0  0  0  0  0
    7.8923    0.9799   20.0486 C   0  0  0  0  0  0  0  0  0  0  0  0
    7.9932    0.8319   23.3453 C   0  0  0  0  0  0  0  0  0  0  0  0
    6.7684   -5.2686   22.8562 C   0  0  0  0  0  0  0  0  0  0  0  0
    5.3195   -5.1050   23.3014 C   0  0  0  0  0  0  0  0  0  0  0  0
    7.5846   -4.0335   23.2247 C   0  0  0  0  0  0  0  0  0  0  0  0
    5.2489   -4.6938   24.7659 C   0  0  0  0  0  0  0  0  0  0  0  0
    7.3976   -3.6845   24.7029 C   0  0  1  0  0  0  0  0  0  0  0  0
    7.6279    0.4676   25.8128 C   0  0  0  0  0  0  0  0  0  0  0  0
   11.2835    0.4286   22.8714 C   0  0  0  0  0  0  0  0  0  0  0  0
    8.7776    1.5971   21.0924 C   0  0  0  0  0  0  0  0  0  0  0  0
    8.1171   -2.3899   25.0553 C   0  0  0  0  0  0  0  0  0  0  0  0
   10.0194   -0.1741   22.2633 C   0  0  0  0  0  0  0  0  0  0  0  0
    8.2218   -0.1011   24.5322 C   0  0  1  0  0  0  0  0  0  0  0  0
    7.6312    0.1355   17.7983 N   0  0  0  0  0  0  0  0  0  0  0  0
    8.8921    0.7554   22.2779 N   0  0  0  0  0  0  0  0  0  0  0  0
    7.0370    1.6146   23.3666 O   0  0  0  0  0  0  0  0  0  0  0  0
    6.0077   -3.5068   24.9963 O   0  0  0  0  0  0  0  0  0  0  0  0
    7.5917   -1.3461   24.2540 O   0  0  0  0  0  0  0  0  0  0  0  0
   15.4862   -2.9357   22.7441 H   0  0  0  0  0  0  0  0  0  0  0  0
   13.9593   -2.9319   24.6996 H   0  0  0  0  0  0  0  0  0  0  0  0
   15.0764   -1.3890   20.8475 H   0  0  0  0  0  0  0  0  0  0  0  0
    4.7277   -0.1342   19.5288 H   0  0  0  0  0  0  0  0  0  0  0  0
   12.0276   -1.3894   24.7630 H   0  0  0  0  0  0  0  0  0  0  0  0
   13.1477    0.1572   20.9013 H   0  0  0  0  0  0  0  0  0  0  0  0
    6.1390    0.8880   21.3021 H   0  0  0  0  0  0  0  0  0  0  0  0
    5.7645   -0.5866   17.2995 H   0  0  0  0  0  0  0  0  0  0  0  0
    9.4033    0.9022   18.5096 H   0  0  0  0  0  0  0  0  0  0  0  0
    7.2022   -6.1508   23.3426 H   0  0  0  0  0  0  0  0  0  0  0  0
    6.8132   -5.4415   21.7753 H   0  0  0  0  0  0  0  0  0  0  0  0
    4.8510   -4.3260   22.6873 H   0  0  0  0  0  0  0  0  0  0  0  0
    4.7637   -6.0343   23.1389 H   0  0  0  0  0  0  0  0  0  0  0  0
    8.6432   -4.2023   22.9985 H   0  0  0  0  0  0  0  0  0  0  0  0
    7.2437   -3.1963   22.6020 H   0  0  0  0  0  0  0  0  0  0  0  0
    4.2110   -4.4852   25.0442 H   0  0  0  0  0  0  0  0  0  0  0  0
    5.6132   -5.4926   25.4225 H   0  0  0  0  0  0  0  0  0  0  0  0
    7.7917   -4.4890   25.3368 H   0  0  0  0  0  0  0  0  0  0  0  0
    6.5624    0.6912   25.7147 H   0  0  0  0  0  0  0  0  0  0  0  0
    8.1522    1.3846   26.1022 H   0  0  0  0  0  0  0  0  0  0  0  0
    7.7446   -0.2384   26.6432 H   0  0  0  0  0  0  0  0  0  0  0  0
   11.5511    1.3401   22.3222 H   0  0  0  0  0  0  0  0  0  0  0  0
   11.0919    0.7443   23.9050 H   0  0  0  0  0  0  0  0  0  0  0  0
    9.7857    1.7605   20.6962 H   0  0  0  0  0  0  0  0  0  0  0  0
    8.3910    2.5713   21.4096 H   0  0  0  0  0  0  0  0  0  0  0  0
    9.1858   -2.4891   24.8587 H   0  0  0  0  0  0  0  0  0  0  0  0
    7.9601   -2.1475   26.1075 H   0  0  0  0  0  0  0  0  0  0  0  0
   10.1982   -0.4369   21.2159 H   0  0  0  0  0  0  0  0  0  0  0  0
    9.7078   -1.0796   22.7941 H   0  0  0  0  0  0  0  0  0  0  0  0
    9.2860   -0.3192   24.6458 H   0  0  0  0  0  0  0  0  0  0  0  0
  1  2  1  0  0  0  0
  1  3  2  0  0  0  0
  2  5  2  0  0  0  0
  3  6  1  0  0  0  0
  4  7  2  0  0  0  0
  4  8  1  0  0  0  0
  5 10  1  0  0  0  0
  6 10  2  0  0  0  0
  7 11  1  0  0  0  0
  8 24  2  0  0  0  0
  9 11  2  0  0  0  0
  9 24  1  0  0  0  0
 10 19  1  0  0  0  0
 11 20  1  0  0  0  0
 12 23  1  0  0  0  0
 12 25  1  0  0  0  0
 12 26  2  0  0  0  0
 13 14  1  0  0  0  0
 13 15  1  0  0  0  0
 14 16  1  0  0  0  0
 15 17  1  0  0  0  0
 16 27  1  0  0  0  0
 17 21  1  0  0  0  0
 17 27  1  0  0  0  0
 18 23  1  0  0  0  0
 19 22  1  0  0  0  0
 20 25  1  0  0  0  0
 21 28  1  0  0  0  0
 22 25  1  0  0  0  0
 23 28  1  0  0  0  0
  1 29  1  0  0  0  0
  2 30  1  0  0  0  0
  3 31  1  0  0  0  0
  4 32  1  0  0  0  0
  5 33  1  0  0  0  0
  6 34  1  0  0  0  0
  7 35  1  0  0  0  0
  8 36  1  0  0  0  0
  9 37  1  0  0  0  0
 13 38  1  0  0  0  0
 13 39  1  0  0  0  0
 14 40  1  0  0  0  0
 14 41  1  0  0  0  0
 15 42  1  0  0  0  0
 15 43  1  0  0  0  0
 16 44  1  0  0  0  0
 16 45  1  0  0  0  0
 17 46  1  0  0  0  0
 18 47  1  0  0  0  0
 18 48  1  0  0  0  0
 18 49  1  0  0  0  0
 19 50  1  0  0  0  0
 19 51  1  0  0  0  0
 20 52  1  0  0  0  0
 20 53  1  0  0  0  0
 21 54  1  0  0  0  0
 21 55  1  0  0  0  0
 22 56  1  0  0  0  0
 22 57  1  0  0  0  0
 23 58  1  0  0  0  0
M  END
> <IC50 (uM)>

> <IC50 (uM) - std>

> <Average Inhibition @ 20 uM>

> <Average Inhibition @ 20 uM - std>

> <Average Inhibition @ 50 uM>

> <Average Inhibition @ 50 uM - std>
14.1

> <Trypsin IC50 (uM)>
0.189

> <Relative Solubility @ 20 uM>

> <Relative Solubility @ 100 uM>

> <Hybrid2>
-8.880486

> <docked_fragment>
x0678

> <Mpro-_dock>
3.497102

> <site>
active-noncovalent

$$$$
ANN-UNI-26382800-3
  -OEChem-05192003313D

 28 29  0     0  0  0  0  0  0999 V2000
   14.8236   -1.3998   26.8991 C   0  0  0  0  0  0  0  0  0  0  0  0
    6.8932   -6.5097   21.7655 C   0  0  0  0  0  0  0  0  0  0  0  0
   12.9361   -0.5418   25.6017 C   0  0  0  0  0  0  0  0  0  0  0  0
   13.2101   -2.9264   25.8762 C   0  0  0  0  0  0  0  0  0  0  0  0
    7.7787   -5.5959   22.3261 C   0  0  0  0  0  0  0  0  0  0  0  0
   11.7891   -0.7613   24.8389 C   0  0  0  0  0  0  0  0  0  0  0  0
   12.0631   -3.1460   25.1134 C   0  0  0  0  0  0  0  0  0  0  0  0
    5.8289   -6.0138   21.0299 C   0  0  0  0  0  0  0  0  0  0  0  0
    6.4809   -3.8396   21.3842 C   0  0  0  0  0  0  0  0  0  0  0  0
   13.6466   -1.6243   26.1203 C   0  0  0  0  0  0  0  0  0  0  0  0
   11.3526   -2.0634   24.5948 C   0  0  0  0  0  0  0  0  0  0  0  0
    7.5756   -4.2335   22.1367 C   0  0  0  0  0  0  0  0  0  0  0  0
    9.6039   -3.5139   23.4736 C   0  0  0  0  0  0  0  0  0  0  0  0
   15.7793   -1.2173   27.5315 N   0  0  0  0  0  0  0  0  0  0  0  0
    5.5991   -4.6976   20.8241 N   0  0  0  0  0  0  0  0  0  0  0  0
   10.2055   -2.2827   23.8315 N   0  0  0  0  0  0  0  0  0  0  0  0
    8.4593   -3.2798   22.6948 N   0  0  0  0  0  0  0  0  0  0  0  0
   10.0263   -4.6186   23.7998 O   0  0  0  0  0  0  0  0  0  0  0  0
    7.0319   -7.5763   21.9002 H   0  0  0  0  0  0  0  0  0  0  0  0
   13.2643    0.4792   25.7823 H   0  0  0  0  0  0  0  0  0  0  0  0
   13.7539   -3.7804   26.2733 H   0  0  0  0  0  0  0  0  0  0  0  0
    8.6228   -5.9560   22.9083 H   0  0  0  0  0  0  0  0  0  0  0  0
   11.2426    0.0897   24.4403 H   0  0  0  0  0  0  0  0  0  0  0  0
   11.7319   -4.1650   24.9297 H   0  0  0  0  0  0  0  0  0  0  0  0
    5.1096   -6.6853   20.5728 H   0  0  0  0  0  0  0  0  0  0  0  0
    6.2698   -2.7901   21.2012 H   0  0  0  0  0  0  0  0  0  0  0  0
    9.7354   -1.4404   23.4833 H   0  0  0  0  0  0  0  0  0  0  0  0
    8.2321   -2.3071   22.5042 H   0  0  0  0  0  0  0  0  0  0  0  0
  1 10  1  0  0  0  0
  1 14  3  0  0  0  0
  2  5  2  0  0  0  0
  2  8  1  0  0  0  0
  3  6  2  0  0  0  0
  3 10  1  0  0  0  0
  4  7  1  0  0  0  0
  4 10  2  0  0  0  0
  5 12  1  0  0  0  0
  6 11  1  0  0  0  0
  7 11  2  0  0  0  0
  8 15  2  0  0  0  0
  9 12  2  0  0  0  0
  9 15  1  0  0  0  0
 11 16  1  0  0  0  0
 12 17  1  0  0  0  0
 13 16  1  0  0  0  0
 13 17  1  0  0  0  0
 13 18  2  0  0  0  0
  2 19  1  0  0  0  0
  3 20  1  0  0  0  0
  4 21  1  0  0  0  0
  5 22  1  0  0  0  0
  6 23  1  0  0  0  0
  7 24  1  0  0  0  0
  8 25  1  0  0  0  0
  9 26  1  0  0  0  0
 16 27  1  0  0  0  0
 17 28  1  0  0  0  0
M  END
> <IC50 (uM)>

> <IC50 (uM) - std>

> <Average Inhibition @ 20 uM>

> <Average Inhibition @ 20 uM - std>
5.82

> <Average Inhibition @ 50 uM>
0.482

> <Average Inhibition @ 50 uM - std>
11.6

> <Trypsin IC50 (uM)>
0.824

> <Relative Solubility @ 20 uM>
1.0

> <Relative Solubility @ 100 uM>
1.0

> <Hybrid2>
-8.835213

> <docked_fragment>
x0749

> <Mpro-_dock>
0.975317

> <site>
active-covalent

$$$$
JOH-UNK-14e6adc5-2
  -OEChem-05192003313D

 28 29  0     0  0  0  0  0  0999 V2000
   14.8236   -1.3998   26.8991 C   0  0  0  0  0  0  0  0  0  0  0  0
    6.8932   -6.5097   21.7655 C   0  0  0  0  0  0  0  0  0  0  0  0
   12.9361   -0.5418   25.6017 C   0  0  0  0  0  0  0  0  0  0  0  0
   13.2101   -2.9264   25.8762 C   0  0  0  0  0  0  0  0  0  0  0  0
    7.7787   -5.5959   22.3261 C   0  0  0  0  0  0  0  0  0  0  0  0
   11.7891   -0.7613   24.8389 C   0  0  0  0  0  0  0  0  0  0  0  0
   12.0631   -3.1460   25.1134 C   0  0  0  0  0  0  0  0  0  0  0  0
    5.8289   -6.0138   21.0299 C   0  0  0  0  0  0  0  0  0  0  0  0
    6.4809   -3.8396   21.3842 C   0  0  0  0  0  0  0  0  0  0  0  0
   13.6466   -1.6243   26.1203 C   0  0  0  0  0  0  0  0  0  0  0  0
   11.3526   -2.0634   24.5948 C   0  0  0  0  0  0  0  0  0  0  0  0
    7.5756   -4.2335   22.1367 C   0  0  0  0  0  0  0  0  0  0  0  0
    9.6039   -3.5139   23.4736 C   0  0  0  0  0  0  0  0  0  0  0  0
   15.7793   -1.2173   27.5315 N   0  0  0  0  0  0  0  0  0  0  0  0
    5.5991   -4.6976   20.8241 N   0  0  0  0  0  0  0  0  0  0  0  0
   10.2055   -2.2827   23.8315 N   0  0  0  0  0  0  0  0  0  0  0  0
    8.4593   -3.2798   22.6948 N   0  0  0  0  0  0  0  0  0  0  0  0
   10.0263   -4.6186   23.7998 O   0  0  0  0  0  0  0  0  0  0  0  0
    7.0319   -7.5763   21.9002 H   0  0  0  0  0  0  0  0  0  0  0  0
   13.2643    0.4792   25.7823 H   0  0  0  0  0  0  0  0  0  0  0  0
   13.7539   -3.7804   26.2733 H   0  0  0  0  0  0  0  0  0  0  0  0
    8.6228   -5.9560   22.9083 H   0  0  0  0  0  0  0  0  0  0  0  0
   11.2426    0.0897   24.4403 H   0  0  0  0  0  0  0  0  0  0  0  0
   11.7319   -4.1650   24.9297 H   0  0  0  0  0  0  0  0  0  0  0  0
    5.1096   -6.6853   20.5728 H   0  0  0  0  0  0  0  0  0  0  0  0
    6.2698   -2.7901   21.2012 H   0  0  0  0  0  0  0  0  0  0  0  0
    9.7354   -1.4404   23.4833 H   0  0  0  0  0  0  0  0  0  0  0  0
    8.2321   -2.3071   22.5042 H   0  0  0  0  0  0  0  0  0  0  0  0
  1 10  1  0  0  0  0
  1 14  3  0  0  0  0
  2  5  2  0  0  0  0
  2  8  1  0  0  0  0
  3  6  2  0  0  0  0
  3 10  1  0  0  0  0
  4  7  1  0  0  0  0
  4 10  2  0  0  0  0
  5 12  1  0  0  0  0
  6 11  1  0  0  0  0
  7 11  2  0  0  0  0
  8 15  2  0  0  0  0
  9 12  2  0  0  0  0
  9 15  1  0  0  0  0
 11 16  1  0  0  0  0
 12 17  1  0  0  0  0
 13 16  1  0  0  0  0
 13 17  1  0  0  0  0
 13 18  2  0  0  0  0
  2 19  1  0  0  0  0
  3 20  1  0  0  0  0
  4 21  1  0  0  0  0
  5 22  1  0  0  0  0
  6 23  1  0  0  0  0
  7 24  1  0  0  0  0
  8 25  1  0  0  0  0
  9 26  1  0  0  0  0
 16 27  1  0  0  0  0
 17 28  1  0  0  0  0
M  END
> <IC50 (uM)>

> <IC50 (uM) - std>

> <Average Inhibition @ 20 uM>

> <Average Inhibition @ 20 uM - std>
5.82

> <Average Inhibition @ 50 uM>
0.482

> <Average Inhibition @ 50 uM - std>
11.6

> <Trypsin IC50 (uM)>
0.824

> <Relative Solubility @ 20 uM>
1.0

> <Relative Solubility @ 100 uM>
1.0

> <Hybrid2>
-8.835213

> <docked_fragment>
x0749

> <Mpro-_dock>
0.975317

> <site>
active-covalent

$$$$
WAR-XCH-b6889685-20
  -OEChem-05192003313D

 42 43  0     0  0  0  0  0  0999 V2000
   12.3615    2.4536   22.6215 C   0  0  0  0  0  0  0  0  0  0  0  0
   10.9431    1.8492   24.4816 C   0  0  0  0  0  0  0  0  0  0  0  0
   11.7326    3.6963   22.5458 C   0  0  0  0  0  0  0  0  0  0  0  0
   10.3142    3.0920   24.4059 C   0  0  0  0  0  0  0  0  0  0  0  0
   11.9667    1.5300   23.5894 C   0  0  0  0  0  0  0  0  0  0  0  0
   10.7090    4.0155   23.4380 C   0  0  0  0  0  0  0  0  0  0  0  0
   13.6885   -1.5784   22.4714 C   0  0  0  0  0  0  0  0  0  0  0  0
   13.8748   -1.3817   24.9589 C   0  0  0  0  0  0  0  0  0  0  0  0
   12.5262   -0.5858   22.4826 C   0  0  0  0  0  0  0  0  0  0  0  0
   12.7135   -0.3869   24.9658 C   0  0  0  0  0  0  0  0  0  0  0  0
   13.8183   -2.3622   23.7825 C   0  0  0  0  0  0  0  0  0  0  0  0
    9.0749   -2.8234   24.1140 C   0  0  0  0  0  0  0  0  0  0  0  0
   12.7007   -3.3937   23.9489 C   0  0  0  0  0  0  0  0  0  0  0  0
   10.3665   -3.6129   24.1113 C   0  0  0  0  0  0  0  0  0  0  0  0
   12.5978    0.2821   23.6659 N   0  0  0  0  0  0  0  0  0  0  0  0
    8.6460    5.2242   22.2597 N   0  0  0  0  0  0  0  0  0  0  0  0
    9.3560    5.8795   24.6497 O   0  0  0  0  0  0  0  0  0  0  0  0
   10.8313    6.5128   22.7080 O   0  0  0  0  0  0  0  0  0  0  0  0
   11.4592   -2.7137   23.9591 O   0  0  0  0  0  0  0  0  0  0  0  0
    9.9208    5.5706   23.3435 S   0  0  0  0  0  0  0  0  0  0  0  0
   13.1577    2.2152   21.9210 H   0  0  0  0  0  0  0  0  0  0  0  0
   10.6284    1.1372   25.2404 H   0  0  0  0  0  0  0  0  0  0  0  0
   12.0482    4.4080   21.7876 H   0  0  0  0  0  0  0  0  0  0  0  0
    9.5177    3.3299   25.1061 H   0  0  0  0  0  0  0  0  0  0  0  0
   13.5593   -2.2767   21.6267 H   0  0  0  0  0  0  0  0  0  0  0  0
   14.6245   -1.0318   22.2708 H   0  0  0  0  0  0  0  0  0  0  0  0
   14.8253   -0.8216   24.9319 H   0  0  0  0  0  0  0  0  0  0  0  0
   13.8807   -1.9372   25.9139 H   0  0  0  0  0  0  0  0  0  0  0  0
   12.5497    0.0259   21.5713 H   0  0  0  0  0  0  0  0  0  0  0  0
   11.5837   -1.1475   22.4801 H   0  0  0  0  0  0  0  0  0  0  0  0
   11.7885   -0.9303   25.1988 H   0  0  0  0  0  0  0  0  0  0  0  0
   12.8669    0.3586   25.7575 H   0  0  0  0  0  0  0  0  0  0  0  0
   14.7829   -2.9169   23.7541 H   0  0  0  0  0  0  0  0  0  0  0  0
    9.0563   -2.1085   24.9413 H   0  0  0  0  0  0  0  0  0  0  0  0
    8.9540   -2.2777   23.1724 H   0  0  0  0  0  0  0  0  0  0  0  0
    8.2134   -3.4932   24.2065 H   0  0  0  0  0  0  0  0  0  0  0  0
   12.8270   -3.9289   24.8896 H   0  0  0  0  0  0  0  0  0  0  0  0
   12.7195   -4.0986   23.1182 H   0  0  0  0  0  0  0  0  0  0  0  0
   10.3786   -4.3260   23.2815 H   0  0  0  0  0  0  0  0  0  0  0  0
   10.4861   -4.1568   25.0530 H   0  0  0  0  0  0  0  0  0  0  0  0
    7.6912    5.1821   22.6365 H   0  0  0  0  0  0  0  0  0  0  0  0
    8.7010    5.6135   21.3107 H   0  0  0  0  0  0  0  0  0  0  0  0
  1  3  2  0  0  0  0
  1  5  1  0  0  0  0
  2  4  1  0  0  0  0
  2  5  2  0  0  0  0
  3  6  1  0  0  0  0
  4  6  2  0  0  0  0
  5 15  1  0  0  0  0
  6 20  1  0  0  0  0
  7  9  1  0  0  0  0
  7 11  1  0  0  0  0
  8 10  1  0  0  0  0
  8 11  1  0  0  0  0
  9 15  1  0  0  0  0
 10 15  1  0  0  0  0
 11 13  1  0  0  0  0
 12 14  1  0  0  0  0
 13 19  1  0  0  0  0
 14 19  1  0  0  0  0
 16 20  1  0  0  0  0
 17 20  2  0  0  0  0
 18 20  2  0  0  0  0
  1 21  1  0  0  0  0
  2 22  1  0  0  0  0
  3 23  1  0  0  0  0
  4 24  1  0  0  0  0
  7 25  1  0  0  0  0
  7 26  1  0  0  0  0
  8 27  1  0  0  0  0
  8 28  1  0  0  0  0
  9 29  1  0  0  0  0
  9 30  1  0  0  0  0
 10 31  1  0  0  0  0
 10 32  1  0  0  0  0
 11 33  1  0  0  0  0
 12 34  1  0  0  0  0
 12 35  1  0  0  0  0
 12 36  1  0  0  0  0
 13 37  1  0  0  0  0
 13 38  1  0  0  0  0
 14 39  1  0  0  0  0
 14 40  1  0  0  0  0
 16 41  1  0  0  0  0
 16 42  1  0  0  0  0
M  END
> <IC50 (uM)>

> <IC50 (uM) - std>

> <Average Inhibition @ 20 uM>

> <Average Inhibition @ 20 uM - std>

> <Average Inhibition @ 50 uM>

> <Average Inhibition @ 50 uM - std>
0.838

> <Trypsin IC50 (uM)>
0.312

> <Relative Solubility @ 20 uM>

> <Relative Solubility @ 100 uM>

> <Hybrid2>
-8.822823

> <docked_fragment>
x0161

> <Mpro-_dock>
1.813001

> <site>
active-noncovalent

$$$$
WAR-XCH-b72a1bbc-16
  -OEChem-05192003313D

 39 41  0     0  0  0  0  0  0999 V2000
   12.0224    1.5874   23.3436 C   0  0  0  0  0  0  0  0  0  0  0  0
   14.1388    0.6841   22.6074 C   0  0  0  0  0  0  0  0  0  0  0  0
   12.3743    2.8339   22.8259 C   0  0  0  0  0  0  0  0  0  0  0  0
   14.4907    1.9306   22.0897 C   0  0  0  0  0  0  0  0  0  0  0  0
    8.1205   -1.9884   22.1866 C   0  0  0  0  0  0  0  0  0  0  0  0
    6.9012   -2.5461   21.8705 C   0  0  0  0  0  0  0  0  0  0  0  0
    8.2321   -4.0053   23.3364 C   0  0  0  0  0  0  0  0  0  0  0  0
    8.8916   -2.8338   23.0356 C   0  0  0  0  0  0  0  0  0  0  0  0
   12.9047    0.5125   23.2344 C   0  0  0  0  0  0  0  0  0  0  0  0
   13.6085    3.0055   22.1990 C   0  0  0  0  0  0  0  0  0  0  0  0
   10.2584   -1.2239   24.4409 C   0  0  0  0  0  0  0  0  0  0  0  0
   11.2951   -2.3290   22.3998 C   0  0  0  0  0  0  0  0  0  0  0  0
   11.6712   -0.8727   24.9116 C   0  0  0  0  0  0  0  0  0  0  0  0
   12.6797   -1.9429   22.9330 C   0  0  0  0  0  0  0  0  0  0  0  0
   10.2757   -2.4825   23.5480 C   0  0  0  0  0  0  0  0  0  0  0  0
   12.5541   -0.7311   23.7506 N   0  0  0  0  0  0  0  0  0  0  0  0
   12.6636    5.4846   21.9416 N   0  0  0  0  0  0  0  0  0  0  0  0
   15.1816    5.0756   22.3129 O   0  0  0  0  0  0  0  0  0  0  0  0
   14.1446    4.4549   20.1023 O   0  0  0  0  0  0  0  0  0  0  0  0
    6.6899   -4.0827   22.5961 S   0  0  0  0  0  0  0  0  0  0  0  0
   14.0501    4.5655   21.5513 S   0  0  0  0  0  0  0  0  0  0  0  0
   11.0583    1.4650   23.8305 H   0  0  0  0  0  0  0  0  0  0  0  0
   14.8334   -0.1472   22.5159 H   0  0  0  0  0  0  0  0  0  0  0  0
   11.6793    3.6642   22.9168 H   0  0  0  0  0  0  0  0  0  0  0  0
   15.4550    2.0528   21.6034 H   0  0  0  0  0  0  0  0  0  0  0  0
    8.4399   -1.0195   21.8240 H   0  0  0  0  0  0  0  0  0  0  0  0
    6.1240   -2.1245   21.2488 H   0  0  0  0  0  0  0  0  0  0  0  0
    8.5780   -4.8214   23.9557 H   0  0  0  0  0  0  0  0  0  0  0  0
    9.6169   -1.3916   25.3116 H   0  0  0  0  0  0  0  0  0  0  0  0
    9.8326   -0.3764   23.8926 H   0  0  0  0  0  0  0  0  0  0  0  0
   10.9527   -1.5679   21.6884 H   0  0  0  0  0  0  0  0  0  0  0  0
   11.3730   -3.2679   21.8409 H   0  0  0  0  0  0  0  0  0  0  0  0
   11.6288    0.0628   25.4760 H   0  0  0  0  0  0  0  0  0  0  0  0
   12.0478   -1.6551   25.5767 H   0  0  0  0  0  0  0  0  0  0  0  0
   13.0876   -2.7581   23.5312 H   0  0  0  0  0  0  0  0  0  0  0  0
   13.3436   -1.7664   22.0867 H   0  0  0  0  0  0  0  0  0  0  0  0
   10.5939   -3.3472   24.1776 H   0  0  0  0  0  0  0  0  0  0  0  0
   12.7455    6.1880   22.6859 H   0  0  0  0  0  0  0  0  0  0  0  0
   12.0376    5.7615   21.1757 H   0  0  0  0  0  0  0  0  0  0  0  0
  1  3  2  0  0  0  0
  1  9  1  0  0  0  0
  2  4  1  0  0  0  0
  2  9  2  0  0  0  0
  3 10  1  0  0  0  0
  4 10  2  0  0  0  0
  5  6  2  0  0  0  0
  5  8  1  0  0  0  0
  6 20  1  0  0  0  0
  7  8  2  0  0  0  0
  7 20  1  0  0  0  0
  8 15  1  0  0  0  0
  9 16  1  0  0  0  0
 10 21  1  0  0  0  0
 11 13  1  0  0  0  0
 11 15  1  0  0  0  0
 12 14  1  0  0  0  0
 12 15  1  0  0  0  0
 13 16  1  0  0  0  0
 14 16  1  0  0  0  0
 17 21  1  0  0  0  0
 18 21  2  0  0  0  0
 19 21  2  0  0  0  0
  1 22  1  0  0  0  0
  2 23  1  0  0  0  0
  3 24  1  0  0  0  0
  4 25  1  0  0  0  0
  5 26  1  0  0  0  0
  6 27  1  0  0  0  0
  7 28  1  0  0  0  0
 11 29  1  0  0  0  0
 11 30  1  0  0  0  0
 12 31  1  0  0  0  0
 12 32  1  0  0  0  0
 13 33  1  0  0  0  0
 13 34  1  0  0  0  0
 14 35  1  0  0  0  0
 14 36  1  0  0  0  0
 15 37  1  0  0  0  0
 17 38  1  0  0  0  0
 17 39  1  0  0  0  0
M  END
> <IC50 (uM)>

> <IC50 (uM) - std>

> <Average Inhibition @ 20 uM>

> <Average Inhibition @ 20 uM - std>
7.4

> <Average Inhibition @ 50 uM>
0.16

> <Average Inhibition @ 50 uM - std>
17.1

> <Trypsin IC50 (uM)>
0.0726

> <Relative Solubility @ 20 uM>
0.98

> <Relative Solubility @ 100 uM>
0.76

> <Hybrid2>
-8.814410

> <docked_fragment>
x0195

> <Mpro-_dock>
3.787546

> <site>
active-noncovalent

$$$$
MED-COV-4280ac29-16
  -OEChem-05192003313D

 35 36  0     0  0  0  0  0  0999 V2000
   11.9864   -2.0293   22.0728 C   0  0  0  0  0  0  0  0  0  0  0  0
   10.8484   -2.5522   22.6870 C   0  0  0  0  0  0  0  0  0  0  0  0
   12.5071   -0.8060   22.4950 C   0  0  0  0  0  0  0  0  0  0  0  0
   10.7516   -0.6284   24.1454 C   0  0  0  0  0  0  0  0  0  0  0  0
   10.2310   -1.8517   23.7232 C   0  0  0  0  0  0  0  0  0  0  0  0
   11.8896   -0.1056   23.5312 C   0  0  0  0  0  0  0  0  0  0  0  0
    5.9279   -1.8113   19.8161 C   0  0  0  0  0  0  0  0  0  0  0  0
    6.3466   -3.2662   21.7729 C   0  0  0  0  0  0  0  0  0  0  0  0
    6.3628   -0.8265   22.1202 C   0  0  0  0  0  0  0  0  0  0  0  0
    7.6630   -3.4026   22.5239 C   0  0  0  0  0  0  0  0  0  0  0  0
    7.6794   -0.9264   22.8787 C   0  0  0  0  0  0  0  0  0  0  0  0
    9.0062   -2.4142   24.3825 C   0  0  0  0  0  0  0  0  0  0  0  0
    5.8159   -0.4074   19.2775 C   0  0  0  0  0  0  0  0  0  0  0  0
    6.2183   -1.9378   21.1738 N   0  0  0  0  0  0  0  0  0  0  0  0
    7.7705   -2.2849   23.5371 N   0  3  0  0  0  0  0  0  0  0  0  0
    5.7643   -2.7654   19.0512 O   0  0  0  0  0  0  0  0  0  0  0  0
   12.5317    1.4042   24.0509 Cl  0  0  0  0  0  0  0  0  0  0  0  0
    7.4343    0.0710   18.7776 Cl  0  0  0  0  0  0  0  0  0  0  0  0
   12.4668   -2.5750   21.2659 H   0  0  0  0  0  0  0  0  0  0  0  0
   10.4496   -3.5060   22.3515 H   0  0  0  0  0  0  0  0  0  0  0  0
   13.3945   -0.4105   22.0070 H   0  0  0  0  0  0  0  0  0  0  0  0
   10.2668   -0.0864   24.9541 H   0  0  0  0  0  0  0  0  0  0  0  0
    6.2803   -4.0455   21.0072 H   0  0  0  0  0  0  0  0  0  0  0  0
    5.4963   -3.4048   22.4516 H   0  0  0  0  0  0  0  0  0  0  0  0
    5.5140   -0.8770   22.8130 H   0  0  0  0  0  0  0  0  0  0  0  0
    6.3105    0.1427   21.6214 H   0  0  0  0  0  0  0  0  0  0  0  0
    7.6973   -4.3476   23.0756 H   0  0  0  0  0  0  0  0  0  0  0  0
    8.5275   -3.3342   21.8540 H   0  0  0  0  0  0  0  0  0  0  0  0
    8.5445   -0.8150   22.2154 H   0  0  0  0  0  0  0  0  0  0  0  0
    7.7247   -0.1751   23.6737 H   0  0  0  0  0  0  0  0  0  0  0  0
    9.1282   -3.4807   24.6002 H   0  0  0  0  0  0  0  0  0  0  0  0
    8.7956   -1.9026   25.3278 H   0  0  0  0  0  0  0  0  0  0  0  0
    5.4624    0.2451   20.0677 H   0  0  0  0  0  0  0  0  0  0  0  0
    5.1482   -0.4108   18.4235 H   0  0  0  0  0  0  0  0  0  0  0  0
    6.9682   -2.3705   24.1764 H   0  0  0  0  0  0  0  0  0  0  0  0
  1  2  2  0  0  0  0
  1  3  1  0  0  0  0
  2  5  1  0  0  0  0
  3  6  2  0  0  0  0
  4  5  2  0  0  0  0
  4  6  1  0  0  0  0
  5 12  1  0  0  0  0
  6 17  1  0  0  0  0
  7 13  1  0  0  0  0
  7 14  1  0  0  0  0
  7 16  2  0  0  0  0
  8 10  1  0  0  0  0
  8 14  1  0  0  0  0
  9 11  1  0  0  0  0
  9 14  1  0  0  0  0
 10 15  1  0  0  0  0
 11 15  1  0  0  0  0
 12 15  1  0  0  0  0
 13 18  1  0  0  0  0
  1 19  1  0  0  0  0
  2 20  1  0  0  0  0
  3 21  1  0  0  0  0
  4 22  1  0  0  0  0
  8 23  1  0  0  0  0
  8 24  1  0  0  0  0
  9 25  1  0  0  0  0
  9 26  1  0  0  0  0
 10 27  1  0  0  0  0
 10 28  1  0  0  0  0
 11 29  1  0  0  0  0
 11 30  1  0  0  0  0
 12 31  1  0  0  0  0
 12 32  1  0  0  0  0
 13 33  1  0  0  0  0
 13 34  1  0  0  0  0
 15 35  1  0  0  0  0
M  CHG  1  15   1
M  END
> <IC50 (uM)>

> <IC50 (uM) - std>

> <Average Inhibition @ 20 uM>

> <Average Inhibition @ 20 uM - std>

> <Average Inhibition @ 50 uM>

> <Average Inhibition @ 50 uM - std>
100.0

> <Trypsin IC50 (uM)>
0.0832

> <Relative Solubility @ 20 uM>

> <Relative Solubility @ 100 uM>

> <Hybrid2>
-8.791433

> <docked_fragment>
x0831

> <Mpro-_dock>
-0.522922

> <site>
active-covalent

$$$$
MED-COV-4280ac29-15
  -OEChem-05192003313D

 35 36  0     0  0  0  0  0  0999 V2000
   11.9864   -2.0293   22.0728 C   0  0  0  0  0  0  0  0  0  0  0  0
   10.8484   -2.5522   22.6870 C   0  0  0  0  0  0  0  0  0  0  0  0
   12.5071   -0.8060   22.4950 C   0  0  0  0  0  0  0  0  0  0  0  0
   10.7516   -0.6284   24.1454 C   0  0  0  0  0  0  0  0  0  0  0  0
   10.2310   -1.8517   23.7232 C   0  0  0  0  0  0  0  0  0  0  0  0
   11.8896   -0.1056   23.5312 C   0  0  0  0  0  0  0  0  0  0  0  0
    5.9279   -1.8113   19.8161 C   0  0  0  0  0  0  0  0  0  0  0  0
    6.3466   -3.2662   21.7729 C   0  0  0  0  0  0  0  0  0  0  0  0
    6.3628   -0.8265   22.1202 C   0  0  0  0  0  0  0  0  0  0  0  0
    7.6630   -3.4026   22.5239 C   0  0  0  0  0  0  0  0  0  0  0  0
    7.6794   -0.9264   22.8787 C   0  0  0  0  0  0  0  0  0  0  0  0
    9.0062   -2.4142   24.3825 C   0  0  0  0  0  0  0  0  0  0  0  0
    5.8159   -0.4074   19.2775 C   0  0  0  0  0  0  0  0  0  0  0  0
    6.2183   -1.9378   21.1738 N   0  0  0  0  0  0  0  0  0  0  0  0
    7.7705   -2.2849   23.5371 N   0  3  0  0  0  0  0  0  0  0  0  0
    5.7643   -2.7654   19.0512 O   0  0  0  0  0  0  0  0  0  0  0  0
   12.5317    1.4042   24.0509 Cl  0  0  0  0  0  0  0  0  0  0  0  0
    7.4343    0.0710   18.7776 Cl  0  0  0  0  0  0  0  0  0  0  0  0
   12.4668   -2.5750   21.2659 H   0  0  0  0  0  0  0  0  0  0  0  0
   10.4496   -3.5060   22.3515 H   0  0  0  0  0  0  0  0  0  0  0  0
   13.3945   -0.4105   22.0070 H   0  0  0  0  0  0  0  0  0  0  0  0
   10.2668   -0.0864   24.9541 H   0  0  0  0  0  0  0  0  0  0  0  0
    6.2803   -4.0455   21.0072 H   0  0  0  0  0  0  0  0  0  0  0  0
    5.4963   -3.4048   22.4516 H   0  0  0  0  0  0  0  0  0  0  0  0
    5.5140   -0.8770   22.8130 H   0  0  0  0  0  0  0  0  0  0  0  0
    6.3105    0.1427   21.6214 H   0  0  0  0  0  0  0  0  0  0  0  0
    7.6973   -4.3476   23.0756 H   0  0  0  0  0  0  0  0  0  0  0  0
    8.5275   -3.3342   21.8540 H   0  0  0  0  0  0  0  0  0  0  0  0
    8.5445   -0.8150   22.2154 H   0  0  0  0  0  0  0  0  0  0  0  0
    7.7247   -0.1751   23.6737 H   0  0  0  0  0  0  0  0  0  0  0  0
    9.1282   -3.4807   24.6002 H   0  0  0  0  0  0  0  0  0  0  0  0
    8.7956   -1.9026   25.3278 H   0  0  0  0  0  0  0  0  0  0  0  0
    5.4624    0.2451   20.0677 H   0  0  0  0  0  0  0  0  0  0  0  0
    5.1482   -0.4108   18.4235 H   0  0  0  0  0  0  0  0  0  0  0  0
    6.9682   -2.3705   24.1764 H   0  0  0  0  0  0  0  0  0  0  0  0
  1  2  2  0  0  0  0
  1  3  1  0  0  0  0
  2  5  1  0  0  0  0
  3  6  2  0  0  0  0
  4  5  2  0  0  0  0
  4  6  1  0  0  0  0
  5 12  1  0  0  0  0
  6 17  1  0  0  0  0
  7 13  1  0  0  0  0
  7 14  1  0  0  0  0
  7 16  2  0  0  0  0
  8 10  1  0  0  0  0
  8 14  1  0  0  0  0
  9 11  1  0  0  0  0
  9 14  1  0  0  0  0
 10 15  1  0  0  0  0
 11 15  1  0  0  0  0
 12 15  1  0  0  0  0
 13 18  1  0  0  0  0
  1 19  1  0  0  0  0
  2 20  1  0  0  0  0
  3 21  1  0  0  0  0
  4 22  1  0  0  0  0
  8 23  1  0  0  0  0
  8 24  1  0  0  0  0
  9 25  1  0  0  0  0
  9 26  1  0  0  0  0
 10 27  1  0  0  0  0
 10 28  1  0  0  0  0
 11 29  1  0  0  0  0
 11 30  1  0  0  0  0
 12 31  1  0  0  0  0
 12 32  1  0  0  0  0
 13 33  1  0  0  0  0
 13 34  1  0  0  0  0
 15 35  1  0  0  0  0
M  CHG  1  15   1
M  END
> <IC50 (uM)>

> <IC50 (uM) - std>

> <Average Inhibition @ 20 uM>

> <Average Inhibition @ 20 uM - std>

> <Average Inhibition @ 50 uM>

> <Average Inhibition @ 50 uM - std>
100.0

> <Trypsin IC50 (uM)>
0.0832

> <Relative Solubility @ 20 uM>

> <Relative Solubility @ 100 uM>

> <Hybrid2>
-8.791433

> <docked_fragment>
x0831

> <Mpro-_dock>
-0.522922

> <site>
active-covalent

$$$$
AAR-POS-d2a4d1df-35
  -OEChem-05192003313D

 35 36  0     0  0  0  0  0  0999 V2000
   11.9864   -2.0293   22.0728 C   0  0  0  0  0  0  0  0  0  0  0  0
   10.8484   -2.5522   22.6870 C   0  0  0  0  0  0  0  0  0  0  0  0
   12.5071   -0.8060   22.4950 C   0  0  0  0  0  0  0  0  0  0  0  0
   10.7516   -0.6284   24.1454 C   0  0  0  0  0  0  0  0  0  0  0  0
   10.2310   -1.8517   23.7232 C   0  0  0  0  0  0  0  0  0  0  0  0
   11.8896   -0.1056   23.5312 C   0  0  0  0  0  0  0  0  0  0  0  0
    5.9279   -1.8113   19.8161 C   0  0  0  0  0  0  0  0  0  0  0  0
    6.3466   -3.2662   21.7729 C   0  0  0  0  0  0  0  0  0  0  0  0
    6.3628   -0.8265   22.1202 C   0  0  0  0  0  0  0  0  0  0  0  0
    7.6630   -3.4026   22.5239 C   0  0  0  0  0  0  0  0  0  0  0  0
    7.6794   -0.9264   22.8787 C   0  0  0  0  0  0  0  0  0  0  0  0
    9.0062   -2.4142   24.3825 C   0  0  0  0  0  0  0  0  0  0  0  0
    5.8159   -0.4074   19.2775 C   0  0  0  0  0  0  0  0  0  0  0  0
    6.2183   -1.9378   21.1738 N   0  0  0  0  0  0  0  0  0  0  0  0
    7.7705   -2.2849   23.5371 N   0  3  0  0  0  0  0  0  0  0  0  0
    5.7643   -2.7654   19.0512 O   0  0  0  0  0  0  0  0  0  0  0  0
   12.5317    1.4042   24.0509 Cl  0  0  0  0  0  0  0  0  0  0  0  0
    7.4343    0.0710   18.7776 Cl  0  0  0  0  0  0  0  0  0  0  0  0
   12.4668   -2.5750   21.2659 H   0  0  0  0  0  0  0  0  0  0  0  0
   10.4496   -3.5060   22.3515 H   0  0  0  0  0  0  0  0  0  0  0  0
   13.3945   -0.4105   22.0070 H   0  0  0  0  0  0  0  0  0  0  0  0
   10.2668   -0.0864   24.9541 H   0  0  0  0  0  0  0  0  0  0  0  0
    6.2803   -4.0455   21.0072 H   0  0  0  0  0  0  0  0  0  0  0  0
    5.4963   -3.4048   22.4516 H   0  0  0  0  0  0  0  0  0  0  0  0
    5.5140   -0.8770   22.8130 H   0  0  0  0  0  0  0  0  0  0  0  0
    6.3105    0.1427   21.6214 H   0  0  0  0  0  0  0  0  0  0  0  0
    7.6973   -4.3476   23.0756 H   0  0  0  0  0  0  0  0  0  0  0  0
    8.5275   -3.3342   21.8540 H   0  0  0  0  0  0  0  0  0  0  0  0
    8.5445   -0.8150   22.2154 H   0  0  0  0  0  0  0  0  0  0  0  0
    7.7247   -0.1751   23.6737 H   0  0  0  0  0  0  0  0  0  0  0  0
    9.1282   -3.4807   24.6002 H   0  0  0  0  0  0  0  0  0  0  0  0
    8.7956   -1.9026   25.3278 H   0  0  0  0  0  0  0  0  0  0  0  0
    5.4624    0.2451   20.0677 H   0  0  0  0  0  0  0  0  0  0  0  0
    5.1482   -0.4108   18.4235 H   0  0  0  0  0  0  0  0  0  0  0  0
    6.9682   -2.3705   24.1764 H   0  0  0  0  0  0  0  0  0  0  0  0
  1  2  2  0  0  0  0
  1  3  1  0  0  0  0
  2  5  1  0  0  0  0
  3  6  2  0  0  0  0
  4  5  2  0  0  0  0
  4  6  1  0  0  0  0
  5 12  1  0  0  0  0
  6 17  1  0  0  0  0
  7 13  1  0  0  0  0
  7 14  1  0  0  0  0
  7 16  2  0  0  0  0
  8 10  1  0  0  0  0
  8 14  1  0  0  0  0
  9 11  1  0  0  0  0
  9 14  1  0  0  0  0
 10 15  1  0  0  0  0
 11 15  1  0  0  0  0
 12 15  1  0  0  0  0
 13 18  1  0  0  0  0
  1 19  1  0  0  0  0
  2 20  1  0  0  0  0
  3 21  1  0  0  0  0
  4 22  1  0  0  0  0
  8 23  1  0  0  0  0
  8 24  1  0  0  0  0
  9 25  1  0  0  0  0
  9 26  1  0  0  0  0
 10 27  1  0  0  0  0
 10 28  1  0  0  0  0
 11 29  1  0  0  0  0
 11 30  1  0  0  0  0
 12 31  1  0  0  0  0
 12 32  1  0  0  0  0
 13 33  1  0  0  0  0
 13 34  1  0  0  0  0
 15 35  1  0  0  0  0
M  CHG  1  15   1
M  END
> <IC50 (uM)>

> <IC50 (uM) - std>

> <Average Inhibition @ 20 uM>

> <Average Inhibition @ 20 uM - std>

> <Average Inhibition @ 50 uM>

> <Average Inhibition @ 50 uM - std>
100.0

> <Trypsin IC50 (uM)>
0.0832

> <Relative Solubility @ 20 uM>

> <Relative Solubility @ 100 uM>

> <Hybrid2>
-8.791433

> <docked_fragment>
x0831

> <Mpro-_dock>
-0.522922

> <site>
active-covalent

$$$$
BAR-COM-4e090d3a-35
  -OEChem-05192003313D

 41 43  0     0  0  0  0  0  0999 V2000
   14.3975   -1.3105   22.2293 C   0  0  0  0  0  0  0  0  0  0  0  0
   11.3817    7.1107   25.3997 C   0  0  0  0  0  0  0  0  0  0  0  0
   12.2676    6.1721   24.8824 C   0  0  0  0  0  0  0  0  0  0  0  0
   14.4606    0.0827   22.2554 C   0  0  0  0  0  0  0  0  0  0  0  0
   13.2691   -1.9670   22.7208 C   0  0  0  0  0  0  0  0  0  0  0  0
   12.2669    0.1630   23.2646 C   0  0  0  0  0  0  0  0  0  0  0  0
   10.2482    7.4088   24.6608 C   0  0  0  0  0  0  0  0  0  0  0  0
    7.1784   -0.8001   22.0628 C   0  0  0  0  0  0  0  0  0  0  0  0
    8.6272   -1.9892   21.1440 C   0  0  0  0  0  0  0  0  0  0  0  0
   11.9967    5.5689   23.6593 C   0  0  0  0  0  0  0  0  0  0  0  0
   13.3953    0.8194   22.7731 C   0  0  0  0  0  0  0  0  0  0  0  0
   12.2038   -1.2302   23.2384 C   0  0  0  0  0  0  0  0  0  0  0  0
   10.8356    5.9358   22.9983 C   0  0  0  0  0  0  0  0  0  0  0  0
   12.4958    3.1179   23.2760 C   0  0  0  0  0  0  0  0  0  0  0  0
   12.9684    4.5543   23.1157 C   0  0  0  0  0  0  0  0  0  0  0  0
    9.2636   -3.3402   23.1922 C   0  0  0  0  0  0  0  0  0  0  0  0
   10.7693   -3.1235   23.1224 C   0  0  0  0  0  0  0  0  0  0  0  0
    9.9512    6.8435   23.4692 N   0  0  0  0  0  0  0  0  0  0  0  0
    7.7863   -1.0218   20.8603 N   0  0  0  0  0  0  0  0  0  0  0  0
    7.5903   -1.5694   23.0727 N   0  0  0  0  0  0  0  0  0  0  0  0
    8.5168   -2.3207   22.4584 N   0  0  0  0  0  0  0  0  0  0  0  0
   13.4586    2.2130   22.7987 N   0  0  0  0  0  0  0  0  0  0  0  0
   11.4055    2.8370   23.7632 O   0  0  0  0  0  0  0  0  0  0  0  0
   11.1027   -1.8707   23.7182 O   0  0  0  0  0  0  0  0  0  0  0  0
   10.4001    5.1497   21.3174 Br  0  0  0  0  0  0  0  0  0  0  0  0
   15.2267   -1.8837   21.8254 H   0  0  0  0  0  0  0  0  0  0  0  0
   11.5727    7.5940   26.3509 H   0  0  0  0  0  0  0  0  0  0  0  0
   13.1652    5.9185   25.4399 H   0  0  0  0  0  0  0  0  0  0  0  0
   15.3451    0.5835   21.8702 H   0  0  0  0  0  0  0  0  0  0  0  0
   13.2262   -3.0523   22.6968 H   0  0  0  0  0  0  0  0  0  0  0  0
   11.4334    0.7332   23.6688 H   0  0  0  0  0  0  0  0  0  0  0  0
    9.5261    8.1345   25.0201 H   0  0  0  0  0  0  0  0  0  0  0  0
    6.4098   -0.0558   22.2076 H   0  0  0  0  0  0  0  0  0  0  0  0
    9.3120   -2.4704   20.4602 H   0  0  0  0  0  0  0  0  0  0  0  0
   13.1465    4.7489   22.0504 H   0  0  0  0  0  0  0  0  0  0  0  0
   13.9363    4.6659   23.6206 H   0  0  0  0  0  0  0  0  0  0  0  0
    8.9097   -3.3265   24.2296 H   0  0  0  0  0  0  0  0  0  0  0  0
    8.9953   -4.3103   22.7582 H   0  0  0  0  0  0  0  0  0  0  0  0
   11.2830   -3.9095   23.6849 H   0  0  0  0  0  0  0  0  0  0  0  0
   11.1348   -3.1306   22.0904 H   0  0  0  0  0  0  0  0  0  0  0  0
   14.3175    2.6299   22.4212 H   0  0  0  0  0  0  0  0  0  0  0  0
  1  4  2  0  0  0  0
  1  5  1  0  0  0  0
  2  3  2  0  0  0  0
  2  7  1  0  0  0  0
  3 10  1  0  0  0  0
  4 11  1  0  0  0  0
  5 12  2  0  0  0  0
  6 11  2  0  0  0  0
  6 12  1  0  0  0  0
  7 18  2  0  0  0  0
  8 19  1  0  0  0  0
  8 20  2  0  0  0  0
  9 19  2  0  0  0  0
  9 21  1  0  0  0  0
 10 13  2  0  0  0  0
 10 15  1  0  0  0  0
 11 22  1  0  0  0  0
 12 24  1  0  0  0  0
 13 18  1  0  0  0  0
 13 25  1  0  0  0  0
 14 15  1  0  0  0  0
 14 22  1  0  0  0  0
 14 23  2  0  0  0  0
 16 17  1  0  0  0  0
 16 21  1  0  0  0  0
 17 24  1  0  0  0  0
 20 21  1  0  0  0  0
  1 26  1  0  0  0  0
  2 27  1  0  0  0  0
  3 28  1  0  0  0  0
  4 29  1  0  0  0  0
  5 30  1  0  0  0  0
  6 31  1  0  0  0  0
  7 32  1  0  0  0  0
  8 33  1  0  0  0  0
  9 34  1  0  0  0  0
 15 35  1  0  0  0  0
 15 36  1  0  0  0  0
 16 37  1  0  0  0  0
 16 38  1  0  0  0  0
 17 39  1  0  0  0  0
 17 40  1  0  0  0  0
 22 41  1  0  0  0  0
M  END
> <IC50 (uM)>

> <IC50 (uM) - std>

> <Average Inhibition @ 20 uM>

> <Average Inhibition @ 20 uM - std>

> <Average Inhibition @ 50 uM>

> <Average Inhibition @ 50 uM - std>
13.6

> <Trypsin IC50 (uM)>
1.91

> <Relative Solubility @ 20 uM>

> <Relative Solubility @ 100 uM>

> <Hybrid2>
-8.784991

> <docked_fragment>
x0195

> <Mpro-_dock>
5.101603

> <site>
active-noncovalent

$$$$
WAR-XCH-b72a1bbc-1
  -OEChem-05192003313D

 30 31  0     0  0  0  0  0  0999 V2000
    9.5974   -2.8608   22.8104 C   0  0  0  0  0  0  0  0  0  0  0  0
    9.7345   -4.4669   24.6101 C   0  0  0  0  0  0  0  0  0  0  0  0
    8.5100   -3.5521   22.2762 C   0  0  0  0  0  0  0  0  0  0  0  0
    8.6471   -5.1582   24.0760 C   0  0  0  0  0  0  0  0  0  0  0  0
   10.2097   -3.3182   23.9773 C   0  0  0  0  0  0  0  0  0  0  0  0
    8.0349   -4.7008   22.9090 C   0  0  0  0  0  0  0  0  0  0  0  0
   11.4229   -1.1808   24.3288 C   0  0  0  0  0  0  0  0  0  0  0  0
   12.3308   -3.3357   25.2673 C   0  0  0  0  0  0  0  0  0  0  0  0
   12.0783   -0.5164   25.5337 C   0  0  0  0  0  0  0  0  0  0  0  0
   13.7049   -2.7079   25.0653 C   0  0  0  0  0  0  0  0  0  0  0  0
   11.2865   -2.6340   24.5067 N   0  0  0  0  0  0  0  0  0  0  0  0
    6.3249   -4.6144   20.8661 N   0  0  0  0  0  0  0  0  0  0  0  0
    7.1348   -6.8765   21.8003 O   0  0  0  0  0  0  0  0  0  0  0  0
    5.5599   -5.4685   23.1731 O   0  0  0  0  0  0  0  0  0  0  0  0
   13.8072   -1.0292   25.7522 S   0  0  0  0  0  0  0  0  0  0  0  0
    6.6743   -5.5672   22.2408 S   0  0  0  0  0  0  0  0  0  0  0  0
    9.9597   -1.9670   22.3089 H   0  0  0  0  0  0  0  0  0  0  0  0
   10.2036   -4.8314   25.5205 H   0  0  0  0  0  0  0  0  0  0  0  0
    8.0410   -3.1868   21.3667 H   0  0  0  0  0  0  0  0  0  0  0  0
    8.2854   -6.0521   24.5773 H   0  0  0  0  0  0  0  0  0  0  0  0
   10.4308   -0.7336   24.1535 H   0  0  0  0  0  0  0  0  0  0  0  0
   12.0020   -0.9772   23.4129 H   0  0  0  0  0  0  0  0  0  0  0  0
   12.3454   -4.4006   24.9715 H   0  0  0  0  0  0  0  0  0  0  0  0
   12.0742   -3.3366   26.3421 H   0  0  0  0  0  0  0  0  0  0  0  0
   12.0635    0.5763   25.4005 H   0  0  0  0  0  0  0  0  0  0  0  0
   11.5176   -0.7222   26.4595 H   0  0  0  0  0  0  0  0  0  0  0  0
   14.4967   -3.3275   25.5082 H   0  0  0  0  0  0  0  0  0  0  0  0
   13.9213   -2.6439   23.9908 H   0  0  0  0  0  0  0  0  0  0  0  0
    6.5475   -5.0028   19.9414 H   0  0  0  0  0  0  0  0  0  0  0  0
    5.4731   -4.0405   20.8813 H   0  0  0  0  0  0  0  0  0  0  0  0
  1  3  2  0  0  0  0
  1  5  1  0  0  0  0
  2  4  1  0  0  0  0
  2  5  2  0  0  0  0
  3  6  1  0  0  0  0
  4  6  2  0  0  0  0
  5 11  1  0  0  0  0
  6 16  1  0  0  0  0
  7  9  1  0  0  0  0
  7 11  1  0  0  0  0
  8 10  1  0  0  0  0
  8 11  1  0  0  0  0
  9 15  1  0  0  0  0
 10 15  1  0  0  0  0
 12 16  1  0  0  0  0
 13 16  2  0  0  0  0
 14 16  2  0  0  0  0
  1 17  1  0  0  0  0
  2 18  1  0  0  0  0
  3 19  1  0  0  0  0
  4 20  1  0  0  0  0
  7 21  1  0  0  0  0
  7 22  1  0  0  0  0
  8 23  1  0  0  0  0
  8 24  1  0  0  0  0
  9 25  1  0  0  0  0
  9 26  1  0  0  0  0
 10 27  1  0  0  0  0
 10 28  1  0  0  0  0
 12 29  1  0  0  0  0
 12 30  1  0  0  0  0
M  END
> <IC50 (uM)>

> <IC50 (uM) - std>

> <Average Inhibition @ 20 uM>

> <Average Inhibition @ 20 uM - std>

> <Average Inhibition @ 50 uM>

> <Average Inhibition @ 50 uM - std>
12.8

> <Trypsin IC50 (uM)>
0.959

> <Relative Solubility @ 20 uM>

> <Relative Solubility @ 100 uM>

> <Hybrid2>
-8.766706

> <docked_fragment>
x0749

> <Mpro-_dock>
0.927176

> <site>
active-covalent

$$$$
PAT-UNK-b2d83456-1
  -OEChem-05192003313D

 36 37  0     0  0  0  0  0  0999 V2000
   12.2661    0.4889   24.4552 C   0  0  0  0  0  0  0  0  0  0  0  0
   14.0138   -2.4914   25.8407 C   0  0  0  0  0  0  0  0  0  0  0  0
   13.7729   -1.1918   25.3950 C   0  0  0  0  0  0  0  0  0  0  0  0
   12.9935   -3.4419   25.8033 C   0  0  0  0  0  0  0  0  0  0  0  0
   11.4915   -1.7930   24.8747 C   0  0  0  0  0  0  0  0  0  0  0  0
   12.5118   -0.8426   24.9121 C   0  0  0  0  0  0  0  0  0  0  0  0
   11.7324   -3.0927   25.3204 C   0  0  0  0  0  0  0  0  0  0  0  0
    6.4501   -4.6114   21.6844 C   0  0  0  0  0  0  0  0  0  0  0  0
    7.0522   -3.8804   23.9701 C   0  0  0  0  0  0  0  0  0  0  0  0
    8.6041   -3.3365   22.1347 C   0  0  0  0  0  0  0  0  0  0  0  0
    8.2015   -4.4179   24.8102 C   0  0  0  0  0  0  0  0  0  0  0  0
    9.7779   -3.8644   22.9485 C   0  0  0  0  0  0  0  0  0  0  0  0
    5.6079   -5.7118   22.2789 C   0  0  0  0  0  0  0  0  0  0  0  0
   10.6351   -4.1151   25.2804 C   0  0  0  0  0  0  0  0  0  0  0  0
   12.0666    1.5702   24.0842 N   0  0  0  0  0  0  0  0  0  0  0  0
    7.3520   -3.9830   22.5419 N   0  0  0  0  0  0  0  0  0  0  0  0
    9.4744   -3.6998   24.4209 N   0  3  0  0  0  0  0  0  0  0  0  0
    6.3073   -4.3188   20.4945 O   0  0  0  0  0  0  0  0  0  0  0  0
   14.9953   -2.7634   26.2179 H   0  0  0  0  0  0  0  0  0  0  0  0
   14.5784   -0.4621   25.4300 H   0  0  0  0  0  0  0  0  0  0  0  0
   13.1910   -4.4520   26.1522 H   0  0  0  0  0  0  0  0  0  0  0  0
   10.5054   -1.5263   24.5001 H   0  0  0  0  0  0  0  0  0  0  0  0
    6.1349   -4.4253   24.2144 H   0  0  0  0  0  0  0  0  0  0  0  0
    6.8701   -2.8220   24.1931 H   0  0  0  0  0  0  0  0  0  0  0  0
    8.4796   -2.2583   22.2924 H   0  0  0  0  0  0  0  0  0  0  0  0
    8.8112   -3.4820   21.0731 H   0  0  0  0  0  0  0  0  0  0  0  0
    8.0281   -4.2216   25.8732 H   0  0  0  0  0  0  0  0  0  0  0  0
    8.3586   -5.4910   24.6533 H   0  0  0  0  0  0  0  0  0  0  0  0
    9.9629   -4.9278   22.7596 H   0  0  0  0  0  0  0  0  0  0  0  0
   10.6846   -3.2887   22.7362 H   0  0  0  0  0  0  0  0  0  0  0  0
    4.6912   -5.2845   22.6716 H   0  0  0  0  0  0  0  0  0  0  0  0
    6.1641   -6.1936   23.0767 H   0  0  0  0  0  0  0  0  0  0  0  0
    5.3773   -6.4390   21.5069 H   0  0  0  0  0  0  0  0  0  0  0  0
   10.9968   -5.0687   24.8810 H   0  0  0  0  0  0  0  0  0  0  0  0
   10.2334   -4.3036   26.2818 H   0  0  0  0  0  0  0  0  0  0  0  0
    9.3267   -2.6958   24.5935 H   0  0  0  0  0  0  0  0  0  0  0  0
  1  6  1  0  0  0  0
  1 15  3  0  0  0  0
  2  3  1  0  0  0  0
  2  4  2  0  0  0  0
  3  6  2  0  0  0  0
  4  7  1  0  0  0  0
  5  6  1  0  0  0  0
  5  7  2  0  0  0  0
  7 14  1  0  0  0  0
  8 13  1  0  0  0  0
  8 16  1  0  0  0  0
  8 18  2  0  0  0  0
  9 11  1  0  0  0  0
  9 16  1  0  0  0  0
 10 12  1  0  0  0  0
 10 16  1  0  0  0  0
 11 17  1  0  0  0  0
 12 17  1  0  0  0  0
 14 17  1  0  0  0  0
  2 19  1  0  0  0  0
  3 20  1  0  0  0  0
  4 21  1  0  0  0  0
  5 22  1  0  0  0  0
  9 23  1  0  0  0  0
  9 24  1  0  0  0  0
 10 25  1  0  0  0  0
 10 26  1  0  0  0  0
 11 27  1  0  0  0  0
 11 28  1  0  0  0  0
 12 29  1  0  0  0  0
 12 30  1  0  0  0  0
 13 31  1  0  0  0  0
 13 32  1  0  0  0  0
 13 33  1  0  0  0  0
 14 34  1  0  0  0  0
 14 35  1  0  0  0  0
 17 36  1  0  0  0  0
M  CHG  1  17   1
M  END
> <IC50 (uM)>

> <IC50 (uM) - std>

> <Average Inhibition @ 20 uM>

> <Average Inhibition @ 20 uM - std>
-0.339

> <Average Inhibition @ 50 uM>
7.61

> <Average Inhibition @ 50 uM - std>
6.59

> <Trypsin IC50 (uM)>
0.42

> <Relative Solubility @ 20 uM>
1.0

> <Relative Solubility @ 100 uM>
0.99

> <Hybrid2>
-8.765173

> <docked_fragment>
x0749

> <Mpro-_dock>
-1.116944

> <site>
active-covalent

$$$$
LON-WEI-b8d98729-1
  -OEChem-05192003313D

 55 58  0     1  0  0  0  0  0999 V2000
    8.8976   -5.4989   26.1025 C   0  0  0  0  0  0  0  0  0  0  0  0
    9.3082   -4.8457   24.9458 C   0  0  0  0  0  0  0  0  0  0  0  0
    5.3990   -0.4204   21.3939 C   0  0  0  0  0  0  0  0  0  0  0  0
    5.8750   -1.6731   21.7917 C   0  0  0  0  0  0  0  0  0  0  0  0
   10.8968    0.5327   23.5326 C   0  0  0  0  0  0  0  0  0  0  0  0
   11.6700    1.6881   23.6449 C   0  0  0  0  0  0  0  0  0  0  0  0
   13.5121    0.5606   22.5621 C   0  0  0  0  0  0  0  0  0  0  0  0
    8.1037   -1.1144   21.0174 C   0  0  0  0  0  0  0  0  0  0  0  0
    7.5784   -5.3488   26.4986 C   0  0  0  0  0  0  0  0  0  0  0  0
    7.1028   -3.9873   24.7102 C   0  0  0  0  0  0  0  0  0  0  0  0
    7.0189    2.3607   19.8565 C   0  0  0  0  0  0  0  0  0  0  0  0
    8.3998   -4.0734   24.2305 C   0  0  0  0  0  0  0  0  0  0  0  0
   12.7389   -0.5949   22.4498 C   0  0  0  0  0  0  0  0  0  0  0  0
    6.2807    0.5070   20.7977 C   0  0  0  0  0  0  0  0  0  0  0  0
    7.2102   -2.0135   21.6049 C   0  0  0  0  0  0  0  0  0  0  0  0
   11.4312   -0.6089   22.9351 C   0  0  0  0  0  0  0  0  0  0  0  0
   12.9776    1.7021   23.1596 C   0  0  0  0  0  0  0  0  0  0  0  0
    7.6188    0.1421   20.6204 C   0  0  0  0  0  0  0  0  0  0  0  0
    7.0385   -6.8925   22.0545 C   0  0  0  0  0  0  0  0  0  0  0  0
    7.7634   -5.7720   21.9756 C   0  0  0  0  0  0  0  0  0  0  0  0
    7.1414   -4.5055   21.4896 C   0  0  0  0  0  0  0  0  0  0  0  0
    9.3194   -1.9415   23.2674 C   0  0  0  0  0  0  0  0  0  0  0  0
   13.3377   -1.8027   21.8053 C   0  0  0  0  0  0  0  0  0  0  0  0
   13.1229    3.9608   23.8899 C   0  0  0  0  0  0  0  0  0  0  0  0
    8.8153   -3.3510   22.9679 C   0  0  2  0  0  0  0  0  0  0  0  0
    6.6671   -4.6072   25.8298 N   0  0  0  0  0  0  0  0  0  0  0  0
    5.9527    1.7803   20.3555 N   0  0  0  0  0  0  0  0  0  0  0  0
   10.6314   -1.7718   22.8324 N   0  0  0  0  0  0  0  0  0  0  0  0
    7.6661   -3.2696   22.0089 N   0  0  0  0  0  0  0  0  0  0  0  0
    6.2016   -4.5713   20.6968 O   0  0  0  0  0  0  0  0  0  0  0  0
    8.6137   -1.1111   23.8337 O   0  0  0  0  0  0  0  0  0  0  0  0
   13.7320    2.8299   23.2687 O   0  0  0  0  0  0  0  0  0  0  0  0
    8.4654    1.4478   19.8778 S   0  0  0  0  0  0  0  0  0  0  0  0
    9.5884   -6.1064   26.6760 H   0  0  0  0  0  0  0  0  0  0  0  0
   10.3367   -4.9443   24.6094 H   0  0  0  0  0  0  0  0  0  0  0  0
    4.3541   -0.1645   21.5455 H   0  0  0  0  0  0  0  0  0  0  0  0
    5.1843   -2.3776   22.2493 H   0  0  0  0  0  0  0  0  0  0  0  0
    9.8791    0.5333   23.9155 H   0  0  0  0  0  0  0  0  0  0  0  0
   11.2478    2.5743   24.1109 H   0  0  0  0  0  0  0  0  0  0  0  0
   14.5320    0.5745   22.1852 H   0  0  0  0  0  0  0  0  0  0  0  0
    9.1478   -1.3772   20.8708 H   0  0  0  0  0  0  0  0  0  0  0  0
    7.2090   -5.8376   27.3941 H   0  0  0  0  0  0  0  0  0  0  0  0
    6.3499   -3.3994   24.1943 H   0  0  0  0  0  0  0  0  0  0  0  0
    6.9898    3.3631   19.4521 H   0  0  0  0  0  0  0  0  0  0  0  0
    7.4892   -7.8050   22.4305 H   0  0  0  0  0  0  0  0  0  0  0  0
    5.9992   -6.9374   21.7482 H   0  0  0  0  0  0  0  0  0  0  0  0
    8.7951   -5.7662   22.3077 H   0  0  0  0  0  0  0  0  0  0  0  0
   13.8326   -2.4276   22.5573 H   0  0  0  0  0  0  0  0  0  0  0  0
   12.5710   -2.4029   21.3007 H   0  0  0  0  0  0  0  0  0  0  0  0
   14.0751   -1.5202   21.0441 H   0  0  0  0  0  0  0  0  0  0  0  0
   13.8327    4.7913   23.9124 H   0  0  0  0  0  0  0  0  0  0  0  0
   12.8191    3.6995   24.9067 H   0  0  0  0  0  0  0  0  0  0  0  0
   12.2426    4.2524   23.3122 H   0  0  0  0  0  0  0  0  0  0  0  0
    9.6151   -3.9056   22.4620 H   0  0  0  0  0  0  0  0  0  0  0  0
   11.0658   -2.5784   22.3889 H   0  0  0  0  0  0  0  0  0  0  0  0
  1  2  2  0  0  0  0
  1  9  1  0  0  0  0
  2 12  1  0  0  0  0
  3  4  2  0  0  0  0
  3 14  1  0  0  0  0
  4 15  1  0  0  0  0
  5  6  2  0  0  0  0
  5 16  1  0  0  0  0
  6 17  1  0  0  0  0
  7 13  1  0  0  0  0
  7 17  2  0  0  0  0
  8 15  2  0  0  0  0
  8 18  1  0  0  0  0
  9 26  2  0  0  0  0
 10 12  2  0  0  0  0
 10 26  1  0  0  0  0
 11 27  2  0  0  0  0
 11 33  1  0  0  0  0
 12 25  1  0  0  0  0
 13 16  2  0  0  0  0
 13 23  1  0  0  0  0
 14 18  2  0  0  0  0
 14 27  1  0  0  0  0
 15 29  1  0  0  0  0
 16 28  1  0  0  0  0
 17 32  1  0  0  0  0
 18 33  1  0  0  0  0
 19 20  2  0  0  0  0
 20 21  1  0  0  0  0
 21 29  1  0  0  0  0
 21 30  2  0  0  0  0
 22 25  1  0  0  0  0
 22 28  1  0  0  0  0
 22 31  2  0  0  0  0
 24 32  1  0  0  0  0
 25 29  1  0  0  0  0
  1 34  1  0  0  0  0
  2 35  1  0  0  0  0
  3 36  1  0  0  0  0
  4 37  1  0  0  0  0
  5 38  1  0  0  0  0
  6 39  1  0  0  0  0
  7 40  1  0  0  0  0
  8 41  1  0  0  0  0
  9 42  1  0  0  0  0
 10 43  1  0  0  0  0
 11 44  1  0  0  0  0
 19 45  1  0  0  0  0
 19 46  1  0  0  0  0
 20 47  1  0  0  0  0
 23 48  1  0  0  0  0
 23 49  1  0  0  0  0
 23 50  1  0  0  0  0
 24 51  1  0  0  0  0
 24 52  1  0  0  0  0
 24 53  1  0  0  0  0
 25 54  1  0  0  0  0
 28 55  1  0  0  0  0
M  END
> <IC50 (uM)>

> <IC50 (uM) - std>

> <Average Inhibition @ 20 uM>

> <Average Inhibition @ 20 uM - std>
3.21

> <Average Inhibition @ 50 uM>
1.6

> <Average Inhibition @ 50 uM - std>
11.3

> <Trypsin IC50 (uM)>
0.114

> <Relative Solubility @ 20 uM>
0.94

> <Relative Solubility @ 100 uM>
0.92

> <Hybrid2>
-8.756179

> <docked_fragment>
x0831

> <Mpro-_dock>
4.602241

> <site>
active-covalent

$$$$
GIA-UNK-eaadd1d4-1
  -OEChem-05192003313D

 44 46  0     0  0  0  0  0  0999 V2000
    9.7244    7.3841   25.1155 C   0  0  0  0  0  0  0  0  0  0  0  0
    9.3157    6.4153   24.1990 C   0  0  0  0  0  0  0  0  0  0  0  0
   11.0353    7.3842   25.5922 C   0  0  0  0  0  0  0  0  0  0  0  0
   10.2178    5.4465   23.7594 C   0  0  0  0  0  0  0  0  0  0  0  0
   11.9374    6.4155   25.1526 C   0  0  0  0  0  0  0  0  0  0  0  0
   11.5287    5.4465   24.2362 C   0  0  0  0  0  0  0  0  0  0  0  0
   12.4781    4.4268   23.7734 C   0  0  0  0  0  0  0  0  0  0  0  0
   11.3947   -0.9275   22.9827 C   0  0  0  0  0  0  0  0  0  0  0  0
    8.9451   -1.1857   22.9404 C   0  0  0  0  0  0  0  0  0  0  0  0
   10.4143   -3.0707   23.6997 C   0  0  0  0  0  0  0  0  0  0  0  0
   10.7746    2.5391   23.9750 C   0  0  0  0  0  0  0  0  0  0  0  0
   12.6183    2.4127   22.3443 C   0  0  0  0  0  0  0  0  0  0  0  0
   11.0943    1.1258   24.4560 C   0  0  0  0  0  0  0  0  0  0  0  0
   12.9413    0.9981   22.8163 C   0  0  0  0  0  0  0  0  0  0  0  0
    7.7609   -1.9892   23.4644 C   0  0  0  0  0  0  0  0  0  0  0  0
    9.1496   -3.7704   24.1829 C   0  0  0  0  0  0  0  0  0  0  0  0
   10.2151   -1.5601   23.6946 C   0  0  0  0  0  0  0  0  0  0  0  0
   11.9754    3.1749   23.4154 N   0  0  0  0  0  0  0  0  0  0  0  0
   11.7579    0.3538   23.3948 N   0  0  0  0  0  0  0  0  0  0  0  0
   13.6624    4.7582   23.7464 O   0  0  0  0  0  0  0  0  0  0  0  0
   11.9677   -1.5557   22.0888 O   0  0  0  0  0  0  0  0  0  0  0  0
    8.0262   -3.3901   23.3878 O   0  0  0  0  0  0  0  0  0  0  0  0
    9.0220    8.1384   25.4578 H   0  0  0  0  0  0  0  0  0  0  0  0
    8.2949    6.4152   23.8281 H   0  0  0  0  0  0  0  0  0  0  0  0
   11.3537    8.1388   26.3056 H   0  0  0  0  0  0  0  0  0  0  0  0
    9.8887    4.6961   23.0451 H   0  0  0  0  0  0  0  0  0  0  0  0
   12.9564    6.4251   25.5309 H   0  0  0  0  0  0  0  0  0  0  0  0
    9.0535   -1.3339   21.8705 H   0  0  0  0  0  0  0  0  0  0  0  0
    8.7496   -0.1311   23.1270 H   0  0  0  0  0  0  0  0  0  0  0  0
   11.2170   -3.2957   24.4000 H   0  0  0  0  0  0  0  0  0  0  0  0
   10.6955   -3.4417   22.7188 H   0  0  0  0  0  0  0  0  0  0  0  0
   10.0179    2.5127   23.1817 H   0  0  0  0  0  0  0  0  0  0  0  0
   10.3605    3.1213   24.8020 H   0  0  0  0  0  0  0  0  0  0  0  0
   13.5336    2.9128   22.0119 H   0  0  0  0  0  0  0  0  0  0  0  0
   11.9269    2.3884   21.4937 H   0  0  0  0  0  0  0  0  0  0  0  0
   11.7810    1.1581   25.3102 H   0  0  0  0  0  0  0  0  0  0  0  0
   10.1760    0.6439   24.7958 H   0  0  0  0  0  0  0  0  0  0  0  0
   13.3338    0.4102   21.9806 H   0  0  0  0  0  0  0  0  0  0  0  0
   13.7142    1.0193   23.5939 H   0  0  0  0  0  0  0  0  0  0  0  0
    7.5800   -1.7415   24.5149 H   0  0  0  0  0  0  0  0  0  0  0  0
    6.8435   -1.7609   22.9105 H   0  0  0  0  0  0  0  0  0  0  0  0
    9.2571   -4.8604   24.1656 H   0  0  0  0  0  0  0  0  0  0  0  0
    8.9382   -3.4799   25.2166 H   0  0  0  0  0  0  0  0  0  0  0  0
   10.2066   -1.1702   24.6818 H   0  0  0  0  0  0  0  0  0  0  0  0
  1  2  1  0  0  0  0
  1  3  2  0  0  0  0
  2  4  2  0  0  0  0
  3  5  1  0  0  0  0
  4  6  1  0  0  0  0
  5  6  2  0  0  0  0
  6  7  1  0  0  0  0
  7 18  1  0  0  0  0
  7 20  2  0  0  0  0
  8 17  1  0  0  0  0
  8 19  1  0  0  0  0
  8 21  2  0  0  0  0
  9 15  1  0  0  0  0
  9 17  1  0  0  0  0
 10 16  1  0  0  0  0
 10 17  1  0  0  0  0
 11 13  1  0  0  0  0
 11 18  1  0  0  0  0
 12 14  1  0  0  0  0
 12 18  1  0  0  0  0
 13 19  1  0  0  0  0
 14 19  1  0  0  0  0
 15 22  1  0  0  0  0
 16 22  1  0  0  0  0
  1 23  1  0  0  0  0
  2 24  1  0  0  0  0
  3 25  1  0  0  0  0
  4 26  1  0  0  0  0
  5 27  1  0  0  0  0
  9 28  1  0  0  0  0
  9 29  1  0  0  0  0
 10 30  1  0  0  0  0
 10 31  1  0  0  0  0
 11 32  1  0  0  0  0
 11 33  1  0  0  0  0
 12 34  1  0  0  0  0
 12 35  1  0  0  0  0
 13 36  1  0  0  0  0
 13 37  1  0  0  0  0
 14 38  1  0  0  0  0
 14 39  1  0  0  0  0
 15 40  1  0  0  0  0
 15 41  1  0  0  0  0
 16 42  1  0  0  0  0
 16 43  1  0  0  0  0
 17 44  1  0  0  0  0
M  END
> <IC50 (uM)>

> <IC50 (uM) - std>

> <Average Inhibition @ 20 uM>

> <Average Inhibition @ 20 uM - std>
2.9

> <Average Inhibition @ 50 uM>
1.43

> <Average Inhibition @ 50 uM - std>
6.27

> <Trypsin IC50 (uM)>
1.02

> <Relative Solubility @ 20 uM>
1.0

> <Relative Solubility @ 100 uM>
1.0

> <Hybrid2>
-8.754841

> <docked_fragment>
x0946

> <Mpro-_dock>
2.595766

> <site>
active-noncovalent

$$$$
WAR-XCH-b72a1bbc-39
  -OEChem-05192003313D

 42 43  0     0  0  0  0  0  0999 V2000
   12.9343    2.1353   22.8541 C   0  0  0  0  0  0  0  0  0  0  0  0
   11.4266    1.3839   24.5860 C   0  0  0  0  0  0  0  0  0  0  0  0
   12.2793    3.3663   22.8180 C   0  0  0  0  0  0  0  0  0  0  0  0
   10.7717    2.6149   24.5500 C   0  0  0  0  0  0  0  0  0  0  0  0
   12.5079    1.1440   23.7381 C   0  0  0  0  0  0  0  0  0  0  0  0
   11.1981    3.6061   23.6660 C   0  0  0  0  0  0  0  0  0  0  0  0
   12.2156   -2.0838   22.7301 C   0  0  0  0  0  0  0  0  0  0  0  0
   12.4046   -1.8786   25.2466 C   0  0  0  0  0  0  0  0  0  0  0  0
   13.2434   -0.9588   22.6024 C   0  0  0  0  0  0  0  0  0  0  0  0
   13.4265   -0.7534   25.0521 C   0  0  0  0  0  0  0  0  0  0  0  0
   12.3998   -2.8490   24.0525 C   0  0  0  0  0  0  0  0  0  0  0  0
    7.2033   -4.2867   24.4667 C   0  0  0  0  0  0  0  0  0  0  0  0
   11.3157   -3.9109   24.2204 C   0  0  0  0  0  0  0  0  0  0  0  0
    8.6795   -4.6336   24.4298 C   0  0  0  0  0  0  0  0  0  0  0  0
   13.1607   -0.0837   23.7744 N   0  0  0  0  0  0  0  0  0  0  0  0
    9.1765    4.8413   22.4443 N   0  0  0  0  0  0  0  0  0  0  0  0
    9.7302    5.3599   24.9081 O   0  0  0  0  0  0  0  0  0  0  0  0
   11.2986    6.1466   23.1000 O   0  0  0  0  0  0  0  0  0  0  0  0
    9.6778   -3.1406   24.2201 S   0  0  0  0  0  0  0  0  0  0  0  0
   10.3772    5.1464   23.6211 S   0  0  0  0  0  0  0  0  0  0  0  0
   13.7756    1.9590   22.1887 H   0  0  0  0  0  0  0  0  0  0  0  0
   11.0868    0.6187   25.2794 H   0  0  0  0  0  0  0  0  0  0  0  0
   12.6200    4.1311   22.1253 H   0  0  0  0  0  0  0  0  0  0  0  0
    9.9303    2.7906   25.2150 H   0  0  0  0  0  0  0  0  0  0  0  0
   11.2072   -1.6633   22.6775 H   0  0  0  0  0  0  0  0  0  0  0  0
   12.3251   -2.7700   21.8869 H   0  0  0  0  0  0  0  0  0  0  0  0
   12.6418   -2.4234   26.1671 H   0  0  0  0  0  0  0  0  0  0  0  0
   11.4071   -1.4432   25.3825 H   0  0  0  0  0  0  0  0  0  0  0  0
   14.2488   -1.3814   22.5208 H   0  0  0  0  0  0  0  0  0  0  0  0
   13.0355   -0.3956   21.6889 H   0  0  0  0  0  0  0  0  0  0  0  0
   13.3331   -0.0499   25.8799 H   0  0  0  0  0  0  0  0  0  0  0  0
   14.4368   -1.1645   25.0577 H   0  0  0  0  0  0  0  0  0  0  0  0
   13.3741   -3.3684   24.0215 H   0  0  0  0  0  0  0  0  0  0  0  0
    6.9714   -3.6031   25.2905 H   0  0  0  0  0  0  0  0  0  0  0  0
    6.8744   -3.8263   23.5289 H   0  0  0  0  0  0  0  0  0  0  0  0
    6.6106   -5.1956   24.6148 H   0  0  0  0  0  0  0  0  0  0  0  0
   11.4620   -4.4424   25.1617 H   0  0  0  0  0  0  0  0  0  0  0  0
   11.3737   -4.6301   23.4023 H   0  0  0  0  0  0  0  0  0  0  0  0
    8.8879   -5.3164   23.6005 H   0  0  0  0  0  0  0  0  0  0  0  0
    8.9760   -5.1279   25.3599 H   0  0  0  0  0  0  0  0  0  0  0  0
    8.2029    4.7547   22.7605 H   0  0  0  0  0  0  0  0  0  0  0  0
    9.2764    5.2908   21.5260 H   0  0  0  0  0  0  0  0  0  0  0  0
  1  3  2  0  0  0  0
  1  5  1  0  0  0  0
  2  4  1  0  0  0  0
  2  5  2  0  0  0  0
  3  6  1  0  0  0  0
  4  6  2  0  0  0  0
  5 15  1  0  0  0  0
  6 20  1  0  0  0  0
  7  9  1  0  0  0  0
  7 11  1  0  0  0  0
  8 10  1  0  0  0  0
  8 11  1  0  0  0  0
  9 15  1  0  0  0  0
 10 15  1  0  0  0  0
 11 13  1  0  0  0  0
 12 14  1  0  0  0  0
 13 19  1  0  0  0  0
 14 19  1  0  0  0  0
 16 20  1  0  0  0  0
 17 20  2  0  0  0  0
 18 20  2  0  0  0  0
  1 21  1  0  0  0  0
  2 22  1  0  0  0  0
  3 23  1  0  0  0  0
  4 24  1  0  0  0  0
  7 25  1  0  0  0  0
  7 26  1  0  0  0  0
  8 27  1  0  0  0  0
  8 28  1  0  0  0  0
  9 29  1  0  0  0  0
  9 30  1  0  0  0  0
 10 31  1  0  0  0  0
 10 32  1  0  0  0  0
 11 33  1  0  0  0  0
 12 34  1  0  0  0  0
 12 35  1  0  0  0  0
 12 36  1  0  0  0  0
 13 37  1  0  0  0  0
 13 38  1  0  0  0  0
 14 39  1  0  0  0  0
 14 40  1  0  0  0  0
 16 41  1  0  0  0  0
 16 42  1  0  0  0  0
M  END
> <IC50 (uM)>

> <IC50 (uM) - std>

> <Average Inhibition @ 20 uM>

> <Average Inhibition @ 20 uM - std>

> <Average Inhibition @ 50 uM>

> <Average Inhibition @ 50 uM - std>
6.96

> <Trypsin IC50 (uM)>
1.63

> <Relative Solubility @ 20 uM>

> <Relative Solubility @ 100 uM>

> <Hybrid2>
-8.731390

> <docked_fragment>
x0161

> <Mpro-_dock>
1.043037

> <site>
active-noncovalent

$$$$
BAR-COM-4e090d3a-39
  -OEChem-05192003313D

 36 38  0     1  0  0  0  0  0999 V2000
   13.2144   -2.1014   22.3498 C   0  0  0  0  0  0  0  0  0  0  0  0
   11.9316   -2.2845   21.8338 C   0  0  0  0  0  0  0  0  0  0  0  0
   13.5480   -0.9028   22.9805 C   0  0  0  0  0  0  0  0  0  0  0  0
   11.3159   -0.0703   22.5790 C   0  0  0  0  0  0  0  0  0  0  0  0
    5.9858    0.6511   19.7123 C   0  0  0  0  0  0  0  0  0  0  0  0
    7.3748   -0.5992   18.3109 C   0  0  0  0  0  0  0  0  0  0  0  0
    6.0588    1.0559   17.4767 C   0  0  0  0  0  0  0  0  0  0  0  0
    6.9147   -0.3621   19.5901 C   0  0  0  0  0  0  0  0  0  0  0  0
   10.9823   -1.2690   21.9484 C   0  0  0  0  0  0  0  0  0  0  0  0
   12.5988    0.1127   23.0951 C   0  0  0  0  0  0  0  0  0  0  0  0
   12.5433    4.4397   23.6085 C   0  0  0  0  0  0  0  0  0  0  0  0
    8.6183   -0.5553   21.4511 C   0  0  0  0  0  0  0  0  0  0  0  0
   11.5627    3.3370   23.1779 C   0  0  0  0  0  0  0  0  0  0  0  0
   12.8210    2.4750   22.9339 C   0  0  1  0  0  0  0  0  0  0  0  0
    7.3960   -1.1569   20.7756 C   0  0  0  0  0  0  0  0  0  0  0  0
    5.5340    1.3831   18.6729 N   0  0  0  0  0  0  0  0  0  0  0  0
    6.9668    0.0931   17.2271 N   0  0  0  0  0  0  0  0  0  0  0  0
   13.6026    3.6174   23.3917 N   0  0  0  0  0  0  0  0  0  0  0  0
    9.6990   -1.4526   21.4323 N   0  0  0  0  0  0  0  0  0  0  0  0
   12.4620    5.5834   23.9929 O   0  0  0  0  0  0  0  0  0  0  0  0
    8.6111    0.5715   21.9364 O   0  0  0  0  0  0  0  0  0  0  0  0
   12.9243    1.2825   23.7103 O   0  0  0  0  0  0  0  0  0  0  0  0
   13.9530   -2.8927   22.2613 H   0  0  0  0  0  0  0  0  0  0  0  0
   11.6829   -3.2225   21.3439 H   0  0  0  0  0  0  0  0  0  0  0  0
   14.5488   -0.7670   23.3808 H   0  0  0  0  0  0  0  0  0  0  0  0
   10.5789    0.7244   22.6712 H   0  0  0  0  0  0  0  0  0  0  0  0
    5.5626    0.9159   20.6762 H   0  0  0  0  0  0  0  0  0  0  0  0
    8.1066   -1.3751   18.1089 H   0  0  0  0  0  0  0  0  0  0  0  0
    5.7124    1.6276   16.6245 H   0  0  0  0  0  0  0  0  0  0  0  0
   10.9024    2.9987   23.9807 H   0  0  0  0  0  0  0  0  0  0  0  0
   10.9811    3.5788   22.2847 H   0  0  0  0  0  0  0  0  0  0  0  0
   13.0085    2.2643   21.8749 H   0  0  0  0  0  0  0  0  0  0  0  0
    6.5899   -1.2389   21.5159 H   0  0  0  0  0  0  0  0  0  0  0  0
    7.6356   -2.1799   20.4588 H   0  0  0  0  0  0  0  0  0  0  0  0
   14.5935    3.7844   23.4997 H   0  0  0  0  0  0  0  0  0  0  0  0
    9.5222   -2.3580   20.9818 H   0  0  0  0  0  0  0  0  0  0  0  0
  1  2  2  0  0  0  0
  1  3  1  0  0  0  0
  2  9  1  0  0  0  0
  3 10  2  0  0  0  0
  4  9  2  0  0  0  0
  4 10  1  0  0  0  0
  5  8  1  0  0  0  0
  5 16  2  0  0  0  0
  6  8  2  0  0  0  0
  6 17  1  0  0  0  0
  7 16  1  0  0  0  0
  7 17  2  0  0  0  0
  8 15  1  0  0  0  0
  9 19  1  0  0  0  0
 10 22  1  0  0  0  0
 11 13  1  0  0  0  0
 11 18  1  0  0  0  0
 11 20  2  0  0  0  0
 12 15  1  0  0  0  0
 12 19  1  0  0  0  0
 12 21  2  0  0  0  0
 13 14  1  0  0  0  0
 14 18  1  0  0  0  0
 14 22  1  0  0  0  0
  1 23  1  0  0  0  0
  2 24  1  0  0  0  0
  3 25  1  0  0  0  0
  4 26  1  0  0  0  0
  5 27  1  0  0  0  0
  6 28  1  0  0  0  0
  7 29  1  0  0  0  0
 13 30  1  0  0  0  0
 13 31  1  0  0  0  0
 14 32  1  0  0  0  0
 15 33  1  0  0  0  0
 15 34  1  0  0  0  0
 18 35  1  0  0  0  0
 19 36  1  0  0  0  0
M  END
> <IC50 (uM)>

> <IC50 (uM) - std>

> <Average Inhibition @ 20 uM>

> <Average Inhibition @ 20 uM - std>
7.86

> <Average Inhibition @ 50 uM>
1.84

> <Average Inhibition @ 50 uM - std>
22.8

> <Trypsin IC50 (uM)>
6.11

> <Relative Solubility @ 20 uM>
1.0

> <Relative Solubility @ 100 uM>
1.0

> <Hybrid2>
-8.729742

> <docked_fragment>
x0678

> <Mpro-_dock>
1.320221

> <site>
active-noncovalent

$$$$
CHR-SOS-7098f804-4
  -OEChem-05192003313D

 27 28  0     0  0  0  0  0  0999 V2000
   13.9871   -0.9539   22.1430 C   0  0  0  0  0  0  0  0  0  0  0  0
   13.2656   -2.0473   22.6221 C   0  0  0  0  0  0  0  0  0  0  0  0
   13.5329    0.3423   22.3864 C   0  0  0  0  0  0  0  0  0  0  0  0
    9.9016    5.7095   23.4150 C   0  0  0  0  0  0  0  0  0  0  0  0
   12.0897   -1.8444   23.3445 C   0  0  0  0  0  0  0  0  0  0  0  0
   10.5884    6.6206   24.2174 C   0  0  0  0  0  0  0  0  0  0  0  0
   12.5395    5.1967   24.1641 C   0  0  0  0  0  0  0  0  0  0  0  0
   11.8527    4.2856   23.3617 C   0  0  0  0  0  0  0  0  0  0  0  0
   12.3570    0.5451   23.1088 C   0  0  0  0  0  0  0  0  0  0  0  0
   10.5338    4.5420   22.9872 C   0  0  0  0  0  0  0  0  0  0  0  0
   11.9074    6.3642   24.5919 C   0  0  0  0  0  0  0  0  0  0  0  0
   11.6354   -0.5482   23.5878 C   0  0  0  0  0  0  0  0  0  0  0  0
   12.5300    3.0716   22.9278 C   0  0  0  0  0  0  0  0  0  0  0  0
   11.9236    1.8753   23.3383 N   0  0  0  0  0  0  0  0  0  0  0  0
   13.5812    3.1124   22.2755 O   0  0  0  0  0  0  0  0  0  0  0  0
    9.8452    3.6631   22.2055 O   0  0  0  0  0  0  0  0  0  0  0  0
   12.7554    7.4894   25.5802 Cl  0  0  0  0  0  0  0  0  0  0  0  0
   10.1724   -0.3431   24.4839 Cl  0  0  0  0  0  0  0  0  0  0  0  0
   14.9024   -1.1123   21.5803 H   0  0  0  0  0  0  0  0  0  0  0  0
   13.6198   -3.0563   22.4327 H   0  0  0  0  0  0  0  0  0  0  0  0
   14.1049    1.1858   22.0077 H   0  0  0  0  0  0  0  0  0  0  0  0
    8.8740    5.9144   23.1269 H   0  0  0  0  0  0  0  0  0  0  0  0
   11.5392   -2.7073   23.7110 H   0  0  0  0  0  0  0  0  0  0  0  0
   10.0836    7.5267   24.5421 H   0  0  0  0  0  0  0  0  0  0  0  0
   13.5680    4.9943   24.4558 H   0  0  0  0  0  0  0  0  0  0  0  0
   11.0618    1.9750   23.8692 H   0  0  0  0  0  0  0  0  0  0  0  0
   10.4047    2.9022   21.9850 H   0  0  0  0  0  0  0  0  0  0  0  0
  1  2  1  0  0  0  0
  1  3  2  0  0  0  0
  2  5  2  0  0  0  0
  3  9  1  0  0  0  0
  4  6  2  0  0  0  0
  4 10  1  0  0  0  0
  5 12  1  0  0  0  0
  6 11  1  0  0  0  0
  7  8  1  0  0  0  0
  7 11  2  0  0  0  0
  8 10  2  0  0  0  0
  8 13  1  0  0  0  0
  9 12  2  0  0  0  0
  9 14  1  0  0  0  0
 10 16  1  0  0  0  0
 11 17  1  0  0  0  0
 12 18  1  0  0  0  0
 13 14  1  0  0  0  0
 13 15  2  0  0  0  0
  1 19  1  0  0  0  0
  2 20  1  0  0  0  0
  3 21  1  0  0  0  0
  4 22  1  0  0  0  0
  5 23  1  0  0  0  0
  6 24  1  0  0  0  0
  7 25  1  0  0  0  0
 14 26  1  0  0  0  0
 16 27  1  0  0  0  0
M  END
> <IC50 (uM)>

> <IC50 (uM) - std>

> <Average Inhibition @ 20 uM>

> <Average Inhibition @ 20 uM - std>
5.47

> <Average Inhibition @ 50 uM>
3.87

> <Average Inhibition @ 50 uM - std>
5.58

> <Trypsin IC50 (uM)>
1.3

> <Relative Solubility @ 20 uM>
0.91

> <Relative Solubility @ 100 uM>
0.7

> <Hybrid2>
-8.723997

> <docked_fragment>
x0195

> <Mpro-_dock>
-0.480806

> <site>
active-noncovalent

$$$$
LON-WEI-b8d98729-34
  -OEChem-05192003313D

 42 43  0     0  0  0  0  0  0999 V2000
    8.1686   -3.7510   22.6068 C   0  0  0  0  0  0  0  0  0  0  0  0
    9.0217   -3.2573   21.6157 C   0  0  0  0  0  0  0  0  0  0  0  0
    9.3842   -2.5504   24.3325 C   0  0  0  0  0  0  0  0  0  0  0  0
   11.8401   -1.0330   22.0904 C   0  0  0  0  0  0  0  0  0  0  0  0
   10.2570   -2.0403   23.3508 C   0  0  0  0  0  0  0  0  0  0  0  0
    8.3452   -3.4043   23.9449 C   0  0  0  0  0  0  0  0  0  0  0  0
   11.3859   -1.1745   23.3814 C   0  0  0  0  0  0  0  0  0  0  0  0
   10.0560   -2.4048   22.0178 C   0  0  0  0  0  0  0  0  0  0  0  0
    5.9663   -5.2303   27.4004 C   0  0  0  0  0  0  0  0  0  0  0  0
    9.6715    1.0325   25.4180 C   0  0  0  0  0  0  0  0  0  0  0  0
   10.5939    3.0327   24.2565 C   0  0  0  0  0  0  0  0  0  0  0  0
   11.9730   -0.5372   24.5774 C   0  0  0  0  0  0  0  0  0  0  0  0
    7.4165   -3.9491   24.9788 C   0  0  0  0  0  0  0  0  0  0  0  0
   12.0008    0.9974   24.5377 C   0  0  0  0  0  0  0  0  0  0  0  0
   11.0314   -1.7786   21.2751 N   0  0  0  0  0  0  0  0  0  0  0  0
    7.1557   -5.8799   26.8210 N   0  0  0  0  0  0  0  0  0  0  0  0
   10.6264    1.5275   24.3596 N   0  3  0  0  0  0  0  0  0  0  0  0
    9.2818   -5.7466   25.3525 O   0  0  0  0  0  0  0  0  0  0  0  0
    8.8841   -4.0082   27.1347 O   0  0  0  0  0  0  0  0  0  0  0  0
    8.3697   -4.9062   26.1122 S   0  0  0  0  0  0  0  0  0  0  0  0
    7.3568   -4.4149   22.3179 H   0  0  0  0  0  0  0  0  0  0  0  0
    8.8837   -3.5280   20.5743 H   0  0  0  0  0  0  0  0  0  0  0  0
    9.5164   -2.2838   25.3778 H   0  0  0  0  0  0  0  0  0  0  0  0
   12.6655   -0.4699   21.6774 H   0  0  0  0  0  0  0  0  0  0  0  0
    6.2587   -4.2782   27.8673 H   0  0  0  0  0  0  0  0  0  0  0  0
    5.2300   -5.0381   26.6060 H   0  0  0  0  0  0  0  0  0  0  0  0
    5.5220   -5.8899   28.1603 H   0  0  0  0  0  0  0  0  0  0  0  0
   10.0280    1.3935   26.3845 H   0  0  0  0  0  0  0  0  0  0  0  0
    8.6823    1.4337   25.1896 H   0  0  0  0  0  0  0  0  0  0  0  0
    9.6702   -0.0586   25.3829 H   0  0  0  0  0  0  0  0  0  0  0  0
   10.9717    3.4399   25.1961 H   0  0  0  0  0  0  0  0  0  0  0  0
   11.2299    3.3240   23.4184 H   0  0  0  0  0  0  0  0  0  0  0  0
    9.5584    3.3336   24.0866 H   0  0  0  0  0  0  0  0  0  0  0  0
   11.3999   -0.8314   25.4766 H   0  0  0  0  0  0  0  0  0  0  0  0
   12.9986   -0.9048   24.7708 H   0  0  0  0  0  0  0  0  0  0  0  0
    6.6508   -4.6019   24.5457 H   0  0  0  0  0  0  0  0  0  0  0  0
    6.9148   -3.1564   25.5446 H   0  0  0  0  0  0  0  0  0  0  0  0
   12.5854    1.3679   23.6904 H   0  0  0  0  0  0  0  0  0  0  0  0
   12.3912    1.4297   25.4640 H   0  0  0  0  0  0  0  0  0  0  0  0
   11.1351   -1.8586   20.2730 H   0  0  0  0  0  0  0  0  0  0  0  0
    6.9588   -6.7801   26.3646 H   0  0  0  0  0  0  0  0  0  0  0  0
   10.2643    1.1712   23.4585 H   0  0  0  0  0  0  0  0  0  0  0  0
  1  2  2  0  0  0  0
  1  6  1  0  0  0  0
  2  8  1  0  0  0  0
  3  5  1  0  0  0  0
  3  6  2  0  0  0  0
  4  7  2  0  0  0  0
  4 15  1  0  0  0  0
  5  7  1  0  0  0  0
  5  8  2  0  0  0  0
  6 13  1  0  0  0  0
  7 12  1  0  0  0  0
  8 15  1  0  0  0  0
  9 16  1  0  0  0  0
 10 17  1  0  0  0  0
 11 17  1  0  0  0  0
 12 14  1  0  0  0  0
 13 20  1  0  0  0  0
 14 17  1  0  0  0  0
 16 20  1  0  0  0  0
 18 20  2  0  0  0  0
 19 20  2  0  0  0  0
  1 21  1  0  0  0  0
  2 22  1  0  0  0  0
  3 23  1  0  0  0  0
  4 24  1  0  0  0  0
  9 25  1  0  0  0  0
  9 26  1  0  0  0  0
  9 27  1  0  0  0  0
 10 28  1  0  0  0  0
 10 29  1  0  0  0  0
 10 30  1  0  0  0  0
 11 31  1  0  0  0  0
 11 32  1  0  0  0  0
 11 33  1  0  0  0  0
 12 34  1  0  0  0  0
 12 35  1  0  0  0  0
 13 36  1  0  0  0  0
 13 37  1  0  0  0  0
 14 38  1  0  0  0  0
 14 39  1  0  0  0  0
 15 40  1  0  0  0  0
 16 41  1  0  0  0  0
 17 42  1  0  0  0  0
M  CHG  1  17   1
M  END
> <IC50 (uM)>

> <IC50 (uM) - std>

> <Average Inhibition @ 20 uM>

> <Average Inhibition @ 20 uM - std>
4.66

> <Average Inhibition @ 50 uM>
5.34

> <Average Inhibition @ 50 uM - std>
2.38

> <Trypsin IC50 (uM)>
1.67

> <Relative Solubility @ 20 uM>
1.0

> <Relative Solubility @ 100 uM>
1.0

> <Hybrid2>
-8.722964

> <docked_fragment>
x0072

> <Mpro-_dock>
-0.018803

> <site>
active-noncovalent

$$$$
TOM-OIS-cbf37265-2
  -OEChem-05192003313D

 42 43  0     0  0  0  0  0  0999 V2000
    8.1686   -3.7510   22.6068 C   0  0  0  0  0  0  0  0  0  0  0  0
    9.0217   -3.2573   21.6157 C   0  0  0  0  0  0  0  0  0  0  0  0
    9.3842   -2.5504   24.3325 C   0  0  0  0  0  0  0  0  0  0  0  0
   11.8401   -1.0330   22.0904 C   0  0  0  0  0  0  0  0  0  0  0  0
   10.2570   -2.0403   23.3508 C   0  0  0  0  0  0  0  0  0  0  0  0
    8.3452   -3.4043   23.9449 C   0  0  0  0  0  0  0  0  0  0  0  0
   11.3859   -1.1745   23.3814 C   0  0  0  0  0  0  0  0  0  0  0  0
   10.0560   -2.4048   22.0178 C   0  0  0  0  0  0  0  0  0  0  0  0
    5.9663   -5.2303   27.4004 C   0  0  0  0  0  0  0  0  0  0  0  0
    9.6715    1.0325   25.4180 C   0  0  0  0  0  0  0  0  0  0  0  0
   10.5939    3.0327   24.2565 C   0  0  0  0  0  0  0  0  0  0  0  0
   11.9730   -0.5372   24.5774 C   0  0  0  0  0  0  0  0  0  0  0  0
    7.4165   -3.9491   24.9788 C   0  0  0  0  0  0  0  0  0  0  0  0
   12.0008    0.9974   24.5377 C   0  0  0  0  0  0  0  0  0  0  0  0
   11.0314   -1.7786   21.2751 N   0  0  0  0  0  0  0  0  0  0  0  0
    7.1557   -5.8799   26.8210 N   0  0  0  0  0  0  0  0  0  0  0  0
   10.6264    1.5275   24.3596 N   0  3  0  0  0  0  0  0  0  0  0  0
    9.2818   -5.7466   25.3525 O   0  0  0  0  0  0  0  0  0  0  0  0
    8.8841   -4.0082   27.1347 O   0  0  0  0  0  0  0  0  0  0  0  0
    8.3697   -4.9062   26.1122 S   0  0  0  0  0  0  0  0  0  0  0  0
    7.3568   -4.4149   22.3179 H   0  0  0  0  0  0  0  0  0  0  0  0
    8.8837   -3.5280   20.5743 H   0  0  0  0  0  0  0  0  0  0  0  0
    9.5164   -2.2838   25.3778 H   0  0  0  0  0  0  0  0  0  0  0  0
   12.6655   -0.4699   21.6774 H   0  0  0  0  0  0  0  0  0  0  0  0
    6.2587   -4.2782   27.8673 H   0  0  0  0  0  0  0  0  0  0  0  0
    5.2300   -5.0381   26.6060 H   0  0  0  0  0  0  0  0  0  0  0  0
    5.5220   -5.8899   28.1603 H   0  0  0  0  0  0  0  0  0  0  0  0
   10.0280    1.3935   26.3845 H   0  0  0  0  0  0  0  0  0  0  0  0
    8.6823    1.4337   25.1896 H   0  0  0  0  0  0  0  0  0  0  0  0
    9.6702   -0.0586   25.3829 H   0  0  0  0  0  0  0  0  0  0  0  0
   10.9717    3.4399   25.1961 H   0  0  0  0  0  0  0  0  0  0  0  0
   11.2299    3.3240   23.4184 H   0  0  0  0  0  0  0  0  0  0  0  0
    9.5584    3.3336   24.0866 H   0  0  0  0  0  0  0  0  0  0  0  0
   11.3999   -0.8314   25.4766 H   0  0  0  0  0  0  0  0  0  0  0  0
   12.9986   -0.9048   24.7708 H   0  0  0  0  0  0  0  0  0  0  0  0
    6.6508   -4.6019   24.5457 H   0  0  0  0  0  0  0  0  0  0  0  0
    6.9148   -3.1564   25.5446 H   0  0  0  0  0  0  0  0  0  0  0  0
   12.5854    1.3679   23.6904 H   0  0  0  0  0  0  0  0  0  0  0  0
   12.3912    1.4297   25.4640 H   0  0  0  0  0  0  0  0  0  0  0  0
   11.1351   -1.8586   20.2730 H   0  0  0  0  0  0  0  0  0  0  0  0
    6.9588   -6.7801   26.3646 H   0  0  0  0  0  0  0  0  0  0  0  0
   10.2643    1.1712   23.4585 H   0  0  0  0  0  0  0  0  0  0  0  0
  1  2  2  0  0  0  0
  1  6  1  0  0  0  0
  2  8  1  0  0  0  0
  3  5  1  0  0  0  0
  3  6  2  0  0  0  0
  4  7  2  0  0  0  0
  4 15  1  0  0  0  0
  5  7  1  0  0  0  0
  5  8  2  0  0  0  0
  6 13  1  0  0  0  0
  7 12  1  0  0  0  0
  8 15  1  0  0  0  0
  9 16  1  0  0  0  0
 10 17  1  0  0  0  0
 11 17  1  0  0  0  0
 12 14  1  0  0  0  0
 13 20  1  0  0  0  0
 14 17  1  0  0  0  0
 16 20  1  0  0  0  0
 18 20  2  0  0  0  0
 19 20  2  0  0  0  0
  1 21  1  0  0  0  0
  2 22  1  0  0  0  0
  3 23  1  0  0  0  0
  4 24  1  0  0  0  0
  9 25  1  0  0  0  0
  9 26  1  0  0  0  0
  9 27  1  0  0  0  0
 10 28  1  0  0  0  0
 10 29  1  0  0  0  0
 10 30  1  0  0  0  0
 11 31  1  0  0  0  0
 11 32  1  0  0  0  0
 11 33  1  0  0  0  0
 12 34  1  0  0  0  0
 12 35  1  0  0  0  0
 13 36  1  0  0  0  0
 13 37  1  0  0  0  0
 14 38  1  0  0  0  0
 14 39  1  0  0  0  0
 15 40  1  0  0  0  0
 16 41  1  0  0  0  0
 17 42  1  0  0  0  0
M  CHG  1  17   1
M  END
> <IC50 (uM)>

> <IC50 (uM) - std>

> <Average Inhibition @ 20 uM>

> <Average Inhibition @ 20 uM - std>
4.66

> <Average Inhibition @ 50 uM>
5.34

> <Average Inhibition @ 50 uM - std>
2.38

> <Trypsin IC50 (uM)>
1.67

> <Relative Solubility @ 20 uM>
1.0

> <Relative Solubility @ 100 uM>
1.0

> <Hybrid2>
-8.722964

> <docked_fragment>
x0072

> <Mpro-_dock>
-0.018803

> <site>
active-noncovalent

$$$$
ANT-OPE-47f3bb65-1
  -OEChem-05192003313D

 42 43  0     0  0  0  0  0  0999 V2000
    8.1686   -3.7510   22.6068 C   0  0  0  0  0  0  0  0  0  0  0  0
    9.0217   -3.2573   21.6157 C   0  0  0  0  0  0  0  0  0  0  0  0
    9.3842   -2.5504   24.3325 C   0  0  0  0  0  0  0  0  0  0  0  0
   11.8401   -1.0330   22.0904 C   0  0  0  0  0  0  0  0  0  0  0  0
   10.2570   -2.0403   23.3508 C   0  0  0  0  0  0  0  0  0  0  0  0
    8.3452   -3.4043   23.9449 C   0  0  0  0  0  0  0  0  0  0  0  0
   11.3859   -1.1745   23.3814 C   0  0  0  0  0  0  0  0  0  0  0  0
   10.0560   -2.4048   22.0178 C   0  0  0  0  0  0  0  0  0  0  0  0
    5.9663   -5.2303   27.4004 C   0  0  0  0  0  0  0  0  0  0  0  0
    9.6715    1.0325   25.4180 C   0  0  0  0  0  0  0  0  0  0  0  0
   10.5939    3.0327   24.2565 C   0  0  0  0  0  0  0  0  0  0  0  0
   11.9730   -0.5372   24.5774 C   0  0  0  0  0  0  0  0  0  0  0  0
    7.4165   -3.9491   24.9788 C   0  0  0  0  0  0  0  0  0  0  0  0
   12.0008    0.9974   24.5377 C   0  0  0  0  0  0  0  0  0  0  0  0
   11.0314   -1.7786   21.2751 N   0  0  0  0  0  0  0  0  0  0  0  0
    7.1557   -5.8799   26.8210 N   0  0  0  0  0  0  0  0  0  0  0  0
   10.6264    1.5275   24.3596 N   0  3  0  0  0  0  0  0  0  0  0  0
    9.2818   -5.7466   25.3525 O   0  0  0  0  0  0  0  0  0  0  0  0
    8.8841   -4.0082   27.1347 O   0  0  0  0  0  0  0  0  0  0  0  0
    8.3697   -4.9062   26.1122 S   0  0  0  0  0  0  0  0  0  0  0  0
    7.3568   -4.4149   22.3179 H   0  0  0  0  0  0  0  0  0  0  0  0
    8.8837   -3.5280   20.5743 H   0  0  0  0  0  0  0  0  0  0  0  0
    9.5164   -2.2838   25.3778 H   0  0  0  0  0  0  0  0  0  0  0  0
   12.6655   -0.4699   21.6774 H   0  0  0  0  0  0  0  0  0  0  0  0
    6.2587   -4.2782   27.8673 H   0  0  0  0  0  0  0  0  0  0  0  0
    5.2300   -5.0381   26.6060 H   0  0  0  0  0  0  0  0  0  0  0  0
    5.5220   -5.8899   28.1603 H   0  0  0  0  0  0  0  0  0  0  0  0
   10.0280    1.3935   26.3845 H   0  0  0  0  0  0  0  0  0  0  0  0
    8.6823    1.4337   25.1896 H   0  0  0  0  0  0  0  0  0  0  0  0
    9.6702   -0.0586   25.3829 H   0  0  0  0  0  0  0  0  0  0  0  0
   10.9717    3.4399   25.1961 H   0  0  0  0  0  0  0  0  0  0  0  0
   11.2299    3.3240   23.4184 H   0  0  0  0  0  0  0  0  0  0  0  0
    9.5584    3.3336   24.0866 H   0  0  0  0  0  0  0  0  0  0  0  0
   11.3999   -0.8314   25.4766 H   0  0  0  0  0  0  0  0  0  0  0  0
   12.9986   -0.9048   24.7708 H   0  0  0  0  0  0  0  0  0  0  0  0
    6.6508   -4.6019   24.5457 H   0  0  0  0  0  0  0  0  0  0  0  0
    6.9148   -3.1564   25.5446 H   0  0  0  0  0  0  0  0  0  0  0  0
   12.5854    1.3679   23.6904 H   0  0  0  0  0  0  0  0  0  0  0  0
   12.3912    1.4297   25.4640 H   0  0  0  0  0  0  0  0  0  0  0  0
   11.1351   -1.8586   20.2730 H   0  0  0  0  0  0  0  0  0  0  0  0
    6.9588   -6.7801   26.3646 H   0  0  0  0  0  0  0  0  0  0  0  0
   10.2643    1.1712   23.4585 H   0  0  0  0  0  0  0  0  0  0  0  0
  1  2  2  0  0  0  0
  1  6  1  0  0  0  0
  2  8  1  0  0  0  0
  3  5  1  0  0  0  0
  3  6  2  0  0  0  0
  4  7  2  0  0  0  0
  4 15  1  0  0  0  0
  5  7  1  0  0  0  0
  5  8  2  0  0  0  0
  6 13  1  0  0  0  0
  7 12  1  0  0  0  0
  8 15  1  0  0  0  0
  9 16  1  0  0  0  0
 10 17  1  0  0  0  0
 11 17  1  0  0  0  0
 12 14  1  0  0  0  0
 13 20  1  0  0  0  0
 14 17  1  0  0  0  0
 16 20  1  0  0  0  0
 18 20  2  0  0  0  0
 19 20  2  0  0  0  0
  1 21  1  0  0  0  0
  2 22  1  0  0  0  0
  3 23  1  0  0  0  0
  4 24  1  0  0  0  0
  9 25  1  0  0  0  0
  9 26  1  0  0  0  0
  9 27  1  0  0  0  0
 10 28  1  0  0  0  0
 10 29  1  0  0  0  0
 10 30  1  0  0  0  0
 11 31  1  0  0  0  0
 11 32  1  0  0  0  0
 11 33  1  0  0  0  0
 12 34  1  0  0  0  0
 12 35  1  0  0  0  0
 13 36  1  0  0  0  0
 13 37  1  0  0  0  0
 14 38  1  0  0  0  0
 14 39  1  0  0  0  0
 15 40  1  0  0  0  0
 16 41  1  0  0  0  0
 17 42  1  0  0  0  0
M  CHG  1  17   1
M  END
> <IC50 (uM)>

> <IC50 (uM) - std>

> <Average Inhibition @ 20 uM>

> <Average Inhibition @ 20 uM - std>
4.66

> <Average Inhibition @ 50 uM>
5.34

> <Average Inhibition @ 50 uM - std>
2.38

> <Trypsin IC50 (uM)>
1.67

> <Relative Solubility @ 20 uM>
1.0

> <Relative Solubility @ 100 uM>
1.0

> <Hybrid2>
-8.722964

> <docked_fragment>
x0072

> <Mpro-_dock>
-0.018803

> <site>
active-noncovalent

$$$$
AAR-POS-dddeddbf-1
  -OEChem-05192003313D

 32 34  0     0  0  0  0  0  0999 V2000
   11.1747   -1.2531   25.1141 C   0  0  0  0  0  0  0  0  0  0  0  0
   12.5416   -3.2452   25.1111 C   0  0  0  0  0  0  0  0  0  0  0  0
    7.5256   -6.4422   22.1478 C   0  0  0  0  0  0  0  0  0  0  0  0
    8.6593   -6.2543   22.9438 C   0  0  0  0  0  0  0  0  0  0  0  0
   12.1744   -0.5681   25.8047 C   0  0  0  0  0  0  0  0  0  0  0  0
   13.5414   -2.5603   25.8017 C   0  0  0  0  0  0  0  0  0  0  0  0
   11.3582   -2.5917   24.7674 C   0  0  0  0  0  0  0  0  0  0  0  0
    6.8334   -5.3507   21.6351 C   0  0  0  0  0  0  0  0  0  0  0  0
    9.1054   -4.9457   23.2296 C   0  0  0  0  0  0  0  0  0  0  0  0
   13.3577   -1.2217   26.1485 C   0  0  0  0  0  0  0  0  0  0  0  0
    8.3932   -3.8640   22.7029 C   0  0  0  0  0  0  0  0  0  0  0  0
    7.2536   -4.0454   21.9028 C   0  0  0  0  0  0  0  0  0  0  0  0
   10.3234   -3.3007   24.0527 C   0  0  0  0  0  0  0  0  0  0  0  0
    5.6281   -5.6191   20.7905 C   0  0  0  0  0  0  0  0  0  0  0  0
   10.2083   -4.6071   24.0001 N   0  0  0  0  0  0  0  0  0  0  0  0
   14.3687   -0.5292   26.8467 N   0  0  0  0  0  0  0  0  0  0  0  0
    5.0016   -2.8823   21.8019 O   0  5  0  0  0  0  0  0  0  0  0  0
    7.0314   -1.4912   21.6912 O   0  0  0  0  0  0  0  0  0  0  0  0
    6.4299   -2.9223   19.7803 O   0  0  0  0  0  0  0  0  0  0  0  0
    9.1471   -2.3959   23.2021 S   0  0  0  0  0  0  0  0  0  0  0  0
    6.3390   -2.6995   21.2275 S   0  0  0  0  0  0  0  0  0  0  0  0
   10.2578   -0.7298   24.8533 H   0  0  0  0  0  0  0  0  0  0  0  0
   12.6996   -4.2884   24.8478 H   0  0  0  0  0  0  0  0  0  0  0  0
    7.1929   -7.4554   21.9354 H   0  0  0  0  0  0  0  0  0  0  0  0
    9.1926   -7.1142   23.3392 H   0  0  0  0  0  0  0  0  0  0  0  0
   12.0210    0.4748   26.0702 H   0  0  0  0  0  0  0  0  0  0  0  0
   14.4596   -3.0794   26.0645 H   0  0  0  0  0  0  0  0  0  0  0  0
    4.7314   -5.6682   21.4174 H   0  0  0  0  0  0  0  0  0  0  0  0
    5.4899   -4.8322   20.0401 H   0  0  0  0  0  0  0  0  0  0  0  0
    5.7304   -6.5661   20.2480 H   0  0  0  0  0  0  0  0  0  0  0  0
   14.2448    0.4424   27.0480 H   0  0  0  0  0  0  0  0  0  0  0  0
   15.2308   -0.9952   27.0457 H   0  0  0  0  0  0  0  0  0  0  0  0
  1  5  2  0  0  0  0
  1  7  1  0  0  0  0
  2  6  1  0  0  0  0
  2  7  2  0  0  0  0
  3  4  2  0  0  0  0
  3  8  1  0  0  0  0
  4  9  1  0  0  0  0
  5 10  1  0  0  0  0
  6 10  2  0  0  0  0
  7 13  1  0  0  0  0
  8 12  2  0  0  0  0
  8 14  1  0  0  0  0
  9 11  2  0  0  0  0
  9 15  1  0  0  0  0
 10 16  1  0  0  0  0
 11 12  1  0  0  0  0
 11 20  1  0  0  0  0
 12 21  1  0  0  0  0
 13 15  2  0  0  0  0
 13 20  1  0  0  0  0
 17 21  1  0  0  0  0
 18 21  2  0  0  0  0
 19 21  2  0  0  0  0
  1 22  1  0  0  0  0
  2 23  1  0  0  0  0
  3 24  1  0  0  0  0
  4 25  1  0  0  0  0
  5 26  1  0  0  0  0
  6 27  1  0  0  0  0
 14 28  1  0  0  0  0
 14 29  1  0  0  0  0
 14 30  1  0  0  0  0
 16 31  1  0  0  0  0
 16 32  1  0  0  0  0
M  CHG  1  17  -1
M  END
> <IC50 (uM)>

> <IC50 (uM) - std>

> <Average Inhibition @ 20 uM>

> <Average Inhibition @ 20 uM - std>

> <Average Inhibition @ 50 uM>

> <Average Inhibition @ 50 uM - std>
18.7

> <Trypsin IC50 (uM)>
3.38

> <Relative Solubility @ 20 uM>

> <Relative Solubility @ 100 uM>

> <Hybrid2>
-8.717568

> <docked_fragment>
x0749

> <Mpro-_dock>
1.554171

> <site>
active-covalent

$$$$
GIA-UNK-3f36037a-2
  -OEChem-05192003313D

 34 35  0     0  0  0  0  0  0999 V2000
   13.6172   -0.4127   23.8379 C   0  0  0  0  0  0  0  0  0  0  0  0
   13.3444   -1.6228   23.2003 C   0  0  0  0  0  0  0  0  0  0  0  0
   12.7095    0.6427   23.7490 C   0  0  0  0  0  0  0  0  0  0  0  0
   12.1639   -1.7777   22.4736 C   0  0  0  0  0  0  0  0  0  0  0  0
   11.5289    0.4879   23.0224 C   0  0  0  0  0  0  0  0  0  0  0  0
   11.2561   -0.7223   22.3847 C   0  0  0  0  0  0  0  0  0  0  0  0
    7.2389    0.5037   19.7618 C   0  0  0  0  0  0  0  0  0  0  0  0
    9.0514    0.0609   21.4557 C   0  0  0  0  0  0  0  0  0  0  0  0
    5.3290    0.4184   21.3322 C   0  0  0  0  0  0  0  0  0  0  0  0
    4.8613    0.9386   18.9735 C   0  0  0  0  0  0  0  0  0  0  0  0
    4.3591    1.5260   21.7179 C   0  0  0  0  0  0  0  0  0  0  0  0
    3.9060    2.0219   19.4581 C   0  0  0  0  0  0  0  0  0  0  0  0
    7.9526   -0.5233   20.6039 C   0  0  0  0  0  0  0  0  0  0  0  0
    5.8747    0.6608   19.9968 N   0  0  0  0  0  0  0  0  0  0  0  0
   10.0585   -0.8797   21.6476 N   0  0  0  0  0  0  0  0  0  0  0  0
    7.8740    1.1427   18.9192 O   0  0  0  0  0  0  0  0  0  0  0  0
    9.0075    1.2086   21.8868 O   0  0  0  0  0  0  0  0  0  0  0  0
    3.3421    1.6609   20.7217 O   0  0  0  0  0  0  0  0  0  0  0  0
   14.5360   -0.2920   24.4045 H   0  0  0  0  0  0  0  0  0  0  0  0
   14.0505   -2.4450   23.2700 H   0  0  0  0  0  0  0  0  0  0  0  0
   12.9218    1.5846   24.2465 H   0  0  0  0  0  0  0  0  0  0  0  0
   11.9619   -2.7255   21.9810 H   0  0  0  0  0  0  0  0  0  0  0  0
   10.8288    1.3173   22.9601 H   0  0  0  0  0  0  0  0  0  0  0  0
    6.1265    0.3325   22.0761 H   0  0  0  0  0  0  0  0  0  0  0  0
    4.8050   -0.5434   21.2834 H   0  0  0  0  0  0  0  0  0  0  0  0
    4.3176   -0.0004   18.8165 H   0  0  0  0  0  0  0  0  0  0  0  0
    5.3052    1.2336   18.0213 H   0  0  0  0  0  0  0  0  0  0  0  0
    3.8663    1.2774   22.6631 H   0  0  0  0  0  0  0  0  0  0  0  0
    4.8741    2.4847   21.8528 H   0  0  0  0  0  0  0  0  0  0  0  0
    4.4081    2.9930   19.5417 H   0  0  0  0  0  0  0  0  0  0  0  0
    3.0807    2.1347   18.7478 H   0  0  0  0  0  0  0  0  0  0  0  0
    8.3721   -1.2624   19.9218 H   0  0  0  0  0  0  0  0  0  0  0  0
    7.2036   -0.9911   21.2424 H   0  0  0  0  0  0  0  0  0  0  0  0
    9.9321   -1.7910   21.2120 H   0  0  0  0  0  0  0  0  0  0  0  0
  1  2  1  0  0  0  0
  1  3  2  0  0  0  0
  2  4  2  0  0  0  0
  3  5  1  0  0  0  0
  4  6  1  0  0  0  0
  5  6  2  0  0  0  0
  6 15  1  0  0  0  0
  7 13  1  0  0  0  0
  7 14  1  0  0  0  0
  7 16  2  0  0  0  0
  8 13  1  0  0  0  0
  8 15  1  0  0  0  0
  8 17  2  0  0  0  0
  9 11  1  0  0  0  0
  9 14  1  0  0  0  0
 10 12  1  0  0  0  0
 10 14  1  0  0  0  0
 11 18  1  0  0  0  0
 12 18  1  0  0  0  0
  1 19  1  0  0  0  0
  2 20  1  0  0  0  0
  3 21  1  0  0  0  0
  4 22  1  0  0  0  0
  5 23  1  0  0  0  0
  9 24  1  0  0  0  0
  9 25  1  0  0  0  0
 10 26  1  0  0  0  0
 10 27  1  0  0  0  0
 11 28  1  0  0  0  0
 11 29  1  0  0  0  0
 12 30  1  0  0  0  0
 12 31  1  0  0  0  0
 13 32  1  0  0  0  0
 13 33  1  0  0  0  0
 15 34  1  0  0  0  0
M  END
> <IC50 (uM)>

> <IC50 (uM) - std>

> <Average Inhibition @ 20 uM>

> <Average Inhibition @ 20 uM - std>

> <Average Inhibition @ 50 uM>

> <Average Inhibition @ 50 uM - std>
6.66

> <Trypsin IC50 (uM)>
1.94

> <Relative Solubility @ 20 uM>

> <Relative Solubility @ 100 uM>

> <Hybrid2>
-8.713440

> <docked_fragment>
x1093

> <Mpro-_dock>
-0.133909

> <site>
active-noncovalent

$$$$
WAR-XCH-b72a1bbc-18
  -OEChem-05192003313D

 43 45  0     1  0  0  0  0  0999 V2000
   12.5662    2.7161   22.7904 C   0  0  0  0  0  0  0  0  0  0  0  0
   11.0617    1.7271   24.4015 C   0  0  0  0  0  0  0  0  0  0  0  0
   11.8731    3.9229   22.8839 C   0  0  0  0  0  0  0  0  0  0  0  0
   10.3686    2.9340   24.4951 C   0  0  0  0  0  0  0  0  0  0  0  0
   12.1605    1.6181   23.5491 C   0  0  0  0  0  0  0  0  0  0  0  0
   10.7744    4.0319   23.7362 C   0  0  0  0  0  0  0  0  0  0  0  0
    9.0054   -4.1342   24.1814 C   0  0  0  0  0  0  0  0  0  0  0  0
    9.7066   -2.9652   23.5364 C   0  0  0  0  0  0  0  0  0  0  0  0
   11.9831   -1.4811   22.1767 C   0  0  0  0  0  0  0  0  0  0  0  0
   12.1342   -1.5585   24.7029 C   0  0  0  0  0  0  0  0  0  0  0  0
   12.9763   -0.3185   22.1939 C   0  0  0  0  0  0  0  0  0  0  0  0
   13.1224   -0.3883   24.6537 C   0  0  0  0  0  0  0  0  0  0  0  0
   10.0529   -4.6281   25.1567 C   0  0  0  0  0  0  0  0  0  0  0  0
   12.1750   -2.3861   23.4063 C   0  0  0  0  0  0  0  0  0  0  0  0
   11.1303   -3.4848   23.4351 C   0  0  1  0  0  0  0  0  0  0  0  0
   12.8513    0.4144   23.4562 N   0  0  0  0  0  0  0  0  0  0  0  0
    8.7301    5.3370   22.6307 N   0  0  0  0  0  0  0  0  0  0  0  0
    9.2364    5.5878   25.1459 O   0  0  0  0  0  0  0  0  0  0  0  0
   10.8014    6.6222   23.4641 O   0  0  0  0  0  0  0  0  0  0  0  0
   11.3339   -4.3222   24.5859 O   0  0  0  0  0  0  0  0  0  0  0  0
    9.9058    5.5419   23.8535 S   0  0  0  0  0  0  0  0  0  0  0  0
   13.4208    2.6422   22.1228 H   0  0  0  0  0  0  0  0  0  0  0  0
   10.7377    0.8780   24.9980 H   0  0  0  0  0  0  0  0  0  0  0  0
   12.1980    4.7716   22.2880 H   0  0  0  0  0  0  0  0  0  0  0  0
    9.5139    3.0074   25.1623 H   0  0  0  0  0  0  0  0  0  0  0  0
    8.0619   -3.8696   24.6658 H   0  0  0  0  0  0  0  0  0  0  0  0
    8.8002   -4.9058   23.4299 H   0  0  0  0  0  0  0  0  0  0  0  0
    9.2864   -2.6877   22.5648 H   0  0  0  0  0  0  0  0  0  0  0  0
    9.6487   -2.0907   24.1970 H   0  0  0  0  0  0  0  0  0  0  0  0
   10.9626   -1.0878   22.1560 H   0  0  0  0  0  0  0  0  0  0  0  0
   12.1247   -2.0631   21.2628 H   0  0  0  0  0  0  0  0  0  0  0  0
   12.3771   -2.1974   25.5592 H   0  0  0  0  0  0  0  0  0  0  0  0
   11.1219   -1.1716   24.8714 H   0  0  0  0  0  0  0  0  0  0  0  0
   13.9954   -0.6986   22.0809 H   0  0  0  0  0  0  0  0  0  0  0  0
   12.7619    0.3387   21.3471 H   0  0  0  0  0  0  0  0  0  0  0  0
   12.9964    0.2132   25.5545 H   0  0  0  0  0  0  0  0  0  0  0  0
   14.1450   -0.7668   24.6287 H   0  0  0  0  0  0  0  0  0  0  0  0
    9.9815   -4.1018   26.1145 H   0  0  0  0  0  0  0  0  0  0  0  0
    9.9793   -5.7032   25.3429 H   0  0  0  0  0  0  0  0  0  0  0  0
   13.1655   -2.8691   23.3321 H   0  0  0  0  0  0  0  0  0  0  0  0
   11.2423   -4.1186   22.5482 H   0  0  0  0  0  0  0  0  0  0  0  0
    7.7558    5.1857   22.9194 H   0  0  0  0  0  0  0  0  0  0  0  0
    8.8270    5.8911   21.7711 H   0  0  0  0  0  0  0  0  0  0  0  0
  1  3  2  0  0  0  0
  1  5  1  0  0  0  0
  2  4  1  0  0  0  0
  2  5  2  0  0  0  0
  3  6  1  0  0  0  0
  4  6  2  0  0  0  0
  5 16  1  0  0  0  0
  6 21  1  0  0  0  0
  7  8  1  0  0  0  0
  7 13  1  0  0  0  0
  8 15  1  0  0  0  0
  9 11  1  0  0  0  0
  9 14  1  0  0  0  0
 10 12  1  0  0  0  0
 10 14  1  0  0  0  0
 11 16  1  0  0  0  0
 12 16  1  0  0  0  0
 13 20  1  0  0  0  0
 14 15  1  0  0  0  0
 15 20  1  0  0  0  0
 17 21  1  0  0  0  0
 18 21  2  0  0  0  0
 19 21  2  0  0  0  0
  1 22  1  0  0  0  0
  2 23  1  0  0  0  0
  3 24  1  0  0  0  0
  4 25  1  0  0  0  0
  7 26  1  0  0  0  0
  7 27  1  0  0  0  0
  8 28  1  0  0  0  0
  8 29  1  0  0  0  0
  9 30  1  0  0  0  0
  9 31  1  0  0  0  0
 10 32  1  0  0  0  0
 10 33  1  0  0  0  0
 11 34  1  0  0  0  0
 11 35  1  0  0  0  0
 12 36  1  0  0  0  0
 12 37  1  0  0  0  0
 13 38  1  0  0  0  0
 13 39  1  0  0  0  0
 14 40  1  0  0  0  0
 15 41  1  0  0  0  0
 17 42  1  0  0  0  0
 17 43  1  0  0  0  0
M  END
> <IC50 (uM)>

> <IC50 (uM) - std>

> <Average Inhibition @ 20 uM>

> <Average Inhibition @ 20 uM - std>

> <Average Inhibition @ 50 uM>

> <Average Inhibition @ 50 uM - std>
4.23

> <Trypsin IC50 (uM)>
0.489

> <Relative Solubility @ 20 uM>

> <Relative Solubility @ 100 uM>

> <Hybrid2>
-8.696627

> <docked_fragment>
x0161

> <Mpro-_dock>
1.222047

> <site>
active-noncovalent

$$$$
DAR-DIA-23aa0b97-19
  -OEChem-05192003313D

 35 37  0     0  0  0  0  0  0999 V2000
    5.6880   -1.0556   18.4218 C   0  0  0  0  0  0  0  0  0  0  0  0
   12.7403    2.2635   23.3297 C   0  0  0  0  0  0  0  0  0  0  0  0
   11.5364    2.2446   24.0301 C   0  0  0  0  0  0  0  0  0  0  0  0
    5.2390    1.0750   21.4409 C   0  0  0  0  0  0  0  0  0  0  0  0
    5.0682    0.5473   20.1611 C   0  0  0  0  0  0  0  0  0  0  0  0
   13.2666    1.0795   22.8136 C   0  0  0  0  0  0  0  0  0  0  0  0
   10.8533    1.0417   24.2175 C   0  0  0  0  0  0  0  0  0  0  0  0
    6.2058    0.5402   22.2925 C   0  0  0  0  0  0  0  0  0  0  0  0
    6.8308   -1.0500   20.5844 C   0  0  0  0  0  0  0  0  0  0  0  0
   13.0686   -1.3505   22.5013 C   0  0  0  0  0  0  0  0  0  0  0  0
   11.2813   -2.5245   23.3392 C   0  0  0  0  0  0  0  0  0  0  0  0
    5.8640   -0.5152   19.7329 C   0  0  0  0  0  0  0  0  0  0  0  0
   12.5877   -0.1367   22.9961 C   0  0  0  0  0  0  0  0  0  0  0  0
   11.3686   -0.1599   23.7046 C   0  0  0  0  0  0  0  0  0  0  0  0
   10.7077   -1.3818   23.8757 C   0  0  0  0  0  0  0  0  0  0  0  0
    7.0016   -0.5222   21.8643 C   0  0  0  0  0  0  0  0  0  0  0  0
    8.2867   -0.6612   24.0263 C   0  0  0  0  0  0  0  0  0  0  0  0
    9.4138   -1.5087   24.6094 C   0  0  0  0  0  0  0  0  0  0  0  0
    5.5452   -1.4945   17.3571 N   0  0  0  0  0  0  0  0  0  0  0  0
   12.4455   -2.5406   22.6559 N   0  0  0  0  0  0  0  0  0  0  0  0
    7.9833   -1.0636   22.7281 N   0  0  0  0  0  0  0  0  0  0  0  0
    7.7589    0.2426   24.6664 O   0  0  0  0  0  0  0  0  0  0  0  0
   13.2695    3.2008   23.1853 H   0  0  0  0  0  0  0  0  0  0  0  0
   11.1279    3.1678   24.4311 H   0  0  0  0  0  0  0  0  0  0  0  0
    4.6199    1.9029   21.7741 H   0  0  0  0  0  0  0  0  0  0  0  0
    4.3099    0.9746   19.5095 H   0  0  0  0  0  0  0  0  0  0  0  0
   14.2075    1.1129   22.2692 H   0  0  0  0  0  0  0  0  0  0  0  0
    9.9168    1.0663   24.7696 H   0  0  0  0  0  0  0  0  0  0  0  0
    6.3301    0.9596   23.2878 H   0  0  0  0  0  0  0  0  0  0  0  0
    7.4531   -1.8793   20.2538 H   0  0  0  0  0  0  0  0  0  0  0  0
   14.0018   -1.4029   21.9468 H   0  0  0  0  0  0  0  0  0  0  0  0
   10.8062   -3.4952   23.4453 H   0  0  0  0  0  0  0  0  0  0  0  0
    9.0816   -2.5594   24.6184 H   0  0  0  0  0  0  0  0  0  0  0  0
    9.5460   -1.2238   25.6657 H   0  0  0  0  0  0  0  0  0  0  0  0
    8.5313   -1.8372   22.3573 H   0  0  0  0  0  0  0  0  0  0  0  0
  1 12  1  0  0  0  0
  1 19  3  0  0  0  0
  2  3  1  0  0  0  0
  2  6  2  0  0  0  0
  3  7  2  0  0  0  0
  4  5  2  0  0  0  0
  4  8  1  0  0  0  0
  5 12  1  0  0  0  0
  6 13  1  0  0  0  0
  7 14  1  0  0  0  0
  8 16  2  0  0  0  0
  9 12  2  0  0  0  0
  9 16  1  0  0  0  0
 10 13  2  0  0  0  0
 10 20  1  0  0  0  0
 11 15  1  0  0  0  0
 11 20  2  0  0  0  0
 13 14  1  0  0  0  0
 14 15  2  0  0  0  0
 15 18  1  0  0  0  0
 16 21  1  0  0  0  0
 17 18  1  0  0  0  0
 17 21  1  0  0  0  0
 17 22  2  0  0  0  0
  2 23  1  0  0  0  0
  3 24  1  0  0  0  0
  4 25  1  0  0  0  0
  5 26  1  0  0  0  0
  6 27  1  0  0  0  0
  7 28  1  0  0  0  0
  8 29  1  0  0  0  0
  9 30  1  0  0  0  0
 10 31  1  0  0  0  0
 11 32  1  0  0  0  0
 18 33  1  0  0  0  0
 18 34  1  0  0  0  0
 21 35  1  0  0  0  0
M  END
> <IC50 (uM)>
28.2

> <IC50 (uM) - std>
2.7

> <Average Inhibition @ 20 uM>
> 99.0

> <Average Inhibition @ 20 uM - std>
48.7

> <Average Inhibition @ 50 uM>
0.877

> <Average Inhibition @ 50 uM - std>
73.0

> <Trypsin IC50 (uM)>
0.425

> <Relative Solubility @ 20 uM>
0.99

> <Relative Solubility @ 100 uM>
0.98

> <Hybrid2>
-8.666809

> <docked_fragment>
x0831

> <Mpro-_dock>
-1.347108

> <site>
active-covalent

$$$$
CHR-SOS-7098f804-7
  -OEChem-05192003313D

 27 28  0     0  0  0  0  0  0999 V2000
    6.6176   -5.5764   21.6466 C   0  0  0  0  0  0  0  0  0  0  0  0
    7.6304   -6.2072   22.3690 C   0  0  0  0  0  0  0  0  0  0  0  0
    6.6685   -4.1992   21.4311 C   0  0  0  0  0  0  0  0  0  0  0  0
    8.6941   -5.4608   22.8760 C   0  0  0  0  0  0  0  0  0  0  0  0
    7.7322   -3.4528   21.9381 C   0  0  0  0  0  0  0  0  0  0  0  0
   13.7606   -1.9521   25.5257 C   0  0  0  0  0  0  0  0  0  0  0  0
   13.5496   -0.6317   25.1289 C   0  0  0  0  0  0  0  0  0  0  0  0
   11.4010   -1.2501   24.2134 C   0  0  0  0  0  0  0  0  0  0  0  0
   11.6120   -2.5706   24.6102 C   0  0  0  0  0  0  0  0  0  0  0  0
    8.7450   -4.0836   22.6606 C   0  0  0  0  0  0  0  0  0  0  0  0
   12.7918   -2.9216   25.2663 C   0  0  0  0  0  0  0  0  0  0  0  0
   12.3698   -0.2806   24.4727 C   0  0  0  0  0  0  0  0  0  0  0  0
   10.5891   -3.5680   24.3277 C   0  0  0  0  0  0  0  0  0  0  0  0
    9.8263   -3.3252   23.1759 N   0  0  0  0  0  0  0  0  0  0  0  0
   10.3982   -4.5330   25.0791 O   0  0  0  0  0  0  0  0  0  0  0  0
   13.0174   -4.2068   25.6600 O   0  0  0  0  0  0  0  0  0  0  0  0
   12.1087    1.3490   23.9850 Cl  0  0  0  0  0  0  0  0  0  0  0  0
    5.7896   -6.1574   21.2510 H   0  0  0  0  0  0  0  0  0  0  0  0
    7.5916   -7.2796   22.5362 H   0  0  0  0  0  0  0  0  0  0  0  0
    5.8802   -3.7085   20.8676 H   0  0  0  0  0  0  0  0  0  0  0  0
    9.4778   -5.9633   23.4375 H   0  0  0  0  0  0  0  0  0  0  0  0
    7.7614   -2.3801   21.7638 H   0  0  0  0  0  0  0  0  0  0  0  0
   14.6819   -2.2198   26.0360 H   0  0  0  0  0  0  0  0  0  0  0  0
   14.3127    0.1133   25.3388 H   0  0  0  0  0  0  0  0  0  0  0  0
   10.4804   -0.9787   23.7009 H   0  0  0  0  0  0  0  0  0  0  0  0
   10.0819   -2.4985   22.6415 H   0  0  0  0  0  0  0  0  0  0  0  0
   12.2651   -4.7682   25.4163 H   0  0  0  0  0  0  0  0  0  0  0  0
  1  2  1  0  0  0  0
  1  3  2  0  0  0  0
  2  4  2  0  0  0  0
  3  5  1  0  0  0  0
  4 10  1  0  0  0  0
  5 10  2  0  0  0  0
  6  7  2  0  0  0  0
  6 11  1  0  0  0  0
  7 12  1  0  0  0  0
  8  9  1  0  0  0  0
  8 12  2  0  0  0  0
  9 11  2  0  0  0  0
  9 13  1  0  0  0  0
 10 14  1  0  0  0  0
 11 16  1  0  0  0  0
 12 17  1  0  0  0  0
 13 14  1  0  0  0  0
 13 15  2  0  0  0  0
  1 18  1  0  0  0  0
  2 19  1  0  0  0  0
  3 20  1  0  0  0  0
  4 21  1  0  0  0  0
  5 22  1  0  0  0  0
  6 23  1  0  0  0  0
  7 24  1  0  0  0  0
  8 25  1  0  0  0  0
 14 26  1  0  0  0  0
 16 27  1  0  0  0  0
M  END
> <IC50 (uM)>

> <IC50 (uM) - std>

> <Average Inhibition @ 20 uM>

> <Average Inhibition @ 20 uM - std>
3.75

> <Average Inhibition @ 50 uM>
1.9

> <Average Inhibition @ 50 uM - std>
8.41

> <Trypsin IC50 (uM)>
0.723

> <Relative Solubility @ 20 uM>
1.0

> <Relative Solubility @ 100 uM>
0.89

> <Hybrid2>
-8.661772

> <docked_fragment>
x0749

> <Mpro-_dock>
-1.143114

> <site>
active-covalent

$$$$
BAR-COM-4e090d3a-30
  -OEChem-05192003313D

 41 43  0     1  0  0  0  0  0999 V2000
   12.2978    4.3987   23.9124 C   0  0  0  0  0  0  0  0  0  0  0  0
   11.0407    4.0810   24.4264 C   0  0  0  0  0  0  0  0  0  0  0  0
   12.8530    3.6204   22.8967 C   0  0  0  0  0  0  0  0  0  0  0  0
   10.3387    2.9849   23.9248 C   0  0  0  0  0  0  0  0  0  0  0  0
   12.1511    2.5243   22.3951 C   0  0  0  0  0  0  0  0  0  0  0  0
   13.9306   -1.0609   23.5523 C   0  0  0  0  0  0  0  0  0  0  0  0
   13.6088   -1.4667   22.2432 C   0  0  0  0  0  0  0  0  0  0  0  0
    6.9464   -0.0073   18.8355 C   0  0  0  0  0  0  0  0  0  0  0  0
   12.7552   -0.5588   24.0549 C   0  0  0  0  0  0  0  0  0  0  0  0
   10.8940    2.2065   22.9092 C   0  0  0  0  0  0  0  0  0  0  0  0
    5.9826    0.7350   19.5321 C   0  0  0  0  0  0  0  0  0  0  0  0
    8.0751    1.9333   21.3215 C   0  0  0  0  0  0  0  0  0  0  0  0
    5.7899    0.8876   21.0187 C   0  0  0  0  0  0  0  0  0  0  0  0
    6.5839    2.0690   21.5730 C   0  0  0  0  0  0  0  0  0  0  0  0
   10.4314   -0.2947   23.1129 C   0  0  0  0  0  0  0  0  0  0  0  0
   10.1318    1.0151   22.3638 C   0  0  1  0  0  0  0  0  0  0  0  0
   12.3291   -1.2420   21.9337 N   0  0  0  0  0  0  0  0  0  0  0  0
    6.7613    0.1314   17.5197 N   0  0  0  0  0  0  0  0  0  0  0  0
    5.1754    1.3546   18.6665 N   0  0  0  0  0  0  0  0  0  0  0  0
    5.6972    0.9501   17.4974 N   0  0  0  0  0  0  0  0  0  0  0  0
   11.8364   -0.6895   23.0554 N   0  0  0  0  0  0  0  0  0  0  0  0
    8.7105    1.2703   22.3613 N   0  0  0  0  0  0  0  0  0  0  0  0
    8.6312    2.3655   20.3155 O   0  0  0  0  0  0  0  0  0  0  0  0
   12.8436    5.2530   24.3021 H   0  0  0  0  0  0  0  0  0  0  0  0
   10.6077    4.6876   25.2165 H   0  0  0  0  0  0  0  0  0  0  0  0
   13.8313    3.8681   22.4955 H   0  0  0  0  0  0  0  0  0  0  0  0
    9.3599    2.7448   24.3315 H   0  0  0  0  0  0  0  0  0  0  0  0
   12.5916    1.9235   21.6038 H   0  0  0  0  0  0  0  0  0  0  0  0
   14.8817   -1.1237   24.0598 H   0  0  0  0  0  0  0  0  0  0  0  0
   14.2547   -1.9173   21.5033 H   0  0  0  0  0  0  0  0  0  0  0  0
    7.7518   -0.6252   19.2041 H   0  0  0  0  0  0  0  0  0  0  0  0
   12.5030   -0.1298   25.0149 H   0  0  0  0  0  0  0  0  0  0  0  0
    4.7216    1.0111   21.2385 H   0  0  0  0  0  0  0  0  0  0  0  0
    6.0876   -0.0407   21.5236 H   0  0  0  0  0  0  0  0  0  0  0  0
    6.4266    2.1579   22.6552 H   0  0  0  0  0  0  0  0  0  0  0  0
    6.2431    3.0049   21.1127 H   0  0  0  0  0  0  0  0  0  0  0  0
    9.8558   -1.1236   22.6797 H   0  0  0  0  0  0  0  0  0  0  0  0
   10.1351   -0.2379   24.1677 H   0  0  0  0  0  0  0  0  0  0  0  0
   10.3925    0.8833   21.3060 H   0  0  0  0  0  0  0  0  0  0  0  0
    5.2964    1.2554   16.6177 H   0  0  0  0  0  0  0  0  0  0  0  0
    8.1723    0.9806   23.1727 H   0  0  0  0  0  0  0  0  0  0  0  0
  1  2  1  0  0  0  0
  1  3  2  0  0  0  0
  2  4  2  0  0  0  0
  3  5  1  0  0  0  0
  4 10  1  0  0  0  0
  5 10  2  0  0  0  0
  6  7  1  0  0  0  0
  6  9  2  0  0  0  0
  7 17  2  0  0  0  0
  8 11  1  0  0  0  0
  8 18  2  0  0  0  0
  9 21  1  0  0  0  0
 10 16  1  0  0  0  0
 11 13  1  0  0  0  0
 11 19  2  0  0  0  0
 12 14  1  0  0  0  0
 12 22  1  0  0  0  0
 12 23  2  0  0  0  0
 13 14  1  0  0  0  0
 15 16  1  0  0  0  0
 15 21  1  0  0  0  0
 16 22  1  0  0  0  0
 17 21  1  0  0  0  0
 18 20  1  0  0  0  0
 19 20  1  0  0  0  0
  1 24  1  0  0  0  0
  2 25  1  0  0  0  0
  3 26  1  0  0  0  0
  4 27  1  0  0  0  0
  5 28  1  0  0  0  0
  6 29  1  0  0  0  0
  7 30  1  0  0  0  0
  8 31  1  0  0  0  0
  9 32  1  0  0  0  0
 13 33  1  0  0  0  0
 13 34  1  0  0  0  0
 14 35  1  0  0  0  0
 14 36  1  0  0  0  0
 15 37  1  0  0  0  0
 15 38  1  0  0  0  0
 16 39  1  0  0  0  0
 20 40  1  0  0  0  0
 22 41  1  0  0  0  0
M  END
> <IC50 (uM)>

> <IC50 (uM) - std>

> <Average Inhibition @ 20 uM>

> <Average Inhibition @ 20 uM - std>
-1.52

> <Average Inhibition @ 50 uM>
2.71

> <Average Inhibition @ 50 uM - std>
-1.11

> <Trypsin IC50 (uM)>
1.55

> <Relative Solubility @ 20 uM>

> <Relative Solubility @ 100 uM>

> <Hybrid2>
-8.655871

> <docked_fragment>
x0678

> <Mpro-_dock>
0.961316

> <site>
active-noncovalent

$$$$
WAR-XCH-b6889685-30
  -OEChem-05192003313D

 47 49  0     0  0  0  0  0  0999 V2000
   13.5511   -0.8501   23.9290 C   0  0  0  0  0  0  0  0  0  0  0  0
   13.3552   -1.4271   22.6743 C   0  0  0  0  0  0  0  0  0  0  0  0
   12.4533   -0.4661   24.6992 C   0  0  0  0  0  0  0  0  0  0  0  0
    6.0739   -5.3062   25.1156 C   0  0  0  0  0  0  0  0  0  0  0  0
    7.7081   -4.5853   26.7425 C   0  0  0  0  0  0  0  0  0  0  0  0
   12.0615   -1.6199   22.1896 C   0  0  0  0  0  0  0  0  0  0  0  0
    5.4040   -6.0237   26.1065 C   0  0  0  0  0  0  0  0  0  0  0  0
    7.0381   -5.3027   27.7334 C   0  0  0  0  0  0  0  0  0  0  0  0
   11.1596   -0.6589   24.2145 C   0  0  0  0  0  0  0  0  0  0  0  0
    7.2261   -4.5870   25.4335 C   0  0  0  0  0  0  0  0  0  0  0  0
   10.9637   -1.2358   22.9598 C   0  0  0  0  0  0  0  0  0  0  0  0
    5.8860   -6.0220   27.4154 C   0  0  0  0  0  0  0  0  0  0  0  0
    7.6407   -2.7851   22.2663 C   0  0  0  0  0  0  0  0  0  0  0  0
    9.8242   -3.8370   22.9435 C   0  0  0  0  0  0  0  0  0  0  0  0
    7.1989   -2.8049   23.7299 C   0  0  0  0  0  0  0  0  0  0  0  0
    9.3523   -3.8434   24.3997 C   0  0  0  0  0  0  0  0  0  0  0  0
    9.1635   -2.7336   22.1148 C   0  0  0  0  0  0  0  0  0  0  0  0
   10.0023   -0.2382   25.0607 C   0  0  0  0  0  0  0  0  0  0  0  0
    7.8879   -3.8786   24.4557 N   0  0  0  0  0  0  0  0  0  0  0  0
    5.8294   -8.4359   28.5443 N   0  0  0  0  0  0  0  0  0  0  0  0
    9.6892   -1.4344   22.4639 N   0  0  0  0  0  0  0  0  0  0  0  0
    5.3630   -6.3238   29.9469 O   0  0  0  0  0  0  0  0  0  0  0  0
    3.6582   -7.0801   28.2530 O   0  0  0  0  0  0  0  0  0  0  0  0
    5.0484   -6.9203   28.6563 S   0  0  0  0  0  0  0  0  0  0  0  0
   14.5584   -0.7000   24.3062 H   0  0  0  0  0  0  0  0  0  0  0  0
   14.2100   -1.7261   22.0747 H   0  0  0  0  0  0  0  0  0  0  0  0
   12.6168   -0.0174   25.6755 H   0  0  0  0  0  0  0  0  0  0  0  0
    5.6897   -5.3148   24.0988 H   0  0  0  0  0  0  0  0  0  0  0  0
    8.6045   -4.0273   27.0013 H   0  0  0  0  0  0  0  0  0  0  0  0
   11.9212   -2.0705   21.2104 H   0  0  0  0  0  0  0  0  0  0  0  0
    4.5075   -6.5805   25.8473 H   0  0  0  0  0  0  0  0  0  0  0  0
    7.4228   -5.2944   28.7498 H   0  0  0  0  0  0  0  0  0  0  0  0
    7.2654   -3.6906   21.7712 H   0  0  0  0  0  0  0  0  0  0  0  0
    7.1742   -1.9384   21.7482 H   0  0  0  0  0  0  0  0  0  0  0  0
   10.9164   -3.7421   22.9081 H   0  0  0  0  0  0  0  0  0  0  0  0
    9.5877   -4.8095   22.4917 H   0  0  0  0  0  0  0  0  0  0  0  0
    7.4049   -1.8369   24.2043 H   0  0  0  0  0  0  0  0  0  0  0  0
    6.1132   -2.9613   23.7627 H   0  0  0  0  0  0  0  0  0  0  0  0
    9.7730   -4.7266   24.8971 H   0  0  0  0  0  0  0  0  0  0  0  0
    9.7299   -2.9583   24.9274 H   0  0  0  0  0  0  0  0  0  0  0  0
    9.4118   -2.9113   21.0429 H   0  0  0  0  0  0  0  0  0  0  0  0
    9.7315    0.8013   24.8430 H   0  0  0  0  0  0  0  0  0  0  0  0
    9.1271   -0.8735   24.8783 H   0  0  0  0  0  0  0  0  0  0  0  0
   10.2414   -0.3217   26.1279 H   0  0  0  0  0  0  0  0  0  0  0  0
    6.4666   -8.7069   29.3033 H   0  0  0  0  0  0  0  0  0  0  0  0
    5.3019   -9.2216   28.1447 H   0  0  0  0  0  0  0  0  0  0  0  0
    9.0871   -0.6330   22.3346 H   0  0  0  0  0  0  0  0  0  0  0  0
  1  2  1  0  0  0  0
  1  3  2  0  0  0  0
  2  6  2  0  0  0  0
  3  9  1  0  0  0  0
  4  7  2  0  0  0  0
  4 10  1  0  0  0  0
  5  8  1  0  0  0  0
  5 10  2  0  0  0  0
  6 11  1  0  0  0  0
  7 12  1  0  0  0  0
  8 12  2  0  0  0  0
  9 11  2  0  0  0  0
  9 18  1  0  0  0  0
 10 19  1  0  0  0  0
 11 21  1  0  0  0  0
 12 24  1  0  0  0  0
 13 15  1  0  0  0  0
 13 17  1  0  0  0  0
 14 16  1  0  0  0  0
 14 17  1  0  0  0  0
 15 19  1  0  0  0  0
 16 19  1  0  0  0  0
 17 21  1  0  0  0  0
 20 24  1  0  0  0  0
 22 24  2  0  0  0  0
 23 24  2  0  0  0  0
  1 25  1  0  0  0  0
  2 26  1  0  0  0  0
  3 27  1  0  0  0  0
  4 28  1  0  0  0  0
  5 29  1  0  0  0  0
  6 30  1  0  0  0  0
  7 31  1  0  0  0  0
  8 32  1  0  0  0  0
 13 33  1  0  0  0  0
 13 34  1  0  0  0  0
 14 35  1  0  0  0  0
 14 36  1  0  0  0  0
 15 37  1  0  0  0  0
 15 38  1  0  0  0  0
 16 39  1  0  0  0  0
 16 40  1  0  0  0  0
 17 41  1  0  0  0  0
 18 42  1  0  0  0  0
 18 43  1  0  0  0  0
 18 44  1  0  0  0  0
 20 45  1  0  0  0  0
 20 46  1  0  0  0  0
 21 47  1  0  0  0  0
M  END
> <IC50 (uM)>

> <IC50 (uM) - std>

> <Average Inhibition @ 20 uM>

> <Average Inhibition @ 20 uM - std>
4.98

> <Average Inhibition @ 50 uM>
0.13

> <Average Inhibition @ 50 uM - std>
7.22

> <Trypsin IC50 (uM)>
2.41

> <Relative Solubility @ 20 uM>
0.91

> <Relative Solubility @ 100 uM>
0.91

> <Hybrid2>
-8.649417

> <docked_fragment>
x0072

> <Mpro-_dock>
1.965924

> <site>
active-noncovalent

$$$$
GIA-UNK-d2defdc3-6
  -OEChem-05192003313D

 41 43  0     1  0  0  0  0  0999 V2000
    4.5093    0.9013   18.4950 C   0  0  0  0  0  0  0  0  0  0  0  0
    4.3746    0.9586   19.8821 C   0  0  0  0  0  0  0  0  0  0  0  0
    5.7698    0.7284   17.9232 C   0  0  0  0  0  0  0  0  0  0  0  0
    5.5004    0.8432   20.6975 C   0  0  0  0  0  0  0  0  0  0  0  0
    6.8956    0.6130   18.7386 C   0  0  0  0  0  0  0  0  0  0  0  0
    6.7609    0.6703   20.1258 C   0  0  0  0  0  0  0  0  0  0  0  0
    7.9465    0.5489   20.9845 C   0  0  0  0  0  0  0  0  0  0  0  0
    9.9587   -0.3306   23.1953 C   0  0  0  0  0  0  0  0  0  0  0  0
    7.4019   -2.1222   23.5159 C   0  0  0  0  0  0  0  0  0  0  0  0
    8.7402   -2.5013   22.8859 C   0  0  0  0  0  0  0  0  0  0  0  0
    6.8117   -1.1411   22.5143 C   0  0  0  0  0  0  0  0  0  0  0  0
   12.1590    0.3730   24.0811 C   0  0  0  0  0  0  0  0  0  0  0  0
   12.1253   -1.2206   22.2070 C   0  0  0  0  0  0  0  0  0  0  0  0
   13.2478   -0.4771   24.7203 C   0  0  0  0  0  0  0  0  0  0  0  0
   13.2203   -2.0019   22.9224 C   0  0  0  0  0  0  0  0  0  0  0  0
    9.2012   -1.2054   22.2288 C   0  0  1  0  0  0  0  0  0  0  0  0
    7.9699   -0.5057   21.8868 N   0  0  0  0  0  0  0  0  0  0  0  0
   11.3476   -0.4368   23.1724 N   0  0  0  0  0  0  0  0  0  0  0  0
    8.8256    1.3975   20.8533 O   0  0  0  0  0  0  0  0  0  0  0  0
    9.3345    0.4203   23.9492 O   0  0  0  0  0  0  0  0  0  0  0  0
   14.0273   -1.1224   23.7100 O   0  0  0  0  0  0  0  0  0  0  0  0
    3.6327    0.9912   17.8601 H   0  0  0  0  0  0  0  0  0  0  0  0
    3.3931    1.0934   20.3271 H   0  0  0  0  0  0  0  0  0  0  0  0
    5.8747    0.6835   16.8431 H   0  0  0  0  0  0  0  0  0  0  0  0
    5.3840    0.8892   21.7773 H   0  0  0  0  0  0  0  0  0  0  0  0
    7.8729    0.4787   18.2821 H   0  0  0  0  0  0  0  0  0  0  0  0
    6.7586   -2.9923   23.6751 H   0  0  0  0  0  0  0  0  0  0  0  0
    7.5605   -1.6303   24.4825 H   0  0  0  0  0  0  0  0  0  0  0  0
    9.4397   -2.8895   23.6318 H   0  0  0  0  0  0  0  0  0  0  0  0
    8.5851   -3.2682   22.1183 H   0  0  0  0  0  0  0  0  0  0  0  0
    6.2469   -1.6607   21.7323 H   0  0  0  0  0  0  0  0  0  0  0  0
    6.1659   -0.3938   22.9845 H   0  0  0  0  0  0  0  0  0  0  0  0
   11.5406    0.8440   24.8508 H   0  0  0  0  0  0  0  0  0  0  0  0
   12.6074    1.1671   23.4725 H   0  0  0  0  0  0  0  0  0  0  0  0
   12.5703   -0.4984   21.5124 H   0  0  0  0  0  0  0  0  0  0  0  0
   11.4999   -1.9024   21.6285 H   0  0  0  0  0  0  0  0  0  0  0  0
   13.9218    0.1578   25.3039 H   0  0  0  0  0  0  0  0  0  0  0  0
   12.8269   -1.2285   25.3990 H   0  0  0  0  0  0  0  0  0  0  0  0
   12.8014   -2.7892   23.5603 H   0  0  0  0  0  0  0  0  0  0  0  0
   13.8745   -2.4824   22.1880 H   0  0  0  0  0  0  0  0  0  0  0  0
    9.8227   -1.3653   21.3441 H   0  0  0  0  0  0  0  0  0  0  0  0
  1  2  1  0  0  0  0
  1  3  2  0  0  0  0
  2  4  2  0  0  0  0
  3  5  1  0  0  0  0
  4  6  1  0  0  0  0
  5  6  2  0  0  0  0
  6  7  1  0  0  0  0
  7 17  1  0  0  0  0
  7 19  2  0  0  0  0
  8 16  1  0  0  0  0
  8 18  1  0  0  0  0
  8 20  2  0  0  0  0
  9 10  1  0  0  0  0
  9 11  1  0  0  0  0
 10 16  1  0  0  0  0
 11 17  1  0  0  0  0
 12 14  1  0  0  0  0
 12 18  1  0  0  0  0
 13 15  1  0  0  0  0
 13 18  1  0  0  0  0
 14 21  1  0  0  0  0
 15 21  1  0  0  0  0
 16 17  1  0  0  0  0
  1 22  1  0  0  0  0
  2 23  1  0  0  0  0
  3 24  1  0  0  0  0
  4 25  1  0  0  0  0
  5 26  1  0  0  0  0
  9 27  1  0  0  0  0
  9 28  1  0  0  0  0
 10 29  1  0  0  0  0
 10 30  1  0  0  0  0
 11 31  1  0  0  0  0
 11 32  1  0  0  0  0
 12 33  1  0  0  0  0
 12 34  1  0  0  0  0
 13 35  1  0  0  0  0
 13 36  1  0  0  0  0
 14 37  1  0  0  0  0
 14 38  1  0  0  0  0
 15 39  1  0  0  0  0
 15 40  1  0  0  0  0
 16 41  1  0  0  0  0
M  END
> <IC50 (uM)>

> <IC50 (uM) - std>

> <Average Inhibition @ 20 uM>

> <Average Inhibition @ 20 uM - std>

> <Average Inhibition @ 50 uM>

> <Average Inhibition @ 50 uM - std>
-1.33

> <Trypsin IC50 (uM)>
0.0464

> <Relative Solubility @ 20 uM>

> <Relative Solubility @ 100 uM>

> <Hybrid2>
-8.646894

> <docked_fragment>
x1093

> <Mpro-_dock>
0.014361

> <site>
active-noncovalent

$$$$
GIA-UNK-595fac82-5
  -OEChem-05192003313D

 39 40  0     0  0  0  0  0  0999 V2000
   14.3538   -0.3575   23.4739 C   0  0  0  0  0  0  0  0  0  0  0  0
   14.3667   -1.7151   23.1540 C   0  0  0  0  0  0  0  0  0  0  0  0
   13.1423    0.3297   23.5495 C   0  0  0  0  0  0  0  0  0  0  0  0
   13.1682   -2.3855   22.9096 C   0  0  0  0  0  0  0  0  0  0  0  0
   11.9437   -0.3406   23.3051 C   0  0  0  0  0  0  0  0  0  0  0  0
   11.9567   -1.6983   22.9852 C   0  0  0  0  0  0  0  0  0  0  0  0
    6.4713    0.6611   18.5641 C   0  0  0  0  0  0  0  0  0  0  0  0
    7.2267   -1.2916   21.4951 C   0  0  0  0  0  0  0  0  0  0  0  0
    8.9995    0.1115   20.3918 C   0  0  0  0  0  0  0  0  0  0  0  0
    8.2951   -2.2655   21.9672 C   0  0  0  0  0  0  0  0  0  0  0  0
   10.0638   -0.8654   20.8666 C   0  0  0  0  0  0  0  0  0  0  0  0
    7.6444   -0.5697   20.2175 C   0  0  0  0  0  0  0  0  0  0  0  0
    4.7791    2.2322   19.4963 C   0  0  0  0  0  0  0  0  0  0  0  0
   10.6671   -2.4187   22.7222 C   0  0  0  0  0  0  0  0  0  0  0  0
    5.4899    1.6158   18.3999 N   0  0  0  0  0  0  0  0  0  0  0  0
    9.6021   -1.5283   22.1433 N   0  3  0  0  0  0  0  0  0  0  0  0
    7.0972    0.1145   17.6619 O   0  0  0  0  0  0  0  0  0  0  0  0
    6.6553    0.4019   19.8973 O   0  0  0  0  0  0  0  0  0  0  0  0
   15.2870    0.1640   23.6655 H   0  0  0  0  0  0  0  0  0  0  0  0
   15.3098   -2.2506   23.0962 H   0  0  0  0  0  0  0  0  0  0  0  0
   13.1318    1.3865   23.7996 H   0  0  0  0  0  0  0  0  0  0  0  0
   13.1879   -3.4433   22.6609 H   0  0  0  0  0  0  0  0  0  0  0  0
   11.0046    0.2030   23.3661 H   0  0  0  0  0  0  0  0  0  0  0  0
    6.2850   -1.8270   21.3228 H   0  0  0  0  0  0  0  0  0  0  0  0
    7.0076   -0.5598   22.2839 H   0  0  0  0  0  0  0  0  0  0  0  0
    8.9088    0.9451   21.1006 H   0  0  0  0  0  0  0  0  0  0  0  0
    9.3084    0.5658   19.4428 H   0  0  0  0  0  0  0  0  0  0  0  0
    8.0254   -2.6940   22.9378 H   0  0  0  0  0  0  0  0  0  0  0  0
    8.4620   -3.0709   21.2433 H   0  0  0  0  0  0  0  0  0  0  0  0
   10.2512   -1.6549   20.1305 H   0  0  0  0  0  0  0  0  0  0  0  0
   10.9985   -0.3398   21.0873 H   0  0  0  0  0  0  0  0  0  0  0  0
    7.6898   -1.2874   19.3897 H   0  0  0  0  0  0  0  0  0  0  0  0
    3.8802    1.6425   19.7290 H   0  0  0  0  0  0  0  0  0  0  0  0
    5.4317    2.2701   20.3810 H   0  0  0  0  0  0  0  0  0  0  0  0
    4.4845    3.2537   19.2141 H   0  0  0  0  0  0  0  0  0  0  0  0
   10.8103   -3.2403   22.0122 H   0  0  0  0  0  0  0  0  0  0  0  0
   10.2557   -2.8426   23.6446 H   0  0  0  0  0  0  0  0  0  0  0  0
    5.2533    1.9017   17.4548 H   0  0  0  0  0  0  0  0  0  0  0  0
    9.4407   -0.7821   22.8339 H   0  0  0  0  0  0  0  0  0  0  0  0
  1  2  1  0  0  0  0
  1  3  2  0  0  0  0
  2  4  2  0  0  0  0
  3  5  1  0  0  0  0
  4  6  1  0  0  0  0
  5  6  2  0  0  0  0
  6 14  1  0  0  0  0
  7 15  1  0  0  0  0
  7 17  2  0  0  0  0
  7 18  1  0  0  0  0
  8 10  1  0  0  0  0
  8 12  1  0  0  0  0
  9 11  1  0  0  0  0
  9 12  1  0  0  0  0
 10 16  1  0  0  0  0
 11 16  1  0  0  0  0
 12 18  1  0  0  0  0
 13 15  1  0  0  0  0
 14 16  1  0  0  0  0
  1 19  1  0  0  0  0
  2 20  1  0  0  0  0
  3 21  1  0  0  0  0
  4 22  1  0  0  0  0
  5 23  1  0  0  0  0
  8 24  1  0  0  0  0
  8 25  1  0  0  0  0
  9 26  1  0  0  0  0
  9 27  1  0  0  0  0
 10 28  1  0  0  0  0
 10 29  1  0  0  0  0
 11 30  1  0  0  0  0
 11 31  1  0  0  0  0
 12 32  1  0  0  0  0
 13 33  1  0  0  0  0
 13 34  1  0  0  0  0
 13 35  1  0  0  0  0
 14 36  1  0  0  0  0
 14 37  1  0  0  0  0
 15 38  1  0  0  0  0
 16 39  1  0  0  0  0
M  CHG  1  16   1
M  END
> <IC50 (uM)>

> <IC50 (uM) - std>

> <Average Inhibition @ 20 uM>

> <Average Inhibition @ 20 uM - std>

> <Average Inhibition @ 50 uM>

> <Average Inhibition @ 50 uM - std>
22.1

> <Trypsin IC50 (uM)>
0.43

> <Relative Solubility @ 20 uM>

> <Relative Solubility @ 100 uM>

> <Hybrid2>
-8.642924

> <docked_fragment>
x0678

> <Mpro-_dock>
0.322854

> <site>
active-noncovalent

$$$$
DAR-DIA-23aa0b97-8
  -OEChem-05192003313D

 30 31  0     0  0  0  0  0  0999 V2000
    6.0008   -3.4255   20.2397 C   0  0  0  0  0  0  0  0  0  0  0  0
    6.5313   -6.6131   22.0873 C   0  0  0  0  0  0  0  0  0  0  0  0
    5.9755   -5.6584   21.2358 C   0  0  0  0  0  0  0  0  0  0  0  0
    7.6823   -6.3123   22.8157 C   0  0  0  0  0  0  0  0  0  0  0  0
    7.7215   -4.1020   21.8410 C   0  0  0  0  0  0  0  0  0  0  0  0
   13.2268   -2.7429   25.3252 C   0  0  0  0  0  0  0  0  0  0  0  0
   13.2529   -0.6645   26.4812 C   0  0  0  0  0  0  0  0  0  0  0  0
   11.2377   -1.5251   25.7908 C   0  0  0  0  0  0  0  0  0  0  0  0
    6.5706   -4.4028   21.1126 C   0  0  0  0  0  0  0  0  0  0  0  0
    8.2774   -5.0568   22.6925 C   0  0  0  0  0  0  0  0  0  0  0  0
   13.9526   -1.7401   25.9584 C   0  0  0  0  0  0  0  0  0  0  0  0
   11.8431   -2.6409   25.2354 C   0  0  0  0  0  0  0  0  0  0  0  0
    9.8599   -3.4996   23.9130 C   0  0  0  0  0  0  0  0  0  0  0  0
    5.5381   -2.6317   19.5308 N   0  0  0  0  0  0  0  0  0  0  0  0
   11.9093   -0.5307   26.4135 N   0  0  0  0  0  0  0  0  0  0  0  0
   15.3511   -1.8150   26.0641 N   0  0  0  0  0  0  0  0  0  0  0  0
    9.4277   -4.7559   23.4222 N   0  0  0  0  0  0  0  0  0  0  0  0
   11.0773   -3.6451   24.5973 N   0  0  0  0  0  0  0  0  0  0  0  0
    9.2543   -2.4438   23.7591 O   0  0  0  0  0  0  0  0  0  0  0  0
    6.0674   -7.5905   22.1838 H   0  0  0  0  0  0  0  0  0  0  0  0
    5.0786   -5.9083   20.6742 H   0  0  0  0  0  0  0  0  0  0  0  0
    8.1066   -7.0642   23.4763 H   0  0  0  0  0  0  0  0  0  0  0  0
    8.1888   -3.1236   21.7470 H   0  0  0  0  0  0  0  0  0  0  0  0
   13.7408   -3.6022   24.9004 H   0  0  0  0  0  0  0  0  0  0  0  0
   13.7647    0.1480   26.9883 H   0  0  0  0  0  0  0  0  0  0  0  0
   10.1609   -1.3892   25.7529 H   0  0  0  0  0  0  0  0  0  0  0  0
   15.8296   -2.6260   25.7191 H   0  0  0  0  0  0  0  0  0  0  0  0
   15.8470   -1.1027   26.5666 H   0  0  0  0  0  0  0  0  0  0  0  0
   10.0422   -5.5500   23.6310 H   0  0  0  0  0  0  0  0  0  0  0  0
   11.4618   -4.5853   24.6431 H   0  0  0  0  0  0  0  0  0  0  0  0
  1  9  1  0  0  0  0
  1 14  3  0  0  0  0
  2  3  2  0  0  0  0
  2  4  1  0  0  0  0
  3  9  1  0  0  0  0
  4 10  2  0  0  0  0
  5  9  2  0  0  0  0
  5 10  1  0  0  0  0
  6 11  1  0  0  0  0
  6 12  2  0  0  0  0
  7 11  2  0  0  0  0
  7 15  1  0  0  0  0
  8 12  1  0  0  0  0
  8 15  2  0  0  0  0
 10 17  1  0  0  0  0
 11 16  1  0  0  0  0
 12 18  1  0  0  0  0
 13 17  1  0  0  0  0
 13 18  1  0  0  0  0
 13 19  2  0  0  0  0
  2 20  1  0  0  0  0
  3 21  1  0  0  0  0
  4 22  1  0  0  0  0
  5 23  1  0  0  0  0
  6 24  1  0  0  0  0
  7 25  1  0  0  0  0
  8 26  1  0  0  0  0
 16 27  1  0  0  0  0
 16 28  1  0  0  0  0
 17 29  1  0  0  0  0
 18 30  1  0  0  0  0
M  END
> <IC50 (uM)>

> <IC50 (uM) - std>

> <Average Inhibition @ 20 uM>

> <Average Inhibition @ 20 uM - std>

> <Average Inhibition @ 50 uM>

> <Average Inhibition @ 50 uM - std>
59.9

> <Trypsin IC50 (uM)>
6.01

> <Relative Solubility @ 20 uM>

> <Relative Solubility @ 100 uM>

> <Hybrid2>
-8.612061

> <docked_fragment>
x0749

> <Mpro-_dock>
2.455765

> <site>
active-covalent

$$$$
VIJ-CYC-1a381570-5
  -OEChem-05192003313D

 38 39  0     1  0  0  0  0  0999 V2000
   11.9422    1.5429   23.5106 C   0  0  0  0  0  0  0  0  0  0  0  0
   13.8169    1.9695   22.0474 C   0  0  0  0  0  0  0  0  0  0  0  0
   11.6336    2.9032   23.5118 C   0  0  0  0  0  0  0  0  0  0  0  0
   13.5082    3.3298   22.0485 C   0  0  0  0  0  0  0  0  0  0  0  0
   13.0339    1.0761   22.7784 C   0  0  0  0  0  0  0  0  0  0  0  0
   12.4165    3.7966   22.7807 C   0  0  0  0  0  0  0  0  0  0  0  0
    8.9921   -2.4962   23.2423 C   0  0  0  0  0  0  0  0  0  0  0  0
    8.3232   -2.9456   24.2817 C   0  0  0  0  0  0  0  0  0  0  0  0
   11.2745   -1.6507   23.2187 C   0  0  0  0  0  0  0  0  0  0  0  0
    8.9351   -1.7436   22.0532 C   0  0  0  0  0  0  0  0  0  0  0  0
   10.2130   -2.4690   22.5614 C   0  0  2  0  0  0  0  0  0  0  0  0
   14.6019   -0.7182   21.9333 C   0  0  0  0  0  0  0  0  0  0  0  0
   12.3897    5.9660   25.4703 C   0  0  0  0  0  0  0  0  0  0  0  0
   13.3647   -0.3782   22.7776 C   0  0  2  0  0  0  0  0  0  0  0  0
   12.2409   -1.1940   22.3496 N   0  0  0  0  0  0  0  0  0  0  0  0
   12.9318    6.0827   24.1090 N   0  0  0  0  0  0  0  0  0  0  0  0
   11.2200   -1.4473   24.4259 O   0  0  0  0  0  0  0  0  0  0  0  0
   12.5543    6.0993   21.5607 O   0  0  0  0  0  0  0  0  0  0  0  0
   10.6110    5.6323   23.0871 O   0  0  0  0  0  0  0  0  0  0  0  0
   12.0290    5.4989   22.7803 S   0  0  0  0  0  0  0  0  0  0  0  0
   11.3268    0.8543   24.0833 H   0  0  0  0  0  0  0  0  0  0  0  0
   14.6695    1.6149   21.4744 H   0  0  0  0  0  0  0  0  0  0  0  0
   10.7812    3.2564   24.0860 H   0  0  0  0  0  0  0  0  0  0  0  0
   14.1251    4.0172   21.4758 H   0  0  0  0  0  0  0  0  0  0  0  0
    8.8022   -3.5599   25.0497 H   0  0  0  0  0  0  0  0  0  0  0  0
    7.2610   -2.7234   24.4199 H   0  0  0  0  0  0  0  0  0  0  0  0
    8.4216   -2.1877   21.2120 H   0  0  0  0  0  0  0  0  0  0  0  0
    8.8562   -0.6700   22.1513 H   0  0  0  0  0  0  0  0  0  0  0  0
   10.5504   -3.3556   22.0690 H   0  0  0  0  0  0  0  0  0  0  0  0
   14.4595   -0.4029   20.8939 H   0  0  0  0  0  0  0  0  0  0  0  0
   15.4968   -0.2179   22.3202 H   0  0  0  0  0  0  0  0  0  0  0  0
   14.8089   -1.7943   21.9347 H   0  0  0  0  0  0  0  0  0  0  0  0
   11.6890    5.1192   25.5152 H   0  0  0  0  0  0  0  0  0  0  0  0
   13.2134    5.7981   26.1797 H   0  0  0  0  0  0  0  0  0  0  0  0
   11.8610    6.8936   25.7351 H   0  0  0  0  0  0  0  0  0  0  0  0
   13.5776   -0.7217   23.8053 H   0  0  0  0  0  0  0  0  0  0  0  0
   12.1648   -1.4373   21.3702 H   0  0  0  0  0  0  0  0  0  0  0  0
   13.6012    6.8465   23.9545 H   0  0  0  0  0  0  0  0  0  0  0  0
  1  3  2  0  0  0  0
  1  5  1  0  0  0  0
  2  4  1  0  0  0  0
  2  5  2  0  0  0  0
  3  6  1  0  0  0  0
  4  6  2  0  0  0  0
  5 14  1  0  0  0  0
  6 20  1  0  0  0  0
  7  8  2  0  0  0  0
  7 10  1  0  0  0  0
  7 11  1  0  0  0  0
  9 11  1  0  0  0  0
  9 15  1  0  0  0  0
  9 17  2  0  0  0  0
 10 11  1  0  0  0  0
 12 14  1  0  0  0  0
 13 16  1  0  0  0  0
 14 15  1  0  0  0  0
 16 20  1  0  0  0  0
 18 20  2  0  0  0  0
 19 20  2  0  0  0  0
  1 21  1  0  0  0  0
  2 22  1  0  0  0  0
  3 23  1  0  0  0  0
  4 24  1  0  0  0  0
  8 25  1  0  0  0  0
  8 26  1  0  0  0  0
 10 27  1  0  0  0  0
 10 28  1  0  0  0  0
 11 29  1  0  0  0  0
 12 30  1  0  0  0  0
 12 31  1  0  0  0  0
 12 32  1  0  0  0  0
 13 33  1  0  0  0  0
 13 34  1  0  0  0  0
 13 35  1  0  0  0  0
 14 36  1  0  0  0  0
 15 37  1  0  0  0  0
 16 38  1  0  0  0  0
M  END
> <IC50 (uM)>

> <IC50 (uM) - std>

> <Average Inhibition @ 20 uM>

> <Average Inhibition @ 20 uM - std>
-2.67

> <Average Inhibition @ 50 uM>
0.373

> <Average Inhibition @ 50 uM - std>
-0.972

> <Trypsin IC50 (uM)>
0.0824

> <Relative Solubility @ 20 uM>
1.0

> <Relative Solubility @ 100 uM>
1.0

> <Hybrid2>
-8.562788

> <docked_fragment>
x0195

> <Mpro-_dock>
0.366719

> <site>
active-noncovalent

$$$$
MAT-POS-916a2c5a-2
  -OEChem-05192003313D

 43 45  0     0  0  0  0  0  0999 V2000
    3.1907    2.7862   21.9416 C   0  0  0  0  0  0  0  0  0  0  0  0
    2.5835    3.1015   20.7285 C   0  0  0  0  0  0  0  0  0  0  0  0
   13.8135   -0.5300   23.0730 C   0  0  0  0  0  0  0  0  0  0  0  0
   13.2310   -1.7547   22.7469 C   0  0  0  0  0  0  0  0  0  0  0  0
    4.3465    1.9996   21.9693 C   0  0  0  0  0  0  0  0  0  0  0  0
    3.1299    2.6317   19.5377 C   0  0  0  0  0  0  0  0  0  0  0  0
   13.0216    0.6139   23.1746 C   0  0  0  0  0  0  0  0  0  0  0  0
   11.8567   -1.8355   22.5223 C   0  0  0  0  0  0  0  0  0  0  0  0
    4.9111    1.5167   20.7814 C   0  0  0  0  0  0  0  0  0  0  0  0
    4.2857    1.8449   19.5680 C   0  0  0  0  0  0  0  0  0  0  0  0
   11.6474    0.5331   22.9500 C   0  0  0  0  0  0  0  0  0  0  0  0
   11.0649   -0.6917   22.6238 C   0  0  0  0  0  0  0  0  0  0  0  0
    6.6124    0.2540   19.5648 C   0  0  0  0  0  0  0  0  0  0  0  0
    6.1233    0.6843   20.7375 C   0  0  0  0  0  0  0  0  0  0  0  0
    5.9549    0.5977   18.2755 C   0  0  0  0  0  0  0  0  0  0  0  0
    6.8881    0.2557   21.9166 C   0  0  0  0  0  0  0  0  0  0  0  0
   10.7111    2.4313   21.8657 C   0  0  0  0  0  0  0  0  0  0  0  0
    7.6548   -1.7782   23.1213 C   0  0  0  0  0  0  0  0  0  0  0  0
    9.0971   -2.0239   22.7175 C   0  0  0  0  0  0  0  0  0  0  0  0
    4.8228    1.3787   18.3552 N   0  0  0  0  0  0  0  0  0  0  0  0
    6.9546   -1.1196   22.0420 N   0  0  0  0  0  0  0  0  0  0  0  0
    6.4265    0.1864   17.2174 O   0  0  0  0  0  0  0  0  0  0  0  0
    7.3938    1.0810   22.6735 O   0  0  0  0  0  0  0  0  0  0  0  0
   10.8851    1.6576   23.0511 O   0  0  0  0  0  0  0  0  0  0  0  0
    9.7162   -0.7839   22.3996 O   0  0  0  0  0  0  0  0  0  0  0  0
    2.7645    3.1529   22.8712 H   0  0  0  0  0  0  0  0  0  0  0  0
    1.6860    3.7127   20.7117 H   0  0  0  0  0  0  0  0  0  0  0  0
   14.8837   -0.4670   23.2482 H   0  0  0  0  0  0  0  0  0  0  0  0
   13.8474   -2.6451   22.6678 H   0  0  0  0  0  0  0  0  0  0  0  0
    4.7847    1.7797   22.9382 H   0  0  0  0  0  0  0  0  0  0  0  0
    2.6510    2.8826   18.5949 H   0  0  0  0  0  0  0  0  0  0  0  0
   13.4816    1.5650   23.4292 H   0  0  0  0  0  0  0  0  0  0  0  0
   11.4096   -2.7924   22.2670 H   0  0  0  0  0  0  0  0  0  0  0  0
    7.5042   -0.3614   19.4936 H   0  0  0  0  0  0  0  0  0  0  0  0
   10.0837    3.2988   22.0848 H   0  0  0  0  0  0  0  0  0  0  0  0
   10.2435    1.8158   21.0931 H   0  0  0  0  0  0  0  0  0  0  0  0
   11.6890    2.7708   21.5160 H   0  0  0  0  0  0  0  0  0  0  0  0
    7.1388   -2.7181   23.3417 H   0  0  0  0  0  0  0  0  0  0  0  0
    7.6109   -1.1304   24.0019 H   0  0  0  0  0  0  0  0  0  0  0  0
    9.1339   -2.6581   21.8263 H   0  0  0  0  0  0  0  0  0  0  0  0
    9.6639   -2.5046   23.5214 H   0  0  0  0  0  0  0  0  0  0  0  0
    4.3464    1.6318   17.4941 H   0  0  0  0  0  0  0  0  0  0  0  0
    6.4902   -1.6932   21.3437 H   0  0  0  0  0  0  0  0  0  0  0  0
  1  2  1  0  0  0  0
  1  5  2  0  0  0  0
  2  6  2  0  0  0  0
  3  4  1  0  0  0  0
  3  7  2  0  0  0  0
  4  8  2  0  0  0  0
  5  9  1  0  0  0  0
  6 10  1  0  0  0  0
  7 11  1  0  0  0  0
  8 12  1  0  0  0  0
  9 10  2  0  0  0  0
  9 14  1  0  0  0  0
 10 20  1  0  0  0  0
 11 12  2  0  0  0  0
 11 24  1  0  0  0  0
 12 25  1  0  0  0  0
 13 14  2  0  0  0  0
 13 15  1  0  0  0  0
 14 16  1  0  0  0  0
 15 20  1  0  0  0  0
 15 22  2  0  0  0  0
 16 21  1  0  0  0  0
 16 23  2  0  0  0  0
 17 24  1  0  0  0  0
 18 19  1  0  0  0  0
 18 21  1  0  0  0  0
 19 25  1  0  0  0  0
  1 26  1  0  0  0  0
  2 27  1  0  0  0  0
  3 28  1  0  0  0  0
  4 29  1  0  0  0  0
  5 30  1  0  0  0  0
  6 31  1  0  0  0  0
  7 32  1  0  0  0  0
  8 33  1  0  0  0  0
 13 34  1  0  0  0  0
 17 35  1  0  0  0  0
 17 36  1  0  0  0  0
 17 37  1  0  0  0  0
 18 38  1  0  0  0  0
 18 39  1  0  0  0  0
 19 40  1  0  0  0  0
 19 41  1  0  0  0  0
 20 42  1  0  0  0  0
 21 43  1  0  0  0  0
M  END
> <IC50 (uM)>
7.02

> <IC50 (uM) - std>
0.47

> <Average Inhibition @ 20 uM>
> 99.0

> <Average Inhibition @ 20 uM - std>
83.7

> <Average Inhibition @ 50 uM>
0.902

> <Average Inhibition @ 50 uM - std>
92.7

> <Trypsin IC50 (uM)>
0.173

> <Relative Solubility @ 20 uM>
0.99

> <Relative Solubility @ 100 uM>
0.96

> <Hybrid2>
-8.549057

> <docked_fragment>
x1093

> <Mpro-_dock>
1.915458

> <site>
active-noncovalent

$$$$
AAR-POS-0daf6b7e-17
  -OEChem-05192003313D

 32 33  0     0  0  0  0  0  0999 V2000
   12.4090    0.6403   23.5940 C   0  0  0  0  0  0  0  0  0  0  0  0
   11.1063    0.0841   23.7478 C   0  0  0  0  0  0  0  0  0  0  0  0
   13.2708   -0.2277   22.9603 C   0  0  0  0  0  0  0  0  0  0  0  0
   11.0219   -1.1880   23.2255 C   0  0  0  0  0  0  0  0  0  0  0  0
    6.3034   -1.2962   18.9959 C   0  0  0  0  0  0  0  0  0  0  0  0
    6.4704   -1.9293   21.3818 C   0  0  0  0  0  0  0  0  0  0  0  0
    7.9028   -0.0966   20.5678 C   0  0  0  0  0  0  0  0  0  0  0  0
    7.6647   -2.5924   22.0524 C   0  0  0  0  0  0  0  0  0  0  0  0
    9.1191   -0.7315   21.2283 C   0  0  0  0  0  0  0  0  0  0  0  0
    9.8348   -2.1046   23.1873 C   0  0  0  0  0  0  0  0  0  0  0  0
    6.2243   -0.0859   18.1002 C   0  0  0  0  0  0  0  0  0  0  0  0
    6.8932   -1.1107   20.2455 N   0  0  0  0  0  0  0  0  0  0  0  0
    8.6699   -1.5283   22.4327 N   0  3  0  0  0  0  0  0  0  0  0  0
    5.8564   -2.3737   18.5944 O   0  0  0  0  0  0  0  0  0  0  0  0
   12.5092   -1.7065   22.5535 S   0  0  0  0  0  0  0  0  0  0  0  0
    5.2401    1.1033   18.9459 Cl  0  0  0  0  0  0  0  0  0  0  0  0
   12.6998    1.6270   23.9301 H   0  0  0  0  0  0  0  0  0  0  0  0
   10.2757    0.5959   24.2173 H   0  0  0  0  0  0  0  0  0  0  0  0
   14.3111   -0.0643   22.7171 H   0  0  0  0  0  0  0  0  0  0  0  0
    5.7574   -2.6965   21.0638 H   0  0  0  0  0  0  0  0  0  0  0  0
    5.9464   -1.2708   22.0852 H   0  0  0  0  0  0  0  0  0  0  0  0
    7.4317    0.6280   21.2430 H   0  0  0  0  0  0  0  0  0  0  0  0
    8.2240    0.4543   19.6822 H   0  0  0  0  0  0  0  0  0  0  0  0
    7.3591   -3.0972   22.9746 H   0  0  0  0  0  0  0  0  0  0  0  0
    8.1648   -3.3065   21.3886 H   0  0  0  0  0  0  0  0  0  0  0  0
    9.6449   -1.4133   20.5505 H   0  0  0  0  0  0  0  0  0  0  0  0
    9.8099    0.0387   21.5861 H   0  0  0  0  0  0  0  0  0  0  0  0
   10.0839   -3.0551   22.7033 H   0  0  0  0  0  0  0  0  0  0  0  0
    9.4754   -2.3287   24.1974 H   0  0  0  0  0  0  0  0  0  0  0  0
    5.7476   -0.3686   17.1685 H   0  0  0  0  0  0  0  0  0  0  0  0
    7.2245    0.3018   17.9441 H   0  0  0  0  0  0  0  0  0  0  0  0
    8.1994   -0.8755   23.0746 H   0  0  0  0  0  0  0  0  0  0  0  0
  1  2  1  0  0  0  0
  1  3  2  0  0  0  0
  2  4  2  0  0  0  0
  3 15  1  0  0  0  0
  4 10  1  0  0  0  0
  4 15  1  0  0  0  0
  5 11  1  0  0  0  0
  5 12  1  0  0  0  0
  5 14  2  0  0  0  0
  6  8  1  0  0  0  0
  6 12  1  0  0  0  0
  7  9  1  0  0  0  0
  7 12  1  0  0  0  0
  8 13  1  0  0  0  0
  9 13  1  0  0  0  0
 10 13  1  0  0  0  0
 11 16  1  0  0  0  0
  1 17  1  0  0  0  0
  2 18  1  0  0  0  0
  3 19  1  0  0  0  0
  6 20  1  0  0  0  0
  6 21  1  0  0  0  0
  7 22  1  0  0  0  0
  7 23  1  0  0  0  0
  8 24  1  0  0  0  0
  8 25  1  0  0  0  0
  9 26  1  0  0  0  0
  9 27  1  0  0  0  0
 10 28  1  0  0  0  0
 10 29  1  0  0  0  0
 11 30  1  0  0  0  0
 11 31  1  0  0  0  0
 13 32  1  0  0  0  0
M  CHG  1  13   1
M  END
> <IC50 (uM)>
5.66

> <IC50 (uM) - std>
0.395

> <Average Inhibition @ 20 uM>
> 99.0

> <Average Inhibition @ 20 uM - std>

> <Average Inhibition @ 50 uM>

> <Average Inhibition @ 50 uM - std>

> <Trypsin IC50 (uM)>

> <Relative Solubility @ 20 uM>
1.0

> <Relative Solubility @ 100 uM>
1.0

> <Hybrid2>
-8.544258

> <docked_fragment>
x0831

> <Mpro-_dock>
-1.384621

> <site>
active-covalent

$$$$
LON-WEI-8f408cad-5
  -OEChem-05192003313D

 32 33  0     0  0  0  0  0  0999 V2000
   12.4090    0.6403   23.5940 C   0  0  0  0  0  0  0  0  0  0  0  0
   11.1063    0.0841   23.7478 C   0  0  0  0  0  0  0  0  0  0  0  0
   13.2708   -0.2277   22.9603 C   0  0  0  0  0  0  0  0  0  0  0  0
   11.0219   -1.1880   23.2255 C   0  0  0  0  0  0  0  0  0  0  0  0
    6.3034   -1.2962   18.9959 C   0  0  0  0  0  0  0  0  0  0  0  0
    6.4704   -1.9293   21.3818 C   0  0  0  0  0  0  0  0  0  0  0  0
    7.9028   -0.0966   20.5678 C   0  0  0  0  0  0  0  0  0  0  0  0
    7.6647   -2.5924   22.0524 C   0  0  0  0  0  0  0  0  0  0  0  0
    9.1191   -0.7315   21.2283 C   0  0  0  0  0  0  0  0  0  0  0  0
    9.8348   -2.1046   23.1873 C   0  0  0  0  0  0  0  0  0  0  0  0
    6.2243   -0.0859   18.1002 C   0  0  0  0  0  0  0  0  0  0  0  0
    6.8932   -1.1107   20.2455 N   0  0  0  0  0  0  0  0  0  0  0  0
    8.6699   -1.5283   22.4327 N   0  3  0  0  0  0  0  0  0  0  0  0
    5.8564   -2.3737   18.5944 O   0  0  0  0  0  0  0  0  0  0  0  0
   12.5092   -1.7065   22.5535 S   0  0  0  0  0  0  0  0  0  0  0  0
    5.2401    1.1033   18.9459 Cl  0  0  0  0  0  0  0  0  0  0  0  0
   12.6998    1.6270   23.9301 H   0  0  0  0  0  0  0  0  0  0  0  0
   10.2757    0.5959   24.2173 H   0  0  0  0  0  0  0  0  0  0  0  0
   14.3111   -0.0643   22.7171 H   0  0  0  0  0  0  0  0  0  0  0  0
    5.7574   -2.6965   21.0638 H   0  0  0  0  0  0  0  0  0  0  0  0
    5.9464   -1.2708   22.0852 H   0  0  0  0  0  0  0  0  0  0  0  0
    7.4317    0.6280   21.2430 H   0  0  0  0  0  0  0  0  0  0  0  0
    8.2240    0.4543   19.6822 H   0  0  0  0  0  0  0  0  0  0  0  0
    7.3591   -3.0972   22.9746 H   0  0  0  0  0  0  0  0  0  0  0  0
    8.1648   -3.3065   21.3886 H   0  0  0  0  0  0  0  0  0  0  0  0
    9.6449   -1.4133   20.5505 H   0  0  0  0  0  0  0  0  0  0  0  0
    9.8099    0.0387   21.5861 H   0  0  0  0  0  0  0  0  0  0  0  0
   10.0839   -3.0551   22.7033 H   0  0  0  0  0  0  0  0  0  0  0  0
    9.4754   -2.3287   24.1974 H   0  0  0  0  0  0  0  0  0  0  0  0
    5.7476   -0.3686   17.1685 H   0  0  0  0  0  0  0  0  0  0  0  0
    7.2245    0.3018   17.9441 H   0  0  0  0  0  0  0  0  0  0  0  0
    8.1994   -0.8755   23.0746 H   0  0  0  0  0  0  0  0  0  0  0  0
  1  2  1  0  0  0  0
  1  3  2  0  0  0  0
  2  4  2  0  0  0  0
  3 15  1  0  0  0  0
  4 10  1  0  0  0  0
  4 15  1  0  0  0  0
  5 11  1  0  0  0  0
  5 12  1  0  0  0  0
  5 14  2  0  0  0  0
  6  8  1  0  0  0  0
  6 12  1  0  0  0  0
  7  9  1  0  0  0  0
  7 12  1  0  0  0  0
  8 13  1  0  0  0  0
  9 13  1  0  0  0  0
 10 13  1  0  0  0  0
 11 16  1  0  0  0  0
  1 17  1  0  0  0  0
  2 18  1  0  0  0  0
  3 19  1  0  0  0  0
  6 20  1  0  0  0  0
  6 21  1  0  0  0  0
  7 22  1  0  0  0  0
  7 23  1  0  0  0  0
  8 24  1  0  0  0  0
  8 25  1  0  0  0  0
  9 26  1  0  0  0  0
  9 27  1  0  0  0  0
 10 28  1  0  0  0  0
 10 29  1  0  0  0  0
 11 30  1  0  0  0  0
 11 31  1  0  0  0  0
 13 32  1  0  0  0  0
M  CHG  1  13   1
M  END
> <IC50 (uM)>
5.66

> <IC50 (uM) - std>
0.395

> <Average Inhibition @ 20 uM>
> 99.0

> <Average Inhibition @ 20 uM - std>

> <Average Inhibition @ 50 uM>

> <Average Inhibition @ 50 uM - std>

> <Trypsin IC50 (uM)>

> <Relative Solubility @ 20 uM>
1.0

> <Relative Solubility @ 100 uM>
1.0

> <Hybrid2>
-8.544258

> <docked_fragment>
x0831

> <Mpro-_dock>
-1.384621

> <site>
active-covalent

$$$$
AAR-POS-0daf6b7e-13
  -OEChem-05192003313D

 32 33  0     0  0  0  0  0  0999 V2000
   11.9015   -1.6577   22.5205 C   0  0  0  0  0  0  0  0  0  0  0  0
   12.8129   -0.6386   22.6889 C   0  0  0  0  0  0  0  0  0  0  0  0
   10.6039   -0.0631   23.6048 C   0  0  0  0  0  0  0  0  0  0  0  0
   10.6218   -1.3244   23.0509 C   0  0  0  0  0  0  0  0  0  0  0  0
    5.9006   -1.4215   18.8241 C   0  0  0  0  0  0  0  0  0  0  0  0
    6.0693   -2.0615   21.2080 C   0  0  0  0  0  0  0  0  0  0  0  0
    7.5007   -0.2261   20.3984 C   0  0  0  0  0  0  0  0  0  0  0  0
    7.2641   -2.7262   21.8759 C   0  0  0  0  0  0  0  0  0  0  0  0
    8.7176   -0.8626   21.0562 C   0  0  0  0  0  0  0  0  0  0  0  0
    9.4348   -2.2412   23.0108 C   0  0  0  0  0  0  0  0  0  0  0  0
    5.8206   -0.2086   17.9319 C   0  0  0  0  0  0  0  0  0  0  0  0
    6.4911   -1.2395   20.0738 N   0  0  0  0  0  0  0  0  0  0  0  0
    8.2693   -1.6631   22.2586 N   0  3  0  0  0  0  0  0  0  0  0  0
    5.4535   -2.4979   18.4197 O   0  0  0  0  0  0  0  0  0  0  0  0
   12.1253    0.7133   23.4838 S   0  0  0  0  0  0  0  0  0  0  0  0
    4.8367    0.9779   18.7817 Cl  0  0  0  0  0  0  0  0  0  0  0  0
   12.1457   -2.5964   22.0394 H   0  0  0  0  0  0  0  0  0  0  0  0
   13.8497   -0.6234   22.3838 H   0  0  0  0  0  0  0  0  0  0  0  0
    9.7729    0.4427   24.0766 H   0  0  0  0  0  0  0  0  0  0  0  0
    5.3563   -2.8279   20.8882 H   0  0  0  0  0  0  0  0  0  0  0  0
    5.5456   -1.4052   21.9136 H   0  0  0  0  0  0  0  0  0  0  0  0
    7.0299    0.4965   21.0760 H   0  0  0  0  0  0  0  0  0  0  0  0
    7.8212    0.3275   19.5142 H   0  0  0  0  0  0  0  0  0  0  0  0
    6.9593   -3.2338   22.7968 H   0  0  0  0  0  0  0  0  0  0  0  0
    7.7640   -3.4383   21.2096 H   0  0  0  0  0  0  0  0  0  0  0  0
    9.2431   -1.5423   20.3762 H   0  0  0  0  0  0  0  0  0  0  0  0
    9.4084   -0.0932   21.4159 H   0  0  0  0  0  0  0  0  0  0  0  0
    9.6839   -3.1902   22.5239 H   0  0  0  0  0  0  0  0  0  0  0  0
    9.0762   -2.4683   24.0205 H   0  0  0  0  0  0  0  0  0  0  0  0
    5.3434   -0.4887   16.9997 H   0  0  0  0  0  0  0  0  0  0  0  0
    6.8206    0.1797   17.7763 H   0  0  0  0  0  0  0  0  0  0  0  0
    7.7991   -1.0121   22.9027 H   0  0  0  0  0  0  0  0  0  0  0  0
  1  2  2  0  0  0  0
  1  4  1  0  0  0  0
  2 15  1  0  0  0  0
  3  4  2  0  0  0  0
  3 15  1  0  0  0  0
  4 10  1  0  0  0  0
  5 11  1  0  0  0  0
  5 12  1  0  0  0  0
  5 14  2  0  0  0  0
  6  8  1  0  0  0  0
  6 12  1  0  0  0  0
  7  9  1  0  0  0  0
  7 12  1  0  0  0  0
  8 13  1  0  0  0  0
  9 13  1  0  0  0  0
 10 13  1  0  0  0  0
 11 16  1  0  0  0  0
  1 17  1  0  0  0  0
  2 18  1  0  0  0  0
  3 19  1  0  0  0  0
  6 20  1  0  0  0  0
  6 21  1  0  0  0  0
  7 22  1  0  0  0  0
  7 23  1  0  0  0  0
  8 24  1  0  0  0  0
  8 25  1  0  0  0  0
  9 26  1  0  0  0  0
  9 27  1  0  0  0  0
 10 28  1  0  0  0  0
 10 29  1  0  0  0  0
 11 30  1  0  0  0  0
 11 31  1  0  0  0  0
 13 32  1  0  0  0  0
M  CHG  1  13   1
M  END
> <IC50 (uM)>
3.27

> <IC50 (uM) - std>
0.19

> <Average Inhibition @ 20 uM>
> 99.0

> <Average Inhibition @ 20 uM - std>

> <Average Inhibition @ 50 uM>

> <Average Inhibition @ 50 uM - std>

> <Trypsin IC50 (uM)>

> <Relative Solubility @ 20 uM>
1.0

> <Relative Solubility @ 100 uM>
0.99

> <Hybrid2>
-8.542832

> <docked_fragment>
x0831

> <Mpro-_dock>
-1.102679

> <site>
active-covalent

$$$$
LON-WEI-8f408cad-7
  -OEChem-05192003313D

 32 33  0     0  0  0  0  0  0999 V2000
   11.9015   -1.6577   22.5205 C   0  0  0  0  0  0  0  0  0  0  0  0
   12.8129   -0.6386   22.6889 C   0  0  0  0  0  0  0  0  0  0  0  0
   10.6039   -0.0631   23.6048 C   0  0  0  0  0  0  0  0  0  0  0  0
   10.6218   -1.3244   23.0509 C   0  0  0  0  0  0  0  0  0  0  0  0
    5.9006   -1.4215   18.8241 C   0  0  0  0  0  0  0  0  0  0  0  0
    6.0693   -2.0615   21.2080 C   0  0  0  0  0  0  0  0  0  0  0  0
    7.5007   -0.2261   20.3984 C   0  0  0  0  0  0  0  0  0  0  0  0
    7.2641   -2.7262   21.8759 C   0  0  0  0  0  0  0  0  0  0  0  0
    8.7176   -0.8626   21.0562 C   0  0  0  0  0  0  0  0  0  0  0  0
    9.4348   -2.2412   23.0108 C   0  0  0  0  0  0  0  0  0  0  0  0
    5.8206   -0.2086   17.9319 C   0  0  0  0  0  0  0  0  0  0  0  0
    6.4911   -1.2395   20.0738 N   0  0  0  0  0  0  0  0  0  0  0  0
    8.2693   -1.6631   22.2586 N   0  3  0  0  0  0  0  0  0  0  0  0
    5.4535   -2.4979   18.4197 O   0  0  0  0  0  0  0  0  0  0  0  0
   12.1253    0.7133   23.4838 S   0  0  0  0  0  0  0  0  0  0  0  0
    4.8367    0.9779   18.7817 Cl  0  0  0  0  0  0  0  0  0  0  0  0
   12.1457   -2.5964   22.0394 H   0  0  0  0  0  0  0  0  0  0  0  0
   13.8497   -0.6234   22.3838 H   0  0  0  0  0  0  0  0  0  0  0  0
    9.7729    0.4427   24.0766 H   0  0  0  0  0  0  0  0  0  0  0  0
    5.3563   -2.8279   20.8882 H   0  0  0  0  0  0  0  0  0  0  0  0
    5.5456   -1.4052   21.9136 H   0  0  0  0  0  0  0  0  0  0  0  0
    7.0299    0.4965   21.0760 H   0  0  0  0  0  0  0  0  0  0  0  0
    7.8212    0.3275   19.5142 H   0  0  0  0  0  0  0  0  0  0  0  0
    6.9593   -3.2338   22.7968 H   0  0  0  0  0  0  0  0  0  0  0  0
    7.7640   -3.4383   21.2096 H   0  0  0  0  0  0  0  0  0  0  0  0
    9.2431   -1.5423   20.3762 H   0  0  0  0  0  0  0  0  0  0  0  0
    9.4084   -0.0932   21.4159 H   0  0  0  0  0  0  0  0  0  0  0  0
    9.6839   -3.1902   22.5239 H   0  0  0  0  0  0  0  0  0  0  0  0
    9.0762   -2.4683   24.0205 H   0  0  0  0  0  0  0  0  0  0  0  0
    5.3434   -0.4887   16.9997 H   0  0  0  0  0  0  0  0  0  0  0  0
    6.8206    0.1797   17.7763 H   0  0  0  0  0  0  0  0  0  0  0  0
    7.7991   -1.0121   22.9027 H   0  0  0  0  0  0  0  0  0  0  0  0
  1  2  2  0  0  0  0
  1  4  1  0  0  0  0
  2 15  1  0  0  0  0
  3  4  2  0  0  0  0
  3 15  1  0  0  0  0
  4 10  1  0  0  0  0
  5 11  1  0  0  0  0
  5 12  1  0  0  0  0
  5 14  2  0  0  0  0
  6  8  1  0  0  0  0
  6 12  1  0  0  0  0
  7  9  1  0  0  0  0
  7 12  1  0  0  0  0
  8 13  1  0  0  0  0
  9 13  1  0  0  0  0
 10 13  1  0  0  0  0
 11 16  1  0  0  0  0
  1 17  1  0  0  0  0
  2 18  1  0  0  0  0
  3 19  1  0  0  0  0
  6 20  1  0  0  0  0
  6 21  1  0  0  0  0
  7 22  1  0  0  0  0
  7 23  1  0  0  0  0
  8 24  1  0  0  0  0
  8 25  1  0  0  0  0
  9 26  1  0  0  0  0
  9 27  1  0  0  0  0
 10 28  1  0  0  0  0
 10 29  1  0  0  0  0
 11 30  1  0  0  0  0
 11 31  1  0  0  0  0
 13 32  1  0  0  0  0
M  CHG  1  13   1
M  END
> <IC50 (uM)>
3.27

> <IC50 (uM) - std>
0.19

> <Average Inhibition @ 20 uM>
> 99.0

> <Average Inhibition @ 20 uM - std>

> <Average Inhibition @ 50 uM>

> <Average Inhibition @ 50 uM - std>

> <Trypsin IC50 (uM)>

> <Relative Solubility @ 20 uM>
1.0

> <Relative Solubility @ 100 uM>
0.99

> <Hybrid2>
-8.542832

> <docked_fragment>
x0831

> <Mpro-_dock>
-1.102679

> <site>
active-covalent

$$$$
MAK-UNK-212f693e-8
  -OEChem-05192003313D

 32 33  0     0  0  0  0  0  0999 V2000
   11.9015   -1.6577   22.5205 C   0  0  0  0  0  0  0  0  0  0  0  0
   12.8129   -0.6386   22.6889 C   0  0  0  0  0  0  0  0  0  0  0  0
   10.6039   -0.0631   23.6048 C   0  0  0  0  0  0  0  0  0  0  0  0
   10.6218   -1.3244   23.0509 C   0  0  0  0  0  0  0  0  0  0  0  0
    5.9006   -1.4215   18.8241 C   0  0  0  0  0  0  0  0  0  0  0  0
    6.0693   -2.0615   21.2080 C   0  0  0  0  0  0  0  0  0  0  0  0
    7.5007   -0.2261   20.3984 C   0  0  0  0  0  0  0  0  0  0  0  0
    7.2641   -2.7262   21.8759 C   0  0  0  0  0  0  0  0  0  0  0  0
    8.7176   -0.8626   21.0562 C   0  0  0  0  0  0  0  0  0  0  0  0
    9.4348   -2.2412   23.0108 C   0  0  0  0  0  0  0  0  0  0  0  0
    5.8206   -0.2086   17.9319 C   0  0  0  0  0  0  0  0  0  0  0  0
    6.4911   -1.2395   20.0738 N   0  0  0  0  0  0  0  0  0  0  0  0
    8.2693   -1.6631   22.2586 N   0  3  0  0  0  0  0  0  0  0  0  0
    5.4535   -2.4979   18.4197 O   0  0  0  0  0  0  0  0  0  0  0  0
   12.1253    0.7133   23.4838 S   0  0  0  0  0  0  0  0  0  0  0  0
    4.8367    0.9779   18.7817 Cl  0  0  0  0  0  0  0  0  0  0  0  0
   12.1457   -2.5964   22.0394 H   0  0  0  0  0  0  0  0  0  0  0  0
   13.8497   -0.6234   22.3838 H   0  0  0  0  0  0  0  0  0  0  0  0
    9.7729    0.4427   24.0766 H   0  0  0  0  0  0  0  0  0  0  0  0
    5.3563   -2.8279   20.8882 H   0  0  0  0  0  0  0  0  0  0  0  0
    5.5456   -1.4052   21.9136 H   0  0  0  0  0  0  0  0  0  0  0  0
    7.0299    0.4965   21.0760 H   0  0  0  0  0  0  0  0  0  0  0  0
    7.8212    0.3275   19.5142 H   0  0  0  0  0  0  0  0  0  0  0  0
    6.9593   -3.2338   22.7968 H   0  0  0  0  0  0  0  0  0  0  0  0
    7.7640   -3.4383   21.2096 H   0  0  0  0  0  0  0  0  0  0  0  0
    9.2431   -1.5423   20.3762 H   0  0  0  0  0  0  0  0  0  0  0  0
    9.4084   -0.0932   21.4159 H   0  0  0  0  0  0  0  0  0  0  0  0
    9.6839   -3.1902   22.5239 H   0  0  0  0  0  0  0  0  0  0  0  0
    9.0762   -2.4683   24.0205 H   0  0  0  0  0  0  0  0  0  0  0  0
    5.3434   -0.4887   16.9997 H   0  0  0  0  0  0  0  0  0  0  0  0
    6.8206    0.1797   17.7763 H   0  0  0  0  0  0  0  0  0  0  0  0
    7.7991   -1.0121   22.9027 H   0  0  0  0  0  0  0  0  0  0  0  0
  1  2  2  0  0  0  0
  1  4  1  0  0  0  0
  2 15  1  0  0  0  0
  3  4  2  0  0  0  0
  3 15  1  0  0  0  0
  4 10  1  0  0  0  0
  5 11  1  0  0  0  0
  5 12  1  0  0  0  0
  5 14  2  0  0  0  0
  6  8  1  0  0  0  0
  6 12  1  0  0  0  0
  7  9  1  0  0  0  0
  7 12  1  0  0  0  0
  8 13  1  0  0  0  0
  9 13  1  0  0  0  0
 10 13  1  0  0  0  0
 11 16  1  0  0  0  0
  1 17  1  0  0  0  0
  2 18  1  0  0  0  0
  3 19  1  0  0  0  0
  6 20  1  0  0  0  0
  6 21  1  0  0  0  0
  7 22  1  0  0  0  0
  7 23  1  0  0  0  0
  8 24  1  0  0  0  0
  8 25  1  0  0  0  0
  9 26  1  0  0  0  0
  9 27  1  0  0  0  0
 10 28  1  0  0  0  0
 10 29  1  0  0  0  0
 11 30  1  0  0  0  0
 11 31  1  0  0  0  0
 13 32  1  0  0  0  0
M  CHG  1  13   1
M  END
> <IC50 (uM)>
3.27

> <IC50 (uM) - std>
0.19

> <Average Inhibition @ 20 uM>
> 99.0

> <Average Inhibition @ 20 uM - std>

> <Average Inhibition @ 50 uM>

> <Average Inhibition @ 50 uM - std>

> <Trypsin IC50 (uM)>

> <Relative Solubility @ 20 uM>
1.0

> <Relative Solubility @ 100 uM>
0.99

> <Hybrid2>
-8.542832

> <docked_fragment>
x0831

> <Mpro-_dock>
-1.102679

> <site>
active-covalent

$$$$
ALV-UNI-7ff1a6f9-47
  -OEChem-05192003313D

 38 40  0     0  0  0  0  0  0999 V2000
   11.6066   -1.6774   22.9799 C   0  0  0  0  0  0  0  0  0  0  0  0
   12.6188   -1.2295   22.1363 C   0  0  0  0  0  0  0  0  0  0  0  0
   10.9103   -0.7700   23.7787 C   0  0  0  0  0  0  0  0  0  0  0  0
   12.9387    0.1276   22.0884 C   0  0  0  0  0  0  0  0  0  0  0  0
   10.5284    1.5271   24.5404 C   0  0  0  0  0  0  0  0  0  0  0  0
   10.8483    2.8842   24.4925 C   0  0  0  0  0  0  0  0  0  0  0  0
    6.3578    7.4882   22.8186 C   0  0  0  0  0  0  0  0  0  0  0  0
   12.5569    2.4248   22.8501 C   0  0  0  0  0  0  0  0  0  0  0  0
    8.4950    7.1444   23.8669 C   0  0  0  0  0  0  0  0  0  0  0  0
    6.7100    6.5096   21.9030 C   0  0  0  0  0  0  0  0  0  0  0  0
   11.2189    0.5996   23.7433 C   0  0  0  0  0  0  0  0  0  0  0  0
   12.2483    1.0552   22.8855 C   0  0  0  0  0  0  0  0  0  0  0  0
   11.8606    3.3322   23.6490 C   0  0  0  0  0  0  0  0  0  0  0  0
    7.2729    7.8058   23.8161 C   0  0  0  0  0  0  0  0  0  0  0  0
    8.7514    6.1811   22.9046 C   0  0  0  0  0  0  0  0  0  0  0  0
   11.0207    5.7071   23.8896 C   0  0  0  0  0  0  0  0  0  0  0  0
    7.9592    9.0344   25.7332 C   0  0  0  0  0  0  0  0  0  0  0  0
   12.2010    4.7836   23.5989 C   0  0  0  0  0  0  0  0  0  0  0  0
    7.8874    5.8455   21.9204 N   0  0  0  0  0  0  0  0  0  0  0  0
    9.9978    5.5134   22.9647 N   0  0  0  0  0  0  0  0  0  0  0  0
   11.0332    6.4958   24.8292 O   0  0  0  0  0  0  0  0  0  0  0  0
    6.9734    8.7599   24.7385 O   0  0  0  0  0  0  0  0  0  0  0  0
   11.3585   -2.7340   23.0168 H   0  0  0  0  0  0  0  0  0  0  0  0
   13.1607   -1.9366   21.5152 H   0  0  0  0  0  0  0  0  0  0  0  0
   10.1226   -1.1429   24.4303 H   0  0  0  0  0  0  0  0  0  0  0  0
   13.7339    0.4553   21.4217 H   0  0  0  0  0  0  0  0  0  0  0  0
    9.7335    1.1993   25.2074 H   0  0  0  0  0  0  0  0  0  0  0  0
   10.3012    3.5844   25.1182 H   0  0  0  0  0  0  0  0  0  0  0  0
    5.3974    7.9876   22.7545 H   0  0  0  0  0  0  0  0  0  0  0  0
   13.3464    2.7885   22.1943 H   0  0  0  0  0  0  0  0  0  0  0  0
    9.2192    7.3820   24.6401 H   0  0  0  0  0  0  0  0  0  0  0  0
    6.0315    6.2253   21.1055 H   0  0  0  0  0  0  0  0  0  0  0  0
    7.5928    9.8146   26.4048 H   0  0  0  0  0  0  0  0  0  0  0  0
    8.8845    9.3591   25.2507 H   0  0  0  0  0  0  0  0  0  0  0  0
    8.1494    8.1236   26.3059 H   0  0  0  0  0  0  0  0  0  0  0  0
   13.0004    5.0146   24.3221 H   0  0  0  0  0  0  0  0  0  0  0  0
   12.6053    5.0468   22.6077 H   0  0  0  0  0  0  0  0  0  0  0  0
   10.1661    4.8098   22.2487 H   0  0  0  0  0  0  0  0  0  0  0  0
  1  2  1  0  0  0  0
  1  3  2  0  0  0  0
  2  4  2  0  0  0  0
  3 11  1  0  0  0  0
  4 12  1  0  0  0  0
  5  6  2  0  0  0  0
  5 11  1  0  0  0  0
  6 13  1  0  0  0  0
  7 10  2  0  0  0  0
  7 14  1  0  0  0  0
  8 12  1  0  0  0  0
  8 13  2  0  0  0  0
  9 14  2  0  0  0  0
  9 15  1  0  0  0  0
 10 19  1  0  0  0  0
 11 12  2  0  0  0  0
 13 18  1  0  0  0  0
 14 22  1  0  0  0  0
 15 19  2  0  0  0  0
 15 20  1  0  0  0  0
 16 18  1  0  0  0  0
 16 20  1  0  0  0  0
 16 21  2  0  0  0  0
 17 22  1  0  0  0  0
  1 23  1  0  0  0  0
  2 24  1  0  0  0  0
  3 25  1  0  0  0  0
  4 26  1  0  0  0  0
  5 27  1  0  0  0  0
  6 28  1  0  0  0  0
  7 29  1  0  0  0  0
  8 30  1  0  0  0  0
  9 31  1  0  0  0  0
 10 32  1  0  0  0  0
 17 33  1  0  0  0  0
 17 34  1  0  0  0  0
 17 35  1  0  0  0  0
 18 36  1  0  0  0  0
 18 37  1  0  0  0  0
 20 38  1  0  0  0  0
M  END
> <IC50 (uM)>

> <IC50 (uM) - std>

> <Average Inhibition @ 20 uM>

> <Average Inhibition @ 20 uM - std>
3.47

> <Average Inhibition @ 50 uM>
0.377

> <Average Inhibition @ 50 uM - std>
6.09

> <Trypsin IC50 (uM)>
0.746

> <Relative Solubility @ 20 uM>
0.95

> <Relative Solubility @ 100 uM>
0.91

> <Hybrid2>
-8.538442

> <docked_fragment>
x0104

> <Mpro-_dock>
0.73586

> <site>
active-noncovalent

$$$$
JON-UIO-066ce08b-9
  -OEChem-05192003313D

 47 48  0     1  0  0  0  0  0999 V2000
    5.4046    1.3167   18.1125 C   0  0  0  0  0  0  0  0  0  0  0  0
    6.2807    0.2482   17.9219 C   0  0  0  0  0  0  0  0  0  0  0  0
    4.9856    1.6540   19.3995 C   0  0  0  0  0  0  0  0  0  0  0  0
    6.7378   -0.4830   19.0182 C   0  0  0  0  0  0  0  0  0  0  0  0
    5.4427    0.9228   20.4958 C   0  0  0  0  0  0  0  0  0  0  0  0
    6.3188   -0.1457   20.3052 C   0  0  0  0  0  0  0  0  0  0  0  0
   11.8736    0.5070   23.2215 C   0  0  0  0  0  0  0  0  0  0  0  0
    9.7585    1.3668   22.2684 C   0  0  0  0  0  0  0  0  0  0  0  0
    9.6208   -0.3695   24.0118 C   0  0  0  0  0  0  0  0  0  0  0  0
    8.7896    0.5898   21.3891 C   0  0  0  0  0  0  0  0  0  0  0  0
    8.6477   -1.1722   23.1590 C   0  0  0  0  0  0  0  0  0  0  0  0
    4.9816    1.3028   21.8647 C   0  0  0  0  0  0  0  0  0  0  0  0
   14.6303   -2.1707   23.2931 C   0  0  0  0  0  0  0  0  0  0  0  0
   13.8284   -0.7999   21.3615 C   0  0  0  0  0  0  0  0  0  0  0  0
    6.8233   -0.9473   21.4688 C   0  0  0  0  0  0  0  0  0  0  0  0
   12.5697   -0.7853   23.5666 C   0  0  2  0  0  0  0  0  0  0  0  0
   13.9359   -0.8690   22.8873 C   0  0  0  0  0  0  0  0  0  0  0  0
   10.4807    0.4721   23.1729 N   0  0  0  0  0  0  0  0  0  0  0  0
    7.8709   -0.2268   22.2702 N   0  3  0  0  0  0  0  0  0  0  0  0
   12.5491    1.5151   22.9995 O   0  0  0  0  0  0  0  0  0  0  0  0
   11.8018   -1.8397   23.2009 F   0  0  0  0  0  0  0  0  0  0  0  0
    5.0484    1.8852   17.2586 H   0  0  0  0  0  0  0  0  0  0  0  0
    6.6063   -0.0141   16.9194 H   0  0  0  0  0  0  0  0  0  0  0  0
    4.3015    2.4873   19.5372 H   0  0  0  0  0  0  0  0  0  0  0  0
    7.4207   -1.3136   18.8595 H   0  0  0  0  0  0  0  0  0  0  0  0
   10.4559    1.9268   21.6375 H   0  0  0  0  0  0  0  0  0  0  0  0
    9.2219    2.0969   22.8864 H   0  0  0  0  0  0  0  0  0  0  0  0
    9.0776    0.2973   24.6924 H   0  0  0  0  0  0  0  0  0  0  0  0
   10.2014   -1.0545   24.6320 H   0  0  0  0  0  0  0  0  0  0  0  0
    8.1621    1.2731   20.8078 H   0  0  0  0  0  0  0  0  0  0  0  0
    9.3093   -0.0994   20.7140 H   0  0  0  0  0  0  0  0  0  0  0  0
    9.1643   -1.8923   22.5145 H   0  0  0  0  0  0  0  0  0  0  0  0
    7.9226   -1.6959   23.7904 H   0  0  0  0  0  0  0  0  0  0  0  0
    4.0639    0.7606   22.1205 H   0  0  0  0  0  0  0  0  0  0  0  0
    5.7451    1.0729   22.6181 H   0  0  0  0  0  0  0  0  0  0  0  0
    4.7818    2.3794   21.9308 H   0  0  0  0  0  0  0  0  0  0  0  0
   14.0419   -3.0391   22.9784 H   0  0  0  0  0  0  0  0  0  0  0  0
   15.6238   -2.2517   22.8393 H   0  0  0  0  0  0  0  0  0  0  0  0
   14.7489   -2.2260   24.3804 H   0  0  0  0  0  0  0  0  0  0  0  0
   13.2137   -1.6165   20.9697 H   0  0  0  0  0  0  0  0  0  0  0  0
   14.8144   -0.8597   20.8883 H   0  0  0  0  0  0  0  0  0  0  0  0
   13.3619    0.1405   21.0489 H   0  0  0  0  0  0  0  0  0  0  0  0
    6.0116   -1.1936   22.1617 H   0  0  0  0  0  0  0  0  0  0  0  0
    7.2743   -1.8881   21.1352 H   0  0  0  0  0  0  0  0  0  0  0  0
   12.6724   -0.7991   24.6525 H   0  0  0  0  0  0  0  0  0  0  0  0
   14.5602   -0.0306   23.2225 H   0  0  0  0  0  0  0  0  0  0  0  0
    7.3694    0.4297   22.8844 H   0  0  0  0  0  0  0  0  0  0  0  0
  1  2  1  0  0  0  0
  1  3  2  0  0  0  0
  2  4  2  0  0  0  0
  3  5  1  0  0  0  0
  4  6  1  0  0  0  0
  5  6  2  0  0  0  0
  5 12  1  0  0  0  0
  6 15  1  0  0  0  0
  7 16  1  0  0  0  0
  7 18  1  0  0  0  0
  7 20  2  0  0  0  0
  8 10  1  0  0  0  0
  8 18  1  0  0  0  0
  9 11  1  0  0  0  0
  9 18  1  0  0  0  0
 10 19  1  0  0  0  0
 11 19  1  0  0  0  0
 13 17  1  0  0  0  0
 14 17  1  0  0  0  0
 15 19  1  0  0  0  0
 16 17  1  0  0  0  0
 16 21  1  0  0  0  0
  1 22  1  0  0  0  0
  2 23  1  0  0  0  0
  3 24  1  0  0  0  0
  4 25  1  0  0  0  0
  8 26  1  0  0  0  0
  8 27  1  0  0  0  0
  9 28  1  0  0  0  0
  9 29  1  0  0  0  0
 10 30  1  0  0  0  0
 10 31  1  0  0  0  0
 11 32  1  0  0  0  0
 11 33  1  0  0  0  0
 12 34  1  0  0  0  0
 12 35  1  0  0  0  0
 12 36  1  0  0  0  0
 13 37  1  0  0  0  0
 13 38  1  0  0  0  0
 13 39  1  0  0  0  0
 14 40  1  0  0  0  0
 14 41  1  0  0  0  0
 14 42  1  0  0  0  0
 15 43  1  0  0  0  0
 15 44  1  0  0  0  0
 16 45  1  0  0  0  0
 17 46  1  0  0  0  0
 19 47  1  0  0  0  0
M  CHG  1  19   1
M  END
> <IC50 (uM)>

> <IC50 (uM) - std>

> <Average Inhibition @ 20 uM>

> <Average Inhibition @ 20 uM - std>
2.74

> <Average Inhibition @ 50 uM>
0.581

> <Average Inhibition @ 50 uM - std>
6.7

> <Trypsin IC50 (uM)>
0.127

> <Relative Solubility @ 20 uM>
1.0

> <Relative Solubility @ 100 uM>
1.0

> <Hybrid2>
-8.529145

> <docked_fragment>
x1093

> <Mpro-_dock>
0.858974

> <site>
active-noncovalent

$$$$
AAR-POS-dddeddbf-4
  -OEChem-05192003313D

 30 31  0     0  0  0  0  0  0999 V2000
   13.5497   -0.0659   21.2343 C   0  0  0  0  0  0  0  0  0  0  0  0
   13.8151   -1.1503   22.0704 C   0  0  0  0  0  0  0  0  0  0  0  0
   12.2311    0.2837   20.9428 C   0  0  0  0  0  0  0  0  0  0  0  0
   12.7621   -1.8853   22.6150 C   0  0  0  0  0  0  0  0  0  0  0  0
    6.6630    0.6191   17.7272 C   0  0  0  0  0  0  0  0  0  0  0  0
   11.1781   -0.4513   21.4874 C   0  0  0  0  0  0  0  0  0  0  0  0
   11.4435   -1.5358   22.3235 C   0  0  0  0  0  0  0  0  0  0  0  0
    5.9849    0.9738   18.8746 C   0  0  0  0  0  0  0  0  0  0  0  0
    8.2576    0.2380   19.1840 C   0  0  0  0  0  0  0  0  0  0  0  0
    9.8090   -0.0695   21.1701 C   0  0  0  0  0  0  0  0  0  0  0  0
    9.9845   -1.7895   24.1108 C   0  0  0  0  0  0  0  0  0  0  0  0
    8.8714   -2.6550   24.6224 C   0  0  0  0  0  0  0  0  0  0  0  0
    7.9665    0.1973   17.9027 N   0  0  0  0  0  0  0  0  0  0  0  0
    9.4837   -0.1076   19.8062 N   0  0  0  0  0  0  0  0  0  0  0  0
    4.6737    1.4344   19.0399 N   0  0  0  0  0  0  0  0  0  0  0  0
    9.0158    0.2929   22.0486 O   0  0  0  0  0  0  0  0  0  0  0  0
   10.4289   -0.8167   24.7059 O   0  0  0  0  0  0  0  0  0  0  0  0
    3.9253    1.5760   18.0302 O   0  0  0  0  0  0  0  0  0  0  0  0
    4.2443    1.7060   20.1982 O   0  0  0  0  0  0  0  0  0  0  0  0
   10.4281   -2.2649   22.8668 O   0  0  0  0  0  0  0  0  0  0  0  0
    7.0106    0.7733   20.2344 S   0  0  0  0  0  0  0  0  0  0  0  0
   14.3700    0.5063   20.8103 H   0  0  0  0  0  0  0  0  0  0  0  0
   14.8420   -1.4222   22.2965 H   0  0  0  0  0  0  0  0  0  0  0  0
   12.0361    1.1310   20.2903 H   0  0  0  0  0  0  0  0  0  0  0  0
   12.9758   -2.7289   23.2658 H   0  0  0  0  0  0  0  0  0  0  0  0
    6.2529    0.6480   16.7262 H   0  0  0  0  0  0  0  0  0  0  0  0
    7.9104   -2.2665   24.2762 H   0  0  0  0  0  0  0  0  0  0  0  0
    8.8777   -2.6437   25.7162 H   0  0  0  0  0  0  0  0  0  0  0  0
    9.0166   -3.6839   24.2836 H   0  0  0  0  0  0  0  0  0  0  0  0
   10.2227   -0.4241   19.1833 H   0  0  0  0  0  0  0  0  0  0  0  0
  1  2  1  0  0  0  0
  1  3  2  0  0  0  0
  2  4  2  0  0  0  0
  3  6  1  0  0  0  0
  4  7  1  0  0  0  0
  5  8  2  0  0  0  0
  5 13  1  0  0  0  0
  6  7  2  0  0  0  0
  6 10  1  0  0  0  0
  7 20  1  0  0  0  0
  8 15  1  0  0  0  0
  8 21  1  0  0  0  0
  9 13  2  0  0  0  0
  9 14  1  0  0  0  0
  9 21  1  0  0  0  0
 10 14  1  0  0  0  0
 10 16  2  0  0  0  0
 11 12  1  0  0  0  0
 11 17  2  0  0  0  0
 11 20  1  0  0  0  0
 15 18  2  0  0  0  0
 15 19  2  0  0  0  0
  1 22  1  0  0  0  0
  2 23  1  0  0  0  0
  3 24  1  0  0  0  0
  4 25  1  0  0  0  0
  5 26  1  0  0  0  0
 12 27  1  0  0  0  0
 12 28  1  0  0  0  0
 12 29  1  0  0  0  0
 14 30  1  0  0  0  0
M  END
> <IC50 (uM)>

> <IC50 (uM) - std>

> <Average Inhibition @ 20 uM>

> <Average Inhibition @ 20 uM - std>

> <Average Inhibition @ 50 uM>

> <Average Inhibition @ 50 uM - std>
-32.6

> <Trypsin IC50 (uM)>
3.36

> <Relative Solubility @ 20 uM>

> <Relative Solubility @ 100 uM>

> <Hybrid2>
-8.506630

> <docked_fragment>
x0678

> <Mpro-_dock>
-0.041742

> <site>
active-noncovalent

$$$$
GIA-UNK-595fac82-4
  -OEChem-05192003313D

 38 39  0     0  0  0  0  0  0999 V2000
   13.5236   -0.3249   24.1176 C   0  0  0  0  0  0  0  0  0  0  0  0
   12.3744    0.4320   24.3458 C   0  0  0  0  0  0  0  0  0  0  0  0
   13.4293   -1.5606   23.4774 C   0  0  0  0  0  0  0  0  0  0  0  0
   11.1308   -0.0469   23.9337 C   0  0  0  0  0  0  0  0  0  0  0  0
   12.1857   -2.0394   23.0654 C   0  0  0  0  0  0  0  0  0  0  0  0
   11.0364   -1.2826   23.2935 C   0  0  0  0  0  0  0  0  0  0  0  0
    6.1902   -5.5721   26.7176 C   0  0  0  0  0  0  0  0  0  0  0  0
    9.4310   -4.0345   26.1928 C   0  0  0  0  0  0  0  0  0  0  0  0
    8.3137   -5.4012   24.3995 C   0  0  0  0  0  0  0  0  0  0  0  0
    9.2571   -2.7899   25.3243 C   0  0  0  0  0  0  0  0  0  0  0  0
    8.1605   -4.1350   23.5582 C   0  0  0  0  0  0  0  0  0  0  0  0
    8.3641   -5.0889   25.8949 C   0  0  0  0  0  0  0  0  0  0  0  0
    4.7689   -3.5538   27.0444 C   0  0  0  0  0  0  0  0  0  0  0  0
    9.2612   -3.1814   23.8841 N   0  0  0  0  0  0  0  0  0  0  0  0
    5.0023   -4.9788   27.0896 N   0  0  0  0  0  0  0  0  0  0  0  0
    6.4284   -6.7752   26.7411 O   0  0  0  0  0  0  0  0  0  0  0  0
    8.4778   -0.8679   23.0590 O   0  0  0  0  0  0  0  0  0  0  0  0
    9.6103   -2.4345   21.4432 O   0  0  0  0  0  0  0  0  0  0  0  0
    7.0850   -4.6168   26.3106 O   0  0  0  0  0  0  0  0  0  0  0  0
    9.4621   -1.8896   22.7753 S   0  0  0  0  0  0  0  0  0  0  0  0
   14.4923    0.0471   24.4388 H   0  0  0  0  0  0  0  0  0  0  0  0
   12.4473    1.3936   24.8451 H   0  0  0  0  0  0  0  0  0  0  0  0
   14.3241   -2.1498   23.3006 H   0  0  0  0  0  0  0  0  0  0  0  0
   10.2416    0.5504   24.1172 H   0  0  0  0  0  0  0  0  0  0  0  0
   12.1236   -3.0039   22.5687 H   0  0  0  0  0  0  0  0  0  0  0  0
   10.4304   -4.4634   26.0411 H   0  0  0  0  0  0  0  0  0  0  0  0
    9.3852   -3.7572   27.2561 H   0  0  0  0  0  0  0  0  0  0  0  0
    7.4789   -6.0880   24.1968 H   0  0  0  0  0  0  0  0  0  0  0  0
    9.2211   -5.9428   24.1007 H   0  0  0  0  0  0  0  0  0  0  0  0
    8.3018   -2.3155   25.5719 H   0  0  0  0  0  0  0  0  0  0  0  0
   10.0615   -2.0709   25.5149 H   0  0  0  0  0  0  0  0  0  0  0  0
    8.1838   -4.3767   22.4896 H   0  0  0  0  0  0  0  0  0  0  0  0
    7.1953   -3.6717   23.7882 H   0  0  0  0  0  0  0  0  0  0  0  0
    8.5807   -6.0067   26.4581 H   0  0  0  0  0  0  0  0  0  0  0  0
    5.0581   -3.1036   28.0055 H   0  0  0  0  0  0  0  0  0  0  0  0
    5.3687   -3.1096   26.2363 H   0  0  0  0  0  0  0  0  0  0  0  0
    3.7020   -3.3629   26.8565 H   0  0  0  0  0  0  0  0  0  0  0  0
    4.2489   -5.5774   27.4137 H   0  0  0  0  0  0  0  0  0  0  0  0
  1  2  1  0  0  0  0
  1  3  2  0  0  0  0
  2  4  2  0  0  0  0
  3  5  1  0  0  0  0
  4  6  1  0  0  0  0
  5  6  2  0  0  0  0
  6 20  1  0  0  0  0
  7 15  1  0  0  0  0
  7 16  2  0  0  0  0
  7 19  1  0  0  0  0
  8 10  1  0  0  0  0
  8 12  1  0  0  0  0
  9 11  1  0  0  0  0
  9 12  1  0  0  0  0
 10 14  1  0  0  0  0
 11 14  1  0  0  0  0
 12 19  1  0  0  0  0
 13 15  1  0  0  0  0
 14 20  1  0  0  0  0
 17 20  2  0  0  0  0
 18 20  2  0  0  0  0
  1 21  1  0  0  0  0
  2 22  1  0  0  0  0
  3 23  1  0  0  0  0
  4 24  1  0  0  0  0
  5 25  1  0  0  0  0
  8 26  1  0  0  0  0
  8 27  1  0  0  0  0
  9 28  1  0  0  0  0
  9 29  1  0  0  0  0
 10 30  1  0  0  0  0
 10 31  1  0  0  0  0
 11 32  1  0  0  0  0
 11 33  1  0  0  0  0
 12 34  1  0  0  0  0
 13 35  1  0  0  0  0
 13 36  1  0  0  0  0
 13 37  1  0  0  0  0
 15 38  1  0  0  0  0
M  END
> <IC50 (uM)>

> <IC50 (uM) - std>

> <Average Inhibition @ 20 uM>

> <Average Inhibition @ 20 uM - std>

> <Average Inhibition @ 50 uM>

> <Average Inhibition @ 50 uM - std>
-1.43

> <Trypsin IC50 (uM)>
0.802

> <Relative Solubility @ 20 uM>

> <Relative Solubility @ 100 uM>

> <Hybrid2>
-8.492133

> <docked_fragment>
x0072

> <Mpro-_dock>
-0.247421

> <site>
active-noncovalent

$$$$
WAR-XCH-b72a1bbc-23
  -OEChem-05192003313D

 39 40  0     0  0  0  0  0  0999 V2000
   10.3143   -2.7363   23.6316 C   0  0  0  0  0  0  0  0  0  0  0  0
   10.7899   -4.3086   25.4032 C   0  0  0  0  0  0  0  0  0  0  0  0
   11.5398   -2.1101   23.8583 C   0  0  0  0  0  0  0  0  0  0  0  0
   12.0155   -3.6824   25.6299 C   0  0  0  0  0  0  0  0  0  0  0  0
    9.9393   -3.8356   24.4041 C   0  0  0  0  0  0  0  0  0  0  0  0
   12.3904   -2.5831   24.8575 C   0  0  0  0  0  0  0  0  0  0  0  0
    7.3542   -4.0458   22.1895 C   0  0  0  0  0  0  0  0  0  0  0  0
    8.4594   -6.2903   22.5821 C   0  0  0  0  0  0  0  0  0  0  0  0
    7.5507   -3.7330   23.6738 C   0  0  0  0  0  0  0  0  0  0  0  0
    8.6323   -5.9192   24.0597 C   0  0  0  0  0  0  0  0  0  0  0  0
    7.2807   -5.5591   21.9139 C   0  0  0  0  0  0  0  0  0  0  0  0
    4.5435   -6.4609   24.2138 C   0  0  0  0  0  0  0  0  0  0  0  0
    5.9352   -6.1481   22.3460 C   0  0  0  0  0  0  0  0  0  0  0  0
    8.7175   -4.4602   24.1785 N   0  0  0  0  0  0  0  0  0  0  0  0
   14.9406   -2.6798   24.0879 N   0  0  0  0  0  0  0  0  0  0  0  0
   13.8334   -0.4254   24.6688 O   0  0  0  0  0  0  0  0  0  0  0  0
   14.3321   -2.0659   26.5148 O   0  0  0  0  0  0  0  0  0  0  0  0
    5.7781   -5.9372   23.7369 O   0  0  0  0  0  0  0  0  0  0  0  0
   13.9244   -1.7995   25.1424 S   0  0  0  0  0  0  0  0  0  0  0  0
    9.6590   -2.3592   22.8506 H   0  0  0  0  0  0  0  0  0  0  0  0
   10.5079   -5.1652   26.0104 H   0  0  0  0  0  0  0  0  0  0  0  0
   11.8215   -1.2544   23.2506 H   0  0  0  0  0  0  0  0  0  0  0  0
   12.6703   -4.0593   26.4112 H   0  0  0  0  0  0  0  0  0  0  0  0
    6.4358   -3.5559   21.8336 H   0  0  0  0  0  0  0  0  0  0  0  0
    8.1821   -3.6059   21.6162 H   0  0  0  0  0  0  0  0  0  0  0  0
    9.3922   -6.0587   22.0437 H   0  0  0  0  0  0  0  0  0  0  0  0
    8.3217   -7.3813   22.4970 H   0  0  0  0  0  0  0  0  0  0  0  0
    7.6915   -2.6572   23.8111 H   0  0  0  0  0  0  0  0  0  0  0  0
    6.6498   -4.0305   24.2170 H   0  0  0  0  0  0  0  0  0  0  0  0
    7.7759   -6.2999   24.6172 H   0  0  0  0  0  0  0  0  0  0  0  0
    9.5375   -6.3823   24.4547 H   0  0  0  0  0  0  0  0  0  0  0  0
    7.3667   -5.7095   20.8129 H   0  0  0  0  0  0  0  0  0  0  0  0
    4.4603   -6.2788   25.2880 H   0  0  0  0  0  0  0  0  0  0  0  0
    4.4991   -7.5339   24.0107 H   0  0  0  0  0  0  0  0  0  0  0  0
    3.7216   -5.9600   23.6968 H   0  0  0  0  0  0  0  0  0  0  0  0
    5.9146   -7.2176   22.1384 H   0  0  0  0  0  0  0  0  0  0  0  0
    5.1246   -5.6531   21.8119 H   0  0  0  0  0  0  0  0  0  0  0  0
   15.2815   -2.2078   23.2415 H   0  0  0  0  0  0  0  0  0  0  0  0
   15.6198   -3.3289   24.5034 H   0  0  0  0  0  0  0  0  0  0  0  0
  1  3  2  0  0  0  0
  1  5  1  0  0  0  0
  2  4  1  0  0  0  0
  2  5  2  0  0  0  0
  3  6  1  0  0  0  0
  4  6  2  0  0  0  0
  5 14  1  0  0  0  0
  6 19  1  0  0  0  0
  7  9  1  0  0  0  0
  7 11  1  0  0  0  0
  8 10  1  0  0  0  0
  8 11  1  0  0  0  0
  9 14  1  0  0  0  0
 10 14  1  0  0  0  0
 11 13  1  0  0  0  0
 12 18  1  0  0  0  0
 13 18  1  0  0  0  0
 15 19  1  0  0  0  0
 16 19  2  0  0  0  0
 17 19  2  0  0  0  0
  1 20  1  0  0  0  0
  2 21  1  0  0  0  0
  3 22  1  0  0  0  0
  4 23  1  0  0  0  0
  7 24  1  0  0  0  0
  7 25  1  0  0  0  0
  8 26  1  0  0  0  0
  8 27  1  0  0  0  0
  9 28  1  0  0  0  0
  9 29  1  0  0  0  0
 10 30  1  0  0  0  0
 10 31  1  0  0  0  0
 11 32  1  0  0  0  0
 12 33  1  0  0  0  0
 12 34  1  0  0  0  0
 12 35  1  0  0  0  0
 13 36  1  0  0  0  0
 13 37  1  0  0  0  0
 15 38  1  0  0  0  0
 15 39  1  0  0  0  0
M  END
> <IC50 (uM)>

> <IC50 (uM) - std>

> <Average Inhibition @ 20 uM>

> <Average Inhibition @ 20 uM - std>

> <Average Inhibition @ 50 uM>

> <Average Inhibition @ 50 uM - std>
3.85

> <Trypsin IC50 (uM)>
0.718

> <Relative Solubility @ 20 uM>

> <Relative Solubility @ 100 uM>

> <Hybrid2>
-8.468962

> <docked_fragment>
x0749

> <Mpro-_dock>
2.068261

> <site>
active-covalent

$$$$
GIA-UNK-d2defdc3-2
  -OEChem-05192003313D

 45 47  0     1  0  0  0  0  0999 V2000
   10.4338    5.6686   23.6549 C   0  0  0  0  0  0  0  0  0  0  0  0
   11.5958    4.8989   23.7089 C   0  0  0  0  0  0  0  0  0  0  0  0
    9.1855    5.0554   23.7616 C   0  0  0  0  0  0  0  0  0  0  0  0
   11.5095    3.5160   23.8695 C   0  0  0  0  0  0  0  0  0  0  0  0
    9.0991    3.6725   23.9221 C   0  0  0  0  0  0  0  0  0  0  0  0
    5.8965    0.2741   19.8938 C   0  0  0  0  0  0  0  0  0  0  0  0
    8.2257   -0.2280   20.2214 C   0  0  0  0  0  0  0  0  0  0  0  0
    6.1444    0.2771   18.5306 C   0  0  0  0  0  0  0  0  0  0  0  0
    8.3692   -0.2027   18.8435 C   0  0  0  0  0  0  0  0  0  0  0  0
   10.2611    2.9028   23.9761 C   0  0  0  0  0  0  0  0  0  0  0  0
    6.9623    0.0158   20.7485 C   0  0  0  0  0  0  0  0  0  0  0  0
   10.1693    1.4298   24.1470 C   0  0  0  0  0  0  0  0  0  0  0  0
    6.7520    0.0001   22.2191 C   0  0  0  0  0  0  0  0  0  0  0  0
    8.4715   -2.1350   26.9136 C   0  0  0  0  0  0  0  0  0  0  0  0
    7.1861   -2.6074   26.2444 C   0  0  0  0  0  0  0  0  0  0  0  0
    8.7703   -0.6774   26.5795 C   0  0  0  0  0  0  0  0  0  0  0  0
    7.2311   -2.3881   24.7361 C   0  0  0  0  0  0  0  0  0  0  0  0
    8.8185   -0.4333   25.0670 C   0  0  1  0  0  0  0  0  0  0  0  0
    7.5351   -0.9302   24.3778 C   0  0  1  0  0  0  0  0  0  0  0  0
    7.3576    0.0445   17.9814 N   0  0  0  0  0  0  0  0  0  0  0  0
    9.0405    0.9718   24.8022 N   0  0  0  0  0  0  0  0  0  0  0  0
    7.6266   -0.7917   22.9410 N   0  0  0  0  0  0  0  0  0  0  0  0
   11.0802    0.7194   23.7299 O   0  0  0  0  0  0  0  0  0  0  0  0
    5.8298    0.6532   22.7003 O   0  0  0  0  0  0  0  0  0  0  0  0
   10.5011    6.7453   23.5299 H   0  0  0  0  0  0  0  0  0  0  0  0
   12.5677    5.3764   23.6257 H   0  0  0  0  0  0  0  0  0  0  0  0
    8.2807    5.6548   23.7199 H   0  0  0  0  0  0  0  0  0  0  0  0
   12.4214    2.9257   23.9103 H   0  0  0  0  0  0  0  0  0  0  0  0
    8.1210    3.2054   24.0040 H   0  0  0  0  0  0  0  0  0  0  0  0
    4.8979    0.4670   20.2715 H   0  0  0  0  0  0  0  0  0  0  0  0
    9.0781   -0.4334   20.8601 H   0  0  0  0  0  0  0  0  0  0  0  0
    5.3468    0.4721   17.8216 H   0  0  0  0  0  0  0  0  0  0  0  0
    9.3339   -0.3862   18.3824 H   0  0  0  0  0  0  0  0  0  0  0  0
    8.3858   -2.2576   27.9992 H   0  0  0  0  0  0  0  0  0  0  0  0
    9.3065   -2.7648   26.5882 H   0  0  0  0  0  0  0  0  0  0  0  0
    7.0291   -3.6701   26.4614 H   0  0  0  0  0  0  0  0  0  0  0  0
    6.3329   -2.0675   26.6686 H   0  0  0  0  0  0  0  0  0  0  0  0
    8.0246   -0.0278   27.0490 H   0  0  0  0  0  0  0  0  0  0  0  0
    9.7367   -0.4033   27.0166 H   0  0  0  0  0  0  0  0  0  0  0  0
    7.9713   -3.0561   24.2852 H   0  0  0  0  0  0  0  0  0  0  0  0
    6.2625   -2.6664   24.3076 H   0  0  0  0  0  0  0  0  0  0  0  0
    9.6924   -0.9471   24.6496 H   0  0  0  0  0  0  0  0  0  0  0  0
    6.6832   -0.3051   24.6733 H   0  0  0  0  0  0  0  0  0  0  0  0
    8.3583    1.6202   25.1757 H   0  0  0  0  0  0  0  0  0  0  0  0
    8.3260   -1.3537   22.4718 H   0  0  0  0  0  0  0  0  0  0  0  0
  1  2  1  0  0  0  0
  1  3  2  0  0  0  0
  2  4  2  0  0  0  0
  3  5  1  0  0  0  0
  4 10  1  0  0  0  0
  5 10  2  0  0  0  0
  6  8  2  0  0  0  0
  6 11  1  0  0  0  0
  7  9  1  0  0  0  0
  7 11  2  0  0  0  0
  8 20  1  0  0  0  0
  9 20  2  0  0  0  0
 10 12  1  0  0  0  0
 11 13  1  0  0  0  0
 12 21  1  0  0  0  0
 12 23  2  0  0  0  0
 13 22  1  0  0  0  0
 13 24  2  0  0  0  0
 14 15  1  0  0  0  0
 14 16  1  0  0  0  0
 15 17  1  0  0  0  0
 16 18  1  0  0  0  0
 17 19  1  0  0  0  0
 18 19  1  0  0  0  0
 18 21  1  0  0  0  0
 19 22  1  0  0  0  0
  1 25  1  0  0  0  0
  2 26  1  0  0  0  0
  3 27  1  0  0  0  0
  4 28  1  0  0  0  0
  5 29  1  0  0  0  0
  6 30  1  0  0  0  0
  7 31  1  0  0  0  0
  8 32  1  0  0  0  0
  9 33  1  0  0  0  0
 14 34  1  0  0  0  0
 14 35  1  0  0  0  0
 15 36  1  0  0  0  0
 15 37  1  0  0  0  0
 16 38  1  0  0  0  0
 16 39  1  0  0  0  0
 17 40  1  0  0  0  0
 17 41  1  0  0  0  0
 18 42  1  0  0  0  0
 19 43  1  0  0  0  0
 21 44  1  0  0  0  0
 22 45  1  0  0  0  0
M  END
> <IC50 (uM)>

> <IC50 (uM) - std>

> <Average Inhibition @ 20 uM>

> <Average Inhibition @ 20 uM - std>

> <Average Inhibition @ 50 uM>

> <Average Inhibition @ 50 uM - std>
12.0

> <Trypsin IC50 (uM)>
0.431

> <Relative Solubility @ 20 uM>

> <Relative Solubility @ 100 uM>

> <Hybrid2>
-8.447964

> <docked_fragment>
x0107

> <Mpro-_dock>
2.090658

> <site>
active-noncovalent

$$$$
GIA-UNK-30c7cb75-2
  -OEChem-05192003313D

 42 44  0     0  0  0  0  0  0999 V2000
   12.0243   -2.0986   22.9321 C   0  0  0  0  0  0  0  0  0  0  0  0
   11.8667   -0.0532   24.1949 C   0  0  0  0  0  0  0  0  0  0  0  0
   13.4064   -1.9832   22.9759 C   0  0  0  0  0  0  0  0  0  0  0  0
   13.2528    0.0104   24.2069 C   0  0  0  0  0  0  0  0  0  0  0  0
   11.2501   -1.1210   23.5495 C   0  0  0  0  0  0  0  0  0  0  0  0
    7.8866   -3.5120   25.3804 C   0  0  0  0  0  0  0  0  0  0  0  0
    8.3399   -3.0286   22.9690 C   0  0  0  0  0  0  0  0  0  0  0  0
    7.6120   -1.1810   24.5816 C   0  0  0  0  0  0  0  0  0  0  0  0
    9.1284   -1.8389   22.4238 C   0  0  0  0  0  0  0  0  0  0  0  0
    9.0666   -0.6960   24.6418 C   0  0  0  0  0  0  0  0  0  0  0  0
    7.0020   -5.2980   26.8463 C   0  0  0  0  0  0  0  0  0  0  0  0
    6.8056   -5.5996   24.4125 C   0  0  0  0  0  0  0  0  0  0  0  0
    5.5739   -5.8082   26.9755 C   0  0  0  0  0  0  0  0  0  0  0  0
    5.3863   -6.1027   24.6439 C   0  0  0  0  0  0  0  0  0  0  0  0
    7.4953   -2.6605   24.1992 C   0  0  0  0  0  0  0  0  0  0  0  0
   13.9741   -0.9447   23.6043 N   0  3  0  0  0  0  0  0  0  0  0  0
    9.8615   -1.2096   23.5195 N   0  0  0  0  0  0  0  0  0  0  0  0
    7.2217   -4.7287   25.5168 N   0  0  0  0  0  0  0  0  0  0  0  0
    8.7531   -3.1059   26.1588 O   0  0  0  0  0  0  0  0  0  0  0  0
    5.2826   -6.7323   25.9237 O   0  0  0  0  0  0  0  0  0  0  0  0
   11.5657   -2.9401   22.4219 H   0  0  0  0  0  0  0  0  0  0  0  0
   11.2836    0.7221   24.6822 H   0  0  0  0  0  0  0  0  0  0  0  0
   14.0849   -2.6927   22.5233 H   0  0  0  0  0  0  0  0  0  0  0  0
   13.8159    0.8011   24.6834 H   0  0  0  0  0  0  0  0  0  0  0  0
    7.6680   -3.3942   22.1890 H   0  0  0  0  0  0  0  0  0  0  0  0
    9.0291   -3.8391   23.2109 H   0  0  0  0  0  0  0  0  0  0  0  0
    7.1353   -0.9993   25.5501 H   0  0  0  0  0  0  0  0  0  0  0  0
    7.0703   -0.5829   23.8405 H   0  0  0  0  0  0  0  0  0  0  0  0
    9.8225   -2.1719   21.6501 H   0  0  0  0  0  0  0  0  0  0  0  0
    8.4289   -1.1324   21.9737 H   0  0  0  0  0  0  0  0  0  0  0  0
    9.0614    0.4066   24.6284 H   0  0  0  0  0  0  0  0  0  0  0  0
    9.5287   -0.9947   25.5971 H   0  0  0  0  0  0  0  0  0  0  0  0
    7.2192   -4.5671   27.6307 H   0  0  0  0  0  0  0  0  0  0  0  0
    7.7110   -6.1279   26.9494 H   0  0  0  0  0  0  0  0  0  0  0  0
    7.5072   -6.4420   24.4043 H   0  0  0  0  0  0  0  0  0  0  0  0
    6.8692   -5.0993   23.4448 H   0  0  0  0  0  0  0  0  0  0  0  0
    5.4519   -6.3380   27.9254 H   0  0  0  0  0  0  0  0  0  0  0  0
    4.8484   -4.9861   26.9569 H   0  0  0  0  0  0  0  0  0  0  0  0
    4.6545   -5.2894   24.5721 H   0  0  0  0  0  0  0  0  0  0  0  0
    5.1284   -6.8494   23.8862 H   0  0  0  0  0  0  0  0  0  0  0  0
    6.4487   -2.8961   24.0042 H   0  0  0  0  0  0  0  0  0  0  0  0
   14.9914   -0.8785   23.6243 H   0  0  0  0  0  0  0  0  0  0  0  0
  1  3  2  0  0  0  0
  1  5  1  0  0  0  0
  2  4  1  0  0  0  0
  2  5  2  0  0  0  0
  3 16  1  0  0  0  0
  4 16  2  0  0  0  0
  5 17  1  0  0  0  0
  6 15  1  0  0  0  0
  6 18  1  0  0  0  0
  6 19  2  0  0  0  0
  7  9  1  0  0  0  0
  7 15  1  0  0  0  0
  8 10  1  0  0  0  0
  8 15  1  0  0  0  0
  9 17  1  0  0  0  0
 10 17  1  0  0  0  0
 11 13  1  0  0  0  0
 11 18  1  0  0  0  0
 12 14  1  0  0  0  0
 12 18  1  0  0  0  0
 13 20  1  0  0  0  0
 14 20  1  0  0  0  0
  1 21  1  0  0  0  0
  2 22  1  0  0  0  0
  3 23  1  0  0  0  0
  4 24  1  0  0  0  0
  7 25  1  0  0  0  0
  7 26  1  0  0  0  0
  8 27  1  0  0  0  0
  8 28  1  0  0  0  0
  9 29  1  0  0  0  0
  9 30  1  0  0  0  0
 10 31  1  0  0  0  0
 10 32  1  0  0  0  0
 11 33  1  0  0  0  0
 11 34  1  0  0  0  0
 12 35  1  0  0  0  0
 12 36  1  0  0  0  0
 13 37  1  0  0  0  0
 13 38  1  0  0  0  0
 14 39  1  0  0  0  0
 14 40  1  0  0  0  0
 15 41  1  0  0  0  0
 16 42  1  0  0  0  0
M  CHG  1  16   1
M  END
> <IC50 (uM)>

> <IC50 (uM) - std>

> <Average Inhibition @ 20 uM>

> <Average Inhibition @ 20 uM - std>

> <Average Inhibition @ 50 uM>

> <Average Inhibition @ 50 uM - std>
1.67

> <Trypsin IC50 (uM)>
0.794

> <Relative Solubility @ 20 uM>

> <Relative Solubility @ 100 uM>

> <Hybrid2>
-8.439287

> <docked_fragment>
x0072

> <Mpro-_dock>
0.110055

> <site>
active-noncovalent

$$$$
AAR-POS-dddeddbf-3
  -OEChem-05192003313D

 27 28  0     0  0  0  0  0  0999 V2000
   11.7160    0.1642   21.1151 C   0  0  0  0  0  0  0  0  0  0  0  0
   10.4096   -0.7960   22.9064 C   0  0  0  0  0  0  0  0  0  0  0  0
   12.7805   -0.6760   21.4411 C   0  0  0  0  0  0  0  0  0  0  0  0
   11.4742   -1.6363   23.2323 C   0  0  0  0  0  0  0  0  0  0  0  0
    8.4127    0.4776   18.8996 C   0  0  0  0  0  0  0  0  0  0  0  0
   10.5305    0.1043   21.8478 C   0  0  0  0  0  0  0  0  0  0  0  0
    8.1741    0.3309   20.2508 C   0  0  0  0  0  0  0  0  0  0  0  0
   12.6596   -1.5763   22.4997 C   0  0  0  0  0  0  0  0  0  0  0  0
    7.1101   -0.4821   20.5844 C   0  0  0  0  0  0  0  0  0  0  0  0
    6.6666   -0.8864   18.3920 C   0  0  0  0  0  0  0  0  0  0  0  0
    7.6761   -0.1187   17.9393 N   0  0  0  0  0  0  0  0  0  0  0  0
    6.3322   -1.1086   19.6774 N   0  0  0  0  0  0  0  0  0  0  0  0
    6.8106   -0.6753   21.9550 N   0  0  0  0  0  0  0  0  0  0  0  0
    5.8738   -1.5266   17.4147 N   0  0  0  0  0  0  0  0  0  0  0  0
    8.4180    1.3218   22.6582 O   0  0  0  0  0  0  0  0  0  0  0  0
    9.7120    2.3290   20.7445 O   0  0  0  0  0  0  0  0  0  0  0  0
    9.1980    1.1560   21.4397 S   0  0  0  0  0  0  0  0  0  0  0  0
   13.9731   -2.6129   22.9019 Cl  0  0  0  0  0  0  0  0  0  0  0  0
   11.8208    0.8618   20.2885 H   0  0  0  0  0  0  0  0  0  0  0  0
    9.4905   -0.8509   23.4836 H   0  0  0  0  0  0  0  0  0  0  0  0
   13.6983   -0.6183   20.8615 H   0  0  0  0  0  0  0  0  0  0  0  0
   11.3658   -2.3328   24.0598 H   0  0  0  0  0  0  0  0  0  0  0  0
    9.2253    1.0956   18.5308 H   0  0  0  0  0  0  0  0  0  0  0  0
    7.4024   -0.2591   22.6411 H   0  0  0  0  0  0  0  0  0  0  0  0
    6.0731   -1.2986   22.2038 H   0  0  0  0  0  0  0  0  0  0  0  0
    6.0575   -1.3514   16.4482 H   0  0  0  0  0  0  0  0  0  0  0  0
    5.0857   -2.0675   17.7060 H   0  0  0  0  0  0  0  0  0  0  0  0
  1  3  2  0  0  0  0
  1  6  1  0  0  0  0
  2  4  1  0  0  0  0
  2  6  2  0  0  0  0
  3  8  1  0  0  0  0
  4  8  2  0  0  0  0
  5  7  1  0  0  0  0
  5 11  2  0  0  0  0
  6 17  1  0  0  0  0
  7  9  2  0  0  0  0
  7 17  1  0  0  0  0
  8 18  1  0  0  0  0
  9 12  1  0  0  0  0
  9 13  1  0  0  0  0
 10 11  1  0  0  0  0
 10 12  2  0  0  0  0
 10 14  1  0  0  0  0
 15 17  2  0  0  0  0
 16 17  2  0  0  0  0
  1 19  1  0  0  0  0
  2 20  1  0  0  0  0
  3 21  1  0  0  0  0
  4 22  1  0  0  0  0
  5 23  1  0  0  0  0
 13 24  1  0  0  0  0
 13 25  1  0  0  0  0
 14 26  1  0  0  0  0
 14 27  1  0  0  0  0
M  END
> <IC50 (uM)>

> <IC50 (uM) - std>

> <Average Inhibition @ 20 uM>

> <Average Inhibition @ 20 uM - std>

> <Average Inhibition @ 50 uM>

> <Average Inhibition @ 50 uM - std>
15.7

> <Trypsin IC50 (uM)>
0.646

> <Relative Solubility @ 20 uM>

> <Relative Solubility @ 100 uM>

> <Hybrid2>
-8.429440

> <docked_fragment>
x0678

> <Mpro-_dock>
-0.487026

> <site>
active-noncovalent

$$$$
BAR-COM-4e090d3a-31
  -OEChem-05192003313D

 55 57  0     1  0  0  0  0  0999 V2000
   14.0033   -1.9636   22.3955 C   0  0  0  0  0  0  0  0  0  0  0  0
   14.3203   -0.6087   22.2995 C   0  0  0  0  0  0  0  0  0  0  0  0
   12.8192   -2.3606   23.0168 C   0  0  0  0  0  0  0  0  0  0  0  0
   13.4532    0.3493   22.8249 C   0  0  0  0  0  0  0  0  0  0  0  0
    8.0709    2.0153   21.2528 C   0  0  0  0  0  0  0  0  0  0  0  0
    8.9452    0.3225   20.3999 C   0  0  0  0  0  0  0  0  0  0  0  0
   11.9521   -1.4026   23.5422 C   0  0  0  0  0  0  0  0  0  0  0  0
   12.2691   -0.0476   23.4462 C   0  0  0  0  0  0  0  0  0  0  0  0
   10.7752    3.1540   24.4319 C   0  0  0  0  0  0  0  0  0  0  0  0
    8.9695   -2.1054   22.4219 C   0  0  0  0  0  0  0  0  0  0  0  0
   10.9224    6.7980   24.9012 C   0  0  0  0  0  0  0  0  0  0  0  0
   11.8527    6.6225   23.7076 C   0  0  0  0  0  0  0  0  0  0  0  0
   10.1194    5.5065   24.8965 C   0  0  0  0  0  0  0  0  0  0  0  0
   12.2087    5.1438   23.7668 C   0  0  0  0  0  0  0  0  0  0  0  0
    9.3171   -1.8199   26.3709 C   0  0  0  0  0  0  0  0  0  0  0  0
    7.1033   -2.2217   20.7094 C   0  0  0  0  0  0  0  0  0  0  0  0
   11.8227    2.2581   23.8208 C   0  0  0  0  0  0  0  0  0  0  0  0
   10.6128   -1.4049   25.6845 C   0  0  0  0  0  0  0  0  0  0  0  0
   10.6894   -1.8457   24.2040 C   0  0  1  0  0  0  0  0  0  0  0  0
    7.7470   -1.4061   21.8310 C   0  0  2  0  0  0  0  0  0  0  0  0
    8.9647    1.6310   20.2947 N   0  0  0  0  0  0  0  0  0  0  0  0
    7.4995    1.0269   21.9442 N   0  0  0  0  0  0  0  0  0  0  0  0
    8.0758   -0.0449   21.3792 N   0  0  0  0  0  0  0  0  0  0  0  0
   11.0347    4.5104   24.3593 N   0  0  0  0  0  0  0  0  0  0  0  0
    9.5190   -1.3913   23.4709 N   0  0  0  0  0  0  0  0  0  0  0  0
    9.7655    2.6718   24.9476 O   0  0  0  0  0  0  0  0  0  0  0  0
    9.3913   -3.1782   21.9953 O   0  0  0  0  0  0  0  0  0  0  0  0
   11.4263    0.9092   23.9593 O   0  0  0  0  0  0  0  0  0  0  0  0
   14.6785   -2.7101   21.9870 H   0  0  0  0  0  0  0  0  0  0  0  0
   15.2427   -0.3002   21.8165 H   0  0  0  0  0  0  0  0  0  0  0  0
   12.5820   -3.4188   23.0878 H   0  0  0  0  0  0  0  0  0  0  0  0
   13.7057    1.4034   22.7471 H   0  0  0  0  0  0  0  0  0  0  0  0
    7.8267    3.0479   21.4524 H   0  0  0  0  0  0  0  0  0  0  0  0
    9.5174   -0.3810   19.8119 H   0  0  0  0  0  0  0  0  0  0  0  0
   11.5053    6.8799   25.8262 H   0  0  0  0  0  0  0  0  0  0  0  0
   10.2897    7.6851   24.8090 H   0  0  0  0  0  0  0  0  0  0  0  0
   11.3190    6.8473   22.7766 H   0  0  0  0  0  0  0  0  0  0  0  0
   12.7336    7.2676   23.7679 H   0  0  0  0  0  0  0  0  0  0  0  0
    9.7650    5.2160   25.8900 H   0  0  0  0  0  0  0  0  0  0  0  0
    9.2604    5.5686   24.2192 H   0  0  0  0  0  0  0  0  0  0  0  0
   12.4296    4.7238   22.7819 H   0  0  0  0  0  0  0  0  0  0  0  0
   13.0589    4.9632   24.4335 H   0  0  0  0  0  0  0  0  0  0  0  0
    9.1719   -2.9033   26.3124 H   0  0  0  0  0  0  0  0  0  0  0  0
    9.3452   -1.5391   27.4286 H   0  0  0  0  0  0  0  0  0  0  0  0
    8.4500   -1.3302   25.9170 H   0  0  0  0  0  0  0  0  0  0  0  0
    7.7833   -2.3613   19.8617 H   0  0  0  0  0  0  0  0  0  0  0  0
    6.8215   -3.2170   21.0700 H   0  0  0  0  0  0  0  0  0  0  0  0
    6.2004   -1.7274   20.3344 H   0  0  0  0  0  0  0  0  0  0  0  0
   12.7739    2.4125   24.3220 H   0  0  0  0  0  0  0  0  0  0  0  0
   11.9205    2.4960   22.7656 H   0  0  0  0  0  0  0  0  0  0  0  0
   10.7189   -0.3159   25.7662 H   0  0  0  0  0  0  0  0  0  0  0  0
   11.4521   -1.8475   26.2362 H   0  0  0  0  0  0  0  0  0  0  0  0
   10.6159   -2.9477   24.1821 H   0  0  0  0  0  0  0  0  0  0  0  0
    7.0072   -1.3113   22.6373 H   0  0  0  0  0  0  0  0  0  0  0  0
    9.0886   -0.5161   23.7394 H   0  0  0  0  0  0  0  0  0  0  0  0
  1  2  1  0  0  0  0
  1  3  2  0  0  0  0
  2  4  2  0  0  0  0
  3  7  1  0  0  0  0
  4  8  1  0  0  0  0
  5 21  1  0  0  0  0
  5 22  2  0  0  0  0
  6 21  2  0  0  0  0
  6 23  1  0  0  0  0
  7  8  2  0  0  0  0
  7 19  1  0  0  0  0
  8 28  1  0  0  0  0
  9 17  1  0  0  0  0
  9 24  1  0  0  0  0
  9 26  2  0  0  0  0
 10 20  1  0  0  0  0
 10 25  1  0  0  0  0
 10 27  2  0  0  0  0
 11 12  1  0  0  0  0
 11 13  1  0  0  0  0
 12 14  1  0  0  0  0
 13 24  1  0  0  0  0
 14 24  1  0  0  0  0
 15 18  1  0  0  0  0
 16 20  1  0  0  0  0
 17 28  1  0  0  0  0
 18 19  1  0  0  0  0
 19 25  1  0  0  0  0
 20 23  1  0  0  0  0
 22 23  1  0  0  0  0
  1 29  1  0  0  0  0
  2 30  1  0  0  0  0
  3 31  1  0  0  0  0
  4 32  1  0  0  0  0
  5 33  1  0  0  0  0
  6 34  1  0  0  0  0
 11 35  1  0  0  0  0
 11 36  1  0  0  0  0
 12 37  1  0  0  0  0
 12 38  1  0  0  0  0
 13 39  1  0  0  0  0
 13 40  1  0  0  0  0
 14 41  1  0  0  0  0
 14 42  1  0  0  0  0
 15 43  1  0  0  0  0
 15 44  1  0  0  0  0
 15 45  1  0  0  0  0
 16 46  1  0  0  0  0
 16 47  1  0  0  0  0
 16 48  1  0  0  0  0
 17 49  1  0  0  0  0
 17 50  1  0  0  0  0
 18 51  1  0  0  0  0
 18 52  1  0  0  0  0
 19 53  1  0  0  0  0
 20 54  1  0  0  0  0
 25 55  1  0  0  0  0
M  END
> <IC50 (uM)>

> <IC50 (uM) - std>

> <Average Inhibition @ 20 uM>

> <Average Inhibition @ 20 uM - std>
-0.907

> <Average Inhibition @ 50 uM>
0.797

> <Average Inhibition @ 50 uM - std>
0.701

> <Trypsin IC50 (uM)>
0.541

> <Relative Solubility @ 20 uM>
1.0

> <Relative Solubility @ 100 uM>
0.99

> <Hybrid2>
-8.428527

> <docked_fragment>
x0195

> <Mpro-_dock>
3.627711

> <site>
active-noncovalent

$$$$
TRI-UNI-97428359-1
  -OEChem-05192003313D

 51 53  0     0  0  0  0  0  0999 V2000
   10.3688    7.1862   24.1075 C   0  0  0  0  0  0  0  0  0  0  0  0
   11.5934    6.6185   24.4590 C   0  0  0  0  0  0  0  0  0  0  0  0
    9.3436    6.3810   23.6111 C   0  0  0  0  0  0  0  0  0  0  0  0
    5.6391    0.9700   19.7444 C   0  0  0  0  0  0  0  0  0  0  0  0
    5.7171    1.7165   18.5739 C   0  0  0  0  0  0  0  0  0  0  0  0
   11.7929    5.2456   24.3141 C   0  0  0  0  0  0  0  0  0  0  0  0
    9.5431    5.0081   23.4663 C   0  0  0  0  0  0  0  0  0  0  0  0
    6.3433   -0.2243   19.8488 C   0  0  0  0  0  0  0  0  0  0  0  0
    6.5070    1.2291   17.5452 C   0  0  0  0  0  0  0  0  0  0  0  0
   10.7678    4.4404   23.8178 C   0  0  0  0  0  0  0  0  0  0  0  0
    7.1050   -0.6251   18.7629 C   0  0  0  0  0  0  0  0  0  0  0  0
    9.0805   -2.0633   21.0219 C   0  0  0  0  0  0  0  0  0  0  0  0
   12.0487    2.6220   22.7811 C   0  0  0  0  0  0  0  0  0  0  0  0
    9.8287    2.1481   23.8019 C   0  0  0  0  0  0  0  0  0  0  0  0
   12.5185    1.2235   23.1577 C   0  0  0  0  0  0  0  0  0  0  0  0
   10.3019    0.7481   24.1718 C   0  0  0  0  0  0  0  0  0  0  0  0
    7.8784   -1.9096   18.8406 C   0  0  0  0  0  0  0  0  0  0  0  0
   10.6459   -2.0723   22.9593 C   0  0  0  0  0  0  0  0  0  0  0  0
   11.7496   -1.1354   23.4126 C   0  0  0  0  0  0  0  0  0  0  0  0
    7.2054    0.0734   17.6098 N   0  0  0  0  0  0  0  0  0  0  0  0
   10.9676    3.0626   23.6724 N   0  0  0  0  0  0  0  0  0  0  0  0
    9.0618   -1.7795   19.6590 N   0  0  0  0  0  0  0  0  0  0  0  0
   10.3386   -1.8481   21.5290 N   0  0  0  0  0  0  0  0  0  0  0  0
   11.3352    0.2895   23.1750 N   0  3  0  0  0  0  0  0  0  0  0  0
    8.1061   -2.4500   21.6659 O   0  0  0  0  0  0  0  0  0  0  0  0
   10.2136    8.2554   24.2201 H   0  0  0  0  0  0  0  0  0  0  0  0
   12.3914    7.2455   24.8453 H   0  0  0  0  0  0  0  0  0  0  0  0
    8.3900    6.8233   23.3374 H   0  0  0  0  0  0  0  0  0  0  0  0
    5.0306    1.3185   20.5735 H   0  0  0  0  0  0  0  0  0  0  0  0
    5.1768    2.6505   18.4703 H   0  0  0  0  0  0  0  0  0  0  0  0
   12.7509    4.8131   24.5908 H   0  0  0  0  0  0  0  0  0  0  0  0
    8.7368    4.3905   23.0787 H   0  0  0  0  0  0  0  0  0  0  0  0
    6.2909   -0.8160   20.7564 H   0  0  0  0  0  0  0  0  0  0  0  0
    6.6014    1.7738   16.6116 H   0  0  0  0  0  0  0  0  0  0  0  0
   12.9014    3.3084   22.8553 H   0  0  0  0  0  0  0  0  0  0  0  0
   11.7038    2.6363   21.7388 H   0  0  0  0  0  0  0  0  0  0  0  0
    9.2638    2.1172   22.8609 H   0  0  0  0  0  0  0  0  0  0  0  0
    9.1462    2.5035   24.5840 H   0  0  0  0  0  0  0  0  0  0  0  0
   13.2261    0.8433   22.4134 H   0  0  0  0  0  0  0  0  0  0  0  0
   12.9841    1.1987   24.1496 H   0  0  0  0  0  0  0  0  0  0  0  0
   10.7570    0.7186   25.1684 H   0  0  0  0  0  0  0  0  0  0  0  0
    9.4687    0.0387   24.1312 H   0  0  0  0  0  0  0  0  0  0  0  0
    7.2600   -2.7074   19.2662 H   0  0  0  0  0  0  0  0  0  0  0  0
    8.1943   -2.2388   17.8451 H   0  0  0  0  0  0  0  0  0  0  0  0
   10.9304   -3.1203   23.0999 H   0  0  0  0  0  0  0  0  0  0  0  0
    9.7350   -1.8863   23.5374 H   0  0  0  0  0  0  0  0  0  0  0  0
   12.6670   -1.2941   22.8388 H   0  0  0  0  0  0  0  0  0  0  0  0
   11.9632   -1.2291   24.4816 H   0  0  0  0  0  0  0  0  0  0  0  0
    9.9213   -1.4659   19.2190 H   0  0  0  0  0  0  0  0  0  0  0  0
   11.1028   -1.5777   20.9459 H   0  0  0  0  0  0  0  0  0  0  0  0
   10.9019    0.3168   22.2415 H   0  0  0  0  0  0  0  0  0  0  0  0
  1  2  1  0  0  0  0
  1  3  2  0  0  0  0
  2  6  2  0  0  0  0
  3  7  1  0  0  0  0
  4  5  1  0  0  0  0
  4  8  2  0  0  0  0
  5  9  2  0  0  0  0
  6 10  1  0  0  0  0
  7 10  2  0  0  0  0
  8 11  1  0  0  0  0
  9 20  1  0  0  0  0
 10 21  1  0  0  0  0
 11 17  1  0  0  0  0
 11 20  2  0  0  0  0
 12 22  1  0  0  0  0
 12 23  1  0  0  0  0
 12 25  2  0  0  0  0
 13 15  1  0  0  0  0
 13 21  1  0  0  0  0
 14 16  1  0  0  0  0
 14 21  1  0  0  0  0
 15 24  1  0  0  0  0
 16 24  1  0  0  0  0
 17 22  1  0  0  0  0
 18 19  1  0  0  0  0
 18 23  1  0  0  0  0
 19 24  1  0  0  0  0
  1 26  1  0  0  0  0
  2 27  1  0  0  0  0
  3 28  1  0  0  0  0
  4 29  1  0  0  0  0
  5 30  1  0  0  0  0
  6 31  1  0  0  0  0
  7 32  1  0  0  0  0
  8 33  1  0  0  0  0
  9 34  1  0  0  0  0
 13 35  1  0  0  0  0
 13 36  1  0  0  0  0
 14 37  1  0  0  0  0
 14 38  1  0  0  0  0
 15 39  1  0  0  0  0
 15 40  1  0  0  0  0
 16 41  1  0  0  0  0
 16 42  1  0  0  0  0
 17 43  1  0  0  0  0
 17 44  1  0  0  0  0
 18 45  1  0  0  0  0
 18 46  1  0  0  0  0
 19 47  1  0  0  0  0
 19 48  1  0  0  0  0
 22 49  1  0  0  0  0
 23 50  1  0  0  0  0
 24 51  1  0  0  0  0
M  CHG  1  24   1
M  END
> <IC50 (uM)>

> <IC50 (uM) - std>

> <Average Inhibition @ 20 uM>

> <Average Inhibition @ 20 uM - std>

> <Average Inhibition @ 50 uM>

> <Average Inhibition @ 50 uM - std>
-11.4

> <Trypsin IC50 (uM)>
8.64

> <Relative Solubility @ 20 uM>

> <Relative Solubility @ 100 uM>

> <Hybrid2>
-8.423624

> <docked_fragment>
x0678

> <Mpro-_dock>
3.942343

> <site>
active-noncovalent

$$$$
MAT-POS-916a2c5a-3
  -OEChem-05192003313D

 59 62  0     0  0  0  0  0  0999 V2000
    4.5799    2.6342   21.9569 C   0  0  0  0  0  0  0  0  0  0  0  0
    3.5786    2.7514   20.9961 C   0  0  0  0  0  0  0  0  0  0  0  0
    5.7344    1.8927   21.6870 C   0  0  0  0  0  0  0  0  0  0  0  0
    3.7278    2.1278   19.7607 C   0  0  0  0  0  0  0  0  0  0  0  0
    5.0198   -5.5365   26.8401 C   0  0  0  0  0  0  0  0  0  0  0  0
    5.9026    1.2571   20.4498 C   0  0  0  0  0  0  0  0  0  0  0  0
    6.2217   -4.8766   27.0959 C   0  0  0  0  0  0  0  0  0  0  0  0
    4.7547   -6.0332   25.5639 C   0  0  0  0  0  0  0  0  0  0  0  0
    7.1585   -4.7132   26.0754 C   0  0  0  0  0  0  0  0  0  0  0  0
    5.6915   -5.8698   24.5434 C   0  0  0  0  0  0  0  0  0  0  0  0
    4.8831    1.3865   19.4931 C   0  0  0  0  0  0  0  0  0  0  0  0
    6.8934   -5.2098   24.7991 C   0  0  0  0  0  0  0  0  0  0  0  0
    7.1879   -0.1220   18.8958 C   0  0  0  0  0  0  0  0  0  0  0  0
    7.0894    0.4614   20.0998 C   0  0  0  0  0  0  0  0  0  0  0  0
    6.1117    0.0107   17.8775 C   0  0  0  0  0  0  0  0  0  0  0  0
    8.2466    0.2294   20.9978 C   0  0  0  0  0  0  0  0  0  0  0  0
    7.0201   -1.8039   21.8347 C   0  0  0  0  0  0  0  0  0  0  0  0
    9.2778   -1.2154   22.7037 C   0  0  0  0  0  0  0  0  0  0  0  0
    6.9156   -2.5560   23.1545 C   0  0  0  0  0  0  0  0  0  0  0  0
    9.4159   -2.7209   22.8807 C   0  0  0  0  0  0  0  0  0  0  0  0
    6.4800   -4.3557   28.4719 C   0  0  0  0  0  0  0  0  0  0  0  0
    3.4597   -6.7358   25.3176 C   0  0  0  0  0  0  0  0  0  0  0  0
    8.4433   -4.0019   26.3636 C   0  0  0  0  0  0  0  0  0  0  0  0
    5.3937   -6.4079   23.1790 C   0  0  0  0  0  0  0  0  0  0  0  0
    5.0159    0.7630   18.2400 N   0  0  0  0  0  0  0  0  0  0  0  0
    8.1656   -0.8895   21.8143 N   0  0  0  0  0  0  0  0  0  0  0  0
    8.1709   -3.3004   23.4589 N   0  0  0  0  0  0  0  0  0  0  0  0
    6.2308   -0.5378   16.7839 O   0  0  0  0  0  0  0  0  0  0  0  0
    9.1585    1.0414   20.9167 O   0  0  0  0  0  0  0  0  0  0  0  0
    9.3420   -5.5302   23.9774 O   0  0  0  0  0  0  0  0  0  0  0  0
    7.4843   -5.4760   22.2764 O   0  0  0  0  0  0  0  0  0  0  0  0
    8.0790   -5.0032   23.5078 S   0  0  0  0  0  0  0  0  0  0  0  0
    4.4638    3.1210   22.9213 H   0  0  0  0  0  0  0  0  0  0  0  0
    2.6838    3.3282   21.2099 H   0  0  0  0  0  0  0  0  0  0  0  0
    6.4878    1.8294   22.4665 H   0  0  0  0  0  0  0  0  0  0  0  0
    2.9426    2.2245   19.0155 H   0  0  0  0  0  0  0  0  0  0  0  0
    4.2895   -5.6643   27.6359 H   0  0  0  0  0  0  0  0  0  0  0  0
    8.0482   -0.7161   18.6025 H   0  0  0  0  0  0  0  0  0  0  0  0
    7.0710   -2.5180   21.0010 H   0  0  0  0  0  0  0  0  0  0  0  0
    6.1219   -1.1884   21.6724 H   0  0  0  0  0  0  0  0  0  0  0  0
    9.0708   -0.7309   23.6682 H   0  0  0  0  0  0  0  0  0  0  0  0
   10.2307   -0.8244   22.3374 H   0  0  0  0  0  0  0  0  0  0  0  0
    6.7198   -1.8299   23.9636 H   0  0  0  0  0  0  0  0  0  0  0  0
    6.0622   -3.2592   23.1337 H   0  0  0  0  0  0  0  0  0  0  0  0
    9.6387   -3.2066   21.9164 H   0  0  0  0  0  0  0  0  0  0  0  0
   10.2594   -2.9242   23.5591 H   0  0  0  0  0  0  0  0  0  0  0  0
    6.9823   -5.1182   29.0783 H   0  0  0  0  0  0  0  0  0  0  0  0
    7.1112   -3.4591   28.4440 H   0  0  0  0  0  0  0  0  0  0  0  0
    5.5446   -4.0726   28.9702 H   0  0  0  0  0  0  0  0  0  0  0  0
    2.6942   -6.0196   24.9975 H   0  0  0  0  0  0  0  0  0  0  0  0
    3.5669   -7.5035   24.5415 H   0  0  0  0  0  0  0  0  0  0  0  0
    3.1064   -7.2441   26.2232 H   0  0  0  0  0  0  0  0  0  0  0  0
    9.2039   -4.7171   26.6943 H   0  0  0  0  0  0  0  0  0  0  0  0
    8.8131   -3.4813   25.4730 H   0  0  0  0  0  0  0  0  0  0  0  0
    8.3074   -3.2457   27.1452 H   0  0  0  0  0  0  0  0  0  0  0  0
    4.8822   -5.6487   22.5780 H   0  0  0  0  0  0  0  0  0  0  0  0
    6.3144   -6.7037   22.6634 H   0  0  0  0  0  0  0  0  0  0  0  0
    4.7574   -7.2983   23.2377 H   0  0  0  0  0  0  0  0  0  0  0  0
    4.2604    0.8739   17.5697 H   0  0  0  0  0  0  0  0  0  0  0  0
  1  2  1  0  0  0  0
  1  3  2  0  0  0  0
  2  4  2  0  0  0  0
  3  6  1  0  0  0  0
  4 11  1  0  0  0  0
  5  7  1  0  0  0  0
  5  8  2  0  0  0  0
  6 11  2  0  0  0  0
  6 14  1  0  0  0  0
  7  9  2  0  0  0  0
  7 21  1  0  0  0  0
  8 10  1  0  0  0  0
  8 22  1  0  0  0  0
  9 12  1  0  0  0  0
  9 23  1  0  0  0  0
 10 12  2  0  0  0  0
 10 24  1  0  0  0  0
 11 25  1  0  0  0  0
 12 32  1  0  0  0  0
 13 14  2  0  0  0  0
 13 15  1  0  0  0  0
 14 16  1  0  0  0  0
 15 25  1  0  0  0  0
 15 28  2  0  0  0  0
 16 26  1  0  0  0  0
 16 29  2  0  0  0  0
 17 19  1  0  0  0  0
 17 26  1  0  0  0  0
 18 20  1  0  0  0  0
 18 26  1  0  0  0  0
 19 27  1  0  0  0  0
 20 27  1  0  0  0  0
 27 32  1  0  0  0  0
 30 32  2  0  0  0  0
 31 32  2  0  0  0  0
  1 33  1  0  0  0  0
  2 34  1  0  0  0  0
  3 35  1  0  0  0  0
  4 36  1  0  0  0  0
  5 37  1  0  0  0  0
 13 38  1  0  0  0  0
 17 39  1  0  0  0  0
 17 40  1  0  0  0  0
 18 41  1  0  0  0  0
 18 42  1  0  0  0  0
 19 43  1  0  0  0  0
 19 44  1  0  0  0  0
 20 45  1  0  0  0  0
 20 46  1  0  0  0  0
 21 47  1  0  0  0  0
 21 48  1  0  0  0  0
 21 49  1  0  0  0  0
 22 50  1  0  0  0  0
 22 51  1  0  0  0  0
 22 52  1  0  0  0  0
 23 53  1  0  0  0  0
 23 54  1  0  0  0  0
 23 55  1  0  0  0  0
 24 56  1  0  0  0  0
 24 57  1  0  0  0  0
 24 58  1  0  0  0  0
 25 59  1  0  0  0  0
M  END
> <IC50 (uM)>
8.19

> <IC50 (uM) - std>
0.52

> <Average Inhibition @ 20 uM>
> 99.0

> <Average Inhibition @ 20 uM - std>
84.4

> <Average Inhibition @ 50 uM>
0.904

> <Average Inhibition @ 50 uM - std>
92.9

> <Trypsin IC50 (uM)>
0.294

> <Relative Solubility @ 20 uM>
0.75

> <Relative Solubility @ 100 uM>
0.65

> <Hybrid2>
-8.398966

> <docked_fragment>
x0434

> <Mpro-_dock>
5.770675

> <site>
active-noncovalent

$$$$
DAR-DIA-23aa0b97-1
  -OEChem-05192003313D

 33 35  0     0  0  0  0  0  0999 V2000
    6.0614   -2.9882   19.5855 C   0  0  0  0  0  0  0  0  0  0  0  0
    6.9145   -3.7532   23.1271 C   0  0  0  0  0  0  0  0  0  0  0  0
    9.2109    1.5922   25.6047 C   0  0  0  0  0  0  0  0  0  0  0  0
    6.2185   -3.6997   21.9196 C   0  0  0  0  0  0  0  0  0  0  0  0
    9.9240    0.6151   24.9125 C   0  0  0  0  0  0  0  0  0  0  0  0
    8.1669   -3.1489   23.2377 C   0  0  0  0  0  0  0  0  0  0  0  0
    8.0272   -2.4378   20.9330 C   0  0  0  0  0  0  0  0  0  0  0  0
    9.6824    2.8981   25.5915 C   0  0  0  0  0  0  0  0  0  0  0  0
   12.9886    1.3179   23.0539 C   0  0  0  0  0  0  0  0  0  0  0  0
    6.7748   -3.0421   20.8225 C   0  0  0  0  0  0  0  0  0  0  0  0
   11.0889    1.0099   24.2351 C   0  0  0  0  0  0  0  0  0  0  0  0
   12.0723    0.3636   23.4402 C   0  0  0  0  0  0  0  0  0  0  0  0
    8.7232   -2.4912   22.1406 C   0  0  0  0  0  0  0  0  0  0  0  0
   11.4466    2.3531   24.3054 C   0  0  0  0  0  0  0  0  0  0  0  0
   10.8183   -1.8333   23.3746 C   0  0  0  0  0  0  0  0  0  0  0  0
   12.1153   -1.0694   23.0864 C   0  0  0  0  0  0  0  0  0  0  0  0
    5.4820   -2.9444   18.5810 N   0  0  0  0  0  0  0  0  0  0  0  0
   10.7957    3.3347   24.9579 N   0  0  0  0  0  0  0  0  0  0  0  0
   12.5996    2.5205   23.5845 N   0  0  0  0  0  0  0  0  0  0  0  0
    9.9932   -1.8771   22.2536 N   0  0  0  0  0  0  0  0  0  0  0  0
   10.5973   -2.3195   24.4791 O   0  0  0  0  0  0  0  0  0  0  0  0
    6.4809   -4.2645   23.9817 H   0  0  0  0  0  0  0  0  0  0  0  0
    8.3049    1.3360   26.1433 H   0  0  0  0  0  0  0  0  0  0  0  0
    5.2437   -4.1762   21.8491 H   0  0  0  0  0  0  0  0  0  0  0  0
    9.5823   -0.4148   24.9021 H   0  0  0  0  0  0  0  0  0  0  0  0
    8.7002   -3.1968   24.1838 H   0  0  0  0  0  0  0  0  0  0  0  0
    8.4645   -1.9243   20.0789 H   0  0  0  0  0  0  0  0  0  0  0  0
    9.1388    3.6734   26.1251 H   0  0  0  0  0  0  0  0  0  0  0  0
   13.8822    1.2505   22.4489 H   0  0  0  0  0  0  0  0  0  0  0  0
   12.3469   -1.2071   22.0119 H   0  0  0  0  0  0  0  0  0  0  0  0
   12.9314   -1.5872   23.6275 H   0  0  0  0  0  0  0  0  0  0  0  0
   13.0886    3.3966   23.4640 H   0  0  0  0  0  0  0  0  0  0  0  0
   10.3445   -1.4135   21.4182 H   0  0  0  0  0  0  0  0  0  0  0  0
  1 10  1  0  0  0  0
  1 17  3  0  0  0  0
  2  4  2  0  0  0  0
  2  6  1  0  0  0  0
  3  5  2  0  0  0  0
  3  8  1  0  0  0  0
  4 10  1  0  0  0  0
  5 11  1  0  0  0  0
  6 13  2  0  0  0  0
  7 10  2  0  0  0  0
  7 13  1  0  0  0  0
  8 18  2  0  0  0  0
  9 12  2  0  0  0  0
  9 19  1  0  0  0  0
 11 12  1  0  0  0  0
 11 14  2  0  0  0  0
 12 16  1  0  0  0  0
 13 20  1  0  0  0  0
 14 18  1  0  0  0  0
 14 19  1  0  0  0  0
 15 16  1  0  0  0  0
 15 20  1  0  0  0  0
 15 21  2  0  0  0  0
  2 22  1  0  0  0  0
  3 23  1  0  0  0  0
  4 24  1  0  0  0  0
  5 25  1  0  0  0  0
  6 26  1  0  0  0  0
  7 27  1  0  0  0  0
  8 28  1  0  0  0  0
  9 29  1  0  0  0  0
 16 30  1  0  0  0  0
 16 31  1  0  0  0  0
 19 32  1  0  0  0  0
 20 33  1  0  0  0  0
M  END
> <IC50 (uM)>

> <IC50 (uM) - std>

> <Average Inhibition @ 20 uM>

> <Average Inhibition @ 20 uM - std>
2.74

> <Average Inhibition @ 50 uM>
4.51

> <Average Inhibition @ 50 uM - std>
2.91

> <Trypsin IC50 (uM)>
1.69

> <Relative Solubility @ 20 uM>
1.0

> <Relative Solubility @ 100 uM>
0.95

> <Hybrid2>
-8.394180

> <docked_fragment>
x0830

> <Mpro-_dock>
0.560642

> <site>
active-covalent

$$$$
ANT-DIA-b7f58f21-3
  -OEChem-05192003313D

 27 27  0     0  0  0  0  0  0999 V2000
   14.1734   -1.1905   22.1614 C   0  0  0  0  0  0  0  0  0  0  0  0
   13.2525   -2.0120   22.8116 C   0  0  0  0  0  0  0  0  0  0  0  0
   14.0406    0.1964   22.2292 C   0  0  0  0  0  0  0  0  0  0  0  0
   12.1986   -1.4466   23.5294 C   0  0  0  0  0  0  0  0  0  0  0  0
   12.9867    0.7618   22.9471 C   0  0  0  0  0  0  0  0  0  0  0  0
   12.0657   -0.0597   23.5972 C   0  0  0  0  0  0  0  0  0  0  0  0
   10.6842    6.5550   23.6362 C   0  0  0  0  0  0  0  0  0  0  0  0
   12.8586    2.2641   23.0092 C   0  0  0  0  0  0  0  0  0  0  0  0
   11.5274    2.7714   22.4601 C   0  0  0  0  0  0  0  0  0  0  0  0
   11.4223    4.2410   22.5002 N   0  0  0  0  0  0  0  0  0  0  0  0
   12.9347    5.3764   24.2660 O   0  0  0  0  0  0  0  0  0  0  0  0
   10.7594    4.3196   24.9788 O   0  0  0  0  0  0  0  0  0  0  0  0
   11.0302    0.4764   24.3019 O   0  0  0  0  0  0  0  0  0  0  0  0
   11.5484    5.0444   24.0013 S   0  0  0  0  0  0  0  0  0  0  0  0
   14.9940   -1.6303   21.6018 H   0  0  0  0  0  0  0  0  0  0  0  0
   13.3558   -3.0917   22.7578 H   0  0  0  0  0  0  0  0  0  0  0  0
   14.7625    0.8277   21.7180 H   0  0  0  0  0  0  0  0  0  0  0  0
   11.4843   -2.0917   24.0337 H   0  0  0  0  0  0  0  0  0  0  0  0
   10.6885    7.1791   24.5311 H   0  0  0  0  0  0  0  0  0  0  0  0
   11.2004    7.0577   22.8169 H   0  0  0  0  0  0  0  0  0  0  0  0
    9.6617    6.3058   23.3486 H   0  0  0  0  0  0  0  0  0  0  0  0
   13.6809    2.7075   22.4335 H   0  0  0  0  0  0  0  0  0  0  0  0
   12.9954    2.6057   24.0431 H   0  0  0  0  0  0  0  0  0  0  0  0
   11.4194    2.4757   21.4118 H   0  0  0  0  0  0  0  0  0  0  0  0
   10.6784    2.3641   23.0189 H   0  0  0  0  0  0  0  0  0  0  0  0
   11.8365    4.7114   21.6849 H   0  0  0  0  0  0  0  0  0  0  0  0
   10.4874   -0.2286   24.6883 H   0  0  0  0  0  0  0  0  0  0  0  0
  1  2  1  0  0  0  0
  1  3  2  0  0  0  0
  2  4  2  0  0  0  0
  3  5  1  0  0  0  0
  4  6  1  0  0  0  0
  5  6  2  0  0  0  0
  5  8  1  0  0  0  0
  6 13  1  0  0  0  0
  7 14  1  0  0  0  0
  8  9  1  0  0  0  0
  9 10  1  0  0  0  0
 10 14  1  0  0  0  0
 11 14  2  0  0  0  0
 12 14  2  0  0  0  0
  1 15  1  0  0  0  0
  2 16  1  0  0  0  0
  3 17  1  0  0  0  0
  4 18  1  0  0  0  0
  7 19  1  0  0  0  0
  7 20  1  0  0  0  0
  7 21  1  0  0  0  0
  8 22  1  0  0  0  0
  8 23  1  0  0  0  0
  9 24  1  0  0  0  0
  9 25  1  0  0  0  0
 10 26  1  0  0  0  0
 13 27  1  0  0  0  0
M  END
> <IC50 (uM)>

> <IC50 (uM) - std>

> <Average Inhibition @ 20 uM>

> <Average Inhibition @ 20 uM - std>

> <Average Inhibition @ 50 uM>

> <Average Inhibition @ 50 uM - std>
-5.0

> <Trypsin IC50 (uM)>
3.41

> <Relative Solubility @ 20 uM>

> <Relative Solubility @ 100 uM>

> <Hybrid2>
-8.386959

> <docked_fragment>
x0195

> <Mpro-_dock>
-1.445947

> <site>
active-noncovalent

$$$$
BAR-COM-4e090d3a-49
  -OEChem-05192003313D

 30 31  0     0  0  0  0  0  0999 V2000
    9.9006    2.0956   25.9853 C   0  0  0  0  0  0  0  0  0  0  0  0
   13.4898   -1.0000   21.7641 C   0  0  0  0  0  0  0  0  0  0  0  0
   13.8189    0.2247   22.3451 C   0  0  0  0  0  0  0  0  0  0  0  0
   12.2080   -1.5262   21.9248 C   0  0  0  0  0  0  0  0  0  0  0  0
   12.8662    0.9231   23.0869 C   0  0  0  0  0  0  0  0  0  0  0  0
    6.3183   -3.1514   19.9631 C   0  0  0  0  0  0  0  0  0  0  0  0
    7.4076   -1.1296   20.0015 C   0  0  0  0  0  0  0  0  0  0  0  0
   11.2553   -0.8277   22.6666 C   0  0  0  0  0  0  0  0  0  0  0  0
    7.3150   -2.3639   20.6072 C   0  0  0  0  0  0  0  0  0  0  0  0
   11.5844    0.3969   23.2476 C   0  0  0  0  0  0  0  0  0  0  0  0
    9.9231   -1.3950   22.8221 C   0  0  0  0  0  0  0  0  0  0  0  0
   10.9885    1.3632   25.3374 C   0  0  0  0  0  0  0  0  0  0  0  0
    8.1435   -2.8143   21.7754 C   0  0  0  0  0  0  0  0  0  0  0  0
    9.0382    2.6767   26.5000 N   0  0  0  0  0  0  0  0  0  0  0  0
    5.6733   -2.5987   18.9385 N   0  0  0  0  0  0  0  0  0  0  0  0
    9.4517   -2.2000   21.7796 N   0  0  0  0  0  0  0  0  0  0  0  0
    9.2465   -1.1443   23.8340 O   0  0  0  0  0  0  0  0  0  0  0  0
   10.6667    1.0952   23.9743 O   0  0  0  0  0  0  0  0  0  0  0  0
    6.2738   -1.0647   18.7193 S   0  0  0  0  0  0  0  0  0  0  0  0
   14.2320   -1.5437   21.1865 H   0  0  0  0  0  0  0  0  0  0  0  0
   14.8172    0.6335   22.2201 H   0  0  0  0  0  0  0  0  0  0  0  0
   11.9626   -2.4812   21.4671 H   0  0  0  0  0  0  0  0  0  0  0  0
   13.1290    1.8767   23.5367 H   0  0  0  0  0  0  0  0  0  0  0  0
    6.0379   -4.1608   20.2329 H   0  0  0  0  0  0  0  0  0  0  0  0
    8.0568   -0.2983   20.2384 H   0  0  0  0  0  0  0  0  0  0  0  0
   11.9116    1.9498   25.3552 H   0  0  0  0  0  0  0  0  0  0  0  0
   11.1832    0.4119   25.8416 H   0  0  0  0  0  0  0  0  0  0  0  0
    7.6491   -2.5615   22.7197 H   0  0  0  0  0  0  0  0  0  0  0  0
    8.2837   -3.9003   21.7623 H   0  0  0  0  0  0  0  0  0  0  0  0
   10.0208   -2.3203   20.9481 H   0  0  0  0  0  0  0  0  0  0  0  0
  1 12  1  0  0  0  0
  1 14  3  0  0  0  0
  2  3  1  0  0  0  0
  2  4  2  0  0  0  0
  3  5  2  0  0  0  0
  4  8  1  0  0  0  0
  5 10  1  0  0  0  0
  6  9  1  0  0  0  0
  6 15  2  0  0  0  0
  7  9  2  0  0  0  0
  7 19  1  0  0  0  0
  8 10  2  0  0  0  0
  8 11  1  0  0  0  0
  9 13  1  0  0  0  0
 10 18  1  0  0  0  0
 11 16  1  0  0  0  0
 11 17  2  0  0  0  0
 12 18  1  0  0  0  0
 13 16  1  0  0  0  0
 15 19  1  0  0  0  0
  2 20  1  0  0  0  0
  3 21  1  0  0  0  0
  4 22  1  0  0  0  0
  5 23  1  0  0  0  0
  6 24  1  0  0  0  0
  7 25  1  0  0  0  0
 12 26  1  0  0  0  0
 12 27  1  0  0  0  0
 13 28  1  0  0  0  0
 13 29  1  0  0  0  0
 16 30  1  0  0  0  0
M  END
> <IC50 (uM)>

> <IC50 (uM) - std>

> <Average Inhibition @ 20 uM>

> <Average Inhibition @ 20 uM - std>
2.21

> <Average Inhibition @ 50 uM>
1.97

> <Average Inhibition @ 50 uM - std>
5.96

> <Trypsin IC50 (uM)>
0.936

> <Relative Solubility @ 20 uM>
1.0

> <Relative Solubility @ 100 uM>
1.0

> <Hybrid2>
-8.371911

> <docked_fragment>
x0830

> <Mpro-_dock>
-1.137905

> <site>
active-covalent

$$$$
TRY-UNI-714a760b-20
  -OEChem-05192003313D

 32 33  0     0  0  0  0  0  0999 V2000
   10.1524   -0.6706   25.1140 C   0  0  0  0  0  0  0  0  0  0  0  0
    9.8372   -4.2595   24.1778 C   0  0  0  0  0  0  0  0  0  0  0  0
   10.3835   -3.0533   24.6164 C   0  0  0  0  0  0  0  0  0  0  0  0
    8.4993   -4.3182   23.7878 C   0  0  0  0  0  0  0  0  0  0  0  0
    6.8869    0.7959   18.8540 C   0  0  0  0  0  0  0  0  0  0  0  0
    8.2538   -1.9647   24.2751 C   0  0  0  0  0  0  0  0  0  0  0  0
    6.3369    0.0395   17.8316 C   0  0  0  0  0  0  0  0  0  0  0  0
    5.9306   -1.7305   19.2388 C   0  0  0  0  0  0  0  0  0  0  0  0
    9.5918   -1.9059   24.6650 C   0  0  0  0  0  0  0  0  0  0  0  0
    7.7076   -3.1708   23.8365 C   0  0  0  0  0  0  0  0  0  0  0  0
    6.9469    0.2298   20.1225 C   0  0  0  0  0  0  0  0  0  0  0  0
    6.4618   -1.0572   20.3270 C   0  0  0  0  0  0  0  0  0  0  0  0
    6.0506   -2.9506   21.9367 C   0  0  0  0  0  0  0  0  0  0  0  0
    7.5354    1.0226   21.2431 C   0  0  0  0  0  0  0  0  0  0  0  0
    6.2770   -3.2340   23.4195 C   0  0  0  0  0  0  0  0  0  0  0  0
   10.6077    0.3327   25.4785 N   0  0  0  0  0  0  0  0  0  0  0  0
    5.8555   -1.2135   17.9919 N   0  0  0  0  0  0  0  0  0  0  0  0
    6.5001   -1.6765   21.5990 N   0  0  0  0  0  0  0  0  0  0  0  0
    5.5338   -3.7775   21.1922 O   0  0  0  0  0  0  0  0  0  0  0  0
   10.4531   -5.1533   24.1409 H   0  0  0  0  0  0  0  0  0  0  0  0
   11.4282   -3.0231   24.9167 H   0  0  0  0  0  0  0  0  0  0  0  0
    8.0829   -5.2625   23.4470 H   0  0  0  0  0  0  0  0  0  0  0  0
    7.2567    1.7971   18.6611 H   0  0  0  0  0  0  0  0  0  0  0  0
    7.6310   -1.0732   24.3119 H   0  0  0  0  0  0  0  0  0  0  0  0
    6.2671    0.4353   16.8237 H   0  0  0  0  0  0  0  0  0  0  0  0
    5.5358   -2.7376   19.3351 H   0  0  0  0  0  0  0  0  0  0  0  0
    6.7563    1.6090   21.7437 H   0  0  0  0  0  0  0  0  0  0  0  0
    8.0112    0.3686   21.9841 H   0  0  0  0  0  0  0  0  0  0  0  0
    8.3100    1.7089   20.8788 H   0  0  0  0  0  0  0  0  0  0  0  0
    5.8559   -4.2278   23.6445 H   0  0  0  0  0  0  0  0  0  0  0  0
    5.6778   -2.5138   24.0007 H   0  0  0  0  0  0  0  0  0  0  0  0
    6.9031   -1.1268   22.3550 H   0  0  0  0  0  0  0  0  0  0  0  0
  1  9  1  0  0  0  0
  1 16  3  0  0  0  0
  2  3  1  0  0  0  0
  2  4  2  0  0  0  0
  3  9  2  0  0  0  0
  4 10  1  0  0  0  0
  5  7  2  0  0  0  0
  5 11  1  0  0  0  0
  6  9  1  0  0  0  0
  6 10  2  0  0  0  0
  7 17  1  0  0  0  0
  8 12  1  0  0  0  0
  8 17  2  0  0  0  0
 10 15  1  0  0  0  0
 11 12  2  0  0  0  0
 11 14  1  0  0  0  0
 12 18  1  0  0  0  0
 13 15  1  0  0  0  0
 13 18  1  0  0  0  0
 13 19  2  0  0  0  0
  2 20  1  0  0  0  0
  3 21  1  0  0  0  0
  4 22  1  0  0  0  0
  5 23  1  0  0  0  0
  6 24  1  0  0  0  0
  7 25  1  0  0  0  0
  8 26  1  0  0  0  0
 14 27  1  0  0  0  0
 14 28  1  0  0  0  0
 14 29  1  0  0  0  0
 15 30  1  0  0  0  0
 15 31  1  0  0  0  0
 18 32  1  0  0  0  0
M  END
> <IC50 (uM)>
63.7

> <IC50 (uM) - std>
8.5

> <Average Inhibition @ 20 uM>
> 49.5

> <Average Inhibition @ 20 uM - std>
33.6

> <Average Inhibition @ 50 uM>
0.817

> <Average Inhibition @ 50 uM - std>
58.3

> <Trypsin IC50 (uM)>
0.0957

> <Relative Solubility @ 20 uM>
1.0

> <Relative Solubility @ 100 uM>
1.01

> <Hybrid2>
-8.371187

> <docked_fragment>
x1385

> <Mpro-_dock>
-1.665791

> <site>
active-covalent

$$$$
MAT-POS-4e253971-3
  -OEChem-05192003313D

 30 31  0     0  0  0  0  0  0999 V2000
   14.1852    1.4409   22.3632 C   0  0  0  0  0  0  0  0  0  0  0  0
   14.6759    0.1565   22.1157 C   0  0  0  0  0  0  0  0  0  0  0  0
   12.7215   -0.7801   23.1547 C   0  0  0  0  0  0  0  0  0  0  0  0
   10.5413    2.0059   24.2799 C   0  0  0  0  0  0  0  0  0  0  0  0
   12.2281    0.5119   23.4035 C   0  0  0  0  0  0  0  0  0  0  0  0
   11.0012    0.7174   24.0489 C   0  0  0  0  0  0  0  0  0  0  0  0
   12.9663    1.6456   23.0040 C   0  0  0  0  0  0  0  0  0  0  0  0
   13.9434   -0.9556   22.5118 C   0  0  0  0  0  0  0  0  0  0  0  0
   11.3334    3.0523   23.8527 C   0  0  0  0  0  0  0  0  0  0  0  0
   10.1569   -0.3829   24.5044 C   0  0  0  0  0  0  0  0  0  0  0  0
   10.8789    4.4554   24.0795 C   0  0  0  0  0  0  0  0  0  0  0  0
   13.6126   -3.3025   22.7075 C   0  0  0  0  0  0  0  0  0  0  0  0
   12.5226    2.8972   23.2269 N   0  0  0  0  0  0  0  0  0  0  0  0
    9.0782   -1.4190   26.3786 N   0  0  0  0  0  0  0  0  0  0  0  0
    9.8919   -0.4214   25.8735 N   0  0  0  0  0  0  0  0  0  0  0  0
    9.6802   -1.2225   23.7283 O   0  0  0  0  0  0  0  0  0  0  0  0
   14.4183   -2.2076   22.2729 O   0  0  0  0  0  0  0  0  0  0  0  0
   14.7780    2.2961   22.0437 H   0  0  0  0  0  0  0  0  0  0  0  0
   15.6312    0.0347   21.6122 H   0  0  0  0  0  0  0  0  0  0  0  0
   12.1641   -1.6643   23.4562 H   0  0  0  0  0  0  0  0  0  0  0  0
    9.5935    2.1872   24.7769 H   0  0  0  0  0  0  0  0  0  0  0  0
   11.2423    4.8221   25.0469 H   0  0  0  0  0  0  0  0  0  0  0  0
   11.2476    5.1250   23.2920 H   0  0  0  0  0  0  0  0  0  0  0  0
    9.7836    4.5250   24.0693 H   0  0  0  0  0  0  0  0  0  0  0  0
   14.1080   -4.2432   22.4549 H   0  0  0  0  0  0  0  0  0  0  0  0
   12.6347   -3.2516   22.2221 H   0  0  0  0  0  0  0  0  0  0  0  0
   13.4833   -3.2408   23.7906 H   0  0  0  0  0  0  0  0  0  0  0  0
    8.5659   -1.0133   27.1607 H   0  0  0  0  0  0  0  0  0  0  0  0
    8.3823   -1.6221   25.6624 H   0  0  0  0  0  0  0  0  0  0  0  0
   10.2920    0.2755   26.4924 H   0  0  0  0  0  0  0  0  0  0  0  0
  1  2  2  0  0  0  0
  1  7  1  0  0  0  0
  2  8  1  0  0  0  0
  3  5  1  0  0  0  0
  3  8  2  0  0  0  0
  4  6  2  0  0  0  0
  4  9  1  0  0  0  0
  5  6  1  0  0  0  0
  5  7  2  0  0  0  0
  6 10  1  0  0  0  0
  7 13  1  0  0  0  0
  8 17  1  0  0  0  0
  9 11  1  0  0  0  0
  9 13  2  0  0  0  0
 10 15  1  0  0  0  0
 10 16  2  0  0  0  0
 12 17  1  0  0  0  0
 14 15  1  0  0  0  0
  1 18  1  0  0  0  0
  2 19  1  0  0  0  0
  3 20  1  0  0  0  0
  4 21  1  0  0  0  0
 11 22  1  0  0  0  0
 11 23  1  0  0  0  0
 11 24  1  0  0  0  0
 12 25  1  0  0  0  0
 12 26  1  0  0  0  0
 12 27  1  0  0  0  0
 14 28  1  0  0  0  0
 14 29  1  0  0  0  0
 15 30  1  0  0  0  0
M  END
> <IC50 (uM)>

> <IC50 (uM) - std>

> <Average Inhibition @ 20 uM>

> <Average Inhibition @ 20 uM - std>

> <Average Inhibition @ 50 uM>

> <Average Inhibition @ 50 uM - std>
17.9

> <Trypsin IC50 (uM)>
1.08

> <Relative Solubility @ 20 uM>

> <Relative Solubility @ 100 uM>

> <Hybrid2>
-8.344446

> <docked_fragment>
x0195

> <Mpro-_dock>
-0.428243

> <site>
active-noncovalent

$$$$
WAR-XCH-b72a1bbc-49
  -OEChem-05192003313D

 47 48  0     1  0  0  0  0  0999 V2000
    9.4139   -0.5565   24.8832 C   0  0  0  0  0  0  0  0  0  0  0  0
   10.6831   -1.8229   23.2638 C   0  0  0  0  0  0  0  0  0  0  0  0
    8.8482   -1.7376   25.3635 C   0  0  0  0  0  0  0  0  0  0  0  0
   10.1174   -3.0040   23.7441 C   0  0  0  0  0  0  0  0  0  0  0  0
   10.3313   -0.5992   23.8333 C   0  0  0  0  0  0  0  0  0  0  0  0
    9.2000   -2.9613   24.7939 C   0  0  0  0  0  0  0  0  0  0  0  0
   12.9348    1.9374   23.0184 C   0  0  0  0  0  0  0  0  0  0  0  0
   10.8107    2.5260   21.8339 C   0  0  0  0  0  0  0  0  0  0  0  0
   12.1497    1.0404   23.9750 C   0  0  0  0  0  0  0  0  0  0  0  0
   10.0290    1.6256   22.7912 C   0  0  0  0  0  0  0  0  0  0  0  0
   12.0949    3.0885   22.4527 C   0  0  0  0  0  0  0  0  0  0  0  0
    9.3708    5.6652   24.0772 C   0  0  0  0  0  0  0  0  0  0  0  0
   12.7000    6.1279   22.2740 C   0  0  0  0  0  0  0  0  0  0  0  0
   11.8028    4.1589   23.5062 C   0  0  0  0  0  0  0  0  0  0  0  0
   10.6517    6.3608   23.6711 C   0  0  0  0  0  0  0  0  0  0  0  0
   10.8996    0.5864   23.3508 N   0  0  0  0  0  0  0  0  0  0  0  0
    9.6141   -4.8688   26.6091 N   0  0  0  0  0  0  0  0  0  0  0  0
   11.4775    5.4249   22.8184 N   0  3  1  0  0  0  0  0  0  0  0  0
    7.2187   -4.1178   26.0229 O   0  0  0  0  0  0  0  0  0  0  0  0
    8.5436   -5.4401   24.3365 O   0  0  0  0  0  0  0  0  0  0  0  0
    8.4919   -4.4401   25.3940 S   0  0  0  0  0  0  0  0  0  0  0  0
    9.1323    0.3916   25.3342 H   0  0  0  0  0  0  0  0  0  0  0  0
   11.3978   -1.8676   22.4459 H   0  0  0  0  0  0  0  0  0  0  0  0
    8.1345   -1.6924   26.1816 H   0  0  0  0  0  0  0  0  0  0  0  0
   10.3987   -3.9518   23.2926 H   0  0  0  0  0  0  0  0  0  0  0  0
   13.8188    2.3390   23.5429 H   0  0  0  0  0  0  0  0  0  0  0  0
   13.3275    1.3227   22.1919 H   0  0  0  0  0  0  0  0  0  0  0  0
   11.0559    1.9527   20.9235 H   0  0  0  0  0  0  0  0  0  0  0  0
   10.1579    3.3529   21.5012 H   0  0  0  0  0  0  0  0  0  0  0  0
   12.7600    0.1729   24.2579 H   0  0  0  0  0  0  0  0  0  0  0  0
   11.9336    1.6058   24.8902 H   0  0  0  0  0  0  0  0  0  0  0  0
    9.6120    2.2470   23.5944 H   0  0  0  0  0  0  0  0  0  0  0  0
    9.1864    1.1617   22.2611 H   0  0  0  0  0  0  0  0  0  0  0  0
   12.6821    3.5717   21.6400 H   0  0  0  0  0  0  0  0  0  0  0  0
    8.7812    5.4114   23.1909 H   0  0  0  0  0  0  0  0  0  0  0  0
    9.5792    4.7385   24.6219 H   0  0  0  0  0  0  0  0  0  0  0  0
    8.7581    6.3070   24.7190 H   0  0  0  0  0  0  0  0  0  0  0  0
   13.3450    6.3781   23.1183 H   0  0  0  0  0  0  0  0  0  0  0  0
   13.2007    5.4434   21.5866 H   0  0  0  0  0  0  0  0  0  0  0  0
   12.3646    7.0285   21.7561 H   0  0  0  0  0  0  0  0  0  0  0  0
   12.6742    4.3380   24.1335 H   0  0  0  0  0  0  0  0  0  0  0  0
   10.9435    3.8835   24.1151 H   0  0  0  0  0  0  0  0  0  0  0  0
   11.2609    6.6260   24.5396 H   0  0  0  0  0  0  0  0  0  0  0  0
   10.4544    7.2530   23.0704 H   0  0  0  0  0  0  0  0  0  0  0  0
    9.3231   -4.7722   27.5896 H   0  0  0  0  0  0  0  0  0  0  0  0
   10.2282   -5.6739   26.4357 H   0  0  0  0  0  0  0  0  0  0  0  0
   10.8899    5.2029   21.9939 H   0  0  0  0  0  0  0  0  0  0  0  0
  1  3  2  0  0  0  0
  1  5  1  0  0  0  0
  2  4  1  0  0  0  0
  2  5  2  0  0  0  0
  3  6  1  0  0  0  0
  4  6  2  0  0  0  0
  5 16  1  0  0  0  0
  6 21  1  0  0  0  0
  7  9  1  0  0  0  0
  7 11  1  0  0  0  0
  8 10  1  0  0  0  0
  8 11  1  0  0  0  0
  9 16  1  0  0  0  0
 10 16  1  0  0  0  0
 11 14  1  0  0  0  0
 12 15  1  0  0  0  0
 13 18  1  0  0  0  0
 14 18  1  0  0  0  0
 15 18  1  0  0  0  0
 17 21  1  0  0  0  0
 19 21  2  0  0  0  0
 20 21  2  0  0  0  0
  1 22  1  0  0  0  0
  2 23  1  0  0  0  0
  3 24  1  0  0  0  0
  4 25  1  0  0  0  0
  7 26  1  0  0  0  0
  7 27  1  0  0  0  0
  8 28  1  0  0  0  0
  8 29  1  0  0  0  0
  9 30  1  0  0  0  0
  9 31  1  0  0  0  0
 10 32  1  0  0  0  0
 10 33  1  0  0  0  0
 11 34  1  0  0  0  0
 12 35  1  0  0  0  0
 12 36  1  0  0  0  0
 12 37  1  0  0  0  0
 13 38  1  0  0  0  0
 13 39  1  0  0  0  0
 13 40  1  0  0  0  0
 14 41  1  0  0  0  0
 14 42  1  0  0  0  0
 15 43  1  0  0  0  0
 15 44  1  0  0  0  0
 17 45  1  0  0  0  0
 17 46  1  0  0  0  0
 18 47  1  0  0  0  0
M  CHG  1  18   1
M  END
> <IC50 (uM)>

> <IC50 (uM) - std>

> <Average Inhibition @ 20 uM>

> <Average Inhibition @ 20 uM - std>
3.39

> <Average Inhibition @ 50 uM>
0.498

> <Average Inhibition @ 50 uM - std>
6.02

> <Trypsin IC50 (uM)>
1.2

> <Relative Solubility @ 20 uM>
1.0

> <Relative Solubility @ 100 uM>
0.98

> <Hybrid2>
-8.318925

> <docked_fragment>
x0104

> <Mpro-_dock>
1.778923

> <site>
active-noncovalent

$$$$
ALV-UNI-7ff1a6f9-46
  -OEChem-05192003313D

 37 39  0     0  0  0  0  0  0999 V2000
    8.4856    7.9617   24.1432 C   0  0  0  0  0  0  0  0  0  0  0  0
    7.9206    7.4239   22.9907 C   0  0  0  0  0  0  0  0  0  0  0  0
    9.7112    7.4844   24.6085 C   0  0  0  0  0  0  0  0  0  0  0  0
    8.5790    6.4067   22.2991 C   0  0  0  0  0  0  0  0  0  0  0  0
   11.6223    5.9686   24.3791 C   0  0  0  0  0  0  0  0  0  0  0  0
   12.2806    4.9514   23.6876 C   0  0  0  0  0  0  0  0  0  0  0  0
   13.3014   -2.6295   24.2096 C   0  0  0  0  0  0  0  0  0  0  0  0
   10.4900    4.8907   22.0696 C   0  0  0  0  0  0  0  0  0  0  0  0
   12.0435   -0.7994   23.2861 C   0  0  0  0  0  0  0  0  0  0  0  0
   14.4295   -1.8304   24.1167 C   0  0  0  0  0  0  0  0  0  0  0  0
   10.3879    6.4611   23.9251 C   0  0  0  0  0  0  0  0  0  0  0  0
    9.8133    5.9141   22.7531 C   0  0  0  0  0  0  0  0  0  0  0  0
   11.7156    4.4135   22.5350 C   0  0  0  0  0  0  0  0  0  0  0  0
   12.0896   -2.0967   23.7843 C   0  0  0  0  0  0  0  0  0  0  0  0
   13.2278   -0.0822   23.2347 C   0  0  0  0  0  0  0  0  0  0  0  0
   12.0497    1.9202   22.2612 C   0  0  0  0  0  0  0  0  0  0  0  0
   12.4211    3.3262   21.7969 C   0  0  0  0  0  0  0  0  0  0  0  0
   10.8450   -2.9137   23.8623 C   0  0  0  0  0  0  0  0  0  0  0  0
   14.4239   -0.5659   23.6385 N   0  0  0  0  0  0  0  0  0  0  0  0
   13.1708    1.2374   22.7263 N   0  0  0  0  0  0  0  0  0  0  0  0
   10.8969    1.5042   22.2049 O   0  0  0  0  0  0  0  0  0  0  0  0
   11.0424   -4.1660   24.3715 F   0  0  0  0  0  0  0  0  0  0  0  0
    9.8748   -2.3594   24.6483 F   0  0  0  0  0  0  0  0  0  0  0  0
   10.2630   -3.1030   22.6420 F   0  0  0  0  0  0  0  0  0  0  0  0
    7.9723    8.7532   24.6810 H   0  0  0  0  0  0  0  0  0  0  0  0
    6.9662    7.7956   22.6294 H   0  0  0  0  0  0  0  0  0  0  0  0
   10.1341    7.9202   25.5116 H   0  0  0  0  0  0  0  0  0  0  0  0
    8.1184    6.0008   21.4006 H   0  0  0  0  0  0  0  0  0  0  0  0
   12.0825    6.3742   25.2780 H   0  0  0  0  0  0  0  0  0  0  0  0
   13.2349    4.5851   24.0570 H   0  0  0  0  0  0  0  0  0  0  0  0
   13.3703   -3.6379   24.6030 H   0  0  0  0  0  0  0  0  0  0  0  0
   10.0590    4.4614   21.1665 H   0  0  0  0  0  0  0  0  0  0  0  0
   11.1057   -0.3677   22.9496 H   0  0  0  0  0  0  0  0  0  0  0  0
   15.3990   -2.1990   24.4352 H   0  0  0  0  0  0  0  0  0  0  0  0
   12.2084    3.3957   20.7174 H   0  0  0  0  0  0  0  0  0  0  0  0
   13.5127    3.4426   21.8976 H   0  0  0  0  0  0  0  0  0  0  0  0
   14.0517    1.7465   22.6971 H   0  0  0  0  0  0  0  0  0  0  0  0
  1  2  1  0  0  0  0
  1  3  2  0  0  0  0
  2  4  2  0  0  0  0
  3 11  1  0  0  0  0
  4 12  1  0  0  0  0
  5  6  2  0  0  0  0
  5 11  1  0  0  0  0
  6 13  1  0  0  0  0
  7 10  2  0  0  0  0
  7 14  1  0  0  0  0
  8 12  1  0  0  0  0
  8 13  2  0  0  0  0
  9 14  2  0  0  0  0
  9 15  1  0  0  0  0
 10 19  1  0  0  0  0
 11 12  2  0  0  0  0
 13 17  1  0  0  0  0
 14 18  1  0  0  0  0
 15 19  2  0  0  0  0
 15 20  1  0  0  0  0
 16 17  1  0  0  0  0
 16 20  1  0  0  0  0
 16 21  2  0  0  0  0
 18 22  1  0  0  0  0
 18 23  1  0  0  0  0
 18 24  1  0  0  0  0
  1 25  1  0  0  0  0
  2 26  1  0  0  0  0
  3 27  1  0  0  0  0
  4 28  1  0  0  0  0
  5 29  1  0  0  0  0
  6 30  1  0  0  0  0
  7 31  1  0  0  0  0
  8 32  1  0  0  0  0
  9 33  1  0  0  0  0
 10 34  1  0  0  0  0
 17 35  1  0  0  0  0
 17 36  1  0  0  0  0
 20 37  1  0  0  0  0
M  END
> <IC50 (uM)>

> <IC50 (uM) - std>

> <Average Inhibition @ 20 uM>

> <Average Inhibition @ 20 uM - std>
-2.55

> <Average Inhibition @ 50 uM>
4.03

> <Average Inhibition @ 50 uM - std>
3.43

> <Trypsin IC50 (uM)>
0.58

> <Relative Solubility @ 20 uM>
0.9

> <Relative Solubility @ 100 uM>
0.38

> <Hybrid2>
-8.308216

> <docked_fragment>
x0161

> <Mpro-_dock>
1.373027

> <site>
active-noncovalent

$$$$
GIA-UNK-30c7cb75-1
  -OEChem-05192003313D

 44 46  0     0  0  0  0  0  0999 V2000
   11.5732   -1.4651   24.2234 C   0  0  0  0  0  0  0  0  0  0  0  0
   13.8915   -0.8714   24.5002 C   0  0  0  0  0  0  0  0  0  0  0  0
   11.9262   -2.7967   24.3899 C   0  0  0  0  0  0  0  0  0  0  0  0
   14.1858   -2.2181   24.6597 C   0  0  0  0  0  0  0  0  0  0  0  0
   12.5698   -0.4955   24.2800 C   0  0  0  0  0  0  0  0  0  0  0  0
   11.6254    5.0752   23.9831 C   0  0  0  0  0  0  0  0  0  0  0  0
    8.0042    7.2083   24.2225 C   0  0  0  0  0  0  0  0  0  0  0  0
    9.3097    7.6615   24.8741 C   0  0  0  0  0  0  0  0  0  0  0  0
    8.0512    5.7191   23.8835 C   0  0  0  0  0  0  0  0  0  0  0  0
   10.9558    2.8369   24.8084 C   0  0  0  0  0  0  0  0  0  0  0  0
   12.9209    3.0721   23.2777 C   0  0  0  0  0  0  0  0  0  0  0  0
   10.5146    7.2859   24.0159 C   0  0  0  0  0  0  0  0  0  0  0  0
    9.2809    5.3791   23.0443 C   0  0  0  0  0  0  0  0  0  0  0  0
   10.9204    1.3349   24.5291 C   0  0  0  0  0  0  0  0  0  0  0  0
   12.8758    1.5717   22.9959 C   0  0  0  0  0  0  0  0  0  0  0  0
   11.5365    3.6123   23.6283 C   0  0  0  0  0  0  0  0  0  0  0  0
   13.2066   -3.1310   24.6006 N   0  3  0  0  0  0  0  0  0  0  0  0
   12.2434    0.8558   24.1132 N   0  0  0  0  0  0  0  0  0  0  0  0
   10.5059    5.8563   23.6982 N   0  0  0  0  0  0  0  0  0  0  0  0
   12.6587    5.5083   24.4995 O   0  0  0  0  0  0  0  0  0  0  0  0
   10.5356   -1.1959   24.0520 H   0  0  0  0  0  0  0  0  0  0  0  0
   14.6860   -0.1331   24.5469 H   0  0  0  0  0  0  0  0  0  0  0  0
   11.2208   -3.6154   24.3594 H   0  0  0  0  0  0  0  0  0  0  0  0
   15.1818   -2.6009   24.8350 H   0  0  0  0  0  0  0  0  0  0  0  0
    7.1626    7.4113   24.8941 H   0  0  0  0  0  0  0  0  0  0  0  0
    7.8324    7.7868   23.3066 H   0  0  0  0  0  0  0  0  0  0  0  0
    9.2876    8.7465   25.0254 H   0  0  0  0  0  0  0  0  0  0  0  0
    9.4069    7.2003   25.8647 H   0  0  0  0  0  0  0  0  0  0  0  0
    8.0655    5.1302   24.8092 H   0  0  0  0  0  0  0  0  0  0  0  0
    7.1432    5.4384   23.3384 H   0  0  0  0  0  0  0  0  0  0  0  0
    9.9388    3.1846   24.9864 H   0  0  0  0  0  0  0  0  0  0  0  0
   11.5333    3.0213   25.7116 H   0  0  0  0  0  0  0  0  0  0  0  0
   13.6231    3.2648   24.0880 H   0  0  0  0  0  0  0  0  0  0  0  0
   13.2873    3.5901   22.3905 H   0  0  0  0  0  0  0  0  0  0  0  0
   10.4930    7.8318   23.0652 H   0  0  0  0  0  0  0  0  0  0  0  0
   11.4379    7.5660   24.5327 H   0  0  0  0  0  0  0  0  0  0  0  0
    9.3066    4.3038   22.8599 H   0  0  0  0  0  0  0  0  0  0  0  0
    9.2240    5.8734   22.0671 H   0  0  0  0  0  0  0  0  0  0  0  0
   10.5944    0.7933   25.4258 H   0  0  0  0  0  0  0  0  0  0  0  0
   10.1813    1.1418   23.7420 H   0  0  0  0  0  0  0  0  0  0  0  0
   12.3049    1.4085   22.0728 H   0  0  0  0  0  0  0  0  0  0  0  0
   13.8868    1.1808   22.8254 H   0  0  0  0  0  0  0  0  0  0  0  0
   10.8851    3.5356   22.7804 H   0  0  0  0  0  0  0  0  0  0  0  0
   13.4447   -4.1153   24.7198 H   0  0  0  0  0  0  0  0  0  0  0  0
  1  3  2  0  0  0  0
  1  5  1  0  0  0  0
  2  4  1  0  0  0  0
  2  5  2  0  0  0  0
  3 17  1  0  0  0  0
  4 17  2  0  0  0  0
  5 18  1  0  0  0  0
  6 16  1  0  0  0  0
  6 19  1  0  0  0  0
  6 20  2  0  0  0  0
  7  8  1  0  0  0  0
  7  9  1  0  0  0  0
  8 12  1  0  0  0  0
  9 13  1  0  0  0  0
 10 14  1  0  0  0  0
 10 16  1  0  0  0  0
 11 15  1  0  0  0  0
 11 16  1  0  0  0  0
 12 19  1  0  0  0  0
 13 19  1  0  0  0  0
 14 18  1  0  0  0  0
 15 18  1  0  0  0  0
  1 21  1  0  0  0  0
  2 22  1  0  0  0  0
  3 23  1  0  0  0  0
  4 24  1  0  0  0  0
  7 25  1  0  0  0  0
  7 26  1  0  0  0  0
  8 27  1  0  0  0  0
  8 28  1  0  0  0  0
  9 29  1  0  0  0  0
  9 30  1  0  0  0  0
 10 31  1  0  0  0  0
 10 32  1  0  0  0  0
 11 33  1  0  0  0  0
 11 34  1  0  0  0  0
 12 35  1  0  0  0  0
 12 36  1  0  0  0  0
 13 37  1  0  0  0  0
 13 38  1  0  0  0  0
 14 39  1  0  0  0  0
 14 40  1  0  0  0  0
 15 41  1  0  0  0  0
 15 42  1  0  0  0  0
 16 43  1  0  0  0  0
 17 44  1  0  0  0  0
M  CHG  1  17   1
M  END
> <IC50 (uM)>

> <IC50 (uM) - std>

> <Average Inhibition @ 20 uM>

> <Average Inhibition @ 20 uM - std>

> <Average Inhibition @ 50 uM>

> <Average Inhibition @ 50 uM - std>
14.7

> <Trypsin IC50 (uM)>
2.39

> <Relative Solubility @ 20 uM>

> <Relative Solubility @ 100 uM>

> <Hybrid2>
-8.284107

> <docked_fragment>
x0161

> <Mpro-_dock>
-0.16463

> <site>
active-noncovalent

$$$$
AAR-POS-d2a4d1df-23
  -OEChem-05192003313D

 34 35  0     0  0  0  0  0  0999 V2000
   12.9678    0.0977   22.8564 C   0  0  0  0  0  0  0  0  0  0  0  0
   12.7698    1.2568   23.6065 C   0  0  0  0  0  0  0  0  0  0  0  0
   12.0733   -0.9668   22.9682 C   0  0  0  0  0  0  0  0  0  0  0  0
   10.7827    0.2871   24.5803 C   0  0  0  0  0  0  0  0  0  0  0  0
   11.6773    1.3516   24.4685 C   0  0  0  0  0  0  0  0  0  0  0  0
   10.9807   -0.8720   23.8302 C   0  0  0  0  0  0  0  0  0  0  0  0
    6.2744   -2.1505   19.3796 C   0  0  0  0  0  0  0  0  0  0  0  0
    8.2833   -1.0126   20.4477 C   0  0  0  0  0  0  0  0  0  0  0  0
    6.4404   -1.8804   21.8341 C   0  0  0  0  0  0  0  0  0  0  0  0
    9.2962   -1.6887   21.3669 C   0  0  0  0  0  0  0  0  0  0  0  0
    7.4459   -2.5616   22.7555 C   0  0  0  0  0  0  0  0  0  0  0  0
    6.4347   -1.3480   18.1132 C   0  0  0  0  0  0  0  0  0  0  0  0
    6.9948   -1.7137   20.4900 N   0  0  0  0  0  0  0  0  0  0  0  0
    8.7272   -1.7930   22.7447 N   0  0  0  0  0  0  0  0  0  0  0  0
    5.5332   -3.1366   19.3794 O   0  0  0  0  0  0  0  0  0  0  0  0
   10.5418   -3.4246   23.5756 O   0  0  0  0  0  0  0  0  0  0  0  0
    9.1941   -2.1194   25.2571 O   0  0  0  0  0  0  0  0  0  0  0  0
   11.4875    2.4648   25.1890 F   0  0  0  0  0  0  0  0  0  0  0  0
    9.8473   -2.2180   23.9697 S   0  0  0  0  0  0  0  0  0  0  0  0
    5.8646    0.2781   18.4715 Cl  0  0  0  0  0  0  0  0  0  0  0  0
   13.8188    0.0243   22.1856 H   0  0  0  0  0  0  0  0  0  0  0  0
   13.4663    2.0856   23.5197 H   0  0  0  0  0  0  0  0  0  0  0  0
   12.2367   -1.8649   22.3784 H   0  0  0  0  0  0  0  0  0  0  0  0
    9.9354    0.3723   25.2555 H   0  0  0  0  0  0  0  0  0  0  0  0
    8.0951    0.0162   20.7781 H   0  0  0  0  0  0  0  0  0  0  0  0
    8.6892   -0.9605   19.4360 H   0  0  0  0  0  0  0  0  0  0  0  0
    5.5112   -2.4580   21.8056 H   0  0  0  0  0  0  0  0  0  0  0  0
    6.1954   -0.8785   22.2070 H   0  0  0  0  0  0  0  0  0  0  0  0
    9.5532   -2.6869   20.9942 H   0  0  0  0  0  0  0  0  0  0  0  0
   10.2086   -1.0834   21.3977 H   0  0  0  0  0  0  0  0  0  0  0  0
    7.0423   -2.5783   23.7737 H   0  0  0  0  0  0  0  0  0  0  0  0
    7.6291   -3.5942   22.4367 H   0  0  0  0  0  0  0  0  0  0  0  0
    5.8249   -1.7933   17.3353 H   0  0  0  0  0  0  0  0  0  0  0  0
    7.4843   -1.3236   17.8432 H   0  0  0  0  0  0  0  0  0  0  0  0
  1  2  1  0  0  0  0
  1  3  2  0  0  0  0
  2  5  2  0  0  0  0
  3  6  1  0  0  0  0
  4  5  1  0  0  0  0
  4  6  2  0  0  0  0
  5 18  1  0  0  0  0
  6 19  1  0  0  0  0
  7 12  1  0  0  0  0
  7 13  1  0  0  0  0
  7 15  2  0  0  0  0
  8 10  1  0  0  0  0
  8 13  1  0  0  0  0
  9 11  1  0  0  0  0
  9 13  1  0  0  0  0
 10 14  1  0  0  0  0
 11 14  1  0  0  0  0
 12 20  1  0  0  0  0
 14 19  1  0  0  0  0
 16 19  2  0  0  0  0
 17 19  2  0  0  0  0
  1 21  1  0  0  0  0
  2 22  1  0  0  0  0
  3 23  1  0  0  0  0
  4 24  1  0  0  0  0
  8 25  1  0  0  0  0
  8 26  1  0  0  0  0
  9 27  1  0  0  0  0
  9 28  1  0  0  0  0
 10 29  1  0  0  0  0
 10 30  1  0  0  0  0
 11 31  1  0  0  0  0
 11 32  1  0  0  0  0
 12 33  1  0  0  0  0
 12 34  1  0  0  0  0
M  END
> <IC50 (uM)>
4.1

> <IC50 (uM) - std>
0.36

> <Average Inhibition @ 20 uM>
> 99.0

> <Average Inhibition @ 20 uM - std>
97.3

> <Average Inhibition @ 50 uM>
0.758

> <Average Inhibition @ 50 uM - std>
99.0

> <Trypsin IC50 (uM)>
0.178

> <Relative Solubility @ 20 uM>
1.0

> <Relative Solubility @ 100 uM>
1.0

> <Hybrid2>
-8.249612

> <docked_fragment>
x0830

> <Mpro-_dock>
0.419878

> <site>
active-covalent

$$$$
LON-WEI-8f408cad-4
  -OEChem-05192003313D

 34 35  0     0  0  0  0  0  0999 V2000
   12.9678    0.0977   22.8564 C   0  0  0  0  0  0  0  0  0  0  0  0
   12.7698    1.2568   23.6065 C   0  0  0  0  0  0  0  0  0  0  0  0
   12.0733   -0.9668   22.9682 C   0  0  0  0  0  0  0  0  0  0  0  0
   10.7827    0.2871   24.5803 C   0  0  0  0  0  0  0  0  0  0  0  0
   11.6773    1.3516   24.4685 C   0  0  0  0  0  0  0  0  0  0  0  0
   10.9807   -0.8720   23.8302 C   0  0  0  0  0  0  0  0  0  0  0  0
    6.2744   -2.1505   19.3796 C   0  0  0  0  0  0  0  0  0  0  0  0
    8.2833   -1.0126   20.4477 C   0  0  0  0  0  0  0  0  0  0  0  0
    6.4404   -1.8804   21.8341 C   0  0  0  0  0  0  0  0  0  0  0  0
    9.2962   -1.6887   21.3669 C   0  0  0  0  0  0  0  0  0  0  0  0
    7.4459   -2.5616   22.7555 C   0  0  0  0  0  0  0  0  0  0  0  0
    6.4347   -1.3480   18.1132 C   0  0  0  0  0  0  0  0  0  0  0  0
    6.9948   -1.7137   20.4900 N   0  0  0  0  0  0  0  0  0  0  0  0
    8.7272   -1.7930   22.7447 N   0  0  0  0  0  0  0  0  0  0  0  0
    5.5332   -3.1366   19.3794 O   0  0  0  0  0  0  0  0  0  0  0  0
   10.5418   -3.4246   23.5756 O   0  0  0  0  0  0  0  0  0  0  0  0
    9.1941   -2.1194   25.2571 O   0  0  0  0  0  0  0  0  0  0  0  0
   11.4875    2.4648   25.1890 F   0  0  0  0  0  0  0  0  0  0  0  0
    9.8473   -2.2180   23.9697 S   0  0  0  0  0  0  0  0  0  0  0  0
    5.8646    0.2781   18.4715 Cl  0  0  0  0  0  0  0  0  0  0  0  0
   13.8188    0.0243   22.1856 H   0  0  0  0  0  0  0  0  0  0  0  0
   13.4663    2.0856   23.5197 H   0  0  0  0  0  0  0  0  0  0  0  0
   12.2367   -1.8649   22.3784 H   0  0  0  0  0  0  0  0  0  0  0  0
    9.9354    0.3723   25.2555 H   0  0  0  0  0  0  0  0  0  0  0  0
    8.0951    0.0162   20.7781 H   0  0  0  0  0  0  0  0  0  0  0  0
    8.6892   -0.9605   19.4360 H   0  0  0  0  0  0  0  0  0  0  0  0
    5.5112   -2.4580   21.8056 H   0  0  0  0  0  0  0  0  0  0  0  0
    6.1954   -0.8785   22.2070 H   0  0  0  0  0  0  0  0  0  0  0  0
    9.5532   -2.6869   20.9942 H   0  0  0  0  0  0  0  0  0  0  0  0
   10.2086   -1.0834   21.3977 H   0  0  0  0  0  0  0  0  0  0  0  0
    7.0423   -2.5783   23.7737 H   0  0  0  0  0  0  0  0  0  0  0  0
    7.6291   -3.5942   22.4367 H   0  0  0  0  0  0  0  0  0  0  0  0
    5.8249   -1.7933   17.3353 H   0  0  0  0  0  0  0  0  0  0  0  0
    7.4843   -1.3236   17.8432 H   0  0  0  0  0  0  0  0  0  0  0  0
  1  2  1  0  0  0  0
  1  3  2  0  0  0  0
  2  5  2  0  0  0  0
  3  6  1  0  0  0  0
  4  5  1  0  0  0  0
  4  6  2  0  0  0  0
  5 18  1  0  0  0  0
  6 19  1  0  0  0  0
  7 12  1  0  0  0  0
  7 13  1  0  0  0  0
  7 15  2  0  0  0  0
  8 10  1  0  0  0  0
  8 13  1  0  0  0  0
  9 11  1  0  0  0  0
  9 13  1  0  0  0  0
 10 14  1  0  0  0  0
 11 14  1  0  0  0  0
 12 20  1  0  0  0  0
 14 19  1  0  0  0  0
 16 19  2  0  0  0  0
 17 19  2  0  0  0  0
  1 21  1  0  0  0  0
  2 22  1  0  0  0  0
  3 23  1  0  0  0  0
  4 24  1  0  0  0  0
  8 25  1  0  0  0  0
  8 26  1  0  0  0  0
  9 27  1  0  0  0  0
  9 28  1  0  0  0  0
 10 29  1  0  0  0  0
 10 30  1  0  0  0  0
 11 31  1  0  0  0  0
 11 32  1  0  0  0  0
 12 33  1  0  0  0  0
 12 34  1  0  0  0  0
M  END
> <IC50 (uM)>
4.1

> <IC50 (uM) - std>
0.36

> <Average Inhibition @ 20 uM>
> 99.0

> <Average Inhibition @ 20 uM - std>
97.3

> <Average Inhibition @ 50 uM>
0.758

> <Average Inhibition @ 50 uM - std>
99.0

> <Trypsin IC50 (uM)>
0.178

> <Relative Solubility @ 20 uM>
1.0

> <Relative Solubility @ 100 uM>
1.0

> <Hybrid2>
-8.249612

> <docked_fragment>
x0830

> <Mpro-_dock>
0.419878

> <site>
active-covalent

$$$$
AAR-POS-d2a4d1df-32
  -OEChem-05192003313D

 34 35  0     0  0  0  0  0  0999 V2000
   11.6262    2.3089   25.2401 C   0  0  0  0  0  0  0  0  0  0  0  0
   10.4493    1.5828   25.4224 C   0  0  0  0  0  0  0  0  0  0  0  0
   12.5674    1.8872   24.3009 C   0  0  0  0  0  0  0  0  0  0  0  0
   10.2136    0.4350   24.6657 C   0  0  0  0  0  0  0  0  0  0  0  0
   12.3318    0.7395   23.5441 C   0  0  0  0  0  0  0  0  0  0  0  0
   11.1549    0.0133   23.7265 C   0  0  0  0  0  0  0  0  0  0  0  0
    6.3412   -0.9278   19.1370 C   0  0  0  0  0  0  0  0  0  0  0  0
    8.2653    0.3297   20.2271 C   0  0  0  0  0  0  0  0  0  0  0  0
    7.0395   -1.4160   21.4606 C   0  0  0  0  0  0  0  0  0  0  0  0
    9.5900   -0.2887   20.6638 C   0  0  0  0  0  0  0  0  0  0  0  0
    8.3589   -2.0418   21.8986 C   0  0  0  0  0  0  0  0  0  0  0  0
    6.0166    0.2461   18.2482 C   0  0  0  0  0  0  0  0  0  0  0  0
    7.2023   -0.6819   20.2050 N   0  0  0  0  0  0  0  0  0  0  0  0
    9.4085   -0.9812   21.9755 N   0  0  0  0  0  0  0  0  0  0  0  0
    5.8460   -2.0295   18.8866 O   0  0  0  0  0  0  0  0  0  0  0  0
   11.9162   -1.5493   21.7895 O   0  0  0  0  0  0  0  0  0  0  0  0
   10.5682   -2.5241   23.6817 O   0  0  0  0  0  0  0  0  0  0  0  0
    9.0793   -0.2548   24.8505 F   0  0  0  0  0  0  0  0  0  0  0  0
   13.2434    0.3448   22.6443 F   0  0  0  0  0  0  0  0  0  0  0  0
   10.8566   -1.4392   22.7687 S   0  0  0  0  0  0  0  0  0  0  0  0
    5.2231    1.4437   19.2651 Cl  0  0  0  0  0  0  0  0  0  0  0  0
   11.8087    3.2026   25.8296 H   0  0  0  0  0  0  0  0  0  0  0  0
    9.7165    1.9099   26.1540 H   0  0  0  0  0  0  0  0  0  0  0  0
   13.4834    2.4529   24.1589 H   0  0  0  0  0  0  0  0  0  0  0  0
    7.9519    1.1030   20.9389 H   0  0  0  0  0  0  0  0  0  0  0  0
    8.3924    0.8127   19.2567 H   0  0  0  0  0  0  0  0  0  0  0  0
    6.2737   -2.1920   21.3641 H   0  0  0  0  0  0  0  0  0  0  0  0
    6.6884   -0.6965   22.2102 H   0  0  0  0  0  0  0  0  0  0  0  0
    9.9518   -1.0015   19.9139 H   0  0  0  0  0  0  0  0  0  0  0  0
   10.3347    0.5068   20.7753 H   0  0  0  0  0  0  0  0  0  0  0  0
    8.2281   -2.4941   22.8876 H   0  0  0  0  0  0  0  0  0  0  0  0
    8.6711   -2.8237   21.1967 H   0  0  0  0  0  0  0  0  0  0  0  0
    5.3429   -0.0819   17.4647 H   0  0  0  0  0  0  0  0  0  0  0  0
    6.9396    0.6500   17.8483 H   0  0  0  0  0  0  0  0  0  0  0  0
  1  2  1  0  0  0  0
  1  3  2  0  0  0  0
  2  4  2  0  0  0  0
  3  5  1  0  0  0  0
  4  6  1  0  0  0  0
  4 18  1  0  0  0  0
  5  6  2  0  0  0  0
  5 19  1  0  0  0  0
  6 20  1  0  0  0  0
  7 12  1  0  0  0  0
  7 13  1  0  0  0  0
  7 15  2  0  0  0  0
  8 10  1  0  0  0  0
  8 13  1  0  0  0  0
  9 11  1  0  0  0  0
  9 13  1  0  0  0  0
 10 14  1  0  0  0  0
 11 14  1  0  0  0  0
 12 21  1  0  0  0  0
 14 20  1  0  0  0  0
 16 20  2  0  0  0  0
 17 20  2  0  0  0  0
  1 22  1  0  0  0  0
  2 23  1  0  0  0  0
  3 24  1  0  0  0  0
  8 25  1  0  0  0  0
  8 26  1  0  0  0  0
  9 27  1  0  0  0  0
  9 28  1  0  0  0  0
 10 29  1  0  0  0  0
 10 30  1  0  0  0  0
 11 31  1  0  0  0  0
 11 32  1  0  0  0  0
 12 33  1  0  0  0  0
 12 34  1  0  0  0  0
M  END
> <IC50 (uM)>
3.43

> <IC50 (uM) - std>
0.33

> <Average Inhibition @ 20 uM>
> 99.0

> <Average Inhibition @ 20 uM - std>
98.7

> <Average Inhibition @ 50 uM>
0.169

> <Average Inhibition @ 50 uM - std>
99.3

> <Trypsin IC50 (uM)>
0.28

> <Relative Solubility @ 20 uM>
0.96

> <Relative Solubility @ 100 uM>
0.88

> <Hybrid2>
-8.249490

> <docked_fragment>
x0830

> <Mpro-_dock>
1.028883

> <site>
active-covalent

$$$$
LON-WEI-8f408cad-2
  -OEChem-05192003313D

 34 35  0     0  0  0  0  0  0999 V2000
   11.6262    2.3089   25.2401 C   0  0  0  0  0  0  0  0  0  0  0  0
   10.4493    1.5828   25.4224 C   0  0  0  0  0  0  0  0  0  0  0  0
   12.5674    1.8872   24.3009 C   0  0  0  0  0  0  0  0  0  0  0  0
   10.2136    0.4350   24.6657 C   0  0  0  0  0  0  0  0  0  0  0  0
   12.3318    0.7395   23.5441 C   0  0  0  0  0  0  0  0  0  0  0  0
   11.1549    0.0133   23.7265 C   0  0  0  0  0  0  0  0  0  0  0  0
    6.3412   -0.9278   19.1370 C   0  0  0  0  0  0  0  0  0  0  0  0
    8.2653    0.3297   20.2271 C   0  0  0  0  0  0  0  0  0  0  0  0
    7.0395   -1.4160   21.4606 C   0  0  0  0  0  0  0  0  0  0  0  0
    9.5900   -0.2887   20.6638 C   0  0  0  0  0  0  0  0  0  0  0  0
    8.3589   -2.0418   21.8986 C   0  0  0  0  0  0  0  0  0  0  0  0
    6.0166    0.2461   18.2482 C   0  0  0  0  0  0  0  0  0  0  0  0
    7.2023   -0.6819   20.2050 N   0  0  0  0  0  0  0  0  0  0  0  0
    9.4085   -0.9812   21.9755 N   0  0  0  0  0  0  0  0  0  0  0  0
    5.8460   -2.0295   18.8866 O   0  0  0  0  0  0  0  0  0  0  0  0
   11.9162   -1.5493   21.7895 O   0  0  0  0  0  0  0  0  0  0  0  0
   10.5682   -2.5241   23.6817 O   0  0  0  0  0  0  0  0  0  0  0  0
    9.0793   -0.2548   24.8505 F   0  0  0  0  0  0  0  0  0  0  0  0
   13.2434    0.3448   22.6443 F   0  0  0  0  0  0  0  0  0  0  0  0
   10.8566   -1.4392   22.7687 S   0  0  0  0  0  0  0  0  0  0  0  0
    5.2231    1.4437   19.2651 Cl  0  0  0  0  0  0  0  0  0  0  0  0
   11.8087    3.2026   25.8296 H   0  0  0  0  0  0  0  0  0  0  0  0
    9.7165    1.9099   26.1540 H   0  0  0  0  0  0  0  0  0  0  0  0
   13.4834    2.4529   24.1589 H   0  0  0  0  0  0  0  0  0  0  0  0
    7.9519    1.1030   20.9389 H   0  0  0  0  0  0  0  0  0  0  0  0
    8.3924    0.8127   19.2567 H   0  0  0  0  0  0  0  0  0  0  0  0
    6.2737   -2.1920   21.3641 H   0  0  0  0  0  0  0  0  0  0  0  0
    6.6884   -0.6965   22.2102 H   0  0  0  0  0  0  0  0  0  0  0  0
    9.9518   -1.0015   19.9139 H   0  0  0  0  0  0  0  0  0  0  0  0
   10.3347    0.5068   20.7753 H   0  0  0  0  0  0  0  0  0  0  0  0
    8.2281   -2.4941   22.8876 H   0  0  0  0  0  0  0  0  0  0  0  0
    8.6711   -2.8237   21.1967 H   0  0  0  0  0  0  0  0  0  0  0  0
    5.3429   -0.0819   17.4647 H   0  0  0  0  0  0  0  0  0  0  0  0
    6.9396    0.6500   17.8483 H   0  0  0  0  0  0  0  0  0  0  0  0
  1  2  1  0  0  0  0
  1  3  2  0  0  0  0
  2  4  2  0  0  0  0
  3  5  1  0  0  0  0
  4  6  1  0  0  0  0
  4 18  1  0  0  0  0
  5  6  2  0  0  0  0
  5 19  1  0  0  0  0
  6 20  1  0  0  0  0
  7 12  1  0  0  0  0
  7 13  1  0  0  0  0
  7 15  2  0  0  0  0
  8 10  1  0  0  0  0
  8 13  1  0  0  0  0
  9 11  1  0  0  0  0
  9 13  1  0  0  0  0
 10 14  1  0  0  0  0
 11 14  1  0  0  0  0
 12 21  1  0  0  0  0
 14 20  1  0  0  0  0
 16 20  2  0  0  0  0
 17 20  2  0  0  0  0
  1 22  1  0  0  0  0
  2 23  1  0  0  0  0
  3 24  1  0  0  0  0
  8 25  1  0  0  0  0
  8 26  1  0  0  0  0
  9 27  1  0  0  0  0
  9 28  1  0  0  0  0
 10 29  1  0  0  0  0
 10 30  1  0  0  0  0
 11 31  1  0  0  0  0
 11 32  1  0  0  0  0
 12 33  1  0  0  0  0
 12 34  1  0  0  0  0
M  END
> <IC50 (uM)>
3.43

> <IC50 (uM) - std>
0.33

> <Average Inhibition @ 20 uM>
> 99.0

> <Average Inhibition @ 20 uM - std>
98.7

> <Average Inhibition @ 50 uM>
0.169

> <Average Inhibition @ 50 uM - std>
99.3

> <Trypsin IC50 (uM)>
0.28

> <Relative Solubility @ 20 uM>
0.96

> <Relative Solubility @ 100 uM>
0.88

> <Hybrid2>
-8.249490

> <docked_fragment>
x0830

> <Mpro-_dock>
1.028883

> <site>
active-covalent

$$$$
JON-UIO-066ce08b-7
  -OEChem-05192003313D

 38 39  0     1  0  0  0  0  0999 V2000
    9.6834    3.4402   24.3598 C   0  0  0  0  0  0  0  0  0  0  0  0
   10.8141    2.7543   23.9165 C   0  0  0  0  0  0  0  0  0  0  0  0
   10.7524   -1.9685   22.0600 C   0  0  0  0  0  0  0  0  0  0  0  0
    9.6671    4.8350   24.3546 C   0  0  0  0  0  0  0  0  0  0  0  0
    9.5840   -2.3124   22.7398 C   0  0  0  0  0  0  0  0  0  0  0  0
   11.6627   -1.0379   24.0953 C   0  0  0  0  0  0  0  0  0  0  0  0
   11.9124    4.8579   23.4630 C   0  0  0  0  0  0  0  0  0  0  0  0
   11.7918   -1.3313   22.7378 C   0  0  0  0  0  0  0  0  0  0  0  0
   11.9286    3.4631   23.4682 C   0  0  0  0  0  0  0  0  0  0  0  0
   10.7816    5.5438   23.9062 C   0  0  0  0  0  0  0  0  0  0  0  0
    9.4549   -2.0190   24.0973 C   0  0  0  0  0  0  0  0  0  0  0  0
   10.4942   -1.3817   24.7751 C   0  0  0  0  0  0  0  0  0  0  0  0
   13.6806    0.3198   22.5707 C   0  0  0  0  0  0  0  0  0  0  0  0
   14.0682   -2.1127   22.0113 C   0  0  0  0  0  0  0  0  0  0  0  0
   13.9320    3.4940   21.9261 C   0  0  0  0  0  0  0  0  0  0  0  0
   13.0641   -0.9574   21.9993 C   0  0  1  0  0  0  0  0  0  0  0  0
   13.1549    2.7176   22.9874 C   0  0  2  0  0  0  0  0  0  0  0  0
   12.8117    1.4002   22.5039 N   0  0  0  0  0  0  0  0  0  0  0  0
   14.8168    0.3581   23.0383 O   0  0  0  0  0  0  0  0  0  0  0  0
   10.7663    6.8832   23.9016 F   0  0  0  0  0  0  0  0  0  0  0  0
    8.3323   -2.3485   24.7494 F   0  0  0  0  0  0  0  0  0  0  0  0
   10.3709   -1.1010   26.0789 F   0  0  0  0  0  0  0  0  0  0  0  0
    8.8153    2.8884   24.7085 H   0  0  0  0  0  0  0  0  0  0  0  0
   10.8177    1.6674   23.9244 H   0  0  0  0  0  0  0  0  0  0  0  0
   10.8443   -2.2007   21.0024 H   0  0  0  0  0  0  0  0  0  0  0  0
    8.7870    5.3688   24.7002 H   0  0  0  0  0  0  0  0  0  0  0  0
    8.7745   -2.8088   22.2127 H   0  0  0  0  0  0  0  0  0  0  0  0
   12.4674   -0.5429   24.6325 H   0  0  0  0  0  0  0  0  0  0  0  0
   12.7755    5.4188   23.1149 H   0  0  0  0  0  0  0  0  0  0  0  0
   14.3679   -2.3900   23.0283 H   0  0  0  0  0  0  0  0  0  0  0  0
   13.6462   -3.0037   21.5334 H   0  0  0  0  0  0  0  0  0  0  0  0
   14.9786   -1.8363   21.4679 H   0  0  0  0  0  0  0  0  0  0  0  0
   13.3082    3.6944   21.0482 H   0  0  0  0  0  0  0  0  0  0  0  0
   14.2731    4.4553   22.3266 H   0  0  0  0  0  0  0  0  0  0  0  0
   14.8227    2.9509   21.5909 H   0  0  0  0  0  0  0  0  0  0  0  0
   12.8255   -0.7529   20.9462 H   0  0  0  0  0  0  0  0  0  0  0  0
   13.8287    2.5485   23.8363 H   0  0  0  0  0  0  0  0  0  0  0  0
   11.8921    1.2580   22.0963 H   0  0  0  0  0  0  0  0  0  0  0  0
  1  2  2  0  0  0  0
  1  4  1  0  0  0  0
  2  9  1  0  0  0  0
  3  5  2  0  0  0  0
  3  8  1  0  0  0  0
  4 10  2  0  0  0  0
  5 11  1  0  0  0  0
  6  8  2  0  0  0  0
  6 12  1  0  0  0  0
  7  9  2  0  0  0  0
  7 10  1  0  0  0  0
  8 16  1  0  0  0  0
  9 17  1  0  0  0  0
 10 20  1  0  0  0  0
 11 12  2  0  0  0  0
 11 21  1  0  0  0  0
 12 22  1  0  0  0  0
 13 16  1  0  0  0  0
 13 18  1  0  0  0  0
 13 19  2  0  0  0  0
 14 16  1  0  0  0  0
 15 17  1  0  0  0  0
 17 18  1  0  0  0  0
  1 23  1  0  0  0  0
  2 24  1  0  0  0  0
  3 25  1  0  0  0  0
  4 26  1  0  0  0  0
  5 27  1  0  0  0  0
  6 28  1  0  0  0  0
  7 29  1  0  0  0  0
 14 30  1  0  0  0  0
 14 31  1  0  0  0  0
 14 32  1  0  0  0  0
 15 33  1  0  0  0  0
 15 34  1  0  0  0  0
 15 35  1  0  0  0  0
 16 36  1  0  0  0  0
 17 37  1  0  0  0  0
 18 38  1  0  0  0  0
M  END
> <IC50 (uM)>

> <IC50 (uM) - std>

> <Average Inhibition @ 20 uM>

> <Average Inhibition @ 20 uM - std>

> <Average Inhibition @ 50 uM>

> <Average Inhibition @ 50 uM - std>
8.92

> <Trypsin IC50 (uM)>
0.141

> <Relative Solubility @ 20 uM>

> <Relative Solubility @ 100 uM>

> <Hybrid2>
-8.247419

> <docked_fragment>
x0195

> <Mpro-_dock>
2.516587

> <site>
active-noncovalent

$$$$
AAR-POS-0daf6b7e-3
  -OEChem-05192003313D

 40 41  0     0  0  0  0  0  0999 V2000
   12.0999    0.9896   24.5725 C   0  0  0  0  0  0  0  0  0  0  0  0
   10.9162    0.6322   25.2180 C   0  0  0  0  0  0  0  0  0  0  0  0
   11.7390   -0.7574   22.9432 C   0  0  0  0  0  0  0  0  0  0  0  0
   12.5113    0.2949   23.4351 C   0  0  0  0  0  0  0  0  0  0  0  0
   10.1439   -0.4200   24.7261 C   0  0  0  0  0  0  0  0  0  0  0  0
   10.5552   -1.1148   23.5887 C   0  0  0  0  0  0  0  0  0  0  0  0
    6.3227   -1.8656   18.7247 C   0  0  0  0  0  0  0  0  0  0  0  0
    8.3548   -1.1029   20.0511 C   0  0  0  0  0  0  0  0  0  0  0  0
    6.9706   -2.9971   20.8278 C   0  0  0  0  0  0  0  0  0  0  0  0
    8.3480   -0.5226   21.4613 C   0  0  0  0  0  0  0  0  0  0  0  0
    6.9604   -2.4147   22.2357 C   0  0  0  0  0  0  0  0  0  0  0  0
   13.7763    0.6784   22.7446 C   0  0  0  0  0  0  0  0  0  0  0  0
    8.8818   -0.7774   25.4409 C   0  0  0  0  0  0  0  0  0  0  0  0
    6.1726   -0.5081   18.0858 C   0  0  0  0  0  0  0  0  0  0  0  0
    7.1730   -1.9464   19.8268 N   0  0  0  0  0  0  0  0  0  0  0  0
    8.1917   -1.6080   22.4709 N   0  0  0  0  0  0  0  0  0  0  0  0
    5.7003   -2.8235   18.2590 O   0  0  0  0  0  0  0  0  0  0  0  0
   10.2732   -2.9388   21.7538 O   0  0  0  0  0  0  0  0  0  0  0  0
    9.2751   -3.3395   24.0322 O   0  0  0  0  0  0  0  0  0  0  0  0
    9.6012   -2.4501   22.9384 S   0  0  0  0  0  0  0  0  0  0  0  0
    5.4994    0.5559   19.3156 Cl  0  0  0  0  0  0  0  0  0  0  0  0
   12.6945    1.8115   24.9624 H   0  0  0  0  0  0  0  0  0  0  0  0
   10.6038    1.1818   26.1021 H   0  0  0  0  0  0  0  0  0  0  0  0
   12.0625   -1.2969   22.0561 H   0  0  0  0  0  0  0  0  0  0  0  0
    8.3143   -0.2982   19.3061 H   0  0  0  0  0  0  0  0  0  0  0  0
    9.2853   -1.6500   19.8873 H   0  0  0  0  0  0  0  0  0  0  0  0
    7.7454   -3.7666   20.7483 H   0  0  0  0  0  0  0  0  0  0  0  0
    6.0085   -3.4736   20.6016 H   0  0  0  0  0  0  0  0  0  0  0  0
    9.2768    0.0356   21.6550 H   0  0  0  0  0  0  0  0  0  0  0  0
    7.5071    0.1806   21.5521 H   0  0  0  0  0  0  0  0  0  0  0  0
    6.0768   -1.7696   22.3475 H   0  0  0  0  0  0  0  0  0  0  0  0
    6.8908   -3.2160   22.9872 H   0  0  0  0  0  0  0  0  0  0  0  0
   14.6229    0.1177   23.1592 H   0  0  0  0  0  0  0  0  0  0  0  0
   13.7193    0.4762   21.6671 H   0  0  0  0  0  0  0  0  0  0  0  0
   13.9815    1.7512   22.8558 H   0  0  0  0  0  0  0  0  0  0  0  0
    8.0393   -0.2087   25.0310 H   0  0  0  0  0  0  0  0  0  0  0  0
    8.6615   -1.8476   25.3445 H   0  0  0  0  0  0  0  0  0  0  0  0
    8.9600   -0.5627   26.5138 H   0  0  0  0  0  0  0  0  0  0  0  0
    5.4894   -0.5875   17.2479 H   0  0  0  0  0  0  0  0  0  0  0  0
    7.1505   -0.1531   17.7810 H   0  0  0  0  0  0  0  0  0  0  0  0
  1  2  2  0  0  0  0
  1  4  1  0  0  0  0
  2  5  1  0  0  0  0
  3  4  2  0  0  0  0
  3  6  1  0  0  0  0
  4 12  1  0  0  0  0
  5  6  2  0  0  0  0
  5 13  1  0  0  0  0
  6 20  1  0  0  0  0
  7 14  1  0  0  0  0
  7 15  1  0  0  0  0
  7 17  2  0  0  0  0
  8 10  1  0  0  0  0
  8 15  1  0  0  0  0
  9 11  1  0  0  0  0
  9 15  1  0  0  0  0
 10 16  1  0  0  0  0
 11 16  1  0  0  0  0
 14 21  1  0  0  0  0
 16 20  1  0  0  0  0
 18 20  2  0  0  0  0
 19 20  2  0  0  0  0
  1 22  1  0  0  0  0
  2 23  1  0  0  0  0
  3 24  1  0  0  0  0
  8 25  1  0  0  0  0
  8 26  1  0  0  0  0
  9 27  1  0  0  0  0
  9 28  1  0  0  0  0
 10 29  1  0  0  0  0
 10 30  1  0  0  0  0
 11 31  1  0  0  0  0
 11 32  1  0  0  0  0
 12 33  1  0  0  0  0
 12 34  1  0  0  0  0
 12 35  1  0  0  0  0
 13 36  1  0  0  0  0
 13 37  1  0  0  0  0
 13 38  1  0  0  0  0
 14 39  1  0  0  0  0
 14 40  1  0  0  0  0
M  END
> <IC50 (uM)>

> <IC50 (uM) - std>

> <Average Inhibition @ 20 uM>

> <Average Inhibition @ 20 uM - std>

> <Average Inhibition @ 50 uM>

> <Average Inhibition @ 50 uM - std>
94.5

> <Trypsin IC50 (uM)>
0.405

> <Relative Solubility @ 20 uM>

> <Relative Solubility @ 100 uM>

> <Hybrid2>
-8.226967

> <docked_fragment>
x0830

> <Mpro-_dock>
-0.405725

> <site>
active-covalent

$$$$
WAR-XCH-79d12f6e-6
  -OEChem-05192003313D

 40 41  0     0  0  0  0  0  0999 V2000
   12.0999    0.9896   24.5725 C   0  0  0  0  0  0  0  0  0  0  0  0
   10.9162    0.6322   25.2180 C   0  0  0  0  0  0  0  0  0  0  0  0
   11.7390   -0.7574   22.9432 C   0  0  0  0  0  0  0  0  0  0  0  0
   12.5113    0.2949   23.4351 C   0  0  0  0  0  0  0  0  0  0  0  0
   10.1439   -0.4200   24.7261 C   0  0  0  0  0  0  0  0  0  0  0  0
   10.5552   -1.1148   23.5887 C   0  0  0  0  0  0  0  0  0  0  0  0
    6.3227   -1.8656   18.7247 C   0  0  0  0  0  0  0  0  0  0  0  0
    8.3548   -1.1029   20.0511 C   0  0  0  0  0  0  0  0  0  0  0  0
    6.9706   -2.9971   20.8278 C   0  0  0  0  0  0  0  0  0  0  0  0
    8.3480   -0.5226   21.4613 C   0  0  0  0  0  0  0  0  0  0  0  0
    6.9604   -2.4147   22.2357 C   0  0  0  0  0  0  0  0  0  0  0  0
   13.7763    0.6784   22.7446 C   0  0  0  0  0  0  0  0  0  0  0  0
    8.8818   -0.7774   25.4409 C   0  0  0  0  0  0  0  0  0  0  0  0
    6.1726   -0.5081   18.0858 C   0  0  0  0  0  0  0  0  0  0  0  0
    7.1730   -1.9464   19.8268 N   0  0  0  0  0  0  0  0  0  0  0  0
    8.1917   -1.6080   22.4709 N   0  0  0  0  0  0  0  0  0  0  0  0
    5.7003   -2.8235   18.2590 O   0  0  0  0  0  0  0  0  0  0  0  0
   10.2732   -2.9388   21.7538 O   0  0  0  0  0  0  0  0  0  0  0  0
    9.2751   -3.3395   24.0322 O   0  0  0  0  0  0  0  0  0  0  0  0
    9.6012   -2.4501   22.9384 S   0  0  0  0  0  0  0  0  0  0  0  0
    5.4994    0.5559   19.3156 Cl  0  0  0  0  0  0  0  0  0  0  0  0
   12.6945    1.8115   24.9624 H   0  0  0  0  0  0  0  0  0  0  0  0
   10.6038    1.1818   26.1021 H   0  0  0  0  0  0  0  0  0  0  0  0
   12.0625   -1.2969   22.0561 H   0  0  0  0  0  0  0  0  0  0  0  0
    8.3143   -0.2982   19.3061 H   0  0  0  0  0  0  0  0  0  0  0  0
    9.2853   -1.6500   19.8873 H   0  0  0  0  0  0  0  0  0  0  0  0
    7.7454   -3.7666   20.7483 H   0  0  0  0  0  0  0  0  0  0  0  0
    6.0085   -3.4736   20.6016 H   0  0  0  0  0  0  0  0  0  0  0  0
    9.2768    0.0356   21.6550 H   0  0  0  0  0  0  0  0  0  0  0  0
    7.5071    0.1806   21.5521 H   0  0  0  0  0  0  0  0  0  0  0  0
    6.0768   -1.7696   22.3475 H   0  0  0  0  0  0  0  0  0  0  0  0
    6.8908   -3.2160   22.9872 H   0  0  0  0  0  0  0  0  0  0  0  0
   14.6229    0.1177   23.1592 H   0  0  0  0  0  0  0  0  0  0  0  0
   13.7193    0.4762   21.6671 H   0  0  0  0  0  0  0  0  0  0  0  0
   13.9815    1.7512   22.8558 H   0  0  0  0  0  0  0  0  0  0  0  0
    8.0393   -0.2087   25.0310 H   0  0  0  0  0  0  0  0  0  0  0  0
    8.6615   -1.8476   25.3445 H   0  0  0  0  0  0  0  0  0  0  0  0
    8.9600   -0.5627   26.5138 H   0  0  0  0  0  0  0  0  0  0  0  0
    5.4894   -0.5875   17.2479 H   0  0  0  0  0  0  0  0  0  0  0  0
    7.1505   -0.1531   17.7810 H   0  0  0  0  0  0  0  0  0  0  0  0
  1  2  2  0  0  0  0
  1  4  1  0  0  0  0
  2  5  1  0  0  0  0
  3  4  2  0  0  0  0
  3  6  1  0  0  0  0
  4 12  1  0  0  0  0
  5  6  2  0  0  0  0
  5 13  1  0  0  0  0
  6 20  1  0  0  0  0
  7 14  1  0  0  0  0
  7 15  1  0  0  0  0
  7 17  2  0  0  0  0
  8 10  1  0  0  0  0
  8 15  1  0  0  0  0
  9 11  1  0  0  0  0
  9 15  1  0  0  0  0
 10 16  1  0  0  0  0
 11 16  1  0  0  0  0
 14 21  1  0  0  0  0
 16 20  1  0  0  0  0
 18 20  2  0  0  0  0
 19 20  2  0  0  0  0
  1 22  1  0  0  0  0
  2 23  1  0  0  0  0
  3 24  1  0  0  0  0
  8 25  1  0  0  0  0
  8 26  1  0  0  0  0
  9 27  1  0  0  0  0
  9 28  1  0  0  0  0
 10 29  1  0  0  0  0
 10 30  1  0  0  0  0
 11 31  1  0  0  0  0
 11 32  1  0  0  0  0
 12 33  1  0  0  0  0
 12 34  1  0  0  0  0
 12 35  1  0  0  0  0
 13 36  1  0  0  0  0
 13 37  1  0  0  0  0
 13 38  1  0  0  0  0
 14 39  1  0  0  0  0
 14 40  1  0  0  0  0
M  END
> <IC50 (uM)>

> <IC50 (uM) - std>

> <Average Inhibition @ 20 uM>

> <Average Inhibition @ 20 uM - std>

> <Average Inhibition @ 50 uM>

> <Average Inhibition @ 50 uM - std>
94.5

> <Trypsin IC50 (uM)>
0.405

> <Relative Solubility @ 20 uM>

> <Relative Solubility @ 100 uM>

> <Hybrid2>
-8.226967

> <docked_fragment>
x0830

> <Mpro-_dock>
-0.405725

> <site>
active-covalent

$$$$
LON-WEI-8f408cad-1
  -OEChem-05192003313D

 30 31  0     0  0  0  0  0  0999 V2000
    8.0012   -5.6697   22.9907 C   0  0  0  0  0  0  0  0  0  0  0  0
    7.4141   -4.6611   22.2268 C   0  0  0  0  0  0  0  0  0  0  0  0
    9.0855   -5.3766   23.8179 C   0  0  0  0  0  0  0  0  0  0  0  0
    8.9955   -3.0663   23.1171 C   0  0  0  0  0  0  0  0  0  0  0  0
    7.9112   -3.3594   22.2899 C   0  0  0  0  0  0  0  0  0  0  0  0
    9.5826   -4.0749   23.8810 C   0  0  0  0  0  0  0  0  0  0  0  0
    6.2159   -2.4676   20.6327 C   0  0  0  0  0  0  0  0  0  0  0  0
   11.2618   -2.5359   24.8683 C   0  0  0  0  0  0  0  0  0  0  0  0
    6.0089   -1.1302   19.9587 C   0  0  0  0  0  0  0  0  0  0  0  0
    6.7077   -0.1577   20.8876 C   0  0  0  0  0  0  0  0  0  0  0  0
    7.8395   -0.9790   21.4689 C   0  0  0  0  0  0  0  0  0  0  0  0
   12.4138   -2.5850   25.8449 C   0  0  0  0  0  0  0  0  0  0  0  0
    7.3100   -2.3284   21.5089 N   0  0  0  0  0  0  0  0  0  0  0  0
   10.6671   -3.7823   24.7086 N   0  0  0  0  0  0  0  0  0  0  0  0
    5.5458   -3.4527   20.3589 O   0  0  0  0  0  0  0  0  0  0  0  0
   10.9686   -1.4811   24.3119 O   0  0  0  0  0  0  0  0  0  0  0  0
   13.8735   -2.0705   24.9846 Cl  0  0  0  0  0  0  0  0  0  0  0  0
    7.6135   -6.6830   22.9424 H   0  0  0  0  0  0  0  0  0  0  0  0
    6.5701   -4.9018   21.5852 H   0  0  0  0  0  0  0  0  0  0  0  0
    9.5352   -6.1713   24.4078 H   0  0  0  0  0  0  0  0  0  0  0  0
    9.3835   -2.0508   23.1661 H   0  0  0  0  0  0  0  0  0  0  0  0
    6.4820   -1.1574   18.9720 H   0  0  0  0  0  0  0  0  0  0  0  0
    4.9446   -0.9042   19.8572 H   0  0  0  0  0  0  0  0  0  0  0  0
    7.0599    0.7370   20.3666 H   0  0  0  0  0  0  0  0  0  0  0  0
    6.0238    0.1576   21.6851 H   0  0  0  0  0  0  0  0  0  0  0  0
    8.7175   -0.9735   20.8135 H   0  0  0  0  0  0  0  0  0  0  0  0
    8.1231   -0.6429   22.4709 H   0  0  0  0  0  0  0  0  0  0  0  0
   12.5795   -3.5848   26.2542 H   0  0  0  0  0  0  0  0  0  0  0  0
   12.2219   -1.8927   26.6695 H   0  0  0  0  0  0  0  0  0  0  0  0
   11.0595   -4.5534   25.2456 H   0  0  0  0  0  0  0  0  0  0  0  0
  1  2  1  0  0  0  0
  1  3  2  0  0  0  0
  2  5  2  0  0  0  0
  3  6  1  0  0  0  0
  4  5  1  0  0  0  0
  4  6  2  0  0  0  0
  5 13  1  0  0  0  0
  6 14  1  0  0  0  0
  7  9  1  0  0  0  0
  7 13  1  0  0  0  0
  7 15  2  0  0  0  0
  8 12  1  0  0  0  0
  8 14  1  0  0  0  0
  8 16  2  0  0  0  0
  9 10  1  0  0  0  0
 10 11  1  0  0  0  0
 11 13  1  0  0  0  0
 12 17  1  0  0  0  0
  1 18  1  0  0  0  0
  2 19  1  0  0  0  0
  3 20  1  0  0  0  0
  4 21  1  0  0  0  0
  9 22  1  0  0  0  0
  9 23  1  0  0  0  0
 10 24  1  0  0  0  0
 10 25  1  0  0  0  0
 11 26  1  0  0  0  0
 11 27  1  0  0  0  0
 12 28  1  0  0  0  0
 12 29  1  0  0  0  0
 14 30  1  0  0  0  0
M  END
> <IC50 (uM)>
72.0

> <IC50 (uM) - std>
13.65

> <Average Inhibition @ 20 uM>
> 49.5

> <Average Inhibition @ 20 uM - std>

> <Average Inhibition @ 50 uM>

> <Average Inhibition @ 50 uM - std>

> <Trypsin IC50 (uM)>

> <Relative Solubility @ 20 uM>
1.0

> <Relative Solubility @ 100 uM>
1.0

> <Hybrid2>
-8.221556

> <docked_fragment>
x0749

> <Mpro-_dock>
-0.050324

> <site>
active-covalent

$$$$
MAK-UNK-7a704a63-10
  -OEChem-05192003313D

 30 31  0     0  0  0  0  0  0999 V2000
    8.0012   -5.6697   22.9907 C   0  0  0  0  0  0  0  0  0  0  0  0
    7.4141   -4.6611   22.2268 C   0  0  0  0  0  0  0  0  0  0  0  0
    9.0855   -5.3766   23.8179 C   0  0  0  0  0  0  0  0  0  0  0  0
    8.9955   -3.0663   23.1171 C   0  0  0  0  0  0  0  0  0  0  0  0
    7.9112   -3.3594   22.2899 C   0  0  0  0  0  0  0  0  0  0  0  0
    9.5826   -4.0749   23.8810 C   0  0  0  0  0  0  0  0  0  0  0  0
    6.2159   -2.4676   20.6327 C   0  0  0  0  0  0  0  0  0  0  0  0
   11.2618   -2.5359   24.8683 C   0  0  0  0  0  0  0  0  0  0  0  0
    6.0089   -1.1302   19.9587 C   0  0  0  0  0  0  0  0  0  0  0  0
    6.7077   -0.1577   20.8876 C   0  0  0  0  0  0  0  0  0  0  0  0
    7.8395   -0.9790   21.4689 C   0  0  0  0  0  0  0  0  0  0  0  0
   12.4138   -2.5850   25.8449 C   0  0  0  0  0  0  0  0  0  0  0  0
    7.3100   -2.3284   21.5089 N   0  0  0  0  0  0  0  0  0  0  0  0
   10.6671   -3.7823   24.7086 N   0  0  0  0  0  0  0  0  0  0  0  0
    5.5458   -3.4527   20.3589 O   0  0  0  0  0  0  0  0  0  0  0  0
   10.9686   -1.4811   24.3119 O   0  0  0  0  0  0  0  0  0  0  0  0
   13.8735   -2.0705   24.9846 Cl  0  0  0  0  0  0  0  0  0  0  0  0
    7.6135   -6.6830   22.9424 H   0  0  0  0  0  0  0  0  0  0  0  0
    6.5701   -4.9018   21.5852 H   0  0  0  0  0  0  0  0  0  0  0  0
    9.5352   -6.1713   24.4078 H   0  0  0  0  0  0  0  0  0  0  0  0
    9.3835   -2.0508   23.1661 H   0  0  0  0  0  0  0  0  0  0  0  0
    6.4820   -1.1574   18.9720 H   0  0  0  0  0  0  0  0  0  0  0  0
    4.9446   -0.9042   19.8572 H   0  0  0  0  0  0  0  0  0  0  0  0
    7.0599    0.7370   20.3666 H   0  0  0  0  0  0  0  0  0  0  0  0
    6.0238    0.1576   21.6851 H   0  0  0  0  0  0  0  0  0  0  0  0
    8.7175   -0.9735   20.8135 H   0  0  0  0  0  0  0  0  0  0  0  0
    8.1231   -0.6429   22.4709 H   0  0  0  0  0  0  0  0  0  0  0  0
   12.5795   -3.5848   26.2542 H   0  0  0  0  0  0  0  0  0  0  0  0
   12.2219   -1.8927   26.6695 H   0  0  0  0  0  0  0  0  0  0  0  0
   11.0595   -4.5534   25.2456 H   0  0  0  0  0  0  0  0  0  0  0  0
  1  2  1  0  0  0  0
  1  3  2  0  0  0  0
  2  5  2  0  0  0  0
  3  6  1  0  0  0  0
  4  5  1  0  0  0  0
  4  6  2  0  0  0  0
  5 13  1  0  0  0  0
  6 14  1  0  0  0  0
  7  9  1  0  0  0  0
  7 13  1  0  0  0  0
  7 15  2  0  0  0  0
  8 12  1  0  0  0  0
  8 14  1  0  0  0  0
  8 16  2  0  0  0  0
  9 10  1  0  0  0  0
 10 11  1  0  0  0  0
 11 13  1  0  0  0  0
 12 17  1  0  0  0  0
  1 18  1  0  0  0  0
  2 19  1  0  0  0  0
  3 20  1  0  0  0  0
  4 21  1  0  0  0  0
  9 22  1  0  0  0  0
  9 23  1  0  0  0  0
 10 24  1  0  0  0  0
 10 25  1  0  0  0  0
 11 26  1  0  0  0  0
 11 27  1  0  0  0  0
 12 28  1  0  0  0  0
 12 29  1  0  0  0  0
 14 30  1  0  0  0  0
M  END
> <IC50 (uM)>
72.0

> <IC50 (uM) - std>
13.65

> <Average Inhibition @ 20 uM>
> 49.5

> <Average Inhibition @ 20 uM - std>

> <Average Inhibition @ 50 uM>

> <Average Inhibition @ 50 uM - std>

> <Trypsin IC50 (uM)>

> <Relative Solubility @ 20 uM>
1.0

> <Relative Solubility @ 100 uM>
1.0

> <Hybrid2>
-8.221556

> <docked_fragment>
x0749

> <Mpro-_dock>
-0.050324

> <site>
active-covalent

$$$$
AAR-POS-0daf6b7e-11
  -OEChem-05192003313D

 30 31  0     0  0  0  0  0  0999 V2000
    8.0012   -5.6697   22.9907 C   0  0  0  0  0  0  0  0  0  0  0  0
    7.4141   -4.6611   22.2268 C   0  0  0  0  0  0  0  0  0  0  0  0
    9.0855   -5.3766   23.8179 C   0  0  0  0  0  0  0  0  0  0  0  0
    8.9955   -3.0663   23.1171 C   0  0  0  0  0  0  0  0  0  0  0  0
    7.9112   -3.3594   22.2899 C   0  0  0  0  0  0  0  0  0  0  0  0
    9.5826   -4.0749   23.8810 C   0  0  0  0  0  0  0  0  0  0  0  0
    6.2159   -2.4676   20.6327 C   0  0  0  0  0  0  0  0  0  0  0  0
   11.2618   -2.5359   24.8683 C   0  0  0  0  0  0  0  0  0  0  0  0
    6.0089   -1.1302   19.9587 C   0  0  0  0  0  0  0  0  0  0  0  0
    6.7077   -0.1577   20.8876 C   0  0  0  0  0  0  0  0  0  0  0  0
    7.8395   -0.9790   21.4689 C   0  0  0  0  0  0  0  0  0  0  0  0
   12.4138   -2.5850   25.8449 C   0  0  0  0  0  0  0  0  0  0  0  0
    7.3100   -2.3284   21.5089 N   0  0  0  0  0  0  0  0  0  0  0  0
   10.6671   -3.7823   24.7086 N   0  0  0  0  0  0  0  0  0  0  0  0
    5.5458   -3.4527   20.3589 O   0  0  0  0  0  0  0  0  0  0  0  0
   10.9686   -1.4811   24.3119 O   0  0  0  0  0  0  0  0  0  0  0  0
   13.8735   -2.0705   24.9846 Cl  0  0  0  0  0  0  0  0  0  0  0  0
    7.6135   -6.6830   22.9424 H   0  0  0  0  0  0  0  0  0  0  0  0
    6.5701   -4.9018   21.5852 H   0  0  0  0  0  0  0  0  0  0  0  0
    9.5352   -6.1713   24.4078 H   0  0  0  0  0  0  0  0  0  0  0  0
    9.3835   -2.0508   23.1661 H   0  0  0  0  0  0  0  0  0  0  0  0
    6.4820   -1.1574   18.9720 H   0  0  0  0  0  0  0  0  0  0  0  0
    4.9446   -0.9042   19.8572 H   0  0  0  0  0  0  0  0  0  0  0  0
    7.0599    0.7370   20.3666 H   0  0  0  0  0  0  0  0  0  0  0  0
    6.0238    0.1576   21.6851 H   0  0  0  0  0  0  0  0  0  0  0  0
    8.7175   -0.9735   20.8135 H   0  0  0  0  0  0  0  0  0  0  0  0
    8.1231   -0.6429   22.4709 H   0  0  0  0  0  0  0  0  0  0  0  0
   12.5795   -3.5848   26.2542 H   0  0  0  0  0  0  0  0  0  0  0  0
   12.2219   -1.8927   26.6695 H   0  0  0  0  0  0  0  0  0  0  0  0
   11.0595   -4.5534   25.2456 H   0  0  0  0  0  0  0  0  0  0  0  0
  1  2  1  0  0  0  0
  1  3  2  0  0  0  0
  2  5  2  0  0  0  0
  3  6  1  0  0  0  0
  4  5  1  0  0  0  0
  4  6  2  0  0  0  0
  5 13  1  0  0  0  0
  6 14  1  0  0  0  0
  7  9  1  0  0  0  0
  7 13  1  0  0  0  0
  7 15  2  0  0  0  0
  8 12  1  0  0  0  0
  8 14  1  0  0  0  0
  8 16  2  0  0  0  0
  9 10  1  0  0  0  0
 10 11  1  0  0  0  0
 11 13  1  0  0  0  0
 12 17  1  0  0  0  0
  1 18  1  0  0  0  0
  2 19  1  0  0  0  0
  3 20  1  0  0  0  0
  4 21  1  0  0  0  0
  9 22  1  0  0  0  0
  9 23  1  0  0  0  0
 10 24  1  0  0  0  0
 10 25  1  0  0  0  0
 11 26  1  0  0  0  0
 11 27  1  0  0  0  0
 12 28  1  0  0  0  0
 12 29  1  0  0  0  0
 14 30  1  0  0  0  0
M  END
> <IC50 (uM)>
72.0

> <IC50 (uM) - std>
13.65

> <Average Inhibition @ 20 uM>
> 49.5

> <Average Inhibition @ 20 uM - std>

> <Average Inhibition @ 50 uM>

> <Average Inhibition @ 50 uM - std>

> <Trypsin IC50 (uM)>

> <Relative Solubility @ 20 uM>
1.0

> <Relative Solubility @ 100 uM>
1.0

> <Hybrid2>
-8.221556

> <docked_fragment>
x0749

> <Mpro-_dock>
-0.050324

> <site>
active-covalent

$$$$
DAR-DIA-eace69ff-36
  -OEChem-05192003313D

 25 26  0     0  0  0  0  0  0999 V2000
   14.5556   -0.6852   22.2748 C   0  0  0  0  0  0  0  0  0  0  0  0
   13.6123   -1.6383   22.6693 C   0  0  0  0  0  0  0  0  0  0  0  0
   11.9433    0.0849   23.0461 C   0  0  0  0  0  0  0  0  0  0  0  0
   14.0722    2.8994   22.0939 C   0  0  0  0  0  0  0  0  0  0  0  0
   12.8773    1.0637   22.6523 C   0  0  0  0  0  0  0  0  0  0  0  0
   12.8369    2.4810   22.5319 C   0  0  0  0  0  0  0  0  0  0  0  0
   14.1593    0.6569   22.2765 C   0  0  0  0  0  0  0  0  0  0  0  0
   12.3257   -1.2614   23.0494 C   0  0  0  0  0  0  0  0  0  0  0  0
   10.6210    4.9518   24.4225 C   0  0  0  0  0  0  0  0  0  0  0  0
   11.6820    3.3555   22.8209 C   0  0  0  0  0  0  0  0  0  0  0  0
   14.8629    1.7920   21.9425 N   0  0  0  0  0  0  0  0  0  0  0  0
   11.8045    4.1164   24.1017 N   0  3  0  0  0  0  0  0  0  0  0  0
   11.4430   -2.1985   23.4214 F   0  0  0  0  0  0  0  0  0  0  0  0
   15.5570   -0.9798   21.9796 H   0  0  0  0  0  0  0  0  0  0  0  0
   13.8880   -2.6895   22.6805 H   0  0  0  0  0  0  0  0  0  0  0  0
   10.9362    0.3618   23.3445 H   0  0  0  0  0  0  0  0  0  0  0  0
   14.4609    3.8846   21.8763 H   0  0  0  0  0  0  0  0  0  0  0  0
    9.7507    4.2946   24.4675 H   0  0  0  0  0  0  0  0  0  0  0  0
   10.8016    5.4309   25.3867 H   0  0  0  0  0  0  0  0  0  0  0  0
   10.5113    5.6943   23.6297 H   0  0  0  0  0  0  0  0  0  0  0  0
   11.5261    4.1167   22.0369 H   0  0  0  0  0  0  0  0  0  0  0  0
   10.7378    2.7892   22.9009 H   0  0  0  0  0  0  0  0  0  0  0  0
   15.8244    1.8055   21.6314 H   0  0  0  0  0  0  0  0  0  0  0  0
   12.6404    4.7106   24.0528 H   0  0  0  0  0  0  0  0  0  0  0  0
   11.9714    3.4509   24.8655 H   0  0  0  0  0  0  0  0  0  0  0  0
  1  2  2  0  0  0  0
  1  7  1  0  0  0  0
  2  8  1  0  0  0  0
  3  5  1  0  0  0  0
  3  8  2  0  0  0  0
  4  6  2  0  0  0  0
  4 11  1  0  0  0  0
  5  6  1  0  0  0  0
  5  7  2  0  0  0  0
  6 10  1  0  0  0  0
  7 11  1  0  0  0  0
  8 13  1  0  0  0  0
  9 12  1  0  0  0  0
 10 12  1  0  0  0  0
  1 14  1  0  0  0  0
  2 15  1  0  0  0  0
  3 16  1  0  0  0  0
  4 17  1  0  0  0  0
  9 18  1  0  0  0  0
  9 19  1  0  0  0  0
  9 20  1  0  0  0  0
 10 21  1  0  0  0  0
 10 22  1  0  0  0  0
 11 23  1  0  0  0  0
 12 24  1  0  0  0  0
 12 25  1  0  0  0  0
M  CHG  1  12   1
M  END
> <IC50 (uM)>

> <IC50 (uM) - std>

> <Average Inhibition @ 20 uM>

> <Average Inhibition @ 20 uM - std>

> <Average Inhibition @ 50 uM>

> <Average Inhibition @ 50 uM - std>
37.9

> <Trypsin IC50 (uM)>
0.13

> <Relative Solubility @ 20 uM>

> <Relative Solubility @ 100 uM>

> <Hybrid2>
-8.188797

> <docked_fragment>
x0195

> <Mpro-_dock>
-2.530352

> <site>
active-noncovalent

$$$$
MAK-UNK-6435e6c2-3
  -OEChem-05192003313D

 32 33  0     0  0  0  0  0  0999 V2000
   12.4193   -1.7103   22.2275 C   0  0  0  0  0  0  0  0  0  0  0  0
   13.3001   -0.6777   22.4630 C   0  0  0  0  0  0  0  0  0  0  0  0
   11.1739   -0.3695   23.6604 C   0  0  0  0  0  0  0  0  0  0  0  0
   11.1875   -1.5318   22.9210 C   0  0  0  0  0  0  0  0  0  0  0  0
    6.0687   -1.2672   19.1935 C   0  0  0  0  0  0  0  0  0  0  0  0
    6.5055   -2.2427   21.4248 C   0  0  0  0  0  0  0  0  0  0  0  0
    7.7699   -0.2300   20.7741 C   0  0  0  0  0  0  0  0  0  0  0  0
    7.7885   -2.9308   21.8675 C   0  0  0  0  0  0  0  0  0  0  0  0
    9.0727   -0.8875   21.2090 C   0  0  0  0  0  0  0  0  0  0  0  0
    5.8483    0.0581   18.5089 C   0  0  0  0  0  0  0  0  0  0  0  0
   10.0416   -2.4978   22.8533 C   0  0  0  0  0  0  0  0  0  0  0  0
    6.7753   -1.2393   20.3950 N   0  0  0  0  0  0  0  0  0  0  0  0
    8.7826   -1.8811   22.3117 N   0  3  0  0  0  0  0  0  0  0  0  0
    5.6278   -2.2953   18.6733 O   0  0  0  0  0  0  0  0  0  0  0  0
   12.6416    0.5007   23.5166 S   0  0  0  0  0  0  0  0  0  0  0  0
   12.6518   -2.5522   21.5876 H   0  0  0  0  0  0  0  0  0  0  0  0
   14.2989   -0.5593   22.0674 H   0  0  0  0  0  0  0  0  0  0  0  0
   10.3750    0.0133   24.2803 H   0  0  0  0  0  0  0  0  0  0  0  0
    5.7959   -2.9921   21.0603 H   0  0  0  0  0  0  0  0  0  0  0  0
    6.0296   -1.7286   22.2688 H   0  0  0  0  0  0  0  0  0  0  0  0
    7.3410    0.3565   21.5956 H   0  0  0  0  0  0  0  0  0  0  0  0
    7.9756    0.4655   19.9587 H   0  0  0  0  0  0  0  0  0  0  0  0
    7.6003   -3.5854   22.7246 H   0  0  0  0  0  0  0  0  0  0  0  0
    8.2471   -3.5070   21.0560 H   0  0  0  0  0  0  0  0  0  0  0  0
    9.5540   -1.4283   20.3865 H   0  0  0  0  0  0  0  0  0  0  0  0
    9.7642   -0.1423   21.6153 H   0  0  0  0  0  0  0  0  0  0  0  0
    6.6754    0.2507   17.8336 H   0  0  0  0  0  0  0  0  0  0  0  0
    5.7920    0.8406   19.2589 H   0  0  0  0  0  0  0  0  0  0  0  0
    4.9168    0.0201   17.9533 H   0  0  0  0  0  0  0  0  0  0  0  0
   10.2788   -3.3487   22.2056 H   0  0  0  0  0  0  0  0  0  0  0  0
    9.7972   -2.8918   23.8457 H   0  0  0  0  0  0  0  0  0  0  0  0
    8.3539   -1.3603   23.0892 H   0  0  0  0  0  0  0  0  0  0  0  0
  1  2  2  0  0  0  0
  1  4  1  0  0  0  0
  2 15  1  0  0  0  0
  3  4  2  0  0  0  0
  3 15  1  0  0  0  0
  4 11  1  0  0  0  0
  5 10  1  0  0  0  0
  5 12  1  0  0  0  0
  5 14  2  0  0  0  0
  6  8  1  0  0  0  0
  6 12  1  0  0  0  0
  7  9  1  0  0  0  0
  7 12  1  0  0  0  0
  8 13  1  0  0  0  0
  9 13  1  0  0  0  0
 11 13  1  0  0  0  0
  1 16  1  0  0  0  0
  2 17  1  0  0  0  0
  3 18  1  0  0  0  0
  6 19  1  0  0  0  0
  6 20  1  0  0  0  0
  7 21  1  0  0  0  0
  7 22  1  0  0  0  0
  8 23  1  0  0  0  0
  8 24  1  0  0  0  0
  9 25  1  0  0  0  0
  9 26  1  0  0  0  0
 10 27  1  0  0  0  0
 10 28  1  0  0  0  0
 10 29  1  0  0  0  0
 11 30  1  0  0  0  0
 11 31  1  0  0  0  0
 13 32  1  0  0  0  0
M  CHG  1  13   1
M  END
> <IC50 (uM)>

> <IC50 (uM) - std>

> <Average Inhibition @ 20 uM>

> <Average Inhibition @ 20 uM - std>
98.8

> <Average Inhibition @ 50 uM>
0.000332

> <Average Inhibition @ 50 uM - std>
99.4

> <Trypsin IC50 (uM)>
0.175

> <Relative Solubility @ 20 uM>

> <Relative Solubility @ 100 uM>

> <Hybrid2>
-8.185779

> <docked_fragment>
x0831

> <Mpro-_dock>
-1.248268

> <site>
active-covalent

$$$$
MED-COV-4280ac29-14
  -OEChem-05192003313D

 34 35  0     0  0  0  0  0  0999 V2000
   11.4710   -0.3861   25.7007 C   0  0  0  0  0  0  0  0  0  0  0  0
   10.5487   -1.3321   25.2535 C   0  0  0  0  0  0  0  0  0  0  0  0
   12.7870   -0.7656   25.9649 C   0  0  0  0  0  0  0  0  0  0  0  0
   12.2584   -3.0372   25.3347 C   0  0  0  0  0  0  0  0  0  0  0  0
   10.9424   -2.6577   25.0705 C   0  0  0  0  0  0  0  0  0  0  0  0
   13.1807   -2.0911   25.7819 C   0  0  0  0  0  0  0  0  0  0  0  0
    5.8795   -0.3967   19.3013 C   0  0  0  0  0  0  0  0  0  0  0  0
    6.8492   -1.2840   19.5332 C   0  0  0  0  0  0  0  0  0  0  0  0
    9.9707   -3.6530   24.6003 C   0  0  0  0  0  0  0  0  0  0  0  0
    6.5711   -2.4277   20.4249 C   0  0  0  0  0  0  0  0  0  0  0  0
    8.3819   -4.4033   22.8596 C   0  0  0  0  0  0  0  0  0  0  0  0
    9.6625   -2.3493   22.4311 C   0  0  0  0  0  0  0  0  0  0  0  0
    7.0922   -3.6835   22.4815 C   0  0  0  0  0  0  0  0  0  0  0  0
    8.3818   -1.6158   22.0353 C   0  0  0  0  0  0  0  0  0  0  0  0
    9.3658   -3.4453   23.3601 N   0  0  0  0  0  0  0  0  0  0  0  0
    7.3497   -2.5600   21.5722 N   0  0  0  0  0  0  0  0  0  0  0  0
    9.7546   -4.6009   25.3537 O   0  0  0  0  0  0  0  0  0  0  0  0
    5.6620   -3.1942   20.1020 O   0  0  0  0  0  0  0  0  0  0  0  0
   14.8049   -2.5586   26.1075 Cl  0  0  0  0  0  0  0  0  0  0  0  0
   11.1643    0.6460   25.8428 H   0  0  0  0  0  0  0  0  0  0  0  0
    9.5260   -1.0243   25.0511 H   0  0  0  0  0  0  0  0  0  0  0  0
   13.4946   -0.0174   26.3128 H   0  0  0  0  0  0  0  0  0  0  0  0
   12.5628   -4.0719   25.1905 H   0  0  0  0  0  0  0  0  0  0  0  0
    6.0233    0.4634   18.6560 H   0  0  0  0  0  0  0  0  0  0  0  0
    4.9061   -0.5210   19.7640 H   0  0  0  0  0  0  0  0  0  0  0  0
    7.8324   -1.1945   19.0900 H   0  0  0  0  0  0  0  0  0  0  0  0
    8.1977   -5.1321   23.6547 H   0  0  0  0  0  0  0  0  0  0  0  0
    8.7755   -4.9431   21.9955 H   0  0  0  0  0  0  0  0  0  0  0  0
   10.1678   -2.7111   21.5293 H   0  0  0  0  0  0  0  0  0  0  0  0
   10.3569   -1.6648   22.9373 H   0  0  0  0  0  0  0  0  0  0  0  0
    6.4049   -4.3676   21.9668 H   0  0  0  0  0  0  0  0  0  0  0  0
    6.6038   -3.3549   23.4021 H   0  0  0  0  0  0  0  0  0  0  0  0
    8.0172   -1.0276   22.8811 H   0  0  0  0  0  0  0  0  0  0  0  0
    8.5772   -0.9214   21.2113 H   0  0  0  0  0  0  0  0  0  0  0  0
  1  2  2  0  0  0  0
  1  3  1  0  0  0  0
  2  5  1  0  0  0  0
  3  6  2  0  0  0  0
  4  5  2  0  0  0  0
  4  6  1  0  0  0  0
  5  9  1  0  0  0  0
  6 19  1  0  0  0  0
  7  8  2  0  0  0  0
  8 10  1  0  0  0  0
  9 15  1  0  0  0  0
  9 17  2  0  0  0  0
 10 16  1  0  0  0  0
 10 18  2  0  0  0  0
 11 13  1  0  0  0  0
 11 15  1  0  0  0  0
 12 14  1  0  0  0  0
 12 15  1  0  0  0  0
 13 16  1  0  0  0  0
 14 16  1  0  0  0  0
  1 20  1  0  0  0  0
  2 21  1  0  0  0  0
  3 22  1  0  0  0  0
  4 23  1  0  0  0  0
  7 24  1  0  0  0  0
  7 25  1  0  0  0  0
  8 26  1  0  0  0  0
 11 27  1  0  0  0  0
 11 28  1  0  0  0  0
 12 29  1  0  0  0  0
 12 30  1  0  0  0  0
 13 31  1  0  0  0  0
 13 32  1  0  0  0  0
 14 33  1  0  0  0  0
 14 34  1  0  0  0  0
M  END
> <IC50 (uM)>

> <IC50 (uM) - std>

> <Average Inhibition @ 20 uM>

> <Average Inhibition @ 20 uM - std>

> <Average Inhibition @ 50 uM>

> <Average Inhibition @ 50 uM - std>
4.79

> <Trypsin IC50 (uM)>
2.05

> <Relative Solubility @ 20 uM>

> <Relative Solubility @ 100 uM>

> <Hybrid2>
-8.169322

> <docked_fragment>
x0749

> <Mpro-_dock>
-1.090447

> <site>
active-covalent

$$$$
PAT-GYR-359dbb24-1
  -OEChem-05192003313D

 34 35  0     0  0  0  0  0  0999 V2000
    9.2860   -3.3846   24.3770 C   0  0  0  0  0  0  0  0  0  0  0  0
    9.9582   -2.4438   24.0533 C   0  0  0  0  0  0  0  0  0  0  0  0
   10.5860   -0.0932   24.3003 C   0  0  0  0  0  0  0  0  0  0  0  0
   11.7119   -1.4634   22.6596 C   0  0  0  0  0  0  0  0  0  0  0  0
   11.3678    0.9992   23.9245 C   0  0  0  0  0  0  0  0  0  0  0  0
   12.4936   -0.3710   22.2838 C   0  0  0  0  0  0  0  0  0  0  0  0
   10.7581   -1.3245   23.6678 C   0  0  0  0  0  0  0  0  0  0  0  0
   12.3216    0.8603   22.9163 C   0  0  0  0  0  0  0  0  0  0  0  0
   12.5184    4.0095   23.8720 C   0  0  0  0  0  0  0  0  0  0  0  0
   10.5670    5.3060   23.0741 C   0  0  0  0  0  0  0  0  0  0  0  0
   12.1731    6.4577   24.5484 C   0  0  0  0  0  0  0  0  0  0  0  0
    9.4479    5.9928   23.8409 C   0  0  0  0  0  0  0  0  0  0  0  0
   10.9772    7.1114   25.2326 C   0  0  0  0  0  0  0  0  0  0  0  0
   13.1619    2.0365   22.5107 C   0  0  0  0  0  0  0  0  0  0  0  0
   11.7780    5.2035   23.8915 N   0  0  0  0  0  0  0  0  0  0  0  0
   12.4603    3.2885   22.6851 N   0  0  0  0  0  0  0  0  0  0  0  0
   13.1754    3.6140   24.8407 O   0  0  0  0  0  0  0  0  0  0  0  0
    9.8916    7.2646   24.3176 O   0  0  0  0  0  0  0  0  0  0  0  0
    8.6897   -4.2191   24.6636 H   0  0  0  0  0  0  0  0  0  0  0  0
    9.8479    0.0303   25.0893 H   0  0  0  0  0  0  0  0  0  0  0  0
   11.8571   -2.4162   22.1558 H   0  0  0  0  0  0  0  0  0  0  0  0
   11.2274    1.9544   24.4234 H   0  0  0  0  0  0  0  0  0  0  0  0
   13.2331   -0.4880   21.4959 H   0  0  0  0  0  0  0  0  0  0  0  0
   10.2399    4.3231   22.7225 H   0  0  0  0  0  0  0  0  0  0  0  0
   10.8410    5.9026   22.1956 H   0  0  0  0  0  0  0  0  0  0  0  0
   12.5624    7.1100   23.7583 H   0  0  0  0  0  0  0  0  0  0  0  0
   12.9584    6.3060   25.2901 H   0  0  0  0  0  0  0  0  0  0  0  0
    8.5943    6.1665   23.1782 H   0  0  0  0  0  0  0  0  0  0  0  0
    9.0980    5.3813   24.6811 H   0  0  0  0  0  0  0  0  0  0  0  0
   10.6472    6.5301   26.1019 H   0  0  0  0  0  0  0  0  0  0  0  0
   11.2541    8.1089   25.5886 H   0  0  0  0  0  0  0  0  0  0  0  0
   14.0802    2.0786   23.1065 H   0  0  0  0  0  0  0  0  0  0  0  0
   13.4595    1.9630   21.4594 H   0  0  0  0  0  0  0  0  0  0  0  0
   11.9092    3.6517   21.9183 H   0  0  0  0  0  0  0  0  0  0  0  0
  1  2  3  0  0  0  0
  2  7  1  0  0  0  0
  3  5  2  0  0  0  0
  3  7  1  0  0  0  0
  4  6  1  0  0  0  0
  4  7  2  0  0  0  0
  5  8  1  0  0  0  0
  6  8  2  0  0  0  0
  8 14  1  0  0  0  0
  9 15  1  0  0  0  0
  9 16  1  0  0  0  0
  9 17  2  0  0  0  0
 10 12  1  0  0  0  0
 10 15  1  0  0  0  0
 11 13  1  0  0  0  0
 11 15  1  0  0  0  0
 12 18  1  0  0  0  0
 13 18  1  0  0  0  0
 14 16  1  0  0  0  0
  1 19  1  0  0  0  0
  3 20  1  0  0  0  0
  4 21  1  0  0  0  0
  5 22  1  0  0  0  0
  6 23  1  0  0  0  0
 10 24  1  0  0  0  0
 10 25  1  0  0  0  0
 11 26  1  0  0  0  0
 11 27  1  0  0  0  0
 12 28  1  0  0  0  0
 12 29  1  0  0  0  0
 13 30  1  0  0  0  0
 13 31  1  0  0  0  0
 14 32  1  0  0  0  0
 14 33  1  0  0  0  0
 16 34  1  0  0  0  0
M  END
> <IC50 (uM)>

> <IC50 (uM) - std>

> <Average Inhibition @ 20 uM>

> <Average Inhibition @ 20 uM - std>
1.4

> <Average Inhibition @ 50 uM>
1.59

> <Average Inhibition @ 50 uM - std>
2.46

> <Trypsin IC50 (uM)>
0.567

> <Relative Solubility @ 20 uM>
1.0

> <Relative Solubility @ 100 uM>
1.0

> <Hybrid2>
-8.167992

> <docked_fragment>
x0104

> <Mpro-_dock>
0.154867

> <site>
active-noncovalent

$$$$
GIA-UNK-30c7cb75-3
  -OEChem-05192003313D

 44 46  0     0  0  0  0  0  0999 V2000
   12.2269   -2.3004   22.6045 C   0  0  0  0  0  0  0  0  0  0  0  0
   12.0222   -0.5432   24.2397 C   0  0  0  0  0  0  0  0  0  0  0  0
   13.6053   -2.1516   22.6623 C   0  0  0  0  0  0  0  0  0  0  0  0
   13.4058   -0.4390   24.2562 C   0  0  0  0  0  0  0  0  0  0  0  0
   11.4308   -1.4854   23.4036 C   0  0  0  0  0  0  0  0  0  0  0  0
    8.1624   -4.2910   24.7564 C   0  0  0  0  0  0  0  0  0  0  0  0
    8.5730   -3.3369   22.4813 C   0  0  0  0  0  0  0  0  0  0  0  0
    7.8083   -1.8594   24.4246 C   0  0  0  0  0  0  0  0  0  0  0  0
    9.3188   -2.0398   22.1719 C   0  0  0  0  0  0  0  0  0  0  0  0
    9.2482   -1.3490   24.5693 C   0  0  0  0  0  0  0  0  0  0  0  0
    8.1294   -4.7991   27.1759 C   0  0  0  0  0  0  0  0  0  0  0  0
    6.0109   -4.0977   26.0956 C   0  0  0  0  0  0  0  0  0  0  0  0
    7.6406   -6.1799   27.5870 C   0  0  0  0  0  0  0  0  0  0  0  0
    5.2640   -5.3945   26.3705 C   0  0  0  0  0  0  0  0  0  0  0  0
    7.7319   -3.2402   23.7641 C   0  0  0  0  0  0  0  0  0  0  0  0
   14.1486   -1.2364   23.4764 N   0  3  0  0  0  0  0  0  0  0  0  0
   10.0452   -1.6108   23.3646 N   0  0  0  0  0  0  0  0  0  0  0  0
    7.4528   -4.3452   25.9574 N   0  0  0  0  0  0  0  0  0  0  0  0
    9.1005   -5.0402   24.4722 O   0  0  0  0  0  0  0  0  0  0  0  0
    5.5722   -5.3544   28.9784 O   0  0  0  0  0  0  0  0  0  0  0  0
    5.4360   -7.5826   27.8054 O   0  0  0  0  0  0  0  0  0  0  0  0
    5.8746   -6.2011   27.8406 S   0  0  0  0  0  0  0  0  0  0  0  0
   11.7881   -3.0417   21.9438 H   0  0  0  0  0  0  0  0  0  0  0  0
   11.4216    0.1044   24.8709 H   0  0  0  0  0  0  0  0  0  0  0  0
   14.2997   -2.7384   22.0773 H   0  0  0  0  0  0  0  0  0  0  0  0
   13.9503    0.2624   24.8734 H   0  0  0  0  0  0  0  0  0  0  0  0
    7.9032   -3.5661   21.6491 H   0  0  0  0  0  0  0  0  0  0  0  0
    9.2891   -4.1565   22.5580 H   0  0  0  0  0  0  0  0  0  0  0  0
    7.3374   -1.8832   25.4124 H   0  0  0  0  0  0  0  0  0  0  0  0
    7.2403   -1.1472   23.8158 H   0  0  0  0  0  0  0  0  0  0  0  0
   10.0137   -2.1950   21.3447 H   0  0  0  0  0  0  0  0  0  0  0  0
    8.5932   -1.2823   21.8708 H   0  0  0  0  0  0  0  0  0  0  0  0
    9.2096   -0.2653   24.7694 H   0  0  0  0  0  0  0  0  0  0  0  0
    9.7301   -1.8116   25.4463 H   0  0  0  0  0  0  0  0  0  0  0  0
    7.9284   -4.0614   27.9613 H   0  0  0  0  0  0  0  0  0  0  0  0
    9.2132   -4.8274   27.0246 H   0  0  0  0  0  0  0  0  0  0  0  0
    5.5977   -3.6224   25.2041 H   0  0  0  0  0  0  0  0  0  0  0  0
    5.8792   -3.3907   26.9232 H   0  0  0  0  0  0  0  0  0  0  0  0
    7.8725   -6.9239   26.8179 H   0  0  0  0  0  0  0  0  0  0  0  0
    8.1054   -6.4944   28.5263 H   0  0  0  0  0  0  0  0  0  0  0  0
    4.1978   -5.2053   26.5260 H   0  0  0  0  0  0  0  0  0  0  0  0
    5.3751   -6.0965   25.5376 H   0  0  0  0  0  0  0  0  0  0  0  0
    6.6907   -3.4671   23.5330 H   0  0  0  0  0  0  0  0  0  0  0  0
   15.1636   -1.1429   23.5032 H   0  0  0  0  0  0  0  0  0  0  0  0
  1  3  2  0  0  0  0
  1  5  1  0  0  0  0
  2  4  1  0  0  0  0
  2  5  2  0  0  0  0
  3 16  1  0  0  0  0
  4 16  2  0  0  0  0
  5 17  1  0  0  0  0
  6 15  1  0  0  0  0
  6 18  1  0  0  0  0
  6 19  2  0  0  0  0
  7  9  1  0  0  0  0
  7 15  1  0  0  0  0
  8 10  1  0  0  0  0
  8 15  1  0  0  0  0
  9 17  1  0  0  0  0
 10 17  1  0  0  0  0
 11 13  1  0  0  0  0
 11 18  1  0  0  0  0
 12 14  1  0  0  0  0
 12 18  1  0  0  0  0
 13 22  1  0  0  0  0
 14 22  1  0  0  0  0
 20 22  2  0  0  0  0
 21 22  2  0  0  0  0
  1 23  1  0  0  0  0
  2 24  1  0  0  0  0
  3 25  1  0  0  0  0
  4 26  1  0  0  0  0
  7 27  1  0  0  0  0
  7 28  1  0  0  0  0
  8 29  1  0  0  0  0
  8 30  1  0  0  0  0
  9 31  1  0  0  0  0
  9 32  1  0  0  0  0
 10 33  1  0  0  0  0
 10 34  1  0  0  0  0
 11 35  1  0  0  0  0
 11 36  1  0  0  0  0
 12 37  1  0  0  0  0
 12 38  1  0  0  0  0
 13 39  1  0  0  0  0
 13 40  1  0  0  0  0
 14 41  1  0  0  0  0
 14 42  1  0  0  0  0
 15 43  1  0  0  0  0
 16 44  1  0  0  0  0
M  CHG  1  16   1
M  END
> <IC50 (uM)>

> <IC50 (uM) - std>

> <Average Inhibition @ 20 uM>

> <Average Inhibition @ 20 uM - std>

> <Average Inhibition @ 50 uM>

> <Average Inhibition @ 50 uM - std>
13.0

> <Trypsin IC50 (uM)>
2.79

> <Relative Solubility @ 20 uM>

> <Relative Solubility @ 100 uM>

> <Hybrid2>
-8.145669

> <docked_fragment>
x0072

> <Mpro-_dock>
0.570498

> <site>
active-noncovalent

$$$$
MAK-UNK-6435e6c2-2
  -OEChem-05192003313D

 32 33  0     0  0  0  0  0  0999 V2000
    5.2558    0.9467   19.2083 C   0  0  0  0  0  0  0  0  0  0  0  0
    5.7465    0.1663   20.2947 C   0  0  0  0  0  0  0  0  0  0  0  0
    6.0945    0.8989   18.1165 C   0  0  0  0  0  0  0  0  0  0  0  0
    6.9416   -0.4485   19.9918 C   0  0  0  0  0  0  0  0  0  0  0  0
   11.9488    1.0966   23.5563 C   0  0  0  0  0  0  0  0  0  0  0  0
   11.2482   -0.9796   22.4075 C   0  0  0  0  0  0  0  0  0  0  0  0
   10.5958    1.1747   21.4042 C   0  0  0  0  0  0  0  0  0  0  0  0
    9.8226   -1.4954   22.2773 C   0  0  0  0  0  0  0  0  0  0  0  0
    9.1597    0.6903   21.2571 C   0  0  0  0  0  0  0  0  0  0  0  0
   12.5319    2.4590   23.2775 C   0  0  0  0  0  0  0  0  0  0  0  0
    7.7742   -1.3482   20.8568 C   0  0  0  0  0  0  0  0  0  0  0  0
   11.2724    0.4799   22.5047 N   0  0  0  0  0  0  0  0  0  0  0  0
    9.1573   -0.8141   21.1023 N   0  3  0  0  0  0  0  0  0  0  0  0
   12.0890    0.5984   24.6762 O   0  0  0  0  0  0  0  0  0  0  0  0
    7.4671   -0.0839   18.4033 S   0  0  0  0  0  0  0  0  0  0  0  0
    4.3344    1.5139   19.2256 H   0  0  0  0  0  0  0  0  0  0  0  0
    5.2437    0.0631   21.2480 H   0  0  0  0  0  0  0  0  0  0  0  0
    5.9670    1.3944   17.1644 H   0  0  0  0  0  0  0  0  0  0  0  0
   11.7232   -1.4349   23.2821 H   0  0  0  0  0  0  0  0  0  0  0  0
   11.8445   -1.2611   21.5310 H   0  0  0  0  0  0  0  0  0  0  0  0
   11.1672    0.9704   20.4906 H   0  0  0  0  0  0  0  0  0  0  0  0
   10.5952    2.2569   21.5450 H   0  0  0  0  0  0  0  0  0  0  0  0
    9.8177   -2.5716   22.0762 H   0  0  0  0  0  0  0  0  0  0  0  0
    9.2256   -1.2839   23.1715 H   0  0  0  0  0  0  0  0  0  0  0  0
    8.5507    0.9396   22.1333 H   0  0  0  0  0  0  0  0  0  0  0  0
    8.7008    1.1114   20.3568 H   0  0  0  0  0  0  0  0  0  0  0  0
   11.7939    3.2170   23.5183 H   0  0  0  0  0  0  0  0  0  0  0  0
   12.8001    2.5228   22.2277 H   0  0  0  0  0  0  0  0  0  0  0  0
   13.4186    2.5973   23.8877 H   0  0  0  0  0  0  0  0  0  0  0  0
    7.3128   -1.4902   21.8400 H   0  0  0  0  0  0  0  0  0  0  0  0
    7.8951   -2.3360   20.3991 H   0  0  0  0  0  0  0  0  0  0  0  0
    9.7104   -1.0373   20.2633 H   0  0  0  0  0  0  0  0  0  0  0  0
  1  2  1  0  0  0  0
  1  3  2  0  0  0  0
  2  4  2  0  0  0  0
  3 15  1  0  0  0  0
  4 11  1  0  0  0  0
  4 15  1  0  0  0  0
  5 10  1  0  0  0  0
  5 12  1  0  0  0  0
  5 14  2  0  0  0  0
  6  8  1  0  0  0  0
  6 12  1  0  0  0  0
  7  9  1  0  0  0  0
  7 12  1  0  0  0  0
  8 13  1  0  0  0  0
  9 13  1  0  0  0  0
 11 13  1  0  0  0  0
  1 16  1  0  0  0  0
  2 17  1  0  0  0  0
  3 18  1  0  0  0  0
  6 19  1  0  0  0  0
  6 20  1  0  0  0  0
  7 21  1  0  0  0  0
  7 22  1  0  0  0  0
  8 23  1  0  0  0  0
  8 24  1  0  0  0  0
  9 25  1  0  0  0  0
  9 26  1  0  0  0  0
 10 27  1  0  0  0  0
 10 28  1  0  0  0  0
 10 29  1  0  0  0  0
 11 30  1  0  0  0  0
 11 31  1  0  0  0  0
 13 32  1  0  0  0  0
M  CHG  1  13   1
M  END
> <IC50 (uM)>

> <IC50 (uM) - std>

> <Average Inhibition @ 20 uM>

> <Average Inhibition @ 20 uM - std>
94.5

> <Average Inhibition @ 50 uM>
1.7

> <Average Inhibition @ 50 uM - std>
99.0

> <Trypsin IC50 (uM)>
0.0298

> <Relative Solubility @ 20 uM>

> <Relative Solubility @ 100 uM>

> <Hybrid2>
-8.134935

> <docked_fragment>
x0434

> <Mpro-_dock>
-1.046222

> <site>
active-noncovalent

$$$$
GER-UNI-05c7e912-1
  -OEChem-05192003313D

 40 42  0     0  0  0  0  0  0999 V2000
    9.0375   -1.6102   22.9753 C   0  0  0  0  0  0  0  0  0  0  0  0
   10.1130   -0.1587   21.3710 C   0  0  0  0  0  0  0  0  0  0  0  0
    7.8124   -1.4031   22.3414 C   0  0  0  0  0  0  0  0  0  0  0  0
    8.8879    0.0483   20.7370 C   0  0  0  0  0  0  0  0  0  0  0  0
   10.7516    1.5878   24.3772 C   0  0  0  0  0  0  0  0  0  0  0  0
   12.7734    2.0687   23.1450 C   0  0  0  0  0  0  0  0  0  0  0  0
   10.4511    2.9493   24.4156 C   0  0  0  0  0  0  0  0  0  0  0  0
   12.4729    3.4303   23.1833 C   0  0  0  0  0  0  0  0  0  0  0  0
   12.1479   -2.3698   23.3508 C   0  0  0  0  0  0  0  0  0  0  0  0
   10.1878   -0.9879   22.4901 C   0  0  0  0  0  0  0  0  0  0  0  0
    7.7376   -0.5739   21.2222 C   0  0  0  0  0  0  0  0  0  0  0  0
   11.9128    1.1475   23.7419 C   0  0  0  0  0  0  0  0  0  0  0  0
   11.3117    3.8706   23.8186 C   0  0  0  0  0  0  0  0  0  0  0  0
   11.4547   -1.2020   23.1457 C   0  0  0  0  0  0  0  0  0  0  0  0
   13.3090   -1.9733   24.0410 C   0  0  0  0  0  0  0  0  0  0  0  0
    6.4276   -0.3522   20.5448 C   0  0  0  0  0  0  0  0  0  0  0  0
   14.4086   -2.8312   24.5133 C   0  0  0  0  0  0  0  0  0  0  0  0
   13.3545   -0.6564   24.2597 N   0  0  0  0  0  0  0  0  0  0  0  0
   12.2133   -0.2153   23.7035 N   0  0  0  0  0  0  0  0  0  0  0  0
   10.0210    5.7452   22.4313 N   0  0  0  0  0  0  0  0  0  0  0  0
   10.0660    5.8219   25.0077 O   0  0  0  0  0  0  0  0  0  0  0  0
   12.1733    6.3267   23.7223 O   0  0  0  0  0  0  0  0  0  0  0  0
   14.2478   -4.1657   24.2295 F   0  0  0  0  0  0  0  0  0  0  0  0
   15.6372   -2.5183   23.9848 F   0  0  0  0  0  0  0  0  0  0  0  0
   14.5909   -2.7831   25.8726 F   0  0  0  0  0  0  0  0  0  0  0  0
   10.9345    5.5747   23.8652 S   0  0  0  0  0  0  0  0  0  0  0  0
    9.0794   -2.2592   23.8468 H   0  0  0  0  0  0  0  0  0  0  0  0
   11.0008    0.3331   20.9806 H   0  0  0  0  0  0  0  0  0  0  0  0
    6.9212   -1.8915   22.7264 H   0  0  0  0  0  0  0  0  0  0  0  0
    8.8393    0.6960   19.8657 H   0  0  0  0  0  0  0  0  0  0  0  0
   10.0716    0.8807   24.8463 H   0  0  0  0  0  0  0  0  0  0  0  0
   13.6815    1.7392   22.6460 H   0  0  0  0  0  0  0  0  0  0  0  0
    9.5437    3.2817   24.9127 H   0  0  0  0  0  0  0  0  0  0  0  0
   13.1500    4.1395   22.7148 H   0  0  0  0  0  0  0  0  0  0  0  0
   11.8573   -3.3652   23.0460 H   0  0  0  0  0  0  0  0  0  0  0  0
    5.9130    0.5124   20.9817 H   0  0  0  0  0  0  0  0  0  0  0  0
    6.5602   -0.1715   19.4702 H   0  0  0  0  0  0  0  0  0  0  0  0
    5.7756   -1.2303   20.6410 H   0  0  0  0  0  0  0  0  0  0  0  0
   10.5173    5.6855   21.5338 H   0  0  0  0  0  0  0  0  0  0  0  0
    9.0763    5.3424   22.4109 H   0  0  0  0  0  0  0  0  0  0  0  0
  1  3  2  0  0  0  0
  1 10  1  0  0  0  0
  2  4  1  0  0  0  0
  2 10  2  0  0  0  0
  3 11  1  0  0  0  0
  4 11  2  0  0  0  0
  5  7  2  0  0  0  0
  5 12  1  0  0  0  0
  6  8  1  0  0  0  0
  6 12  2  0  0  0  0
  7 13  1  0  0  0  0
  8 13  2  0  0  0  0
  9 14  2  0  0  0  0
  9 15  1  0  0  0  0
 10 14  1  0  0  0  0
 11 16  1  0  0  0  0
 12 19  1  0  0  0  0
 13 26  1  0  0  0  0
 14 19  1  0  0  0  0
 15 17  1  0  0  0  0
 15 18  2  0  0  0  0
 17 23  1  0  0  0  0
 17 24  1  0  0  0  0
 17 25  1  0  0  0  0
 18 19  1  0  0  0  0
 20 26  1  0  0  0  0
 21 26  2  0  0  0  0
 22 26  2  0  0  0  0
  1 27  1  0  0  0  0
  2 28  1  0  0  0  0
  3 29  1  0  0  0  0
  4 30  1  0  0  0  0
  5 31  1  0  0  0  0
  6 32  1  0  0  0  0
  7 33  1  0  0  0  0
  8 34  1  0  0  0  0
  9 35  1  0  0  0  0
 16 36  1  0  0  0  0
 16 37  1  0  0  0  0
 16 38  1  0  0  0  0
 20 39  1  0  0  0  0
 20 40  1  0  0  0  0
M  END
> <IC50 (uM)>

> <IC50 (uM) - std>

> <Average Inhibition @ 20 uM>

> <Average Inhibition @ 20 uM - std>
6.23

> <Average Inhibition @ 50 uM>
0.227

> <Average Inhibition @ 50 uM - std>
11.9

> <Trypsin IC50 (uM)>
0.592

> <Relative Solubility @ 20 uM>
0.91

> <Relative Solubility @ 100 uM>
0.79

> <Hybrid2>
-8.128628

> <docked_fragment>
x0161

> <Mpro-_dock>
2.484577

> <site>
active-noncovalent

$$$$
LON-WEI-8f408cad-3
  -OEChem-05192003313D

 31 32  0     0  0  0  0  0  0999 V2000
   14.0308   -1.2451   24.4388 C   0  0  0  0  0  0  0  0  0  0  0  0
   12.7170   -0.8535   24.0505 C   0  0  0  0  0  0  0  0  0  0  0  0
   14.0233   -2.3821   25.2164 C   0  0  0  0  0  0  0  0  0  0  0  0
   11.7553   -1.7064   24.5461 C   0  0  0  0  0  0  0  0  0  0  0  0
    6.2109   -4.1944   21.4913 C   0  0  0  0  0  0  0  0  0  0  0  0
    7.6141   -2.2238   22.0114 C   0  0  0  0  0  0  0  0  0  0  0  0
    7.9382   -4.2712   23.3571 C   0  0  0  0  0  0  0  0  0  0  0  0
    9.1231   -2.0903   21.8478 C   0  0  0  0  0  0  0  0  0  0  0  0
    9.4485   -4.1348   23.1967 C   0  0  0  0  0  0  0  0  0  0  0  0
    5.8808   -5.6352   21.7894 C   0  0  0  0  0  0  0  0  0  0  0  0
    7.2332   -3.6192   22.2452 N   0  0  0  0  0  0  0  0  0  0  0  0
    9.8259   -2.7048   23.0099 N   0  0  0  0  0  0  0  0  0  0  0  0
    5.5803   -3.6006   20.6128 O   0  0  0  0  0  0  0  0  0  0  0  0
    9.4855   -2.4889   25.5507 O   0  0  0  0  0  0  0  0  0  0  0  0
    9.5355   -0.4090   24.1297 O   0  0  0  0  0  0  0  0  0  0  0  0
   12.4370   -2.9728   25.4755 S   0  0  0  0  0  0  0  0  0  0  0  0
    9.9955   -1.7508   24.4154 S   0  0  0  0  0  0  0  0  0  0  0  0
    4.6686   -5.6208   23.0654 Cl  0  0  0  0  0  0  0  0  0  0  0  0
   14.9355   -0.7200   24.1613 H   0  0  0  0  0  0  0  0  0  0  0  0
   12.4912    0.0104   23.4388 H   0  0  0  0  0  0  0  0  0  0  0  0
   14.8733   -2.8946   25.6443 H   0  0  0  0  0  0  0  0  0  0  0  0
    7.2722   -1.6513   22.8842 H   0  0  0  0  0  0  0  0  0  0  0  0
    7.1150   -1.8030   21.1348 H   0  0  0  0  0  0  0  0  0  0  0  0
    7.6640   -5.3277   23.4255 H   0  0  0  0  0  0  0  0  0  0  0  0
    7.6029   -3.7807   24.2782 H   0  0  0  0  0  0  0  0  0  0  0  0
    9.4562   -2.5697   20.9151 H   0  0  0  0  0  0  0  0  0  0  0  0
    9.3820   -1.0234   21.7910 H   0  0  0  0  0  0  0  0  0  0  0  0
    9.9384   -4.5246   24.1015 H   0  0  0  0  0  0  0  0  0  0  0  0
    9.8028   -4.7288   22.3397 H   0  0  0  0  0  0  0  0  0  0  0  0
    6.7778   -6.1373   22.1339 H   0  0  0  0  0  0  0  0  0  0  0  0
    5.4752   -6.0951   20.8955 H   0  0  0  0  0  0  0  0  0  0  0  0
  1  2  1  0  0  0  0
  1  3  2  0  0  0  0
  2  4  2  0  0  0  0
  3 16  1  0  0  0  0
  4 16  1  0  0  0  0
  4 17  1  0  0  0  0
  5 10  1  0  0  0  0
  5 11  1  0  0  0  0
  5 13  2  0  0  0  0
  6  8  1  0  0  0  0
  6 11  1  0  0  0  0
  7  9  1  0  0  0  0
  7 11  1  0  0  0  0
  8 12  1  0  0  0  0
  9 12  1  0  0  0  0
 10 18  1  0  0  0  0
 12 17  1  0  0  0  0
 14 17  2  0  0  0  0
 15 17  2  0  0  0  0
  1 19  1  0  0  0  0
  2 20  1  0  0  0  0
  3 21  1  0  0  0  0
  6 22  1  0  0  0  0
  6 23  1  0  0  0  0
  7 24  1  0  0  0  0
  7 25  1  0  0  0  0
  8 26  1  0  0  0  0
  8 27  1  0  0  0  0
  9 28  1  0  0  0  0
  9 29  1  0  0  0  0
 10 30  1  0  0  0  0
 10 31  1  0  0  0  0
M  END
> <IC50 (uM)>
2.07

> <IC50 (uM) - std>
0.15

> <Average Inhibition @ 20 uM>
> 99.0

> <Average Inhibition @ 20 uM - std>
99.3

> <Average Inhibition @ 50 uM>
0.268

> <Average Inhibition @ 50 uM - std>
99.6

> <Trypsin IC50 (uM)>
0.0712

> <Relative Solubility @ 20 uM>
1.0

> <Relative Solubility @ 100 uM>
1.0

> <Hybrid2>
-8.104933

> <docked_fragment>
x0749

> <Mpro-_dock>
0.526449

> <site>
active-covalent

$$$$
AAR-POS-d2a4d1df-22
  -OEChem-05192003313D

 31 32  0     0  0  0  0  0  0999 V2000
   14.0308   -1.2451   24.4388 C   0  0  0  0  0  0  0  0  0  0  0  0
   12.7170   -0.8535   24.0505 C   0  0  0  0  0  0  0  0  0  0  0  0
   14.0233   -2.3821   25.2164 C   0  0  0  0  0  0  0  0  0  0  0  0
   11.7553   -1.7064   24.5461 C   0  0  0  0  0  0  0  0  0  0  0  0
    6.2109   -4.1944   21.4913 C   0  0  0  0  0  0  0  0  0  0  0  0
    7.6141   -2.2238   22.0114 C   0  0  0  0  0  0  0  0  0  0  0  0
    7.9382   -4.2712   23.3571 C   0  0  0  0  0  0  0  0  0  0  0  0
    9.1231   -2.0903   21.8478 C   0  0  0  0  0  0  0  0  0  0  0  0
    9.4485   -4.1348   23.1967 C   0  0  0  0  0  0  0  0  0  0  0  0
    5.8808   -5.6352   21.7894 C   0  0  0  0  0  0  0  0  0  0  0  0
    7.2332   -3.6192   22.2452 N   0  0  0  0  0  0  0  0  0  0  0  0
    9.8259   -2.7048   23.0099 N   0  0  0  0  0  0  0  0  0  0  0  0
    5.5803   -3.6006   20.6128 O   0  0  0  0  0  0  0  0  0  0  0  0
    9.4855   -2.4889   25.5507 O   0  0  0  0  0  0  0  0  0  0  0  0
    9.5355   -0.4090   24.1297 O   0  0  0  0  0  0  0  0  0  0  0  0
   12.4370   -2.9728   25.4755 S   0  0  0  0  0  0  0  0  0  0  0  0
    9.9955   -1.7508   24.4154 S   0  0  0  0  0  0  0  0  0  0  0  0
    4.6686   -5.6208   23.0654 Cl  0  0  0  0  0  0  0  0  0  0  0  0
   14.9355   -0.7200   24.1613 H   0  0  0  0  0  0  0  0  0  0  0  0
   12.4912    0.0104   23.4388 H   0  0  0  0  0  0  0  0  0  0  0  0
   14.8733   -2.8946   25.6443 H   0  0  0  0  0  0  0  0  0  0  0  0
    7.2722   -1.6513   22.8842 H   0  0  0  0  0  0  0  0  0  0  0  0
    7.1150   -1.8030   21.1348 H   0  0  0  0  0  0  0  0  0  0  0  0
    7.6640   -5.3277   23.4255 H   0  0  0  0  0  0  0  0  0  0  0  0
    7.6029   -3.7807   24.2782 H   0  0  0  0  0  0  0  0  0  0  0  0
    9.4562   -2.5697   20.9151 H   0  0  0  0  0  0  0  0  0  0  0  0
    9.3820   -1.0234   21.7910 H   0  0  0  0  0  0  0  0  0  0  0  0
    9.9384   -4.5246   24.1015 H   0  0  0  0  0  0  0  0  0  0  0  0
    9.8028   -4.7288   22.3397 H   0  0  0  0  0  0  0  0  0  0  0  0
    6.7778   -6.1373   22.1339 H   0  0  0  0  0  0  0  0  0  0  0  0
    5.4752   -6.0951   20.8955 H   0  0  0  0  0  0  0  0  0  0  0  0
  1  2  1  0  0  0  0
  1  3  2  0  0  0  0
  2  4  2  0  0  0  0
  3 16  1  0  0  0  0
  4 16  1  0  0  0  0
  4 17  1  0  0  0  0
  5 10  1  0  0  0  0
  5 11  1  0  0  0  0
  5 13  2  0  0  0  0
  6  8  1  0  0  0  0
  6 11  1  0  0  0  0
  7  9  1  0  0  0  0
  7 11  1  0  0  0  0
  8 12  1  0  0  0  0
  9 12  1  0  0  0  0
 10 18  1  0  0  0  0
 12 17  1  0  0  0  0
 14 17  2  0  0  0  0
 15 17  2  0  0  0  0
  1 19  1  0  0  0  0
  2 20  1  0  0  0  0
  3 21  1  0  0  0  0
  6 22  1  0  0  0  0
  6 23  1  0  0  0  0
  7 24  1  0  0  0  0
  7 25  1  0  0  0  0
  8 26  1  0  0  0  0
  8 27  1  0  0  0  0
  9 28  1  0  0  0  0
  9 29  1  0  0  0  0
 10 30  1  0  0  0  0
 10 31  1  0  0  0  0
M  END
> <IC50 (uM)>
2.07

> <IC50 (uM) - std>
0.15

> <Average Inhibition @ 20 uM>
> 99.0

> <Average Inhibition @ 20 uM - std>
99.3

> <Average Inhibition @ 50 uM>
0.268

> <Average Inhibition @ 50 uM - std>
99.6

> <Trypsin IC50 (uM)>
0.0712

> <Relative Solubility @ 20 uM>
1.0

> <Relative Solubility @ 100 uM>
1.0

> <Hybrid2>
-8.104933

> <docked_fragment>
x0749

> <Mpro-_dock>
0.526449

> <site>
active-covalent

$$$$
ANN-UNI-26382800-6
  -OEChem-05192003313D

 33 34  0     0  0  0  0  0  0999 V2000
    6.4620   -3.2586   20.7862 C   0  0  0  0  0  0  0  0  0  0  0  0
    6.6951   -6.5876   22.4351 C   0  0  0  0  0  0  0  0  0  0  0  0
   14.4077   -2.7710   26.9187 C   0  0  0  0  0  0  0  0  0  0  0  0
    6.2481   -5.5467   21.6214 C   0  0  0  0  0  0  0  0  0  0  0  0
    7.8139   -6.4063   23.2482 C   0  0  0  0  0  0  0  0  0  0  0  0
   13.4020   -3.6407   26.4972 C   0  0  0  0  0  0  0  0  0  0  0  0
   14.4724   -1.4768   26.4024 C   0  0  0  0  0  0  0  0  0  0  0  0
    8.0391   -4.1430   22.4335 C   0  0  0  0  0  0  0  0  0  0  0  0
   12.5256   -1.9221   25.0427 C   0  0  0  0  0  0  0  0  0  0  0  0
    6.9201   -4.3244   21.6205 C   0  0  0  0  0  0  0  0  0  0  0  0
    8.4859   -5.1840   23.2473 C   0  0  0  0  0  0  0  0  0  0  0  0
   12.4609   -3.2163   25.5591 C   0  0  0  0  0  0  0  0  0  0  0  0
   13.5313   -1.0524   25.4643 C   0  0  0  0  0  0  0  0  0  0  0  0
   10.4165   -3.8511   24.2040 C   0  0  0  0  0  0  0  0  0  0  0  0
   12.6008    0.5785   24.0049 C   0  0  0  0  0  0  0  0  0  0  0  0
    6.0899   -2.3930   20.1086 N   0  0  0  0  0  0  0  0  0  0  0  0
    9.6042   -5.0026   24.0615 N   0  0  0  0  0  0  0  0  0  0  0  0
   11.4407   -4.0987   25.1320 N   0  0  0  0  0  0  0  0  0  0  0  0
   10.2444   -2.7961   23.6019 O   0  0  0  0  0  0  0  0  0  0  0  0
   13.5944    0.2104   24.9602 O   0  0  0  0  0  0  0  0  0  0  0  0
    6.1712   -7.5392   22.4365 H   0  0  0  0  0  0  0  0  0  0  0  0
   15.1396   -3.1015   27.6498 H   0  0  0  0  0  0  0  0  0  0  0  0
    5.3750   -5.7039   20.9928 H   0  0  0  0  0  0  0  0  0  0  0  0
    8.1532   -7.2246   23.8783 H   0  0  0  0  0  0  0  0  0  0  0  0
   13.3617   -4.6471   26.9060 H   0  0  0  0  0  0  0  0  0  0  0  0
   15.2579   -0.8043   26.7355 H   0  0  0  0  0  0  0  0  0  0  0  0
    8.5661   -3.1908   22.4349 H   0  0  0  0  0  0  0  0  0  0  0  0
   11.7937   -1.5864   24.3114 H   0  0  0  0  0  0  0  0  0  0  0  0
   12.7667    1.6100   23.6845 H   0  0  0  0  0  0  0  0  0  0  0  0
   11.6089    0.4800   24.4531 H   0  0  0  0  0  0  0  0  0  0  0  0
   12.6754   -0.0856   23.1405 H   0  0  0  0  0  0  0  0  0  0  0  0
    9.8739   -5.8104   24.6328 H   0  0  0  0  0  0  0  0  0  0  0  0
   11.4575   -5.0246   25.5521 H   0  0  0  0  0  0  0  0  0  0  0  0
  1 10  1  0  0  0  0
  1 16  3  0  0  0  0
  2  4  1  0  0  0  0
  2  5  2  0  0  0  0
  3  6  1  0  0  0  0
  3  7  2  0  0  0  0
  4 10  2  0  0  0  0
  5 11  1  0  0  0  0
  6 12  2  0  0  0  0
  7 13  1  0  0  0  0
  8 10  1  0  0  0  0
  8 11  2  0  0  0  0
  9 12  1  0  0  0  0
  9 13  2  0  0  0  0
 11 17  1  0  0  0  0
 12 18  1  0  0  0  0
 13 20  1  0  0  0  0
 14 17  1  0  0  0  0
 14 18  1  0  0  0  0
 14 19  2  0  0  0  0
 15 20  1  0  0  0  0
  2 21  1  0  0  0  0
  3 22  1  0  0  0  0
  4 23  1  0  0  0  0
  5 24  1  0  0  0  0
  6 25  1  0  0  0  0
  7 26  1  0  0  0  0
  8 27  1  0  0  0  0
  9 28  1  0  0  0  0
 15 29  1  0  0  0  0
 15 30  1  0  0  0  0
 15 31  1  0  0  0  0
 17 32  1  0  0  0  0
 18 33  1  0  0  0  0
M  END
> <IC50 (uM)>

> <IC50 (uM) - std>

> <Average Inhibition @ 20 uM>

> <Average Inhibition @ 20 uM - std>
5.11

> <Average Inhibition @ 50 uM>
0.0988

> <Average Inhibition @ 50 uM - std>
9.79

> <Trypsin IC50 (uM)>
0.332

> <Relative Solubility @ 20 uM>
0.96

> <Relative Solubility @ 100 uM>
0.94

> <Hybrid2>
-8.098941

> <docked_fragment>
x0749

> <Mpro-_dock>
2.185724

> <site>
active-covalent

$$$$
WAR-XCH-b72a1bbc-10
  -OEChem-05192003313D

 48 50  0     0  0  0  0  0  0999 V2000
    9.5647   -0.6397   24.8097 C   0  0  0  0  0  0  0  0  0  0  0  0
   10.8950   -1.9386   23.2669 C   0  0  0  0  0  0  0  0  0  0  0  0
    8.6857   -1.7129   24.9553 C   0  0  0  0  0  0  0  0  0  0  0  0
   10.0160   -3.0119   23.4126 C   0  0  0  0  0  0  0  0  0  0  0  0
   10.6693   -0.7525   23.9654 C   0  0  0  0  0  0  0  0  0  0  0  0
    8.9114   -2.8990   24.2568 C   0  0  0  0  0  0  0  0  0  0  0  0
    8.3538    6.2595   23.3805 C   0  0  0  0  0  0  0  0  0  0  0  0
    8.1635    5.0739   22.4404 C   0  0  0  0  0  0  0  0  0  0  0  0
    9.8288    6.6179   23.5258 C   0  0  0  0  0  0  0  0  0  0  0  0
   10.9771    2.5493   24.6346 C   0  0  0  0  0  0  0  0  0  0  0  0
   11.1872    2.0738   22.1526 C   0  0  0  0  0  0  0  0  0  0  0  0
   11.7622    1.2641   24.9211 C   0  0  0  0  0  0  0  0  0  0  0  0
   11.9688    0.8063   22.5033 C   0  0  0  0  0  0  0  0  0  0  0  0
    9.0028    3.8774   22.8652 C   0  0  0  0  0  0  0  0  0  0  0  0
   10.6623    5.4160   23.9463 C   0  0  0  0  0  0  0  0  0  0  0  0
   11.3449    3.1175   23.2615 C   0  0  0  0  0  0  0  0  0  0  0  0
   11.5463    0.3175   23.8198 N   0  0  0  0  0  0  0  0  0  0  0  0
    8.5238   -5.0720   25.7510 N   0  0  0  0  0  0  0  0  0  0  0  0
   10.4526    4.2903   22.9614 N   0  3  0  0  0  0  0  0  0  0  0  0
    6.5169   -3.7234   24.8569 O   0  0  0  0  0  0  0  0  0  0  0  0
    7.9046   -5.0802   23.2504 O   0  0  0  0  0  0  0  0  0  0  0  0
    7.8113   -4.2426   24.4380 S   0  0  0  0  0  0  0  0  0  0  0  0
    9.3791    0.2800   25.3585 H   0  0  0  0  0  0  0  0  0  0  0  0
   11.7534   -2.0376   22.6071 H   0  0  0  0  0  0  0  0  0  0  0  0
    7.8284   -1.6137   25.6156 H   0  0  0  0  0  0  0  0  0  0  0  0
   10.2016   -3.9311   22.8633 H   0  0  0  0  0  0  0  0  0  0  0  0
    7.7967    7.1248   23.0043 H   0  0  0  0  0  0  0  0  0  0  0  0
    7.9389    6.0143   24.3659 H   0  0  0  0  0  0  0  0  0  0  0  0
    7.1054    4.7896   22.4196 H   0  0  0  0  0  0  0  0  0  0  0  0
    8.4324    5.3678   21.4181 H   0  0  0  0  0  0  0  0  0  0  0  0
   10.2069    7.0133   22.5747 H   0  0  0  0  0  0  0  0  0  0  0  0
    9.9398    7.4174   24.2670 H   0  0  0  0  0  0  0  0  0  0  0  0
    9.9113    2.3525   24.6948 H   0  0  0  0  0  0  0  0  0  0  0  0
   11.2198    3.2866   25.3962 H   0  0  0  0  0  0  0  0  0  0  0  0
   11.5765    2.4841   21.2258 H   0  0  0  0  0  0  0  0  0  0  0  0
   10.1417    1.8346   21.9976 H   0  0  0  0  0  0  0  0  0  0  0  0
   12.8199    1.5151   25.0030 H   0  0  0  0  0  0  0  0  0  0  0  0
   11.4419    0.8242   25.8650 H   0  0  0  0  0  0  0  0  0  0  0  0
   11.8081    0.0358   21.7453 H   0  0  0  0  0  0  0  0  0  0  0  0
   13.0350    1.0482   22.5135 H   0  0  0  0  0  0  0  0  0  0  0  0
    8.6997    3.4938   23.8458 H   0  0  0  0  0  0  0  0  0  0  0  0
    8.9370    3.0764   22.1218 H   0  0  0  0  0  0  0  0  0  0  0  0
   11.7286    5.6647   23.9404 H   0  0  0  0  0  0  0  0  0  0  0  0
   10.3767    5.0484   24.9383 H   0  0  0  0  0  0  0  0  0  0  0  0
   12.3673    3.5121   23.2723 H   0  0  0  0  0  0  0  0  0  0  0  0
    8.0432   -5.0410   26.6585 H   0  0  0  0  0  0  0  0  0  0  0  0
    8.9920   -5.9661   25.5595 H   0  0  0  0  0  0  0  0  0  0  0  0
   10.7375    4.6339   22.0352 H   0  0  0  0  0  0  0  0  0  0  0  0
  1  3  2  0  0  0  0
  1  5  1  0  0  0  0
  2  4  1  0  0  0  0
  2  5  2  0  0  0  0
  3  6  1  0  0  0  0
  4  6  2  0  0  0  0
  5 17  1  0  0  0  0
  6 22  1  0  0  0  0
  7  8  1  0  0  0  0
  7  9  1  0  0  0  0
  8 14  1  0  0  0  0
  9 15  1  0  0  0  0
 10 12  1  0  0  0  0
 10 16  1  0  0  0  0
 11 13  1  0  0  0  0
 11 16  1  0  0  0  0
 12 17  1  0  0  0  0
 13 17  1  0  0  0  0
 14 19  1  0  0  0  0
 15 19  1  0  0  0  0
 16 19  1  0  0  0  0
 18 22  1  0  0  0  0
 20 22  2  0  0  0  0
 21 22  2  0  0  0  0
  1 23  1  0  0  0  0
  2 24  1  0  0  0  0
  3 25  1  0  0  0  0
  4 26  1  0  0  0  0
  7 27  1  0  0  0  0
  7 28  1  0  0  0  0
  8 29  1  0  0  0  0
  8 30  1  0  0  0  0
  9 31  1  0  0  0  0
  9 32  1  0  0  0  0
 10 33  1  0  0  0  0
 10 34  1  0  0  0  0
 11 35  1  0  0  0  0
 11 36  1  0  0  0  0
 12 37  1  0  0  0  0
 12 38  1  0  0  0  0
 13 39  1  0  0  0  0
 13 40  1  0  0  0  0
 14 41  1  0  0  0  0
 14 42  1  0  0  0  0
 15 43  1  0  0  0  0
 15 44  1  0  0  0  0
 16 45  1  0  0  0  0
 18 46  1  0  0  0  0
 18 47  1  0  0  0  0
 19 48  1  0  0  0  0
M  CHG  1  19   1
M  END
> <IC50 (uM)>

> <IC50 (uM) - std>

> <Average Inhibition @ 20 uM>

> <Average Inhibition @ 20 uM - std>

> <Average Inhibition @ 50 uM>

> <Average Inhibition @ 50 uM - std>
2.3

> <Trypsin IC50 (uM)>
0.421

> <Relative Solubility @ 20 uM>

> <Relative Solubility @ 100 uM>

> <Hybrid2>
-8.096125

> <docked_fragment>
x0104

> <Mpro-_dock>
3.282734

> <site>
active-noncovalent

$$$$
BAR-COM-4e090d3a-69
  -OEChem-05192003313D

 36 37  0     0  0  0  0  0  0999 V2000
    5.6815    1.0904   17.7808 C   0  0  0  0  0  0  0  0  0  0  0  0
   11.7636    0.9854   23.9776 C   0  0  0  0  0  0  0  0  0  0  0  0
   10.8421    0.0943   23.4390 C   0  0  0  0  0  0  0  0  0  0  0  0
    6.7978    0.3734   18.1968 C   0  0  0  0  0  0  0  0  0  0  0  0
    4.7716    1.5578   18.7226 C   0  0  0  0  0  0  0  0  0  0  0  0
   13.0794    0.5669   24.0928 C   0  0  0  0  0  0  0  0  0  0  0  0
   12.5971   -1.4920   23.1947 C   0  0  0  0  0  0  0  0  0  0  0  0
   11.2586   -1.1701   23.0376 C   0  0  0  0  0  0  0  0  0  0  0  0
    6.9572    0.1523   19.5553 C   0  0  0  0  0  0  0  0  0  0  0  0
    5.0217    1.2835   20.0575 C   0  0  0  0  0  0  0  0  0  0  0  0
    8.4672   -0.9234   21.2710 C   0  0  0  0  0  0  0  0  0  0  0  0
   10.2972   -2.1452   22.4573 C   0  0  0  0  0  0  0  0  0  0  0  0
    4.0176    0.9524   22.1878 C   0  0  0  0  0  0  0  0  0  0  0  0
    3.6245    1.8395   23.3458 C   0  0  0  0  0  0  0  0  0  0  0  0
   13.5215   -0.6532   23.7139 N   0  0  0  0  0  0  0  0  0  0  0  0
    6.0949    0.5904   20.4998 N   0  0  0  0  0  0  0  0  0  0  0  0
    8.0960   -0.5777   19.9686 N   0  0  0  0  0  0  0  0  0  0  0  0
    9.6638   -1.6498   21.2597 N   0  0  0  0  0  0  0  0  0  0  0  0
    7.8594   -0.6494   22.3030 O   0  0  0  0  0  0  0  0  0  0  0  0
    4.1389    1.7327   21.0045 O   0  0  0  0  0  0  0  0  0  0  0  0
    4.5551    2.8093   23.5210 F   0  0  0  0  0  0  0  0  0  0  0  0
    2.4500    2.4595   23.0749 F   0  0  0  0  0  0  0  0  0  0  0  0
    5.5206    1.2846   16.7246 H   0  0  0  0  0  0  0  0  0  0  0  0
   11.4615    1.9762   24.2970 H   0  0  0  0  0  0  0  0  0  0  0  0
    9.8026    0.3935   23.3357 H   0  0  0  0  0  0  0  0  0  0  0  0
    7.5127    0.0051   17.4684 H   0  0  0  0  0  0  0  0  0  0  0  0
    3.8961    2.1185   18.4141 H   0  0  0  0  0  0  0  0  0  0  0  0
   13.8365    1.2247   24.5070 H   0  0  0  0  0  0  0  0  0  0  0  0
   12.9805   -2.4638   22.8994 H   0  0  0  0  0  0  0  0  0  0  0  0
   10.7952   -3.0913   22.1964 H   0  0  0  0  0  0  0  0  0  0  0  0
    9.4956   -2.3982   23.1672 H   0  0  0  0  0  0  0  0  0  0  0  0
    4.9782    0.4638   22.3740 H   0  0  0  0  0  0  0  0  0  0  0  0
    3.2538    0.1910   22.0080 H   0  0  0  0  0  0  0  0  0  0  0  0
    3.5203    1.2771   24.2775 H   0  0  0  0  0  0  0  0  0  0  0  0
    8.7164   -0.8868   19.2243 H   0  0  0  0  0  0  0  0  0  0  0  0
   10.1076   -1.8372   20.3649 H   0  0  0  0  0  0  0  0  0  0  0  0
  1  4  2  0  0  0  0
  1  5  1  0  0  0  0
  2  3  2  0  0  0  0
  2  6  1  0  0  0  0
  3  8  1  0  0  0  0
  4  9  1  0  0  0  0
  5 10  2  0  0  0  0
  6 15  2  0  0  0  0
  7  8  2  0  0  0  0
  7 15  1  0  0  0  0
  8 12  1  0  0  0  0
  9 16  2  0  0  0  0
  9 17  1  0  0  0  0
 10 16  1  0  0  0  0
 10 20  1  0  0  0  0
 11 17  1  0  0  0  0
 11 18  1  0  0  0  0
 11 19  2  0  0  0  0
 12 18  1  0  0  0  0
 13 14  1  0  0  0  0
 13 20  1  0  0  0  0
 14 21  1  0  0  0  0
 14 22  1  0  0  0  0
  1 23  1  0  0  0  0
  2 24  1  0  0  0  0
  3 25  1  0  0  0  0
  4 26  1  0  0  0  0
  5 27  1  0  0  0  0
  6 28  1  0  0  0  0
  7 29  1  0  0  0  0
 12 30  1  0  0  0  0
 12 31  1  0  0  0  0
 13 32  1  0  0  0  0
 13 33  1  0  0  0  0
 14 34  1  0  0  0  0
 17 35  1  0  0  0  0
 18 36  1  0  0  0  0
M  END
> <IC50 (uM)>

> <IC50 (uM) - std>

> <Average Inhibition @ 20 uM>

> <Average Inhibition @ 20 uM - std>
3.33

> <Average Inhibition @ 50 uM>
1.47

> <Average Inhibition @ 50 uM - std>
8.28

> <Trypsin IC50 (uM)>
1.36

> <Relative Solubility @ 20 uM>
1.0

> <Relative Solubility @ 100 uM>
1.0

> <Hybrid2>
-8.066553

> <docked_fragment>
x1093

> <Mpro-_dock>
2.057149

> <site>
active-noncovalent

$$$$
BAR-COM-4e090d3a-16
  -OEChem-05192003313D

 43 46  0     0  0  0  0  0  0999 V2000
   13.9725    0.7262   22.7705 C   0  0  0  0  0  0  0  0  0  0  0  0
   13.5009   -0.4041   22.1031 C   0  0  0  0  0  0  0  0  0  0  0  0
   13.1132    1.4654   23.5835 C   0  0  0  0  0  0  0  0  0  0  0  0
   12.1699   -0.7953   22.2486 C   0  0  0  0  0  0  0  0  0  0  0  0
    7.3109   -0.5408   21.2577 C   0  0  0  0  0  0  0  0  0  0  0  0
    6.3124   -2.6605   21.6655 C   0  0  0  0  0  0  0  0  0  0  0  0
    5.7047   -1.4912   19.7835 C   0  0  0  0  0  0  0  0  0  0  0  0
    7.1925   -1.6674   22.0640 C   0  0  0  0  0  0  0  0  0  0  0  0
   11.7822    1.0742   23.7290 C   0  0  0  0  0  0  0  0  0  0  0  0
   11.3106   -0.0562   23.0615 C   0  0  0  0  0  0  0  0  0  0  0  0
    6.5562   -0.4432   20.0940 C   0  0  0  0  0  0  0  0  0  0  0  0
   11.0062    3.1565   24.8102 C   0  0  0  0  0  0  0  0  0  0  0  0
    9.4740   -1.7734   23.1134 C   0  0  0  0  0  0  0  0  0  0  0  0
    7.4679   -2.6757   24.4199 C   0  0  0  0  0  0  0  0  0  0  0  0
    7.4617   -1.1903   24.5824 C   0  0  0  0  0  0  0  0  0  0  0  0
    7.9783   -1.7999   23.3048 C   0  0  0  0  0  0  0  0  0  0  0  0
   11.4812    5.4904   24.0268 C   0  0  0  0  0  0  0  0  0  0  0  0
   12.0157    4.0701   24.2472 C   0  0  0  0  0  0  0  0  0  0  0  0
    5.5627   -2.6013   20.5420 N   0  0  0  0  0  0  0  0  0  0  0  0
   10.0267    3.4589   25.6308 N   0  0  0  0  0  0  0  0  0  0  0  0
    9.3607    2.2772   25.8654 N   0  0  0  0  0  0  0  0  0  0  0  0
    9.9212    1.2738   25.2013 N   0  0  0  0  0  0  0  0  0  0  0  0
   10.9496    1.8259   24.5426 N   0  0  0  0  0  0  0  0  0  0  0  0
    9.9812   -0.4715   23.1891 N   0  0  0  0  0  0  0  0  0  0  0  0
   10.1013   -2.8102   22.9224 O   0  0  0  0  0  0  0  0  0  0  0  0
    6.6895    1.0658   18.9750 Br  0  0  0  0  0  0  0  0  0  0  0  0
   15.0088    1.0307   22.6570 H   0  0  0  0  0  0  0  0  0  0  0  0
   14.1701   -0.9796   21.4701 H   0  0  0  0  0  0  0  0  0  0  0  0
   13.4955    2.3441   24.0974 H   0  0  0  0  0  0  0  0  0  0  0  0
   11.8146   -1.6782   21.7230 H   0  0  0  0  0  0  0  0  0  0  0  0
    7.9927    0.2571   21.5415 H   0  0  0  0  0  0  0  0  0  0  0  0
    6.1775   -3.5635   22.2534 H   0  0  0  0  0  0  0  0  0  0  0  0
    5.0881   -1.4768   18.8896 H   0  0  0  0  0  0  0  0  0  0  0  0
    8.1708   -3.2442   25.0183 H   0  0  0  0  0  0  0  0  0  0  0  0
    6.5136   -3.1704   24.2795 H   0  0  0  0  0  0  0  0  0  0  0  0
    6.5029   -0.6853   24.5519 H   0  0  0  0  0  0  0  0  0  0  0  0
    8.1605   -0.7588   25.2901 H   0  0  0  0  0  0  0  0  0  0  0  0
   10.5942    5.4750   23.3844 H   0  0  0  0  0  0  0  0  0  0  0  0
   12.2323    6.1298   23.5524 H   0  0  0  0  0  0  0  0  0  0  0  0
   11.1979    5.9497   24.9799 H   0  0  0  0  0  0  0  0  0  0  0  0
   12.9093    4.1335   24.8998 H   0  0  0  0  0  0  0  0  0  0  0  0
   12.4054    3.6925   23.2808 H   0  0  0  0  0  0  0  0  0  0  0  0
    9.2909    0.2668   23.3598 H   0  0  0  0  0  0  0  0  0  0  0  0
  1  2  1  0  0  0  0
  1  3  2  0  0  0  0
  2  4  2  0  0  0  0
  3  9  1  0  0  0  0
  4 10  1  0  0  0  0
  5  8  2  0  0  0  0
  5 11  1  0  0  0  0
  6  8  1  0  0  0  0
  6 19  2  0  0  0  0
  7 11  2  0  0  0  0
  7 19  1  0  0  0  0
  8 16  1  0  0  0  0
  9 10  2  0  0  0  0
  9 23  1  0  0  0  0
 10 24  1  0  0  0  0
 11 26  1  0  0  0  0
 12 18  1  0  0  0  0
 12 20  2  0  0  0  0
 12 23  1  0  0  0  0
 13 16  1  0  0  0  0
 13 24  1  0  0  0  0
 13 25  2  0  0  0  0
 14 15  1  0  0  0  0
 14 16  1  0  0  0  0
 15 16  1  0  0  0  0
 17 18  1  0  0  0  0
 20 21  1  0  0  0  0
 21 22  2  0  0  0  0
 22 23  1  0  0  0  0
  1 27  1  0  0  0  0
  2 28  1  0  0  0  0
  3 29  1  0  0  0  0
  4 30  1  0  0  0  0
  5 31  1  0  0  0  0
  6 32  1  0  0  0  0
  7 33  1  0  0  0  0
 14 34  1  0  0  0  0
 14 35  1  0  0  0  0
 15 36  1  0  0  0  0
 15 37  1  0  0  0  0
 17 38  1  0  0  0  0
 17 39  1  0  0  0  0
 17 40  1  0  0  0  0
 18 41  1  0  0  0  0
 18 42  1  0  0  0  0
 24 43  1  0  0  0  0
M  END
> <IC50 (uM)>

> <IC50 (uM) - std>

> <Average Inhibition @ 20 uM>

> <Average Inhibition @ 20 uM - std>

> <Average Inhibition @ 50 uM>

> <Average Inhibition @ 50 uM - std>
7.51

> <Trypsin IC50 (uM)>
1.8

> <Relative Solubility @ 20 uM>

> <Relative Solubility @ 100 uM>

> <Hybrid2>
-8.060421

> <docked_fragment>
x0830

> <Mpro-_dock>
2.799105

> <site>
active-covalent

$$$$
LON-WEI-b8d98729-20
  -OEChem-05192003313D

 64 66  0     1  0  0  0  0  0999 V2000
   13.9280   -0.2002   22.7210 C   0  0  0  0  0  0  0  0  0  0  0  0
    6.5282    2.1690   23.2844 C   0  0  0  0  0  0  0  0  0  0  0  0
   13.1275    0.6123   23.5238 C   0  0  0  0  0  0  0  0  0  0  0  0
   13.3712   -1.2985   22.0656 C   0  0  0  0  0  0  0  0  0  0  0  0
    7.2651    1.0435   22.9330 C   0  0  0  0  0  0  0  0  0  0  0  0
    6.6706   -0.4006   20.1553 C   0  0  0  0  0  0  0  0  0  0  0  0
    5.2618    1.9761   23.8125 C   0  0  0  0  0  0  0  0  0  0  0  0
    5.4460   -0.3084   23.6536 C   0  0  0  0  0  0  0  0  0  0  0  0
    6.7209   -0.2226   23.1178 C   0  0  0  0  0  0  0  0  0  0  0  0
   11.7702    0.3266   23.6713 C   0  0  0  0  0  0  0  0  0  0  0  0
   12.0139   -1.5843   22.2131 C   0  0  0  0  0  0  0  0  0  0  0  0
   11.2134   -0.7717   23.0159 C   0  0  0  0  0  0  0  0  0  0  0  0
    6.1842   -0.2910   18.8755 C   0  0  0  0  0  0  0  0  0  0  0  0
    6.4018   -1.7332   20.5210 C   0  0  0  0  0  0  0  0  0  0  0  0
    7.7599   -5.1509   23.5488 C   0  0  0  0  0  0  0  0  0  0  0  0
    6.9015   -4.1310   23.4481 C   0  0  0  0  0  0  0  0  0  0  0  0
    6.4468   -3.6592   22.1073 C   0  0  0  0  0  0  0  0  0  0  0  0
    8.8673   -1.1214   22.1675 C   0  0  0  0  0  0  0  0  0  0  0  0
   10.9384    1.2155   24.5382 C   0  0  0  0  0  0  0  0  0  0  0  0
   11.2265   -3.9548   22.4297 C   0  0  0  0  0  0  0  0  0  0  0  0
    7.5907    1.3550   17.5879 C   0  0  0  0  0  0  0  0  0  0  0  0
    5.3523    2.0572   18.5004 C   0  0  0  0  0  0  0  0  0  0  0  0
    5.4907    0.5456   16.5313 C   0  0  0  0  0  0  0  0  0  0  0  0
   11.4471   -2.7676   21.4977 C   0  0  0  0  0  0  0  0  0  0  0  0
    7.4974   -1.4665   22.7461 C   0  0  2  0  0  0  0  0  0  0  0  0
    6.1503    0.8862   17.8869 C   0  0  0  0  0  0  0  0  0  0  0  0
    4.6997    0.7620   24.0069 N   0  0  0  0  0  0  0  0  0  0  0  0
    5.7918   -2.4209   19.5520 N   0  0  0  0  0  0  0  0  0  0  0  0
    5.6731   -1.5168   18.5647 N   0  0  0  0  0  0  0  0  0  0  0  0
    9.8365   -1.0620   23.1658 N   0  0  0  0  0  0  0  0  0  0  0  0
    6.7289   -2.2866   21.7433 N   0  0  0  0  0  0  0  0  0  0  0  0
    5.8283   -4.4384   21.3817 O   0  0  0  0  0  0  0  0  0  0  0  0
    9.0280   -0.9209   20.9665 O   0  0  0  0  0  0  0  0  0  0  0  0
   14.9849    0.0223   22.6058 H   0  0  0  0  0  0  0  0  0  0  0  0
    6.9323    3.1657   23.1494 H   0  0  0  0  0  0  0  0  0  0  0  0
   13.5709    1.4654   24.0306 H   0  0  0  0  0  0  0  0  0  0  0  0
   14.0037   -1.9249   21.4419 H   0  0  0  0  0  0  0  0  0  0  0  0
    8.2616    1.1624   22.5164 H   0  0  0  0  0  0  0  0  0  0  0  0
    7.1498    0.3746   20.7359 H   0  0  0  0  0  0  0  0  0  0  0  0
    4.6468    2.8218   24.1021 H   0  0  0  0  0  0  0  0  0  0  0  0
    4.9695   -1.2694   23.8208 H   0  0  0  0  0  0  0  0  0  0  0  0
    8.0693   -5.5052   24.5265 H   0  0  0  0  0  0  0  0  0  0  0  0
    8.1771   -5.6498   22.6810 H   0  0  0  0  0  0  0  0  0  0  0  0
    6.4954   -3.6706   24.3413 H   0  0  0  0  0  0  0  0  0  0  0  0
   10.5144    2.0338   23.9453 H   0  0  0  0  0  0  0  0  0  0  0  0
   10.1169    0.6577   25.0035 H   0  0  0  0  0  0  0  0  0  0  0  0
   11.5352    1.6449   25.3520 H   0  0  0  0  0  0  0  0  0  0  0  0
   12.1594   -4.2457   22.9245 H   0  0  0  0  0  0  0  0  0  0  0  0
   10.8549   -4.8196   21.8712 H   0  0  0  0  0  0  0  0  0  0  0  0
   10.4945   -3.7136   23.2080 H   0  0  0  0  0  0  0  0  0  0  0  0
    7.5949    2.1955   16.8841 H   0  0  0  0  0  0  0  0  0  0  0  0
    8.1132    1.6910   18.4903 H   0  0  0  0  0  0  0  0  0  0  0  0
    8.1848    0.5465   17.1457 H   0  0  0  0  0  0  0  0  0  0  0  0
    5.3016    2.9212   17.8289 H   0  0  0  0  0  0  0  0  0  0  0  0
    4.3197    1.7604   18.7188 H   0  0  0  0  0  0  0  0  0  0  0  0
    5.8075    2.3959   19.4386 H   0  0  0  0  0  0  0  0  0  0  0  0
    5.4906    1.4147   15.8625 H   0  0  0  0  0  0  0  0  0  0  0  0
    6.0255   -0.2589   16.0130 H   0  0  0  0  0  0  0  0  0  0  0  0
    4.4466    0.2361   16.6570 H   0  0  0  0  0  0  0  0  0  0  0  0
   10.4926   -2.5017   21.0181 H   0  0  0  0  0  0  0  0  0  0  0  0
   12.1138   -3.0714   20.6760 H   0  0  0  0  0  0  0  0  0  0  0  0
    7.6435   -2.0982   23.6310 H   0  0  0  0  0  0  0  0  0  0  0  0
    5.2307   -1.8067   17.7013 H   0  0  0  0  0  0  0  0  0  0  0  0
    9.5172   -1.2492   24.1139 H   0  0  0  0  0  0  0  0  0  0  0  0
  1  3  1  0  0  0  0
  1  4  2  0  0  0  0
  2  5  2  0  0  0  0
  2  7  1  0  0  0  0
  3 10  2  0  0  0  0
  4 11  1  0  0  0  0
  5  9  1  0  0  0  0
  6 13  2  0  0  0  0
  6 14  1  0  0  0  0
  7 27  2  0  0  0  0
  8  9  2  0  0  0  0
  8 27  1  0  0  0  0
  9 25  1  0  0  0  0
 10 12  1  0  0  0  0
 10 19  1  0  0  0  0
 11 12  2  0  0  0  0
 11 24  1  0  0  0  0
 12 30  1  0  0  0  0
 13 26  1  0  0  0  0
 13 29  1  0  0  0  0
 14 28  2  0  0  0  0
 14 31  1  0  0  0  0
 15 16  2  0  0  0  0
 16 17  1  0  0  0  0
 17 31  1  0  0  0  0
 17 32  2  0  0  0  0
 18 25  1  0  0  0  0
 18 30  1  0  0  0  0
 18 33  2  0  0  0  0
 20 24  1  0  0  0  0
 21 26  1  0  0  0  0
 22 26  1  0  0  0  0
 23 26  1  0  0  0  0
 25 31  1  0  0  0  0
 28 29  1  0  0  0  0
  1 34  1  0  0  0  0
  2 35  1  0  0  0  0
  3 36  1  0  0  0  0
  4 37  1  0  0  0  0
  5 38  1  0  0  0  0
  6 39  1  0  0  0  0
  7 40  1  0  0  0  0
  8 41  1  0  0  0  0
 15 42  1  0  0  0  0
 15 43  1  0  0  0  0
 16 44  1  0  0  0  0
 19 45  1  0  0  0  0
 19 46  1  0  0  0  0
 19 47  1  0  0  0  0
 20 48  1  0  0  0  0
 20 49  1  0  0  0  0
 20 50  1  0  0  0  0
 21 51  1  0  0  0  0
 21 52  1  0  0  0  0
 21 53  1  0  0  0  0
 22 54  1  0  0  0  0
 22 55  1  0  0  0  0
 22 56  1  0  0  0  0
 23 57  1  0  0  0  0
 23 58  1  0  0  0  0
 23 59  1  0  0  0  0
 24 60  1  0  0  0  0
 24 61  1  0  0  0  0
 25 62  1  0  0  0  0
 29 63  1  0  0  0  0
 30 64  1  0  0  0  0
M  END
> <IC50 (uM)>

> <IC50 (uM) - std>

> <Average Inhibition @ 20 uM>

> <Average Inhibition @ 20 uM - std>
4.05

> <Average Inhibition @ 50 uM>
4.47

> <Average Inhibition @ 50 uM - std>
4.71

> <Trypsin IC50 (uM)>
2.18

> <Relative Solubility @ 20 uM>
0.92

> <Relative Solubility @ 100 uM>
0.78

> <Hybrid2>
-8.018552

> <docked_fragment>
x0831

> <Mpro-_dock>
3.409809

> <site>
active-covalent

$$$$
JOH-UNI-c7afdb96-7
  -OEChem-05192003313D

 35 36  0     0  0  0  0  0  0999 V2000
    6.8793   -4.6828   21.3171 C   0  0  0  0  0  0  0  0  0  0  0  0
   10.4388   -0.2576   24.7380 C   0  0  0  0  0  0  0  0  0  0  0  0
   11.7217   -0.0540   24.2298 C   0  0  0  0  0  0  0  0  0  0  0  0
    9.4969   -0.9651   23.9911 C   0  0  0  0  0  0  0  0  0  0  0  0
   11.1208   -1.2653   22.2276 C   0  0  0  0  0  0  0  0  0  0  0  0
   12.0627   -0.5578   22.9746 C   0  0  0  0  0  0  0  0  0  0  0  0
    9.8379   -1.4690   22.7359 C   0  0  0  0  0  0  0  0  0  0  0  0
    6.8463   -3.2563   21.2630 C   0  0  0  0  0  0  0  0  0  0  0  0
    6.1776   -2.5925   20.2976 C   0  0  0  0  0  0  0  0  0  0  0  0
    7.5642   -2.4635   22.3244 C   0  0  0  0  0  0  0  0  0  0  0  0
    7.0117    0.6003   19.3181 C   0  0  0  0  0  0  0  0  0  0  0  0
    7.4043   -0.3519   20.4669 C   0  0  0  0  0  0  0  0  0  0  0  0
    6.1958   -0.5693   18.7293 C   0  0  0  0  0  0  0  0  0  0  0  0
    6.0949   -1.1271   20.1719 C   0  0  0  0  0  0  0  0  0  0  0  0
   13.4344   -0.3398   22.4318 C   0  0  0  0  0  0  0  0  0  0  0  0
    6.9118   -5.8417   21.3692 N   0  0  0  0  0  0  0  0  0  0  0  0
    8.8813   -2.1881   21.9779 N   0  0  0  0  0  0  0  0  0  0  0  0
    6.9831   -2.1364   23.3543 O   0  0  0  0  0  0  0  0  0  0  0  0
    5.4688   -3.2772   19.3222 O   0  0  0  0  0  0  0  0  0  0  0  0
   10.1734    0.1344   25.7156 H   0  0  0  0  0  0  0  0  0  0  0  0
   12.4483    0.4990   24.8187 H   0  0  0  0  0  0  0  0  0  0  0  0
    8.5001   -1.1177   24.3970 H   0  0  0  0  0  0  0  0  0  0  0  0
   11.3889   -1.6566   21.2487 H   0  0  0  0  0  0  0  0  0  0  0  0
    6.3980    1.4499   19.6387 H   0  0  0  0  0  0  0  0  0  0  0  0
    7.8350    0.9662   18.6998 H   0  0  0  0  0  0  0  0  0  0  0  0
    8.3355   -0.9029   20.2803 H   0  0  0  0  0  0  0  0  0  0  0  0
    7.4605    0.1061   21.4595 H   0  0  0  0  0  0  0  0  0  0  0  0
    5.2417   -0.2930   18.2693 H   0  0  0  0  0  0  0  0  0  0  0  0
    6.7632   -1.1857   18.0197 H   0  0  0  0  0  0  0  0  0  0  0  0
    5.2324   -0.7399   20.7232 H   0  0  0  0  0  0  0  0  0  0  0  0
   14.0981   -1.1609   22.7295 H   0  0  0  0  0  0  0  0  0  0  0  0
   13.4246   -0.2806   21.3356 H   0  0  0  0  0  0  0  0  0  0  0  0
   13.8623    0.6031   22.7967 H   0  0  0  0  0  0  0  0  0  0  0  0
    9.2158   -2.5184   21.0754 H   0  0  0  0  0  0  0  0  0  0  0  0
    5.5511   -4.2224   19.4709 H   0  0  0  0  0  0  0  0  0  0  0  0
  1  8  1  0  0  0  0
  1 16  3  0  0  0  0
  2  3  2  0  0  0  0
  2  4  1  0  0  0  0
  3  6  1  0  0  0  0
  4  7  2  0  0  0  0
  5  6  2  0  0  0  0
  5  7  1  0  0  0  0
  6 15  1  0  0  0  0
  7 17  1  0  0  0  0
  8  9  2  0  0  0  0
  8 10  1  0  0  0  0
  9 14  1  0  0  0  0
  9 19  1  0  0  0  0
 10 17  1  0  0  0  0
 10 18  2  0  0  0  0
 11 12  1  0  0  0  0
 11 13  1  0  0  0  0
 12 14  1  0  0  0  0
 13 14  1  0  0  0  0
  2 20  1  0  0  0  0
  3 21  1  0  0  0  0
  4 22  1  0  0  0  0
  5 23  1  0  0  0  0
 11 24  1  0  0  0  0
 11 25  1  0  0  0  0
 12 26  1  0  0  0  0
 12 27  1  0  0  0  0
 13 28  1  0  0  0  0
 13 29  1  0  0  0  0
 14 30  1  0  0  0  0
 15 31  1  0  0  0  0
 15 32  1  0  0  0  0
 15 33  1  0  0  0  0
 17 34  1  0  0  0  0
 19 35  1  0  0  0  0
M  END
> <IC50 (uM)>

> <IC50 (uM) - std>

> <Average Inhibition @ 20 uM>

> <Average Inhibition @ 20 uM - std>

> <Average Inhibition @ 50 uM>

> <Average Inhibition @ 50 uM - std>
16.7

> <Trypsin IC50 (uM)>
1.8

> <Relative Solubility @ 20 uM>

> <Relative Solubility @ 100 uM>

> <Hybrid2>
-7.984158

> <docked_fragment>
x0831

> <Mpro-_dock>
-1.091747

> <site>
active-covalent

$$$$
ANN-UNI-26382800-4
  -OEChem-05192003313D

 28 29  0     0  0  0  0  0  0999 V2000
   13.6461    1.4022   25.4196 C   0  0  0  0  0  0  0  0  0  0  0  0
   13.5951   -2.3149   25.6112 C   0  0  0  0  0  0  0  0  0  0  0  0
    7.1603   -6.2660   22.0606 C   0  0  0  0  0  0  0  0  0  0  0  0
   14.0035   -0.9909   25.7719 C   0  0  0  0  0  0  0  0  0  0  0  0
   12.4107   -2.6020   24.9327 C   0  0  0  0  0  0  0  0  0  0  0  0
    8.0476   -5.3018   22.5256 C   0  0  0  0  0  0  0  0  0  0  0  0
   12.0429   -0.2411   24.5757 C   0  0  0  0  0  0  0  0  0  0  0  0
    6.0368   -5.8358   21.3733 C   0  0  0  0  0  0  0  0  0  0  0  0
    6.6364   -3.6291   21.5946 C   0  0  0  0  0  0  0  0  0  0  0  0
   13.2274    0.0460   25.2541 C   0  0  0  0  0  0  0  0  0  0  0  0
   11.6346   -1.5651   24.4150 C   0  0  0  0  0  0  0  0  0  0  0  0
    7.7880   -3.9558   22.2925 C   0  0  0  0  0  0  0  0  0  0  0  0
    9.8695   -3.1164   23.4678 C   0  0  0  0  0  0  0  0  0  0  0  0
   13.9863    2.5035   25.5540 N   0  0  0  0  0  0  0  0  0  0  0  0
    5.7509   -4.5375   21.1275 N   0  0  0  0  0  0  0  0  0  0  0  0
   10.4507   -1.8527   23.7353 N   0  0  0  0  0  0  0  0  0  0  0  0
    8.6720   -2.9519   22.7535 N   0  0  0  0  0  0  0  0  0  0  0  0
   10.3479   -4.1922   23.8127 O   0  0  0  0  0  0  0  0  0  0  0  0
   14.1999   -3.1225   26.0136 H   0  0  0  0  0  0  0  0  0  0  0  0
    7.3426   -7.3209   22.2308 H   0  0  0  0  0  0  0  0  0  0  0  0
   14.9288   -0.7834   26.3038 H   0  0  0  0  0  0  0  0  0  0  0  0
   12.1023   -3.6377   24.8134 H   0  0  0  0  0  0  0  0  0  0  0  0
    8.9376   -5.6099   23.0680 H   0  0  0  0  0  0  0  0  0  0  0  0
   11.4346    0.5655   24.1709 H   0  0  0  0  0  0  0  0  0  0  0  0
    5.3135   -6.5485   20.9909 H   0  0  0  0  0  0  0  0  0  0  0  0
    6.3796   -2.5956   21.3815 H   0  0  0  0  0  0  0  0  0  0  0  0
    9.9322   -1.0413   23.3824 H   0  0  0  0  0  0  0  0  0  0  0  0
    8.4011   -1.9959   22.5370 H   0  0  0  0  0  0  0  0  0  0  0  0
  1 10  1  0  0  0  0
  1 14  3  0  0  0  0
  2  4  2  0  0  0  0
  2  5  1  0  0  0  0
  3  6  2  0  0  0  0
  3  8  1  0  0  0  0
  4 10  1  0  0  0  0
  5 11  2  0  0  0  0
  6 12  1  0  0  0  0
  7 10  2  0  0  0  0
  7 11  1  0  0  0  0
  8 15  2  0  0  0  0
  9 12  2  0  0  0  0
  9 15  1  0  0  0  0
 11 16  1  0  0  0  0
 12 17  1  0  0  0  0
 13 16  1  0  0  0  0
 13 17  1  0  0  0  0
 13 18  2  0  0  0  0
  2 19  1  0  0  0  0
  3 20  1  0  0  0  0
  4 21  1  0  0  0  0
  5 22  1  0  0  0  0
  6 23  1  0  0  0  0
  7 24  1  0  0  0  0
  8 25  1  0  0  0  0
  9 26  1  0  0  0  0
 16 27  1  0  0  0  0
 17 28  1  0  0  0  0
M  END
> <IC50 (uM)>

> <IC50 (uM) - std>

> <Average Inhibition @ 20 uM>

> <Average Inhibition @ 20 uM - std>
6.21

> <Average Inhibition @ 50 uM>
4.27

> <Average Inhibition @ 50 uM - std>
10.3

> <Trypsin IC50 (uM)>
1.53

> <Relative Solubility @ 20 uM>
1.0

> <Relative Solubility @ 100 uM>
1.0

> <Hybrid2>
-7.983136

> <docked_fragment>
x0749

> <Mpro-_dock>
2.194333

> <site>
active-covalent

$$$$
JOR-UNI-61e7b1d5-2
  -OEChem-05192003313D

 28 29  0     0  0  0  0  0  0999 V2000
   13.6461    1.4022   25.4196 C   0  0  0  0  0  0  0  0  0  0  0  0
   13.5951   -2.3149   25.6112 C   0  0  0  0  0  0  0  0  0  0  0  0
    7.1603   -6.2660   22.0606 C   0  0  0  0  0  0  0  0  0  0  0  0
   14.0035   -0.9909   25.7719 C   0  0  0  0  0  0  0  0  0  0  0  0
   12.4107   -2.6020   24.9327 C   0  0  0  0  0  0  0  0  0  0  0  0
    8.0476   -5.3018   22.5256 C   0  0  0  0  0  0  0  0  0  0  0  0
   12.0429   -0.2411   24.5757 C   0  0  0  0  0  0  0  0  0  0  0  0
    6.0368   -5.8358   21.3733 C   0  0  0  0  0  0  0  0  0  0  0  0
    6.6364   -3.6291   21.5946 C   0  0  0  0  0  0  0  0  0  0  0  0
   13.2274    0.0460   25.2541 C   0  0  0  0  0  0  0  0  0  0  0  0
   11.6346   -1.5651   24.4150 C   0  0  0  0  0  0  0  0  0  0  0  0
    7.7880   -3.9558   22.2925 C   0  0  0  0  0  0  0  0  0  0  0  0
    9.8695   -3.1164   23.4678 C   0  0  0  0  0  0  0  0  0  0  0  0
   13.9863    2.5035   25.5540 N   0  0  0  0  0  0  0  0  0  0  0  0
    5.7509   -4.5375   21.1275 N   0  0  0  0  0  0  0  0  0  0  0  0
   10.4507   -1.8527   23.7353 N   0  0  0  0  0  0  0  0  0  0  0  0
    8.6720   -2.9519   22.7535 N   0  0  0  0  0  0  0  0  0  0  0  0
   10.3479   -4.1922   23.8127 O   0  0  0  0  0  0  0  0  0  0  0  0
   14.1999   -3.1225   26.0136 H   0  0  0  0  0  0  0  0  0  0  0  0
    7.3426   -7.3209   22.2308 H   0  0  0  0  0  0  0  0  0  0  0  0
   14.9288   -0.7834   26.3038 H   0  0  0  0  0  0  0  0  0  0  0  0
   12.1023   -3.6377   24.8134 H   0  0  0  0  0  0  0  0  0  0  0  0
    8.9376   -5.6099   23.0680 H   0  0  0  0  0  0  0  0  0  0  0  0
   11.4346    0.5655   24.1709 H   0  0  0  0  0  0  0  0  0  0  0  0
    5.3135   -6.5485   20.9909 H   0  0  0  0  0  0  0  0  0  0  0  0
    6.3796   -2.5956   21.3815 H   0  0  0  0  0  0  0  0  0  0  0  0
    9.9322   -1.0413   23.3824 H   0  0  0  0  0  0  0  0  0  0  0  0
    8.4011   -1.9959   22.5370 H   0  0  0  0  0  0  0  0  0  0  0  0
  1 10  1  0  0  0  0
  1 14  3  0  0  0  0
  2  4  2  0  0  0  0
  2  5  1  0  0  0  0
  3  6  2  0  0  0  0
  3  8  1  0  0  0  0
  4 10  1  0  0  0  0
  5 11  2  0  0  0  0
  6 12  1  0  0  0  0
  7 10  2  0  0  0  0
  7 11  1  0  0  0  0
  8 15  2  0  0  0  0
  9 12  2  0  0  0  0
  9 15  1  0  0  0  0
 11 16  1  0  0  0  0
 12 17  1  0  0  0  0
 13 16  1  0  0  0  0
 13 17  1  0  0  0  0
 13 18  2  0  0  0  0
  2 19  1  0  0  0  0
  3 20  1  0  0  0  0
  4 21  1  0  0  0  0
  5 22  1  0  0  0  0
  6 23  1  0  0  0  0
  7 24  1  0  0  0  0
  8 25  1  0  0  0  0
  9 26  1  0  0  0  0
 16 27  1  0  0  0  0
 17 28  1  0  0  0  0
M  END
> <IC50 (uM)>

> <IC50 (uM) - std>

> <Average Inhibition @ 20 uM>

> <Average Inhibition @ 20 uM - std>
6.21

> <Average Inhibition @ 50 uM>
4.27

> <Average Inhibition @ 50 uM - std>
10.3

> <Trypsin IC50 (uM)>
1.53

> <Relative Solubility @ 20 uM>
1.0

> <Relative Solubility @ 100 uM>
1.0

> <Hybrid2>
-7.983136

> <docked_fragment>
x0749

> <Mpro-_dock>
2.194333

> <site>
active-covalent

$$$$
WAR-XCH-eb7b662f-1
  -OEChem-05192003313D

 28 29  0     0  0  0  0  0  0999 V2000
   13.6461    1.4022   25.4196 C   0  0  0  0  0  0  0  0  0  0  0  0
   13.5951   -2.3149   25.6112 C   0  0  0  0  0  0  0  0  0  0  0  0
    7.1603   -6.2660   22.0606 C   0  0  0  0  0  0  0  0  0  0  0  0
   14.0035   -0.9909   25.7719 C   0  0  0  0  0  0  0  0  0  0  0  0
   12.4107   -2.6020   24.9327 C   0  0  0  0  0  0  0  0  0  0  0  0
    8.0476   -5.3018   22.5256 C   0  0  0  0  0  0  0  0  0  0  0  0
   12.0429   -0.2411   24.5757 C   0  0  0  0  0  0  0  0  0  0  0  0
    6.0368   -5.8358   21.3733 C   0  0  0  0  0  0  0  0  0  0  0  0
    6.6364   -3.6291   21.5946 C   0  0  0  0  0  0  0  0  0  0  0  0
   13.2274    0.0460   25.2541 C   0  0  0  0  0  0  0  0  0  0  0  0
   11.6346   -1.5651   24.4150 C   0  0  0  0  0  0  0  0  0  0  0  0
    7.7880   -3.9558   22.2925 C   0  0  0  0  0  0  0  0  0  0  0  0
    9.8695   -3.1164   23.4678 C   0  0  0  0  0  0  0  0  0  0  0  0
   13.9863    2.5035   25.5540 N   0  0  0  0  0  0  0  0  0  0  0  0
    5.7509   -4.5375   21.1275 N   0  0  0  0  0  0  0  0  0  0  0  0
   10.4507   -1.8527   23.7353 N   0  0  0  0  0  0  0  0  0  0  0  0
    8.6720   -2.9519   22.7535 N   0  0  0  0  0  0  0  0  0  0  0  0
   10.3479   -4.1922   23.8127 O   0  0  0  0  0  0  0  0  0  0  0  0
   14.1999   -3.1225   26.0136 H   0  0  0  0  0  0  0  0  0  0  0  0
    7.3426   -7.3209   22.2308 H   0  0  0  0  0  0  0  0  0  0  0  0
   14.9288   -0.7834   26.3038 H   0  0  0  0  0  0  0  0  0  0  0  0
   12.1023   -3.6377   24.8134 H   0  0  0  0  0  0  0  0  0  0  0  0
    8.9376   -5.6099   23.0680 H   0  0  0  0  0  0  0  0  0  0  0  0
   11.4346    0.5655   24.1709 H   0  0  0  0  0  0  0  0  0  0  0  0
    5.3135   -6.5485   20.9909 H   0  0  0  0  0  0  0  0  0  0  0  0
    6.3796   -2.5956   21.3815 H   0  0  0  0  0  0  0  0  0  0  0  0
    9.9322   -1.0413   23.3824 H   0  0  0  0  0  0  0  0  0  0  0  0
    8.4011   -1.9959   22.5370 H   0  0  0  0  0  0  0  0  0  0  0  0
  1 10  1  0  0  0  0
  1 14  3  0  0  0  0
  2  4  2  0  0  0  0
  2  5  1  0  0  0  0
  3  6  2  0  0  0  0
  3  8  1  0  0  0  0
  4 10  1  0  0  0  0
  5 11  2  0  0  0  0
  6 12  1  0  0  0  0
  7 10  2  0  0  0  0
  7 11  1  0  0  0  0
  8 15  2  0  0  0  0
  9 12  2  0  0  0  0
  9 15  1  0  0  0  0
 11 16  1  0  0  0  0
 12 17  1  0  0  0  0
 13 16  1  0  0  0  0
 13 17  1  0  0  0  0
 13 18  2  0  0  0  0
  2 19  1  0  0  0  0
  3 20  1  0  0  0  0
  4 21  1  0  0  0  0
  5 22  1  0  0  0  0
  6 23  1  0  0  0  0
  7 24  1  0  0  0  0
  8 25  1  0  0  0  0
  9 26  1  0  0  0  0
 16 27  1  0  0  0  0
 17 28  1  0  0  0  0
M  END
> <IC50 (uM)>

> <IC50 (uM) - std>

> <Average Inhibition @ 20 uM>

> <Average Inhibition @ 20 uM - std>
6.21

> <Average Inhibition @ 50 uM>
4.27

> <Average Inhibition @ 50 uM - std>
10.3

> <Trypsin IC50 (uM)>
1.53

> <Relative Solubility @ 20 uM>
1.0

> <Relative Solubility @ 100 uM>
1.0

> <Hybrid2>
-7.983136

> <docked_fragment>
x0749

> <Mpro-_dock>
2.194333

> <site>
active-covalent

$$$$
DAR-DIA-23aa0b97-5
  -OEChem-05192003313D

 28 29  0     0  0  0  0  0  0999 V2000
   13.6461    1.4022   25.4196 C   0  0  0  0  0  0  0  0  0  0  0  0
   13.5951   -2.3149   25.6112 C   0  0  0  0  0  0  0  0  0  0  0  0
    7.1603   -6.2660   22.0606 C   0  0  0  0  0  0  0  0  0  0  0  0
   14.0035   -0.9909   25.7719 C   0  0  0  0  0  0  0  0  0  0  0  0
   12.4107   -2.6020   24.9327 C   0  0  0  0  0  0  0  0  0  0  0  0
    8.0476   -5.3018   22.5256 C   0  0  0  0  0  0  0  0  0  0  0  0
   12.0429   -0.2411   24.5757 C   0  0  0  0  0  0  0  0  0  0  0  0
    6.0368   -5.8358   21.3733 C   0  0  0  0  0  0  0  0  0  0  0  0
    6.6364   -3.6291   21.5946 C   0  0  0  0  0  0  0  0  0  0  0  0
   13.2274    0.0460   25.2541 C   0  0  0  0  0  0  0  0  0  0  0  0
   11.6346   -1.5651   24.4150 C   0  0  0  0  0  0  0  0  0  0  0  0
    7.7880   -3.9558   22.2925 C   0  0  0  0  0  0  0  0  0  0  0  0
    9.8695   -3.1164   23.4678 C   0  0  0  0  0  0  0  0  0  0  0  0
   13.9863    2.5035   25.5540 N   0  0  0  0  0  0  0  0  0  0  0  0
    5.7509   -4.5375   21.1275 N   0  0  0  0  0  0  0  0  0  0  0  0
   10.4507   -1.8527   23.7353 N   0  0  0  0  0  0  0  0  0  0  0  0
    8.6720   -2.9519   22.7535 N   0  0  0  0  0  0  0  0  0  0  0  0
   10.3479   -4.1922   23.8127 O   0  0  0  0  0  0  0  0  0  0  0  0
   14.1999   -3.1225   26.0136 H   0  0  0  0  0  0  0  0  0  0  0  0
    7.3426   -7.3209   22.2308 H   0  0  0  0  0  0  0  0  0  0  0  0
   14.9288   -0.7834   26.3038 H   0  0  0  0  0  0  0  0  0  0  0  0
   12.1023   -3.6377   24.8134 H   0  0  0  0  0  0  0  0  0  0  0  0
    8.9376   -5.6099   23.0680 H   0  0  0  0  0  0  0  0  0  0  0  0
   11.4346    0.5655   24.1709 H   0  0  0  0  0  0  0  0  0  0  0  0
    5.3135   -6.5485   20.9909 H   0  0  0  0  0  0  0  0  0  0  0  0
    6.3796   -2.5956   21.3815 H   0  0  0  0  0  0  0  0  0  0  0  0
    9.9322   -1.0413   23.3824 H   0  0  0  0  0  0  0  0  0  0  0  0
    8.4011   -1.9959   22.5370 H   0  0  0  0  0  0  0  0  0  0  0  0
  1 10  1  0  0  0  0
  1 14  3  0  0  0  0
  2  4  2  0  0  0  0
  2  5  1  0  0  0  0
  3  6  2  0  0  0  0
  3  8  1  0  0  0  0
  4 10  1  0  0  0  0
  5 11  2  0  0  0  0
  6 12  1  0  0  0  0
  7 10  2  0  0  0  0
  7 11  1  0  0  0  0
  8 15  2  0  0  0  0
  9 12  2  0  0  0  0
  9 15  1  0  0  0  0
 11 16  1  0  0  0  0
 12 17  1  0  0  0  0
 13 16  1  0  0  0  0
 13 17  1  0  0  0  0
 13 18  2  0  0  0  0
  2 19  1  0  0  0  0
  3 20  1  0  0  0  0
  4 21  1  0  0  0  0
  5 22  1  0  0  0  0
  6 23  1  0  0  0  0
  7 24  1  0  0  0  0
  8 25  1  0  0  0  0
  9 26  1  0  0  0  0
 16 27  1  0  0  0  0
 17 28  1  0  0  0  0
M  END
> <IC50 (uM)>

> <IC50 (uM) - std>

> <Average Inhibition @ 20 uM>

> <Average Inhibition @ 20 uM - std>
6.21

> <Average Inhibition @ 50 uM>
4.27

> <Average Inhibition @ 50 uM - std>
10.3

> <Trypsin IC50 (uM)>
1.53

> <Relative Solubility @ 20 uM>
1.0

> <Relative Solubility @ 100 uM>
1.0

> <Hybrid2>
-7.983136

> <docked_fragment>
x0749

> <Mpro-_dock>
2.194333

> <site>
active-covalent

$$$$
BAR-COM-4e090d3a-19
  -OEChem-05192003313D

 49 51  0     1  0  0  0  0  0999 V2000
   14.9627   -2.1058   23.6010 C   0  0  0  0  0  0  0  0  0  0  0  0
    5.6636   -4.7254   27.3535 C   0  0  0  0  0  0  0  0  0  0  0  0
   13.9130   -1.8577   24.4854 C   0  0  0  0  0  0  0  0  0  0  0  0
   14.9170   -1.5952   22.3036 C   0  0  0  0  0  0  0  0  0  0  0  0
    6.9487   -5.2193   27.1295 C   0  0  0  0  0  0  0  0  0  0  0  0
    5.0065   -4.0109   26.3517 C   0  0  0  0  0  0  0  0  0  0  0  0
   12.8176   -1.0993   24.0726 C   0  0  0  0  0  0  0  0  0  0  0  0
   13.8216   -0.8367   21.8908 C   0  0  0  0  0  0  0  0  0  0  0  0
    7.5768   -4.9987   25.9038 C   0  0  0  0  0  0  0  0  0  0  0  0
    5.6346   -3.7904   25.1260 C   0  0  0  0  0  0  0  0  0  0  0  0
    6.2850   -0.0637   19.3507 C   0  0  0  0  0  0  0  0  0  0  0  0
    5.2481   -0.6635   18.6153 C   0  0  0  0  0  0  0  0  0  0  0  0
   12.7719   -0.5887   22.7752 C   0  0  0  0  0  0  0  0  0  0  0  0
    6.9198   -4.2842   24.9020 C   0  0  0  0  0  0  0  0  0  0  0  0
    7.3203    0.0058   18.4565 C   0  0  0  0  0  0  0  0  0  0  0  0
    9.5387    0.2463   20.8773 C   0  0  0  0  0  0  0  0  0  0  0  0
    9.0047   -2.4672   22.5140 C   0  0  0  0  0  0  0  0  0  0  0  0
   11.5869    0.2318   22.3278 C   0  0  0  0  0  0  0  0  0  0  0  0
    7.5949   -4.0464   23.5832 C   0  0  0  0  0  0  0  0  0  0  0  0
    8.7282    0.5213   18.5352 C   0  0  0  0  0  0  0  0  0  0  0  0
   10.4728   -0.6225   21.7121 C   0  0  1  0  0  0  0  0  0  0  0  0
    5.6124   -0.9445   17.3611 N   0  0  0  0  0  0  0  0  0  0  0  0
    9.4978   -0.1605   19.5509 N   0  0  0  0  0  0  0  0  0  0  0  0
    9.6674   -1.2725   22.7153 N   0  0  0  0  0  0  0  0  0  0  0  0
    8.9374    1.2151   21.3364 O   0  0  0  0  0  0  0  0  0  0  0  0
    9.0119   -3.1221   21.4769 O   0  0  0  0  0  0  0  0  0  0  0  0
    6.9312   -0.5167   17.2655 O   0  0  0  0  0  0  0  0  0  0  0  0
    8.3313   -2.8199   23.6496 O   0  0  0  0  0  0  0  0  0  0  0  0
   15.8161   -2.6952   23.9230 H   0  0  0  0  0  0  0  0  0  0  0  0
    5.1742   -4.8984   28.3075 H   0  0  0  0  0  0  0  0  0  0  0  0
   13.9489   -2.2543   25.4959 H   0  0  0  0  0  0  0  0  0  0  0  0
   15.7346   -1.7872   21.6151 H   0  0  0  0  0  0  0  0  0  0  0  0
    7.4601   -5.7765   27.9091 H   0  0  0  0  0  0  0  0  0  0  0  0
    4.0056   -3.6272   26.5254 H   0  0  0  0  0  0  0  0  0  0  0  0
   12.0042   -0.9113   24.7684 H   0  0  0  0  0  0  0  0  0  0  0  0
   13.7946   -0.4431   20.8781 H   0  0  0  0  0  0  0  0  0  0  0  0
    8.5783   -5.3871   25.7382 H   0  0  0  0  0  0  0  0  0  0  0  0
    5.1151   -3.2326   24.3513 H   0  0  0  0  0  0  0  0  0  0  0  0
    6.2790    0.2682   20.3781 H   0  0  0  0  0  0  0  0  0  0  0  0
    4.2462   -0.9078   18.9363 H   0  0  0  0  0  0  0  0  0  0  0  0
   11.1974    0.8112   23.1759 H   0  0  0  0  0  0  0  0  0  0  0  0
   11.9398    0.9801   21.6059 H   0  0  0  0  0  0  0  0  0  0  0  0
    8.2833   -4.8637   23.3425 H   0  0  0  0  0  0  0  0  0  0  0  0
    6.8571   -3.9792   22.7764 H   0  0  0  0  0  0  0  0  0  0  0  0
    9.2421    0.3885   17.5769 H   0  0  0  0  0  0  0  0  0  0  0  0
    8.7425    1.5916   18.7664 H   0  0  0  0  0  0  0  0  0  0  0  0
   10.8849   -1.4173   21.0793 H   0  0  0  0  0  0  0  0  0  0  0  0
   10.0359   -0.9785   19.2805 H   0  0  0  0  0  0  0  0  0  0  0  0
    9.5822   -0.8251   23.6246 H   0  0  0  0  0  0  0  0  0  0  0  0
  1  3  1  0  0  0  0
  1  4  2  0  0  0  0
  2  5  1  0  0  0  0
  2  6  2  0  0  0  0
  3  7  2  0  0  0  0
  4  8  1  0  0  0  0
  5  9  2  0  0  0  0
  6 10  1  0  0  0  0
  7 13  1  0  0  0  0
  8 13  2  0  0  0  0
  9 14  1  0  0  0  0
 10 14  2  0  0  0  0
 11 12  1  0  0  0  0
 11 15  2  0  0  0  0
 12 22  2  0  0  0  0
 13 18  1  0  0  0  0
 14 19  1  0  0  0  0
 15 20  1  0  0  0  0
 15 27  1  0  0  0  0
 16 21  1  0  0  0  0
 16 23  1  0  0  0  0
 16 25  2  0  0  0  0
 17 24  1  0  0  0  0
 17 26  2  0  0  0  0
 17 28  1  0  0  0  0
 18 21  1  0  0  0  0
 19 28  1  0  0  0  0
 20 23  1  0  0  0  0
 21 24  1  0  0  0  0
 22 27  1  0  0  0  0
  1 29  1  0  0  0  0
  2 30  1  0  0  0  0
  3 31  1  0  0  0  0
  4 32  1  0  0  0  0
  5 33  1  0  0  0  0
  6 34  1  0  0  0  0
  7 35  1  0  0  0  0
  8 36  1  0  0  0  0
  9 37  1  0  0  0  0
 10 38  1  0  0  0  0
 11 39  1  0  0  0  0
 12 40  1  0  0  0  0
 18 41  1  0  0  0  0
 18 42  1  0  0  0  0
 19 43  1  0  0  0  0
 19 44  1  0  0  0  0
 20 45  1  0  0  0  0
 20 46  1  0  0  0  0
 21 47  1  0  0  0  0
 23 48  1  0  0  0  0
 24 49  1  0  0  0  0
M  END
> <IC50 (uM)>

> <IC50 (uM) - std>

> <Average Inhibition @ 20 uM>

> <Average Inhibition @ 20 uM - std>

> <Average Inhibition @ 50 uM>

> <Average Inhibition @ 50 uM - std>
7.1

> <Trypsin IC50 (uM)>
6.22

> <Relative Solubility @ 20 uM>

> <Relative Solubility @ 100 uM>

> <Hybrid2>
-7.968852

> <docked_fragment>
x0678

> <Mpro-_dock>
4.174881

> <site>
active-noncovalent

$$$$
LON-WEI-b8d98729-4
  -OEChem-05192003313D

 44 45  0     0  0  0  0  0  0999 V2000
   11.8509   -1.5374   22.2418 C   0  0  0  0  0  0  0  0  0  0  0  0
   11.8134   -0.1879   22.5925 C   0  0  0  0  0  0  0  0  0  0  0  0
   11.0016   -2.4461   22.8732 C   0  0  0  0  0  0  0  0  0  0  0  0
   10.0772   -0.6556   24.2062 C   0  0  0  0  0  0  0  0  0  0  0  0
   10.9266    0.2530   23.5747 C   0  0  0  0  0  0  0  0  0  0  0  0
   10.1148   -2.0052   23.8555 C   0  0  0  0  0  0  0  0  0  0  0  0
    6.7639    7.0424   23.2453 C   0  0  0  0  0  0  0  0  0  0  0  0
   11.6576    2.6564   23.4062 C   0  0  0  0  0  0  0  0  0  0  0  0
    9.1755    6.8503   22.7271 C   0  0  0  0  0  0  0  0  0  0  0  0
    7.8202    4.7921   22.7081 C   0  0  0  0  0  0  0  0  0  0  0  0
   10.2280    6.1738   23.5933 C   0  0  0  0  0  0  0  0  0  0  0  0
    8.8540    4.0836   23.5730 C   0  0  0  0  0  0  0  0  0  0  0  0
    7.0509    8.3022   24.0226 C   0  0  0  0  0  0  0  0  0  0  0  0
   11.2990    3.9683   24.0666 C   0  0  0  0  0  0  0  0  0  0  0  0
    7.8601    6.2420   22.9268 N   0  0  0  0  0  0  0  0  0  0  0  0
    7.6885   -3.0832   23.6189 N   0  0  0  0  0  0  0  0  0  0  0  0
   10.8882    1.6222   23.9305 N   0  0  0  0  0  0  0  0  0  0  0  0
   10.2159    4.6876   23.3131 N   0  3  0  0  0  0  0  0  0  0  0  0
    5.6004    6.7806   22.9295 O   0  0  0  0  0  0  0  0  0  0  0  0
   12.5148    2.5815   22.5321 O   0  0  0  0  0  0  0  0  0  0  0  0
    9.6502   -4.4680   24.5569 O   0  0  0  0  0  0  0  0  0  0  0  0
    8.6819   -2.6030   25.9469 O   0  0  0  0  0  0  0  0  0  0  0  0
    9.0526   -3.1430   24.6462 S   0  0  0  0  0  0  0  0  0  0  0  0
   12.5409   -1.8809   21.4766 H   0  0  0  0  0  0  0  0  0  0  0  0
   12.4795    0.5110   22.0931 H   0  0  0  0  0  0  0  0  0  0  0  0
   11.0393   -3.4953   22.5928 H   0  0  0  0  0  0  0  0  0  0  0  0
    9.3853   -0.3125   24.9723 H   0  0  0  0  0  0  0  0  0  0  0  0
    9.1471    7.9204   22.9553 H   0  0  0  0  0  0  0  0  0  0  0  0
    9.4259    6.7517   21.6638 H   0  0  0  0  0  0  0  0  0  0  0  0
    8.0230    4.6181   21.6444 H   0  0  0  0  0  0  0  0  0  0  0  0
    6.8334    4.3756   22.9173 H   0  0  0  0  0  0  0  0  0  0  0  0
   11.2282    6.5443   23.3464 H   0  0  0  0  0  0  0  0  0  0  0  0
   10.0344    6.3166   24.6624 H   0  0  0  0  0  0  0  0  0  0  0  0
    8.6370    4.1897   24.6418 H   0  0  0  0  0  0  0  0  0  0  0  0
    8.9130    3.0219   23.3120 H   0  0  0  0  0  0  0  0  0  0  0  0
    7.2389    9.1134   23.3270 H   0  0  0  0  0  0  0  0  0  0  0  0
    7.9220    8.1422   24.6499 H   0  0  0  0  0  0  0  0  0  0  0  0
    6.1938    8.5384   24.6451 H   0  0  0  0  0  0  0  0  0  0  0  0
   12.1655    4.6354   24.0921 H   0  0  0  0  0  0  0  0  0  0  0  0
   10.9226    3.7933   25.0785 H   0  0  0  0  0  0  0  0  0  0  0  0
    7.5003   -3.8963   23.0199 H   0  0  0  0  0  0  0  0  0  0  0  0
    6.8409   -2.6209   23.9696 H   0  0  0  0  0  0  0  0  0  0  0  0
   10.2152    1.8650   24.6546 H   0  0  0  0  0  0  0  0  0  0  0  0
   10.4219    4.5611   22.3125 H   0  0  0  0  0  0  0  0  0  0  0  0
  1  2  2  0  0  0  0
  1  3  1  0  0  0  0
  2  5  1  0  0  0  0
  3  6  2  0  0  0  0
  4  5  2  0  0  0  0
  4  6  1  0  0  0  0
  5 17  1  0  0  0  0
  6 23  1  0  0  0  0
  7 13  1  0  0  0  0
  7 15  1  0  0  0  0
  7 19  2  0  0  0  0
  8 14  1  0  0  0  0
  8 17  1  0  0  0  0
  8 20  2  0  0  0  0
  9 11  1  0  0  0  0
  9 15  1  0  0  0  0
 10 12  1  0  0  0  0
 10 15  1  0  0  0  0
 11 18  1  0  0  0  0
 12 18  1  0  0  0  0
 14 18  1  0  0  0  0
 16 23  1  0  0  0  0
 21 23  2  0  0  0  0
 22 23  2  0  0  0  0
  1 24  1  0  0  0  0
  2 25  1  0  0  0  0
  3 26  1  0  0  0  0
  4 27  1  0  0  0  0
  9 28  1  0  0  0  0
  9 29  1  0  0  0  0
 10 30  1  0  0  0  0
 10 31  1  0  0  0  0
 11 32  1  0  0  0  0
 11 33  1  0  0  0  0
 12 34  1  0  0  0  0
 12 35  1  0  0  0  0
 13 36  1  0  0  0  0
 13 37  1  0  0  0  0
 13 38  1  0  0  0  0
 14 39  1  0  0  0  0
 14 40  1  0  0  0  0
 16 41  1  0  0  0  0
 16 42  1  0  0  0  0
 17 43  1  0  0  0  0
 18 44  1  0  0  0  0
M  CHG  1  18   1
M  END
> <IC50 (uM)>

> <IC50 (uM) - std>

> <Average Inhibition @ 20 uM>

> <Average Inhibition @ 20 uM - std>
-3.12

> <Average Inhibition @ 50 uM>
2.66

> <Average Inhibition @ 50 uM - std>
2.63

> <Trypsin IC50 (uM)>
0.332

> <Relative Solubility @ 20 uM>
1.0

> <Relative Solubility @ 100 uM>
1.0

> <Hybrid2>
-7.938325

> <docked_fragment>
x0104

> <Mpro-_dock>
1.351343

> <site>
active-noncovalent

$$$$
JAN-GHE-1d98ec1c-7
  -OEChem-05192003313D

 44 45  0     0  0  0  0  0  0999 V2000
   11.8509   -1.5374   22.2418 C   0  0  0  0  0  0  0  0  0  0  0  0
   11.8134   -0.1879   22.5925 C   0  0  0  0  0  0  0  0  0  0  0  0
   11.0016   -2.4461   22.8732 C   0  0  0  0  0  0  0  0  0  0  0  0
   10.0772   -0.6556   24.2062 C   0  0  0  0  0  0  0  0  0  0  0  0
   10.9266    0.2530   23.5747 C   0  0  0  0  0  0  0  0  0  0  0  0
   10.1148   -2.0052   23.8555 C   0  0  0  0  0  0  0  0  0  0  0  0
    6.7639    7.0424   23.2453 C   0  0  0  0  0  0  0  0  0  0  0  0
   11.6576    2.6564   23.4062 C   0  0  0  0  0  0  0  0  0  0  0  0
    9.1755    6.8503   22.7271 C   0  0  0  0  0  0  0  0  0  0  0  0
    7.8202    4.7921   22.7081 C   0  0  0  0  0  0  0  0  0  0  0  0
   10.2280    6.1738   23.5933 C   0  0  0  0  0  0  0  0  0  0  0  0
    8.8540    4.0836   23.5730 C   0  0  0  0  0  0  0  0  0  0  0  0
    7.0509    8.3022   24.0226 C   0  0  0  0  0  0  0  0  0  0  0  0
   11.2990    3.9683   24.0666 C   0  0  0  0  0  0  0  0  0  0  0  0
    7.8601    6.2420   22.9268 N   0  0  0  0  0  0  0  0  0  0  0  0
    7.6885   -3.0832   23.6189 N   0  0  0  0  0  0  0  0  0  0  0  0
   10.8882    1.6222   23.9305 N   0  0  0  0  0  0  0  0  0  0  0  0
   10.2159    4.6876   23.3131 N   0  3  0  0  0  0  0  0  0  0  0  0
    5.6004    6.7806   22.9295 O   0  0  0  0  0  0  0  0  0  0  0  0
   12.5148    2.5815   22.5321 O   0  0  0  0  0  0  0  0  0  0  0  0
    9.6502   -4.4680   24.5569 O   0  0  0  0  0  0  0  0  0  0  0  0
    8.6819   -2.6030   25.9469 O   0  0  0  0  0  0  0  0  0  0  0  0
    9.0526   -3.1430   24.6462 S   0  0  0  0  0  0  0  0  0  0  0  0
   12.5409   -1.8809   21.4766 H   0  0  0  0  0  0  0  0  0  0  0  0
   12.4795    0.5110   22.0931 H   0  0  0  0  0  0  0  0  0  0  0  0
   11.0393   -3.4953   22.5928 H   0  0  0  0  0  0  0  0  0  0  0  0
    9.3853   -0.3125   24.9723 H   0  0  0  0  0  0  0  0  0  0  0  0
    9.1471    7.9204   22.9553 H   0  0  0  0  0  0  0  0  0  0  0  0
    9.4259    6.7517   21.6638 H   0  0  0  0  0  0  0  0  0  0  0  0
    8.0230    4.6181   21.6444 H   0  0  0  0  0  0  0  0  0  0  0  0
    6.8334    4.3756   22.9173 H   0  0  0  0  0  0  0  0  0  0  0  0
   11.2282    6.5443   23.3464 H   0  0  0  0  0  0  0  0  0  0  0  0
   10.0344    6.3166   24.6624 H   0  0  0  0  0  0  0  0  0  0  0  0
    8.6370    4.1897   24.6418 H   0  0  0  0  0  0  0  0  0  0  0  0
    8.9130    3.0219   23.3120 H   0  0  0  0  0  0  0  0  0  0  0  0
    7.2389    9.1134   23.3270 H   0  0  0  0  0  0  0  0  0  0  0  0
    7.9220    8.1422   24.6499 H   0  0  0  0  0  0  0  0  0  0  0  0
    6.1938    8.5384   24.6451 H   0  0  0  0  0  0  0  0  0  0  0  0
   12.1655    4.6354   24.0921 H   0  0  0  0  0  0  0  0  0  0  0  0
   10.9226    3.7933   25.0785 H   0  0  0  0  0  0  0  0  0  0  0  0
    7.5003   -3.8963   23.0199 H   0  0  0  0  0  0  0  0  0  0  0  0
    6.8409   -2.6209   23.9696 H   0  0  0  0  0  0  0  0  0  0  0  0
   10.2152    1.8650   24.6546 H   0  0  0  0  0  0  0  0  0  0  0  0
   10.4219    4.5611   22.3125 H   0  0  0  0  0  0  0  0  0  0  0  0
  1  2  2  0  0  0  0
  1  3  1  0  0  0  0
  2  5  1  0  0  0  0
  3  6  2  0  0  0  0
  4  5  2  0  0  0  0
  4  6  1  0  0  0  0
  5 17  1  0  0  0  0
  6 23  1  0  0  0  0
  7 13  1  0  0  0  0
  7 15  1  0  0  0  0
  7 19  2  0  0  0  0
  8 14  1  0  0  0  0
  8 17  1  0  0  0  0
  8 20  2  0  0  0  0
  9 11  1  0  0  0  0
  9 15  1  0  0  0  0
 10 12  1  0  0  0  0
 10 15  1  0  0  0  0
 11 18  1  0  0  0  0
 12 18  1  0  0  0  0
 14 18  1  0  0  0  0
 16 23  1  0  0  0  0
 21 23  2  0  0  0  0
 22 23  2  0  0  0  0
  1 24  1  0  0  0  0
  2 25  1  0  0  0  0
  3 26  1  0  0  0  0
  4 27  1  0  0  0  0
  9 28  1  0  0  0  0
  9 29  1  0  0  0  0
 10 30  1  0  0  0  0
 10 31  1  0  0  0  0
 11 32  1  0  0  0  0
 11 33  1  0  0  0  0
 12 34  1  0  0  0  0
 12 35  1  0  0  0  0
 13 36  1  0  0  0  0
 13 37  1  0  0  0  0
 13 38  1  0  0  0  0
 14 39  1  0  0  0  0
 14 40  1  0  0  0  0
 16 41  1  0  0  0  0
 16 42  1  0  0  0  0
 17 43  1  0  0  0  0
 18 44  1  0  0  0  0
M  CHG  1  18   1
M  END
> <IC50 (uM)>

> <IC50 (uM) - std>

> <Average Inhibition @ 20 uM>

> <Average Inhibition @ 20 uM - std>
-3.12

> <Average Inhibition @ 50 uM>
2.66

> <Average Inhibition @ 50 uM - std>
2.63

> <Trypsin IC50 (uM)>
0.332

> <Relative Solubility @ 20 uM>
1.0

> <Relative Solubility @ 100 uM>
1.0

> <Hybrid2>
-7.938325

> <docked_fragment>
x0104

> <Mpro-_dock>
1.351343

> <site>
active-noncovalent

$$$$
BAR-COM-4e090d3a-51
  -OEChem-05192003313D

 40 42  0     0  0  0  0  0  0999 V2000
   14.3575   -2.3157   21.9774 C   0  0  0  0  0  0  0  0  0  0  0  0
   14.7665   -2.4444   23.3200 C   0  0  0  0  0  0  0  0  0  0  0  0
   13.4335   -1.3382   21.5967 C   0  0  0  0  0  0  0  0  0  0  0  0
   14.2601   -1.5987   24.3111 C   0  0  0  0  0  0  0  0  0  0  0  0
    5.4538    1.0668   18.4187 C   0  0  0  0  0  0  0  0  0  0  0  0
    6.3031    0.8844   17.3497 C   0  0  0  0  0  0  0  0  0  0  0  0
    6.9539    0.0183   19.7897 C   0  0  0  0  0  0  0  0  0  0  0  0
   12.9445   -0.5114   22.5881 C   0  0  0  0  0  0  0  0  0  0  0  0
   13.3491   -0.6391   23.9175 C   0  0  0  0  0  0  0  0  0  0  0  0
    7.8031   -0.1648   18.7206 C   0  0  0  0  0  0  0  0  0  0  0  0
   11.8369    1.0958   23.8121 C   0  0  0  0  0  0  0  0  0  0  0  0
   10.2850    0.0194   20.9266 C   0  0  0  0  0  0  0  0  0  0  0  0
   14.1380    1.1771   26.4096 C   0  0  0  0  0  0  0  0  0  0  0  0
    9.1213   -0.8594   18.9050 C   0  0  0  0  0  0  0  0  0  0  0  0
   11.3667    0.9962   21.3113 C   0  0  0  0  0  0  0  0  0  0  0  0
   12.8400    0.5152   26.0938 C   0  0  0  0  0  0  0  0  0  0  0  0
    5.7639    0.6371   19.6580 N   0  0  0  0  0  0  0  0  0  0  0  0
    7.4930    0.2652   17.4815 N   0  0  0  0  0  0  0  0  0  0  0  0
   12.0218    0.5439   22.5120 N   0  0  0  0  0  0  0  0  0  0  0  0
   12.6798    0.3364   24.6733 N   0  0  0  0  0  0  0  0  0  0  0  0
   10.0945   -0.0096   19.5526 N   0  0  0  0  0  0  0  0  0  0  0  0
   11.1068    2.0271   24.1238 O   0  0  0  0  0  0  0  0  0  0  0  0
    9.6646   -0.6575   21.7423 O   0  0  0  0  0  0  0  0  0  0  0  0
   14.7678   -2.9881   21.2284 H   0  0  0  0  0  0  0  0  0  0  0  0
   15.4868   -3.2137   23.5863 H   0  0  0  0  0  0  0  0  0  0  0  0
   13.1238   -1.2447   20.5624 H   0  0  0  0  0  0  0  0  0  0  0  0
   14.5786   -1.7038   25.3416 H   0  0  0  0  0  0  0  0  0  0  0  0
    4.4977    1.5642   18.3120 H   0  0  0  0  0  0  0  0  0  0  0  0
    6.0533    1.2300   16.3543 H   0  0  0  0  0  0  0  0  0  0  0  0
    7.1966   -0.3243   20.7888 H   0  0  0  0  0  0  0  0  0  0  0  0
   14.1762    2.1622   25.9215 H   0  0  0  0  0  0  0  0  0  0  0  0
   14.2295    1.3038   27.4985 H   0  0  0  0  0  0  0  0  0  0  0  0
   14.9664    0.5537   26.0421 H   0  0  0  0  0  0  0  0  0  0  0  0
    9.0008   -1.7606   19.5160 H   0  0  0  0  0  0  0  0  0  0  0  0
    9.5384   -1.1727   17.9421 H   0  0  0  0  0  0  0  0  0  0  0  0
   12.1024    1.0677   20.5047 H   0  0  0  0  0  0  0  0  0  0  0  0
   10.9291    1.9826   21.4907 H   0  0  0  0  0  0  0  0  0  0  0  0
   12.8098   -0.4685   26.5852 H   0  0  0  0  0  0  0  0  0  0  0  0
   12.0172    1.1395   26.4722 H   0  0  0  0  0  0  0  0  0  0  0  0
   10.6676    0.5966   18.9729 H   0  0  0  0  0  0  0  0  0  0  0  0
  1  2  1  0  0  0  0
  1  3  2  0  0  0  0
  2  4  2  0  0  0  0
  3  8  1  0  0  0  0
  4  9  1  0  0  0  0
  5  6  2  0  0  0  0
  5 17  1  0  0  0  0
  6 18  1  0  0  0  0
  7 10  1  0  0  0  0
  7 17  2  0  0  0  0
  8  9  2  0  0  0  0
  8 19  1  0  0  0  0
  9 20  1  0  0  0  0
 10 14  1  0  0  0  0
 10 18  2  0  0  0  0
 11 19  1  0  0  0  0
 11 20  1  0  0  0  0
 11 22  2  0  0  0  0
 12 15  1  0  0  0  0
 12 21  1  0  0  0  0
 12 23  2  0  0  0  0
 13 16  1  0  0  0  0
 14 21  1  0  0  0  0
 15 19  1  0  0  0  0
 16 20  1  0  0  0  0
  1 24  1  0  0  0  0
  2 25  1  0  0  0  0
  3 26  1  0  0  0  0
  4 27  1  0  0  0  0
  5 28  1  0  0  0  0
  6 29  1  0  0  0  0
  7 30  1  0  0  0  0
 13 31  1  0  0  0  0
 13 32  1  0  0  0  0
 13 33  1  0  0  0  0
 14 34  1  0  0  0  0
 14 35  1  0  0  0  0
 15 36  1  0  0  0  0
 15 37  1  0  0  0  0
 16 38  1  0  0  0  0
 16 39  1  0  0  0  0
 21 40  1  0  0  0  0
M  END
> <IC50 (uM)>

> <IC50 (uM) - std>

> <Average Inhibition @ 20 uM>

> <Average Inhibition @ 20 uM - std>
1.73

> <Average Inhibition @ 50 uM>
2.23

> <Average Inhibition @ 50 uM - std>
6.74

> <Trypsin IC50 (uM)>
0.836

> <Relative Solubility @ 20 uM>
1.0

> <Relative Solubility @ 100 uM>
1.0

> <Hybrid2>
-7.938208

> <docked_fragment>
x0678

> <Mpro-_dock>
0.837487

> <site>
active-noncovalent

$$$$
JOH-UNI-c7afdb96-6
  -OEChem-05192003313D

 38 39  0     0  0  0  0  0  0999 V2000
    7.7886   -4.0181   22.2303 C   0  0  0  0  0  0  0  0  0  0  0  0
   13.7014   -1.2861   22.3295 C   0  0  0  0  0  0  0  0  0  0  0  0
   13.6765   -0.1595   23.1515 C   0  0  0  0  0  0  0  0  0  0  0  0
   12.5094   -1.9203   21.9792 C   0  0  0  0  0  0  0  0  0  0  0  0
   11.2678   -0.3013   23.2730 C   0  0  0  0  0  0  0  0  0  0  0  0
   12.4598    0.3329   23.6233 C   0  0  0  0  0  0  0  0  0  0  0  0
   11.2926   -1.4279   22.4510 C   0  0  0  0  0  0  0  0  0  0  0  0
    7.7506   -2.6324   21.8879 C   0  0  0  0  0  0  0  0  0  0  0  0
    6.7992   -2.1214   21.0795 C   0  0  0  0  0  0  0  0  0  0  0  0
    8.7924   -1.7051   22.4583 C   0  0  0  0  0  0  0  0  0  0  0  0
    6.0996   -0.5487   18.3296 C   0  0  0  0  0  0  0  0  0  0  0  0
    7.4102    0.1967   18.5071 C   0  0  0  0  0  0  0  0  0  0  0  0
    5.4951   -0.5173   19.7265 C   0  0  0  0  0  0  0  0  0  0  0  0
    7.9266   -0.2735   19.8633 C   0  0  0  0  0  0  0  0  0  0  0  0
    6.6871   -0.6650   20.6671 C   0  0  0  0  0  0  0  0  0  0  0  0
   12.4337    1.5374   24.5021 C   0  0  0  0  0  0  0  0  0  0  0  0
    7.8277   -5.1427   22.5141 N   0  0  0  0  0  0  0  0  0  0  0  0
   10.0822   -2.0718   22.0944 N   0  0  0  0  0  0  0  0  0  0  0  0
    8.4602   -0.7545   23.1592 O   0  0  0  0  0  0  0  0  0  0  0  0
    5.7960   -2.9267   20.5621 O   0  0  0  0  0  0  0  0  0  0  0  0
   14.6488   -1.6693   21.9617 H   0  0  0  0  0  0  0  0  0  0  0  0
   14.6102    0.3272   23.4194 H   0  0  0  0  0  0  0  0  0  0  0  0
   12.5407   -2.7977   21.3381 H   0  0  0  0  0  0  0  0  0  0  0  0
   10.3201    0.0841   23.6428 H   0  0  0  0  0  0  0  0  0  0  0  0
    5.4506   -0.0793   17.5850 H   0  0  0  0  0  0  0  0  0  0  0  0
    6.2886   -1.5833   18.0198 H   0  0  0  0  0  0  0  0  0  0  0  0
    8.1196   -0.0066   17.6997 H   0  0  0  0  0  0  0  0  0  0  0  0
    7.2272    1.2776   18.5327 H   0  0  0  0  0  0  0  0  0  0  0  0
    5.0194    0.4581   19.8904 H   0  0  0  0  0  0  0  0  0  0  0  0
    4.7221   -1.2823   19.8523 H   0  0  0  0  0  0  0  0  0  0  0  0
    8.6109   -1.1190   19.7211 H   0  0  0  0  0  0  0  0  0  0  0  0
    8.4959    0.5211   20.3580 H   0  0  0  0  0  0  0  0  0  0  0  0
    6.5674   -0.0841   21.5407 H   0  0  0  0  0  0  0  0  0  0  0  0
   12.3497    2.4493   23.8982 H   0  0  0  0  0  0  0  0  0  0  0  0
   11.5872    1.5033   25.2002 H   0  0  0  0  0  0  0  0  0  0  0  0
   13.3447    1.6062   25.1111 H   0  0  0  0  0  0  0  0  0  0  0  0
   10.1948   -2.8843   21.4921 H   0  0  0  0  0  0  0  0  0  0  0  0
    5.9164   -3.8273   20.8729 H   0  0  0  0  0  0  0  0  0  0  0  0
  1  8  1  0  0  0  0
  1 17  3  0  0  0  0
  2  3  2  0  0  0  0
  2  4  1  0  0  0  0
  3  6  1  0  0  0  0
  4  7  2  0  0  0  0
  5  6  2  0  0  0  0
  5  7  1  0  0  0  0
  6 16  1  0  0  0  0
  7 18  1  0  0  0  0
  8  9  2  0  0  0  0
  8 10  1  0  0  0  0
  9 15  1  0  0  0  0
  9 20  1  0  0  0  0
 10 18  1  0  0  0  0
 10 19  2  0  0  0  0
 11 12  1  0  0  0  0
 11 13  1  0  0  0  0
 12 14  1  0  0  0  0
 13 15  1  0  0  0  0
 14 15  1  0  0  0  0
  2 21  1  0  0  0  0
  3 22  1  0  0  0  0
  4 23  1  0  0  0  0
  5 24  1  0  0  0  0
 11 25  1  0  0  0  0
 11 26  1  0  0  0  0
 12 27  1  0  0  0  0
 12 28  1  0  0  0  0
 13 29  1  0  0  0  0
 13 30  1  0  0  0  0
 14 31  1  0  0  0  0
 14 32  1  0  0  0  0
 15 33  1  0  0  0  0
 16 34  1  0  0  0  0
 16 35  1  0  0  0  0
 16 36  1  0  0  0  0
 18 37  1  0  0  0  0
 20 38  1  0  0  0  0
M  END
> <IC50 (uM)>

> <IC50 (uM) - std>

> <Average Inhibition @ 20 uM>

> <Average Inhibition @ 20 uM - std>

> <Average Inhibition @ 50 uM>

> <Average Inhibition @ 50 uM - std>
8.05

> <Trypsin IC50 (uM)>
1.42

> <Relative Solubility @ 20 uM>

> <Relative Solubility @ 100 uM>

> <Hybrid2>
-7.910522

> <docked_fragment>
x0831

> <Mpro-_dock>
-0.114184

> <site>
active-covalent

$$$$
TRY-UNI-1fd04853-12
  -OEChem-05192003313D

 35 37  0     0  0  0  0  0  0999 V2000
   14.2462    0.6296   23.4981 C   0  0  0  0  0  0  0  0  0  0  0  0
    7.5433   -2.2769   20.9262 C   0  0  0  0  0  0  0  0  0  0  0  0
   14.1944   -1.6952   24.2763 C   0  0  0  0  0  0  0  0  0  0  0  0
    8.2811   -3.0964   21.7785 C   0  0  0  0  0  0  0  0  0  0  0  0
   13.5340   -2.7242   24.9384 C   0  0  0  0  0  0  0  0  0  0  0  0
    6.2516   -2.6567   20.5872 C   0  0  0  0  0  0  0  0  0  0  0  0
   12.3415   -0.2780   24.7398 C   0  0  0  0  0  0  0  0  0  0  0  0
    6.9827   -6.2117   23.1747 C   0  0  0  0  0  0  0  0  0  0  0  0
   13.5936   -0.4457   24.1707 C   0  0  0  0  0  0  0  0  0  0  0  0
    7.6712   -4.2701   22.2502 C   0  0  0  0  0  0  0  0  0  0  0  0
    8.0494   -5.3420   23.1012 C   0  0  0  0  0  0  0  0  0  0  0  0
   12.2847   -2.4544   25.4733 C   0  0  0  0  0  0  0  0  0  0  0  0
    6.3698   -4.5289   21.8299 C   0  0  0  0  0  0  0  0  0  0  0  0
    9.7154   -4.3533   24.7212 C   0  0  0  0  0  0  0  0  0  0  0  0
    9.3468   -5.5056   23.7871 C   0  0  0  0  0  0  0  0  0  0  0  0
   11.5428   -3.5419   26.1951 C   0  0  0  0  0  0  0  0  0  0  0  0
   14.7772    1.5044   22.9509 N   0  0  0  0  0  0  0  0  0  0  0  0
   11.6692   -1.2536   25.3907 N   0  0  0  0  0  0  0  0  0  0  0  0
    5.6147   -3.7733   21.0103 N   0  0  0  0  0  0  0  0  0  0  0  0
    5.9699   -5.7090   22.3997 N   0  0  0  0  0  0  0  0  0  0  0  0
   10.9752   -4.5066   25.2824 N   0  0  0  0  0  0  0  0  0  0  0  0
    8.9613   -3.4066   24.9309 O   0  0  0  0  0  0  0  0  0  0  0  0
    7.9714   -1.3599   20.5357 H   0  0  0  0  0  0  0  0  0  0  0  0
   15.1761   -1.8815   23.8479 H   0  0  0  0  0  0  0  0  0  0  0  0
    9.2932   -2.8282   22.0637 H   0  0  0  0  0  0  0  0  0  0  0  0
   13.9916   -3.7036   25.0278 H   0  0  0  0  0  0  0  0  0  0  0  0
    5.6612   -2.0294   19.9245 H   0  0  0  0  0  0  0  0  0  0  0  0
   11.8190    0.6732   24.6921 H   0  0  0  0  0  0  0  0  0  0  0  0
    6.8521   -7.1428   23.7087 H   0  0  0  0  0  0  0  0  0  0  0  0
    9.3642   -6.4369   24.3862 H   0  0  0  0  0  0  0  0  0  0  0  0
   10.1734   -5.6150   23.0582 H   0  0  0  0  0  0  0  0  0  0  0  0
   12.2109   -4.0770   26.8788 H   0  0  0  0  0  0  0  0  0  0  0  0
   10.7259   -3.1285   26.7958 H   0  0  0  0  0  0  0  0  0  0  0  0
    5.0668   -6.1425   22.2672 H   0  0  0  0  0  0  0  0  0  0  0  0
   11.5197   -5.3297   25.0418 H   0  0  0  0  0  0  0  0  0  0  0  0
  1  9  1  0  0  0  0
  1 17  3  0  0  0  0
  2  4  2  0  0  0  0
  2  6  1  0  0  0  0
  3  5  2  0  0  0  0
  3  9  1  0  0  0  0
  4 10  1  0  0  0  0
  5 12  1  0  0  0  0
  6 19  2  0  0  0  0
  7  9  2  0  0  0  0
  7 18  1  0  0  0  0
  8 11  2  0  0  0  0
  8 20  1  0  0  0  0
 10 11  1  0  0  0  0
 10 13  2  0  0  0  0
 11 15  1  0  0  0  0
 12 16  1  0  0  0  0
 12 18  2  0  0  0  0
 13 19  1  0  0  0  0
 13 20  1  0  0  0  0
 14 15  1  0  0  0  0
 14 21  1  0  0  0  0
 14 22  2  0  0  0  0
 16 21  1  0  0  0  0
  2 23  1  0  0  0  0
  3 24  1  0  0  0  0
  4 25  1  0  0  0  0
  5 26  1  0  0  0  0
  6 27  1  0  0  0  0
  7 28  1  0  0  0  0
  8 29  1  0  0  0  0
 15 30  1  0  0  0  0
 15 31  1  0  0  0  0
 16 32  1  0  0  0  0
 16 33  1  0  0  0  0
 20 34  1  0  0  0  0
 21 35  1  0  0  0  0
M  END
> <IC50 (uM)>

> <IC50 (uM) - std>

> <Average Inhibition @ 20 uM>

> <Average Inhibition @ 20 uM - std>
4.15

> <Average Inhibition @ 50 uM>
5.6

> <Average Inhibition @ 50 uM - std>
0.616

> <Trypsin IC50 (uM)>
0.662

> <Relative Solubility @ 20 uM>
1.0

> <Relative Solubility @ 100 uM>
1.0

> <Hybrid2>
-7.890812

> <docked_fragment>
x0749

> <Mpro-_dock>
0.280749

> <site>
active-covalent

$$$$
ANN-UNI-26382800-5
  -OEChem-05192003313D

 29 30  0     0  0  0  0  0  0999 V2000
    6.7517   -2.7136   20.9226 C   0  0  0  0  0  0  0  0  0  0  0  0
    6.0716   -6.1415   22.2044 C   0  0  0  0  0  0  0  0  0  0  0  0
   13.7799   -1.5567   25.2076 C   0  0  0  0  0  0  0  0  0  0  0  0
    5.9550   -4.9583   21.4750 C   0  0  0  0  0  0  0  0  0  0  0  0
    7.1052   -6.2919   23.1289 C   0  0  0  0  0  0  0  0  0  0  0  0
   13.0441   -2.6548   24.7763 C   0  0  0  0  0  0  0  0  0  0  0  0
    7.9058   -4.0760   22.5944 C   0  0  0  0  0  0  0  0  0  0  0  0
   13.1306   -0.6009   25.9723 C   0  0  0  0  0  0  0  0  0  0  0  0
   11.1445   -1.7524   25.8868 C   0  0  0  0  0  0  0  0  0  0  0  0
    6.8721   -3.9255   21.6699 C   0  0  0  0  0  0  0  0  0  0  0  0
    8.0223   -5.2591   23.3239 C   0  0  0  0  0  0  0  0  0  0  0  0
   11.7006   -2.7621   25.1180 C   0  0  0  0  0  0  0  0  0  0  0  0
    9.5798   -4.1115   24.9549 C   0  0  0  0  0  0  0  0  0  0  0  0
    9.1274   -5.4203   24.3123 C   0  0  0  0  0  0  0  0  0  0  0  0
    6.6538   -1.7293   20.3157 N   0  0  0  0  0  0  0  0  0  0  0  0
   11.8272   -0.6707   26.3243 N   0  0  0  0  0  0  0  0  0  0  0  0
   10.9258   -3.8678   24.6936 N   0  0  0  0  0  0  0  0  0  0  0  0
    8.8108   -3.4113   25.6057 O   0  0  0  0  0  0  0  0  0  0  0  0
    5.3583   -6.9463   22.0521 H   0  0  0  0  0  0  0  0  0  0  0  0
   14.8284   -1.4524   24.9532 H   0  0  0  0  0  0  0  0  0  0  0  0
    5.1437   -4.8557   20.7582 H   0  0  0  0  0  0  0  0  0  0  0  0
    7.1874   -7.2173   23.6929 H   0  0  0  0  0  0  0  0  0  0  0  0
   13.5271   -3.4205   24.1749 H   0  0  0  0  0  0  0  0  0  0  0  0
    8.6249   -3.2743   22.7501 H   0  0  0  0  0  0  0  0  0  0  0  0
   13.6601    0.2750   26.3325 H   0  0  0  0  0  0  0  0  0  0  0  0
   10.1008   -1.7801   26.1857 H   0  0  0  0  0  0  0  0  0  0  0  0
    8.8232   -6.1081   25.1185 H   0  0  0  0  0  0  0  0  0  0  0  0
   10.0038   -5.8865   23.8326 H   0  0  0  0  0  0  0  0  0  0  0  0
   11.4086   -4.5662   24.1321 H   0  0  0  0  0  0  0  0  0  0  0  0
  1 10  1  0  0  0  0
  1 15  3  0  0  0  0
  2  4  2  0  0  0  0
  2  5  1  0  0  0  0
  3  6  2  0  0  0  0
  3  8  1  0  0  0  0
  4 10  1  0  0  0  0
  5 11  2  0  0  0  0
  6 12  1  0  0  0  0
  7 10  2  0  0  0  0
  7 11  1  0  0  0  0
  8 16  2  0  0  0  0
  9 12  2  0  0  0  0
  9 16  1  0  0  0  0
 11 14  1  0  0  0  0
 12 17  1  0  0  0  0
 13 14  1  0  0  0  0
 13 17  1  0  0  0  0
 13 18  2  0  0  0  0
  2 19  1  0  0  0  0
  3 20  1  0  0  0  0
  4 21  1  0  0  0  0
  5 22  1  0  0  0  0
  6 23  1  0  0  0  0
  7 24  1  0  0  0  0
  8 25  1  0  0  0  0
  9 26  1  0  0  0  0
 14 27  1  0  0  0  0
 14 28  1  0  0  0  0
 17 29  1  0  0  0  0
M  END
> <IC50 (uM)>

> <IC50 (uM) - std>

> <Average Inhibition @ 20 uM>

> <Average Inhibition @ 20 uM - std>
11.4

> <Average Inhibition @ 50 uM>
1.42

> <Average Inhibition @ 50 uM - std>
25.0

> <Trypsin IC50 (uM)>
0.939

> <Relative Solubility @ 20 uM>
1.0

> <Relative Solubility @ 100 uM>
1.0

> <Hybrid2>
-7.873439

> <docked_fragment>
x0749

> <Mpro-_dock>
-1.251872

> <site>
active-covalent

$$$$
JOH-UNI-c7afdb96-5
  -OEChem-05192003313D

 29 30  0     0  0  0  0  0  0999 V2000
   13.3260   -1.0845   21.6402 C   0  0  0  0  0  0  0  0  0  0  0  0
    6.6944   -2.3449   21.1332 C   0  0  0  0  0  0  0  0  0  0  0  0
    9.9602    1.0218   26.0251 C   0  0  0  0  0  0  0  0  0  0  0  0
    7.9125   -1.6658   21.1580 C   0  0  0  0  0  0  0  0  0  0  0  0
    6.4746   -3.4150   22.0005 C   0  0  0  0  0  0  0  0  0  0  0  0
   10.7764    0.2110   25.1846 C   0  0  0  0  0  0  0  0  0  0  0  0
    8.6913   -3.1271   22.9173 C   0  0  0  0  0  0  0  0  0  0  0  0
   10.1011    2.3632   25.7451 C   0  0  0  0  0  0  0  0  0  0  0  0
    8.9110   -2.0569   22.0500 C   0  0  0  0  0  0  0  0  0  0  0  0
    7.4731   -3.8061   22.8925 C   0  0  0  0  0  0  0  0  0  0  0  0
   11.5099    0.9636   24.2938 C   0  0  0  0  0  0  0  0  0  0  0  0
   12.3771   -0.6852   22.6282 C   0  0  0  0  0  0  0  0  0  0  0  0
   12.4617    0.5031   23.2672 C   0  0  0  0  0  0  0  0  0  0  0  0
   11.2392   -1.6273   22.8875 C   0  0  0  0  0  0  0  0  0  0  0  0
   14.0968   -1.4117   20.8369 N   0  0  0  0  0  0  0  0  0  0  0  0
   10.1293   -1.3775   22.0731 N   0  0  0  0  0  0  0  0  0  0  0  0
   11.3461   -2.4703   23.7717 O   0  0  0  0  0  0  0  0  0  0  0  0
   13.4559    1.4351   23.0264 O   0  0  0  0  0  0  0  0  0  0  0  0
   11.2136    2.6406   24.4732 S   0  0  0  0  0  0  0  0  0  0  0  0
    7.2022   -5.1264   23.9628 Cl  0  0  0  0  0  0  0  0  0  0  0  0
    5.9168   -2.0402   20.4385 H   0  0  0  0  0  0  0  0  0  0  0  0
    9.3041    0.6405   26.7967 H   0  0  0  0  0  0  0  0  0  0  0  0
    8.0723   -0.8333   20.4771 H   0  0  0  0  0  0  0  0  0  0  0  0
    5.5204   -3.9343   21.9699 H   0  0  0  0  0  0  0  0  0  0  0  0
   10.8170   -0.8699   25.2378 H   0  0  0  0  0  0  0  0  0  0  0  0
    9.4721   -3.4291   23.6119 H   0  0  0  0  0  0  0  0  0  0  0  0
    9.6044    3.1934   26.2269 H   0  0  0  0  0  0  0  0  0  0  0  0
   10.2251   -0.6008   21.4088 H   0  0  0  0  0  0  0  0  0  0  0  0
   14.0555    1.1008   22.3536 H   0  0  0  0  0  0  0  0  0  0  0  0
  1 12  1  0  0  0  0
  1 15  3  0  0  0  0
  2  4  2  0  0  0  0
  2  5  1  0  0  0  0
  3  6  1  0  0  0  0
  3  8  2  0  0  0  0
  4  9  1  0  0  0  0
  5 10  2  0  0  0  0
  6 11  2  0  0  0  0
  7  9  2  0  0  0  0
  7 10  1  0  0  0  0
  8 19  1  0  0  0  0
  9 16  1  0  0  0  0
 10 20  1  0  0  0  0
 11 13  1  0  0  0  0
 11 19  1  0  0  0  0
 12 13  2  0  0  0  0
 12 14  1  0  0  0  0
 13 18  1  0  0  0  0
 14 16  1  0  0  0  0
 14 17  2  0  0  0  0
  2 21  1  0  0  0  0
  3 22  1  0  0  0  0
  4 23  1  0  0  0  0
  5 24  1  0  0  0  0
  6 25  1  0  0  0  0
  7 26  1  0  0  0  0
  8 27  1  0  0  0  0
 16 28  1  0  0  0  0
 18 29  1  0  0  0  0
M  END
> <IC50 (uM)>

> <IC50 (uM) - std>

> <Average Inhibition @ 20 uM>

> <Average Inhibition @ 20 uM - std>

> <Average Inhibition @ 50 uM>

> <Average Inhibition @ 50 uM - std>
18.8

> <Trypsin IC50 (uM)>
4.8

> <Relative Solubility @ 20 uM>

> <Relative Solubility @ 100 uM>

> <Hybrid2>
-7.871647

> <docked_fragment>
x0830

> <Mpro-_dock>
-0.26054

> <site>
active-covalent

$$$$
VIR-GIT-7b3d3065-3
  -OEChem-05192003313D

 38 38  0     0  0  0  0  0  0999 V2000
   11.1551   -3.3998   24.3285 C   0  0  0  0  0  0  0  0  0  0  0  0
    6.8273   -5.0451   22.1785 C   0  0  0  0  0  0  0  0  0  0  0  0
    8.7528   -2.7810   24.1351 C   0  0  0  0  0  0  0  0  0  0  0  0
    9.4238   -5.1689   24.6924 C   0  0  0  0  0  0  0  0  0  0  0  0
    8.4386   -3.2459   22.7142 C   0  0  0  0  0  0  0  0  0  0  0  0
    9.0705   -5.5637   23.2578 C   0  0  0  0  0  0  0  0  0  0  0  0
    9.7719   -3.6840   24.8373 C   0  0  0  0  0  0  0  0  0  0  0  0
   14.1534   -2.2116   25.7501 C   0  0  0  0  0  0  0  0  0  0  0  0
   13.2043   -0.5467   24.1151 C   0  0  0  0  0  0  0  0  0  0  0  0
   11.2945   -1.6156   26.0730 C   0  0  0  0  0  0  0  0  0  0  0  0
    6.1945   -6.2758   22.7776 C   0  0  0  0  0  0  0  0  0  0  0  0
   13.2133   -1.9979   24.5726 C   0  0  0  0  0  0  0  0  0  0  0  0
    8.0600   -4.6583   22.7026 N   0  0  0  0  0  0  0  0  0  0  0  0
   11.8591   -2.3780   24.9668 N   0  0  0  0  0  0  0  0  0  0  0  0
   11.5998   -4.0659   23.3899 O   0  0  0  0  0  0  0  0  0  0  0  0
    6.2410   -4.4458   21.2733 O   0  0  0  0  0  0  0  0  0  0  0  0
    5.9916   -5.9522   24.4957 Cl  0  0  0  0  0  0  0  0  0  0  0  0
    9.1157   -1.7466   24.1036 H   0  0  0  0  0  0  0  0  0  0  0  0
    7.8226   -2.7737   24.7178 H   0  0  0  0  0  0  0  0  0  0  0  0
    8.5660   -5.3956   25.3386 H   0  0  0  0  0  0  0  0  0  0  0  0
   10.2570   -5.7909   25.0414 H   0  0  0  0  0  0  0  0  0  0  0  0
    7.6419   -2.6246   22.2928 H   0  0  0  0  0  0  0  0  0  0  0  0
    9.3145   -3.1338   22.0647 H   0  0  0  0  0  0  0  0  0  0  0  0
    9.9519   -5.5016   22.6095 H   0  0  0  0  0  0  0  0  0  0  0  0
    8.7406   -6.6041   23.2429 H   0  0  0  0  0  0  0  0  0  0  0  0
    9.7909   -3.4275   25.9039 H   0  0  0  0  0  0  0  0  0  0  0  0
   13.8692   -1.5776   26.5961 H   0  0  0  0  0  0  0  0  0  0  0  0
   14.1427   -3.2545   26.0863 H   0  0  0  0  0  0  0  0  0  0  0  0
   15.1846   -1.9658   25.4735 H   0  0  0  0  0  0  0  0  0  0  0  0
   12.9036    0.1166   24.9336 H   0  0  0  0  0  0  0  0  0  0  0  0
   12.5022   -0.4032   23.2873 H   0  0  0  0  0  0  0  0  0  0  0  0
   14.1971   -0.2264   23.7800 H   0  0  0  0  0  0  0  0  0  0  0  0
   11.5408   -2.1110   27.0238 H   0  0  0  0  0  0  0  0  0  0  0  0
   11.7147   -0.5991   26.0698 H   0  0  0  0  0  0  0  0  0  0  0  0
   10.2016   -1.5610   25.9605 H   0  0  0  0  0  0  0  0  0  0  0  0
    6.8606   -7.1188   22.6338 H   0  0  0  0  0  0  0  0  0  0  0  0
    5.2288   -6.4363   22.3123 H   0  0  0  0  0  0  0  0  0  0  0  0
   13.5162   -2.6413   23.7394 H   0  0  0  0  0  0  0  0  0  0  0  0
  1  7  1  0  0  0  0
  1 14  1  0  0  0  0
  1 15  2  0  0  0  0
  2 11  1  0  0  0  0
  2 13  1  0  0  0  0
  2 16  2  0  0  0  0
  3  5  1  0  0  0  0
  3  7  1  0  0  0  0
  4  6  1  0  0  0  0
  4  7  1  0  0  0  0
  5 13  1  0  0  0  0
  6 13  1  0  0  0  0
  8 12  1  0  0  0  0
  9 12  1  0  0  0  0
 10 14  1  0  0  0  0
 11 17  1  0  0  0  0
 12 14  1  0  0  0  0
  3 18  1  0  0  0  0
  3 19  1  0  0  0  0
  4 20  1  0  0  0  0
  4 21  1  0  0  0  0
  5 22  1  0  0  0  0
  5 23  1  0  0  0  0
  6 24  1  0  0  0  0
  6 25  1  0  0  0  0
  7 26  1  0  0  0  0
  8 27  1  0  0  0  0
  8 28  1  0  0  0  0
  8 29  1  0  0  0  0
  9 30  1  0  0  0  0
  9 31  1  0  0  0  0
  9 32  1  0  0  0  0
 10 33  1  0  0  0  0
 10 34  1  0  0  0  0
 10 35  1  0  0  0  0
 11 36  1  0  0  0  0
 11 37  1  0  0  0  0
 12 38  1  0  0  0  0
M  END
> <IC50 (uM)>

> <IC50 (uM) - std>

> <Average Inhibition @ 20 uM>

> <Average Inhibition @ 20 uM - std>
17.3

> <Average Inhibition @ 50 uM>
0.758

> <Average Inhibition @ 50 uM - std>
38.8

> <Trypsin IC50 (uM)>
0.0201

> <Relative Solubility @ 20 uM>
1.0

> <Relative Solubility @ 100 uM>
1.0

> <Hybrid2>
-7.862561

> <docked_fragment>
x0749

> <Mpro-_dock>
0.810779

> <site>
active-covalent

$$$$
AAR-POS-0daf6b7e-19
  -OEChem-05192003313D

 38 38  0     0  0  0  0  0  0999 V2000
   11.1551   -3.3998   24.3285 C   0  0  0  0  0  0  0  0  0  0  0  0
    6.8273   -5.0451   22.1785 C   0  0  0  0  0  0  0  0  0  0  0  0
    8.7528   -2.7810   24.1351 C   0  0  0  0  0  0  0  0  0  0  0  0
    9.4238   -5.1689   24.6924 C   0  0  0  0  0  0  0  0  0  0  0  0
    8.4386   -3.2459   22.7142 C   0  0  0  0  0  0  0  0  0  0  0  0
    9.0705   -5.5637   23.2578 C   0  0  0  0  0  0  0  0  0  0  0  0
    9.7719   -3.6840   24.8373 C   0  0  0  0  0  0  0  0  0  0  0  0
   14.1534   -2.2116   25.7501 C   0  0  0  0  0  0  0  0  0  0  0  0
   13.2043   -0.5467   24.1151 C   0  0  0  0  0  0  0  0  0  0  0  0
   11.2945   -1.6156   26.0730 C   0  0  0  0  0  0  0  0  0  0  0  0
    6.1945   -6.2758   22.7776 C   0  0  0  0  0  0  0  0  0  0  0  0
   13.2133   -1.9979   24.5726 C   0  0  0  0  0  0  0  0  0  0  0  0
    8.0600   -4.6583   22.7026 N   0  0  0  0  0  0  0  0  0  0  0  0
   11.8591   -2.3780   24.9668 N   0  0  0  0  0  0  0  0  0  0  0  0
   11.5998   -4.0659   23.3899 O   0  0  0  0  0  0  0  0  0  0  0  0
    6.2410   -4.4458   21.2733 O   0  0  0  0  0  0  0  0  0  0  0  0
    5.9916   -5.9522   24.4957 Cl  0  0  0  0  0  0  0  0  0  0  0  0
    9.1157   -1.7466   24.1036 H   0  0  0  0  0  0  0  0  0  0  0  0
    7.8226   -2.7737   24.7178 H   0  0  0  0  0  0  0  0  0  0  0  0
    8.5660   -5.3956   25.3386 H   0  0  0  0  0  0  0  0  0  0  0  0
   10.2570   -5.7909   25.0414 H   0  0  0  0  0  0  0  0  0  0  0  0
    7.6419   -2.6246   22.2928 H   0  0  0  0  0  0  0  0  0  0  0  0
    9.3145   -3.1338   22.0647 H   0  0  0  0  0  0  0  0  0  0  0  0
    9.9519   -5.5016   22.6095 H   0  0  0  0  0  0  0  0  0  0  0  0
    8.7406   -6.6041   23.2429 H   0  0  0  0  0  0  0  0  0  0  0  0
    9.7909   -3.4275   25.9039 H   0  0  0  0  0  0  0  0  0  0  0  0
   13.8692   -1.5776   26.5961 H   0  0  0  0  0  0  0  0  0  0  0  0
   14.1427   -3.2545   26.0863 H   0  0  0  0  0  0  0  0  0  0  0  0
   15.1846   -1.9658   25.4735 H   0  0  0  0  0  0  0  0  0  0  0  0
   12.9036    0.1166   24.9336 H   0  0  0  0  0  0  0  0  0  0  0  0
   12.5022   -0.4032   23.2873 H   0  0  0  0  0  0  0  0  0  0  0  0
   14.1971   -0.2264   23.7800 H   0  0  0  0  0  0  0  0  0  0  0  0
   11.5408   -2.1110   27.0238 H   0  0  0  0  0  0  0  0  0  0  0  0
   11.7147   -0.5991   26.0698 H   0  0  0  0  0  0  0  0  0  0  0  0
   10.2016   -1.5610   25.9605 H   0  0  0  0  0  0  0  0  0  0  0  0
    6.8606   -7.1188   22.6338 H   0  0  0  0  0  0  0  0  0  0  0  0
    5.2288   -6.4363   22.3123 H   0  0  0  0  0  0  0  0  0  0  0  0
   13.5162   -2.6413   23.7394 H   0  0  0  0  0  0  0  0  0  0  0  0
  1  7  1  0  0  0  0
  1 14  1  0  0  0  0
  1 15  2  0  0  0  0
  2 11  1  0  0  0  0
  2 13  1  0  0  0  0
  2 16  2  0  0  0  0
  3  5  1  0  0  0  0
  3  7  1  0  0  0  0
  4  6  1  0  0  0  0
  4  7  1  0  0  0  0
  5 13  1  0  0  0  0
  6 13  1  0  0  0  0
  8 12  1  0  0  0  0
  9 12  1  0  0  0  0
 10 14  1  0  0  0  0
 11 17  1  0  0  0  0
 12 14  1  0  0  0  0
  3 18  1  0  0  0  0
  3 19  1  0  0  0  0
  4 20  1  0  0  0  0
  4 21  1  0  0  0  0
  5 22  1  0  0  0  0
  5 23  1  0  0  0  0
  6 24  1  0  0  0  0
  6 25  1  0  0  0  0
  7 26  1  0  0  0  0
  8 27  1  0  0  0  0
  8 28  1  0  0  0  0
  8 29  1  0  0  0  0
  9 30  1  0  0  0  0
  9 31  1  0  0  0  0
  9 32  1  0  0  0  0
 10 33  1  0  0  0  0
 10 34  1  0  0  0  0
 10 35  1  0  0  0  0
 11 36  1  0  0  0  0
 11 37  1  0  0  0  0
 12 38  1  0  0  0  0
M  END
> <IC50 (uM)>

> <IC50 (uM) - std>

> <Average Inhibition @ 20 uM>

> <Average Inhibition @ 20 uM - std>
17.3

> <Average Inhibition @ 50 uM>
0.758

> <Average Inhibition @ 50 uM - std>
38.8

> <Trypsin IC50 (uM)>
0.0201

> <Relative Solubility @ 20 uM>
1.0

> <Relative Solubility @ 100 uM>
1.0

> <Hybrid2>
-7.862561

> <docked_fragment>
x0749

> <Mpro-_dock>
0.810779

> <site>
active-covalent

$$$$
GIA-UNK-3f36037a-7
  -OEChem-05192003313D

 32 33  0     0  0  0  0  0  0999 V2000
    7.8695   -5.7572   26.0141 C   0  0  0  0  0  0  0  0  0  0  0  0
    8.9483   -4.9256   25.7138 C   0  0  0  0  0  0  0  0  0  0  0  0
    6.5669   -5.2637   25.9404 C   0  0  0  0  0  0  0  0  0  0  0  0
    8.7246   -3.6005   25.3400 C   0  0  0  0  0  0  0  0  0  0  0  0
    6.3431   -3.9386   25.5666 C   0  0  0  0  0  0  0  0  0  0  0  0
    5.5145    0.7165   19.9388 C   0  0  0  0  0  0  0  0  0  0  0  0
    7.6714   -0.2135   20.4558 C   0  0  0  0  0  0  0  0  0  0  0  0
    5.8727    0.6648   18.6014 C   0  0  0  0  0  0  0  0  0  0  0  0
    7.9330   -0.2237   19.0952 C   0  0  0  0  0  0  0  0  0  0  0  0
    7.4220   -3.1070   25.2664 C   0  0  0  0  0  0  0  0  0  0  0  0
    6.4366    0.2670   20.8774 C   0  0  0  0  0  0  0  0  0  0  0  0
    6.1513   -0.9347   25.2853 C   0  0  0  0  0  0  0  0  0  0  0  0
    6.9959    0.4661   23.3228 C   0  0  0  0  0  0  0  0  0  0  0  0
    6.2656    0.4424   24.6545 C   0  0  0  0  0  0  0  0  0  0  0  0
    7.0625    0.2047   18.1538 N   0  0  0  0  0  0  0  0  0  0  0  0
    7.1952   -1.7623   24.8869 N   0  0  0  0  0  0  0  0  0  0  0  0
    6.1196    0.2986   22.2567 N   0  0  0  0  0  0  0  0  0  0  0  0
    5.2414   -1.2042   26.0639 O   0  0  0  0  0  0  0  0  0  0  0  0
    8.2096    0.6432   23.2697 O   0  0  0  0  0  0  0  0  0  0  0  0
    8.0433   -6.7892   26.3044 H   0  0  0  0  0  0  0  0  0  0  0  0
    9.9626   -5.3096   25.7702 H   0  0  0  0  0  0  0  0  0  0  0  0
    5.7269   -5.9118   26.1732 H   0  0  0  0  0  0  0  0  0  0  0  0
    9.5732   -2.9617   25.1082 H   0  0  0  0  0  0  0  0  0  0  0  0
    5.3236   -3.5650   25.5125 H   0  0  0  0  0  0  0  0  0  0  0  0
    4.5423    1.0975   20.2337 H   0  0  0  0  0  0  0  0  0  0  0  0
    8.4138   -0.5716   21.1613 H   0  0  0  0  0  0  0  0  0  0  0  0
    5.1893    1.0033   17.8296 H   0  0  0  0  0  0  0  0  0  0  0  0
    8.8811   -0.5894   18.7149 H   0  0  0  0  0  0  0  0  0  0  0  0
    5.2441    0.8239   24.5419 H   0  0  0  0  0  0  0  0  0  0  0  0
    6.8059    1.1238   25.3222 H   0  0  0  0  0  0  0  0  0  0  0  0
    7.8889   -1.3689   24.2544 H   0  0  0  0  0  0  0  0  0  0  0  0
    5.1313    0.1920   22.4746 H   0  0  0  0  0  0  0  0  0  0  0  0
  1  2  1  0  0  0  0
  1  3  2  0  0  0  0
  2  4  2  0  0  0  0
  3  5  1  0  0  0  0
  4 10  1  0  0  0  0
  5 10  2  0  0  0  0
  6  8  2  0  0  0  0
  6 11  1  0  0  0  0
  7  9  1  0  0  0  0
  7 11  2  0  0  0  0
  8 15  1  0  0  0  0
  9 15  2  0  0  0  0
 10 16  1  0  0  0  0
 11 17  1  0  0  0  0
 12 14  1  0  0  0  0
 12 16  1  0  0  0  0
 12 18  2  0  0  0  0
 13 14  1  0  0  0  0
 13 17  1  0  0  0  0
 13 19  2  0  0  0  0
  1 20  1  0  0  0  0
  2 21  1  0  0  0  0
  3 22  1  0  0  0  0
  4 23  1  0  0  0  0
  5 24  1  0  0  0  0
  6 25  1  0  0  0  0
  7 26  1  0  0  0  0
  8 27  1  0  0  0  0
  9 28  1  0  0  0  0
 14 29  1  0  0  0  0
 14 30  1  0  0  0  0
 16 31  1  0  0  0  0
 17 32  1  0  0  0  0
M  END
> <IC50 (uM)>

> <IC50 (uM) - std>

> <Average Inhibition @ 20 uM>

> <Average Inhibition @ 20 uM - std>

> <Average Inhibition @ 50 uM>

> <Average Inhibition @ 50 uM - std>
-16.6

> <Trypsin IC50 (uM)>
6.58

> <Relative Solubility @ 20 uM>

> <Relative Solubility @ 100 uM>

> <Hybrid2>
-7.789352

> <docked_fragment>
x0107

> <Mpro-_dock>
0.626083

> <site>
active-noncovalent

$$$$
MAT-POS-4e253971-1
  -OEChem-05192003313D

 40 42  0     0  0  0  0  0  0999 V2000
    6.2111   -4.0126   19.4021 C   0  0  0  0  0  0  0  0  0  0  0  0
   13.4771    0.2365   22.2392 C   0  0  0  0  0  0  0  0  0  0  0  0
   12.7870   -0.9171   21.8789 C   0  0  0  0  0  0  0  0  0  0  0  0
   13.0647    0.9805   23.3451 C   0  0  0  0  0  0  0  0  0  0  0  0
   11.6819   -1.3312   22.6229 C   0  0  0  0  0  0  0  0  0  0  0  0
   11.5254    1.3151   25.2216 C   0  0  0  0  0  0  0  0  0  0  0  0
    9.7301   -0.2524   25.6052 C   0  0  0  0  0  0  0  0  0  0  0  0
   11.9545    0.5785   24.1055 C   0  0  0  0  0  0  0  0  0  0  0  0
   11.2527   -0.5945   23.7390 C   0  0  0  0  0  0  0  0  0  0  0  0
   10.1425   -0.9964   24.4994 C   0  0  0  0  0  0  0  0  0  0  0  0
   10.4202    0.9012   25.9656 C   0  0  0  0  0  0  0  0  0  0  0  0
    7.1074   -4.1254   22.9682 C   0  0  0  0  0  0  0  0  0  0  0  0
    7.7728   -2.3899   21.4169 C   0  0  0  0  0  0  0  0  0  0  0  0
    6.9921   -3.1143   24.1044 C   0  0  0  0  0  0  0  0  0  0  0  0
    7.6772   -1.3289   22.5086 C   0  0  0  0  0  0  0  0  0  0  0  0
    6.9140   -4.4853   20.5935 C   0  0  0  0  0  0  0  0  0  0  0  0
    9.3546   -2.2289   24.1657 C   0  0  0  0  0  0  0  0  0  0  0  0
    5.6544   -3.6403   18.4546 N   0  0  0  0  0  0  0  0  0  0  0  0
    6.8408   -3.4964   21.6684 N   0  0  0  0  0  0  0  0  0  0  0  0
    7.9086   -1.9411   23.8668 N   0  3  0  0  0  0  0  0  0  0  0  0
    9.9104    1.8177   27.3299 Cl  0  0  0  0  0  0  0  0  0  0  0  0
   14.3374    0.5584   21.6597 H   0  0  0  0  0  0  0  0  0  0  0  0
   13.1088   -1.4957   21.0178 H   0  0  0  0  0  0  0  0  0  0  0  0
   13.6191    1.8790   23.6081 H   0  0  0  0  0  0  0  0  0  0  0  0
   11.1691   -2.2373   22.3089 H   0  0  0  0  0  0  0  0  0  0  0  0
   12.0605    2.2186   25.5101 H   0  0  0  0  0  0  0  0  0  0  0  0
    8.8679   -0.5774   26.1837 H   0  0  0  0  0  0  0  0  0  0  0  0
    8.1267   -4.5309   22.9793 H   0  0  0  0  0  0  0  0  0  0  0  0
    6.4238   -4.9662   23.1484 H   0  0  0  0  0  0  0  0  0  0  0  0
    7.5856   -1.9327   20.4357 H   0  0  0  0  0  0  0  0  0  0  0  0
    8.8015   -2.7709   21.4041 H   0  0  0  0  0  0  0  0  0  0  0  0
    5.9660   -2.7200   24.1690 H   0  0  0  0  0  0  0  0  0  0  0  0
    7.2612   -3.5579   25.0773 H   0  0  0  0  0  0  0  0  0  0  0  0
    8.4238   -0.5293   22.3702 H   0  0  0  0  0  0  0  0  0  0  0  0
    6.6737   -0.8756   22.5208 H   0  0  0  0  0  0  0  0  0  0  0  0
    6.4744   -5.4141   20.9680 H   0  0  0  0  0  0  0  0  0  0  0  0
    7.9717   -4.6654   20.3815 H   0  0  0  0  0  0  0  0  0  0  0  0
    9.7636   -2.7336   23.2838 H   0  0  0  0  0  0  0  0  0  0  0  0
    9.3681   -2.9437   24.9955 H   0  0  0  0  0  0  0  0  0  0  0  0
    7.6192   -1.2049   24.5677 H   0  0  0  0  0  0  0  0  0  0  0  0
  1 16  1  0  0  0  0
  1 18  3  0  0  0  0
  2  3  1  0  0  0  0
  2  4  2  0  0  0  0
  3  5  2  0  0  0  0
  4  8  1  0  0  0  0
  5  9  1  0  0  0  0
  6  8  2  0  0  0  0
  6 11  1  0  0  0  0
  7 10  1  0  0  0  0
  7 11  2  0  0  0  0
  8  9  1  0  0  0  0
  9 10  2  0  0  0  0
 10 17  1  0  0  0  0
 11 21  1  0  0  0  0
 12 14  1  0  0  0  0
 12 19  1  0  0  0  0
 13 15  1  0  0  0  0
 13 19  1  0  0  0  0
 14 20  1  0  0  0  0
 15 20  1  0  0  0  0
 16 19  1  0  0  0  0
 17 20  1  0  0  0  0
  2 22  1  0  0  0  0
  3 23  1  0  0  0  0
  4 24  1  0  0  0  0
  5 25  1  0  0  0  0
  6 26  1  0  0  0  0
  7 27  1  0  0  0  0
 12 28  1  0  0  0  0
 12 29  1  0  0  0  0
 13 30  1  0  0  0  0
 13 31  1  0  0  0  0
 14 32  1  0  0  0  0
 14 33  1  0  0  0  0
 15 34  1  0  0  0  0
 15 35  1  0  0  0  0
 16 36  1  0  0  0  0
 16 37  1  0  0  0  0
 17 38  1  0  0  0  0
 17 39  1  0  0  0  0
 20 40  1  0  0  0  0
M  CHG  1  20   1
M  END
> <IC50 (uM)>

> <IC50 (uM) - std>

> <Average Inhibition @ 20 uM>

> <Average Inhibition @ 20 uM - std>

> <Average Inhibition @ 50 uM>

> <Average Inhibition @ 50 uM - std>
-1.08

> <Trypsin IC50 (uM)>
0.303

> <Relative Solubility @ 20 uM>

> <Relative Solubility @ 100 uM>

> <Hybrid2>
-7.785496

> <docked_fragment>
x0830

> <Mpro-_dock>
1.05441

> <site>
active-covalent

$$$$
BAR-COM-4e090d3a-38
  -OEChem-05192003313D

 46 48  0     1  0  0  0  0  0999 V2000
   14.3339   -1.6844   24.3052 C   0  0  0  0  0  0  0  0  0  0  0  0
   14.5184   -2.1234   22.9942 C   0  0  0  0  0  0  0  0  0  0  0  0
   13.2969   -0.8012   24.6056 C   0  0  0  0  0  0  0  0  0  0  0  0
   13.6660   -1.6791   21.9835 C   0  0  0  0  0  0  0  0  0  0  0  0
   12.4445   -0.3569   23.5949 C   0  0  0  0  0  0  0  0  0  0  0  0
    6.1867   -0.3757   18.2613 C   0  0  0  0  0  0  0  0  0  0  0  0
    5.9590   -0.1589   19.5998 C   0  0  0  0  0  0  0  0  0  0  0  0
    8.0889    0.0931   19.0933 C   0  0  0  0  0  0  0  0  0  0  0  0
   12.6290   -0.7959   22.2838 C   0  0  0  0  0  0  0  0  0  0  0  0
   12.1650    3.6861   22.8214 C   0  0  0  0  0  0  0  0  0  0  0  0
   12.3360    2.1456   21.4513 C   0  0  0  0  0  0  0  0  0  0  0  0
    9.4425   -1.1533   21.7696 C   0  0  0  0  0  0  0  0  0  0  0  0
   11.5778    4.6109   23.7973 C   0  0  0  0  0  0  0  0  0  0  0  0
    7.1421   -1.8837   22.4967 C   0  0  0  0  0  0  0  0  0  0  0  0
   12.1943    0.9817   20.4970 C   0  0  0  0  0  0  0  0  0  0  0  0
    7.4822    0.4528   21.5147 C   0  0  0  0  0  0  0  0  0  0  0  0
   11.7003   -0.3114   21.1834 C   0  0  2  0  0  0  0  0  0  0  0  0
    8.0953   -0.6997   22.3342 C   0  0  2  0  0  0  0  0  0  0  0  0
    7.5145   -0.2176   17.9524 N   0  0  0  0  0  0  0  0  0  0  0  0
   11.4335    2.7060   22.2162 N   0  0  0  0  0  0  0  0  0  0  0  0
   13.4522    3.7519   22.4687 N   0  0  0  0  0  0  0  0  0  0  0  0
    7.1868    0.1400   20.1196 N   0  0  0  0  0  0  0  0  0  0  0  0
   10.3623   -0.1181   21.6898 N   0  0  0  0  0  0  0  0  0  0  0  0
    9.6641   -2.3129   21.4267 O   0  0  0  0  0  0  0  0  0  0  0  0
   13.5692    2.7092   21.5411 O   0  0  0  0  0  0  0  0  0  0  0  0
   14.9969   -2.0315   25.0924 H   0  0  0  0  0  0  0  0  0  0  0  0
   15.3251   -2.8120   22.7603 H   0  0  0  0  0  0  0  0  0  0  0  0
   13.1523   -0.4600   25.6264 H   0  0  0  0  0  0  0  0  0  0  0  0
   13.8174   -2.0264   20.9648 H   0  0  0  0  0  0  0  0  0  0  0  0
   11.6393    0.3314   23.8382 H   0  0  0  0  0  0  0  0  0  0  0  0
    5.4619   -0.6376   17.5042 H   0  0  0  0  0  0  0  0  0  0  0  0
    5.0631   -0.1905   20.2040 H   0  0  0  0  0  0  0  0  0  0  0  0
    9.1421    0.2925   19.2363 H   0  0  0  0  0  0  0  0  0  0  0  0
   11.6562    4.2178   24.8277 H   0  0  0  0  0  0  0  0  0  0  0  0
   12.0678    5.6032   23.7873 H   0  0  0  0  0  0  0  0  0  0  0  0
   10.5061    4.8070   23.6021 H   0  0  0  0  0  0  0  0  0  0  0  0
    6.8984   -2.3262   21.5253 H   0  0  0  0  0  0  0  0  0  0  0  0
    6.2045   -1.5576   22.9610 H   0  0  0  0  0  0  0  0  0  0  0  0
    7.5623   -2.6654   23.1377 H   0  0  0  0  0  0  0  0  0  0  0  0
   13.1776    0.8074   20.0380 H   0  0  0  0  0  0  0  0  0  0  0  0
   11.5327    1.2638   19.6673 H   0  0  0  0  0  0  0  0  0  0  0  0
    8.1466    1.3258   21.5101 H   0  0  0  0  0  0  0  0  0  0  0  0
    6.5456    0.7849   21.9804 H   0  0  0  0  0  0  0  0  0  0  0  0
   11.6265   -1.0992   20.4229 H   0  0  0  0  0  0  0  0  0  0  0  0
    8.2926   -0.3107   23.3430 H   0  0  0  0  0  0  0  0  0  0  0  0
   10.0846    0.8087   21.9985 H   0  0  0  0  0  0  0  0  0  0  0  0
  1  2  1  0  0  0  0
  1  3  2  0  0  0  0
  2  4  2  0  0  0  0
  3  5  1  0  0  0  0
  4  9  1  0  0  0  0
  5  9  2  0  0  0  0
  6  7  2  0  0  0  0
  6 19  1  0  0  0  0
  7 22  1  0  0  0  0
  8 19  2  0  0  0  0
  8 22  1  0  0  0  0
  9 17  1  0  0  0  0
 10 13  1  0  0  0  0
 10 20  1  0  0  0  0
 10 21  2  0  0  0  0
 11 15  1  0  0  0  0
 11 20  2  0  0  0  0
 11 25  1  0  0  0  0
 12 18  1  0  0  0  0
 12 23  1  0  0  0  0
 12 24  2  0  0  0  0
 14 18  1  0  0  0  0
 15 17  1  0  0  0  0
 16 18  1  0  0  0  0
 16 22  1  0  0  0  0
 17 23  1  0  0  0  0
 21 25  1  0  0  0  0
  1 26  1  0  0  0  0
  2 27  1  0  0  0  0
  3 28  1  0  0  0  0
  4 29  1  0  0  0  0
  5 30  1  0  0  0  0
  6 31  1  0  0  0  0
  7 32  1  0  0  0  0
  8 33  1  0  0  0  0
 13 34  1  0  0  0  0
 13 35  1  0  0  0  0
 13 36  1  0  0  0  0
 14 37  1  0  0  0  0
 14 38  1  0  0  0  0
 14 39  1  0  0  0  0
 15 40  1  0  0  0  0
 15 41  1  0  0  0  0
 16 42  1  0  0  0  0
 16 43  1  0  0  0  0
 17 44  1  0  0  0  0
 18 45  1  0  0  0  0
 23 46  1  0  0  0  0
M  END
> <IC50 (uM)>

> <IC50 (uM) - std>

> <Average Inhibition @ 20 uM>

> <Average Inhibition @ 20 uM - std>

> <Average Inhibition @ 50 uM>

> <Average Inhibition @ 50 uM - std>
14.8

> <Trypsin IC50 (uM)>
1.2

> <Relative Solubility @ 20 uM>

> <Relative Solubility @ 100 uM>

> <Hybrid2>
-7.774179

> <docked_fragment>
x0678

> <Mpro-_dock>
2.55209

> <site>
active-noncovalent

$$$$
BAR-COM-4e090d3a-54
  -OEChem-05192003313D

 50 52  0     0  0  0  0  0  0999 V2000
    6.4841    0.7203   17.6494 C   0  0  0  0  0  0  0  0  0  0  0  0
   13.8891   -0.0560   23.3361 C   0  0  0  0  0  0  0  0  0  0  0  0
    7.6035    0.0390   18.1271 C   0  0  0  0  0  0  0  0  0  0  0  0
    5.5132    1.1779   18.5404 C   0  0  0  0  0  0  0  0  0  0  0  0
   13.1232   -1.0294   22.7191 C   0  0  0  0  0  0  0  0  0  0  0  0
    6.7813    0.2727   20.3869 C   0  0  0  0  0  0  0  0  0  0  0  0
   13.3515    0.5920   24.4300 C   0  0  0  0  0  0  0  0  0  0  0  0
    7.7521   -0.1848   19.4959 C   0  0  0  0  0  0  0  0  0  0  0  0
    5.6618    0.9540   19.9091 C   0  0  0  0  0  0  0  0  0  0  0  0
   11.8705   -1.2906   23.2369 C   0  0  0  0  0  0  0  0  0  0  0  0
    9.2004   -1.1888   21.3056 C   0  0  0  0  0  0  0  0  0  0  0  0
    4.4739    4.0897   23.8581 C   0  0  0  0  0  0  0  0  0  0  0  0
    5.5254    4.8860   21.7505 C   0  0  0  0  0  0  0  0  0  0  0  0
    5.7710    4.4460   24.5642 C   0  0  0  0  0  0  0  0  0  0  0  0
    6.7681    5.2017   22.5657 C   0  0  0  0  0  0  0  0  0  0  0  0
   10.9996   -2.3382   22.6059 C   0  0  0  0  0  0  0  0  0  0  0  0
    3.5719    3.3305   21.6548 C   0  0  0  0  0  0  0  0  0  0  0  0
    3.9958    2.5753   20.4105 C   0  0  0  0  0  0  0  0  0  0  0  0
   12.1225    0.3159   24.9153 N   0  0  0  0  0  0  0  0  0  0  0  0
   11.3699   -0.6410   24.3090 N   0  0  0  0  0  0  0  0  0  0  0  0
    8.8722   -0.8662   19.9734 N   0  0  0  0  0  0  0  0  0  0  0  0
   10.4145   -1.8803   21.3668 N   0  0  0  0  0  0  0  0  0  0  0  0
    4.7937    3.7475   22.4219 N   0  3  0  0  0  0  0  0  0  0  0  0
    8.5329   -0.9149   22.3001 O   0  0  0  0  0  0  0  0  0  0  0  0
    6.4147    5.5392   23.9079 O   0  0  0  0  0  0  0  0  0  0  0  0
    4.7079    1.4034   20.7846 O   0  0  0  0  0  0  0  0  0  0  0  0
    6.3692    0.8952   16.5837 H   0  0  0  0  0  0  0  0  0  0  0  0
   14.8799    0.1895   22.9717 H   0  0  0  0  0  0  0  0  0  0  0  0
    8.3534   -0.3135   17.4235 H   0  0  0  0  0  0  0  0  0  0  0  0
    4.6441    1.7085   18.1617 H   0  0  0  0  0  0  0  0  0  0  0  0
   13.5038   -1.5645   21.8556 H   0  0  0  0  0  0  0  0  0  0  0  0
    6.8929    0.1009   21.4551 H   0  0  0  0  0  0  0  0  0  0  0  0
   13.9010    1.3635   24.9565 H   0  0  0  0  0  0  0  0  0  0  0  0
    3.9984    3.2157   24.3132 H   0  0  0  0  0  0  0  0  0  0  0  0
    3.7781    4.9357   23.8406 H   0  0  0  0  0  0  0  0  0  0  0  0
    4.8361    5.7367   21.7188 H   0  0  0  0  0  0  0  0  0  0  0  0
    5.7830    4.5670   20.7360 H   0  0  0  0  0  0  0  0  0  0  0  0
    5.5577    4.7575   25.5917 H   0  0  0  0  0  0  0  0  0  0  0  0
    6.4547    3.5901   24.6155 H   0  0  0  0  0  0  0  0  0  0  0  0
    7.4761    4.3644   22.5686 H   0  0  0  0  0  0  0  0  0  0  0  0
    7.2826    6.0655   22.1331 H   0  0  0  0  0  0  0  0  0  0  0  0
   11.5781   -3.2434   22.3916 H   0  0  0  0  0  0  0  0  0  0  0  0
   10.1824   -2.6255   23.2759 H   0  0  0  0  0  0  0  0  0  0  0  0
    2.9798    2.7090   22.3324 H   0  0  0  0  0  0  0  0  0  0  0  0
    3.0294    4.2466   21.4068 H   0  0  0  0  0  0  0  0  0  0  0  0
    3.1117    2.2668   19.8439 H   0  0  0  0  0  0  0  0  0  0  0  0
    4.6324    3.1873   19.7632 H   0  0  0  0  0  0  0  0  0  0  0  0
    9.5536   -1.1795   19.2741 H   0  0  0  0  0  0  0  0  0  0  0  0
   10.9078   -2.0694   20.4999 H   0  0  0  0  0  0  0  0  0  0  0  0
    5.4270    2.9359   22.4310 H   0  0  0  0  0  0  0  0  0  0  0  0
  1  3  2  0  0  0  0
  1  4  1  0  0  0  0
  2  5  2  0  0  0  0
  2  7  1  0  0  0  0
  3  8  1  0  0  0  0
  4  9  2  0  0  0  0
  5 10  1  0  0  0  0
  6  8  2  0  0  0  0
  6  9  1  0  0  0  0
  7 19  2  0  0  0  0
  8 21  1  0  0  0  0
  9 26  1  0  0  0  0
 10 16  1  0  0  0  0
 10 20  2  0  0  0  0
 11 21  1  0  0  0  0
 11 22  1  0  0  0  0
 11 24  2  0  0  0  0
 12 14  1  0  0  0  0
 12 23  1  0  0  0  0
 13 15  1  0  0  0  0
 13 23  1  0  0  0  0
 14 25  1  0  0  0  0
 15 25  1  0  0  0  0
 16 22  1  0  0  0  0
 17 18  1  0  0  0  0
 17 23  1  0  0  0  0
 18 26  1  0  0  0  0
 19 20  1  0  0  0  0
  1 27  1  0  0  0  0
  2 28  1  0  0  0  0
  3 29  1  0  0  0  0
  4 30  1  0  0  0  0
  5 31  1  0  0  0  0
  6 32  1  0  0  0  0
  7 33  1  0  0  0  0
 12 34  1  0  0  0  0
 12 35  1  0  0  0  0
 13 36  1  0  0  0  0
 13 37  1  0  0  0  0
 14 38  1  0  0  0  0
 14 39  1  0  0  0  0
 15 40  1  0  0  0  0
 15 41  1  0  0  0  0
 16 42  1  0  0  0  0
 16 43  1  0  0  0  0
 17 44  1  0  0  0  0
 17 45  1  0  0  0  0
 18 46  1  0  0  0  0
 18 47  1  0  0  0  0
 21 48  1  0  0  0  0
 22 49  1  0  0  0  0
 23 50  1  0  0  0  0
M  CHG  1  23   1
M  END
> <IC50 (uM)>

> <IC50 (uM) - std>

> <Average Inhibition @ 20 uM>

> <Average Inhibition @ 20 uM - std>
1.16

> <Average Inhibition @ 50 uM>
0.388

> <Average Inhibition @ 50 uM - std>
1.22

> <Trypsin IC50 (uM)>
0.671

> <Relative Solubility @ 20 uM>
1.0

> <Relative Solubility @ 100 uM>
0.99

> <Hybrid2>
-7.753376

> <docked_fragment>
x0678

> <Mpro-_dock>
6.099532

> <site>
active-noncovalent

$$$$
GIA-UNK-eaadd1d4-3
  -OEChem-05192003313D

 45 47  0     0  0  0  0  0  0999 V2000
   13.3785   -0.6750   23.8953 C   0  0  0  0  0  0  0  0  0  0  0  0
   12.3101    0.0640   24.4029 C   0  0  0  0  0  0  0  0  0  0  0  0
   13.1367   -1.7868   23.0883 C   0  0  0  0  0  0  0  0  0  0  0  0
   10.9996   -0.3088   24.1038 C   0  0  0  0  0  0  0  0  0  0  0  0
   11.8263   -2.1596   22.7891 C   0  0  0  0  0  0  0  0  0  0  0  0
   10.7577   -1.4206   23.2969 C   0  0  0  0  0  0  0  0  0  0  0  0
    6.8112   -4.9576   26.3708 C   0  0  0  0  0  0  0  0  0  0  0  0
    7.9145   -2.7832   25.9864 C   0  0  0  0  0  0  0  0  0  0  0  0
    6.5878   -3.8751   24.1130 C   0  0  0  0  0  0  0  0  0  0  0  0
    9.1960   -3.2419   25.2956 C   0  0  0  0  0  0  0  0  0  0  0  0
    7.9073   -4.2901   23.4667 C   0  0  0  0  0  0  0  0  0  0  0  0
    5.6239   -6.8061   27.5084 C   0  0  0  0  0  0  0  0  0  0  0  0
    4.2716   -5.0641   26.4177 C   0  0  0  0  0  0  0  0  0  0  0  0
    4.6650   -6.7426   28.6887 C   0  0  0  0  0  0  0  0  0  0  0  0
    3.3652   -5.0771   27.6423 C   0  0  0  0  0  0  0  0  0  0  0  0
    6.7053   -3.6414   25.6166 C   0  0  0  0  0  0  0  0  0  0  0  0
    5.6121   -5.5414   26.7733 N   0  0  0  0  0  0  0  0  0  0  0  0
    8.9910   -3.3372   23.8256 N   0  0  0  0  0  0  0  0  0  0  0  0
    7.9246   -5.4400   26.5930 O   0  0  0  0  0  0  0  0  0  0  0  0
    8.2145   -0.9073   23.5015 O   0  0  0  0  0  0  0  0  0  0  0  0
    9.0357   -2.2181   21.5127 O   0  0  0  0  0  0  0  0  0  0  0  0
    3.3570   -6.3748   28.2430 O   0  0  0  0  0  0  0  0  0  0  0  0
    9.0993   -1.8939   22.9213 S   0  0  0  0  0  0  0  0  0  0  0  0
   14.3992   -0.3857   24.1283 H   0  0  0  0  0  0  0  0  0  0  0  0
   12.4979    0.9290   25.0321 H   0  0  0  0  0  0  0  0  0  0  0  0
   13.9688   -2.3623   22.6938 H   0  0  0  0  0  0  0  0  0  0  0  0
   10.1745    0.2734   24.5053 H   0  0  0  0  0  0  0  0  0  0  0  0
   11.6494   -3.0282   22.1606 H   0  0  0  0  0  0  0  0  0  0  0  0
    8.0674   -2.7801   27.0692 H   0  0  0  0  0  0  0  0  0  0  0  0
    7.7075   -1.7508   25.6853 H   0  0  0  0  0  0  0  0  0  0  0  0
    6.2451   -2.9435   23.6419 H   0  0  0  0  0  0  0  0  0  0  0  0
    5.8259   -4.6355   23.8981 H   0  0  0  0  0  0  0  0  0  0  0  0
    9.9902   -2.5118   25.5064 H   0  0  0  0  0  0  0  0  0  0  0  0
    9.5274   -4.2143   25.6870 H   0  0  0  0  0  0  0  0  0  0  0  0
    8.1910   -5.3091   23.7736 H   0  0  0  0  0  0  0  0  0  0  0  0
    7.7758   -4.2999   22.3737 H   0  0  0  0  0  0  0  0  0  0  0  0
    6.6329   -7.0567   27.8488 H   0  0  0  0  0  0  0  0  0  0  0  0
    5.3021   -7.5793   26.8008 H   0  0  0  0  0  0  0  0  0  0  0  0
    3.8897   -5.7574   25.6591 H   0  0  0  0  0  0  0  0  0  0  0  0
    4.2911   -4.0644   25.9806 H   0  0  0  0  0  0  0  0  0  0  0  0
    4.5897   -7.7271   29.1611 H   0  0  0  0  0  0  0  0  0  0  0  0
    5.0092   -6.0330   29.4506 H   0  0  0  0  0  0  0  0  0  0  0  0
    3.6773   -4.3299   28.3816 H   0  0  0  0  0  0  0  0  0  0  0  0
    2.3376   -4.8429   27.3467 H   0  0  0  0  0  0  0  0  0  0  0  0
    5.8047   -3.1627   25.9905 H   0  0  0  0  0  0  0  0  0  0  0  0
  1  2  1  0  0  0  0
  1  3  2  0  0  0  0
  2  4  2  0  0  0  0
  3  5  1  0  0  0  0
  4  6  1  0  0  0  0
  5  6  2  0  0  0  0
  6 23  1  0  0  0  0
  7 16  1  0  0  0  0
  7 17  1  0  0  0  0
  7 19  2  0  0  0  0
  8 10  1  0  0  0  0
  8 16  1  0  0  0  0
  9 11  1  0  0  0  0
  9 16  1  0  0  0  0
 10 18  1  0  0  0  0
 11 18  1  0  0  0  0
 12 14  1  0  0  0  0
 12 17  1  0  0  0  0
 13 15  1  0  0  0  0
 13 17  1  0  0  0  0
 14 22  1  0  0  0  0
 15 22  1  0  0  0  0
 18 23  1  0  0  0  0
 20 23  2  0  0  0  0
 21 23  2  0  0  0  0
  1 24  1  0  0  0  0
  2 25  1  0  0  0  0
  3 26  1  0  0  0  0
  4 27  1  0  0  0  0
  5 28  1  0  0  0  0
  8 29  1  0  0  0  0
  8 30  1  0  0  0  0
  9 31  1  0  0  0  0
  9 32  1  0  0  0  0
 10 33  1  0  0  0  0
 10 34  1  0  0  0  0
 11 35  1  0  0  0  0
 11 36  1  0  0  0  0
 12 37  1  0  0  0  0
 12 38  1  0  0  0  0
 13 39  1  0  0  0  0
 13 40  1  0  0  0  0
 14 41  1  0  0  0  0
 14 42  1  0  0  0  0
 15 43  1  0  0  0  0
 15 44  1  0  0  0  0
 16 45  1  0  0  0  0
M  END
> <IC50 (uM)>

> <IC50 (uM) - std>

> <Average Inhibition @ 20 uM>

> <Average Inhibition @ 20 uM - std>
1.87

> <Average Inhibition @ 50 uM>
0.14

> <Average Inhibition @ 50 uM - std>
5.52

> <Trypsin IC50 (uM)>
0.277

> <Relative Solubility @ 20 uM>
1.0

> <Relative Solubility @ 100 uM>
0.99

> <Hybrid2>
-7.749019

> <docked_fragment>
x0072

> <Mpro-_dock>
1.161635

> <site>
active-noncovalent

$$$$
WAR-XCH-b6889685-23
  -OEChem-05192003313D

 44 45  0     0  0  0  0  0  0999 V2000
   10.1202   -2.9794   23.5236 C   0  0  0  0  0  0  0  0  0  0  0  0
    9.2571   -1.2175   24.9334 C   0  0  0  0  0  0  0  0  0  0  0  0
    9.6091   -3.9337   24.4032 C   0  0  0  0  0  0  0  0  0  0  0  0
    8.7459   -2.1717   25.8130 C   0  0  0  0  0  0  0  0  0  0  0  0
    9.9443   -1.6213   23.7887 C   0  0  0  0  0  0  0  0  0  0  0  0
    8.9219   -3.5298   25.5479 C   0  0  0  0  0  0  0  0  0  0  0  0
   12.5032    0.5604   23.4189 C   0  0  0  0  0  0  0  0  0  0  0  0
   10.2557    1.7324   23.3432 C   0  0  0  0  0  0  0  0  0  0  0  0
   11.8935   -0.6044   22.6306 C   0  0  0  0  0  0  0  0  0  0  0  0
    9.7074    0.5415   22.5548 C   0  0  0  0  0  0  0  0  0  0  0  0
   11.7642    1.8671   23.1189 C   0  0  0  0  0  0  0  0  0  0  0  0
   13.1128    4.6058   22.4271 C   0  0  0  0  0  0  0  0  0  0  0  0
   12.1567    5.2815   24.6640 C   0  0  0  0  0  0  0  0  0  0  0  0
   12.0704    4.3140   23.4945 C   0  0  0  0  0  0  0  0  0  0  0  0
   10.4539   -0.6692   22.9118 N   0  0  0  0  0  0  0  0  0  0  0  0
    7.5637   -3.7223   27.8333 N   0  0  0  0  0  0  0  0  0  0  0  0
   12.2921    2.9365   24.0053 N   0  3  0  0  0  0  0  0  0  0  0  0
    7.2344   -5.4669   25.9643 O   0  0  0  0  0  0  0  0  0  0  0  0
    9.3972   -5.4377   27.2563 O   0  0  0  0  0  0  0  0  0  0  0  0
    8.2823   -4.7235   26.6498 S   0  0  0  0  0  0  0  0  0  0  0  0
   10.6544   -3.3053   22.6347 H   0  0  0  0  0  0  0  0  0  0  0  0
    9.1135   -0.1617   25.1490 H   0  0  0  0  0  0  0  0  0  0  0  0
    9.7522   -4.9889   24.1867 H   0  0  0  0  0  0  0  0  0  0  0  0
    8.2124   -1.8456   26.7019 H   0  0  0  0  0  0  0  0  0  0  0  0
   12.4775    0.3410   24.4817 H   0  0  0  0  0  0  0  0  0  0  0  0
   13.5458    0.6725   23.1305 H   0  0  0  0  0  0  0  0  0  0  0  0
    9.7670    2.6390   22.9996 H   0  0  0  0  0  0  0  0  0  0  0  0
   10.0342    1.6137   24.3973 H   0  0  0  0  0  0  0  0  0  0  0  0
   12.0645   -0.4309   21.5680 H   0  0  0  0  0  0  0  0  0  0  0  0
   12.3741   -1.5431   22.9045 H   0  0  0  0  0  0  0  0  0  0  0  0
    8.6432    0.4033   22.7614 H   0  0  0  0  0  0  0  0  0  0  0  0
    9.8162    0.7526   21.4875 H   0  0  0  0  0  0  0  0  0  0  0  0
   11.9725    2.2008   22.0970 H   0  0  0  0  0  0  0  0  0  0  0  0
   14.1191    4.5958   22.8588 H   0  0  0  0  0  0  0  0  0  0  0  0
   13.0839    3.8626   21.6224 H   0  0  0  0  0  0  0  0  0  0  0  0
   12.9508    5.5926   21.9800 H   0  0  0  0  0  0  0  0  0  0  0  0
   13.1622    5.2722   25.0978 H   0  0  0  0  0  0  0  0  0  0  0  0
   11.4457    5.0208   25.4555 H   0  0  0  0  0  0  0  0  0  0  0  0
   11.9417    6.3061   24.3419 H   0  0  0  0  0  0  0  0  0  0  0  0
   11.0649    4.3242   23.0616 H   0  0  0  0  0  0  0  0  0  0  0  0
    6.5379   -3.6823   27.8724 H   0  0  0  0  0  0  0  0  0  0  0  0
    8.0169   -3.6618   28.7532 H   0  0  0  0  0  0  0  0  0  0  0  0
   11.8591    2.8453   24.9335 H   0  0  0  0  0  0  0  0  0  0  0  0
   13.2992    2.7855   24.1478 H   0  0  0  0  0  0  0  0  0  0  0  0
  1  3  2  0  0  0  0
  1  5  1  0  0  0  0
  2  4  1  0  0  0  0
  2  5  2  0  0  0  0
  3  6  1  0  0  0  0
  4  6  2  0  0  0  0
  5 15  1  0  0  0  0
  6 20  1  0  0  0  0
  7  9  1  0  0  0  0
  7 11  1  0  0  0  0
  8 10  1  0  0  0  0
  8 11  1  0  0  0  0
  9 15  1  0  0  0  0
 10 15  1  0  0  0  0
 11 17  1  0  0  0  0
 12 14  1  0  0  0  0
 13 14  1  0  0  0  0
 14 17  1  0  0  0  0
 16 20  1  0  0  0  0
 18 20  2  0  0  0  0
 19 20  2  0  0  0  0
  1 21  1  0  0  0  0
  2 22  1  0  0  0  0
  3 23  1  0  0  0  0
  4 24  1  0  0  0  0
  7 25  1  0  0  0  0
  7 26  1  0  0  0  0
  8 27  1  0  0  0  0
  8 28  1  0  0  0  0
  9 29  1  0  0  0  0
  9 30  1  0  0  0  0
 10 31  1  0  0  0  0
 10 32  1  0  0  0  0
 11 33  1  0  0  0  0
 12 34  1  0  0  0  0
 12 35  1  0  0  0  0
 12 36  1  0  0  0  0
 13 37  1  0  0  0  0
 13 38  1  0  0  0  0
 13 39  1  0  0  0  0
 14 40  1  0  0  0  0
 16 41  1  0  0  0  0
 16 42  1  0  0  0  0
 17 43  1  0  0  0  0
 17 44  1  0  0  0  0
M  CHG  1  17   1
M  END
> <IC50 (uM)>

> <IC50 (uM) - std>

> <Average Inhibition @ 20 uM>

> <Average Inhibition @ 20 uM - std>
-1.27

> <Average Inhibition @ 50 uM>
0.227

> <Average Inhibition @ 50 uM - std>
-1.56

> <Trypsin IC50 (uM)>
2.97

> <Relative Solubility @ 20 uM>
1.0

> <Relative Solubility @ 100 uM>
0.98

> <Hybrid2>
-7.678153

> <docked_fragment>
x0395

> <Mpro-_dock>
1.516358

> <site>
active-noncovalent

$$$$
MAK-UNK-9159f8ed-6
  -OEChem-05192003313D

 45 47  0     0  0  0  0  0  0999 V2000
   12.6085    1.5588   23.2903 C   0  0  0  0  0  0  0  0  0  0  0  0
    9.9228   -5.4673   24.5131 C   0  0  0  0  0  0  0  0  0  0  0  0
   11.8726    0.4816   23.7839 C   0  0  0  0  0  0  0  0  0  0  0  0
    8.7135   -5.5657   25.2012 C   0  0  0  0  0  0  0  0  0  0  0  0
   11.9677    2.7591   22.9834 C   0  0  0  0  0  0  0  0  0  0  0  0
   10.4390   -4.2135   24.1857 C   0  0  0  0  0  0  0  0  0  0  0  0
    9.8548    1.8050   23.6636 C   0  0  0  0  0  0  0  0  0  0  0  0
    8.5364   -3.1564   25.2344 C   0  0  0  0  0  0  0  0  0  0  0  0
   10.4957    0.6047   23.9705 C   0  0  0  0  0  0  0  0  0  0  0  0
    8.0203   -4.4103   25.5618 C   0  0  0  0  0  0  0  0  0  0  0  0
   10.5908    2.8822   23.1700 C   0  0  0  0  0  0  0  0  0  0  0  0
    9.7458   -3.0580   24.5463 C   0  0  0  0  0  0  0  0  0  0  0  0
    5.9720   -3.4442   26.6963 C   0  0  0  0  0  0  0  0  0  0  0  0
    9.7184   -0.5328   24.4915 C   0  0  0  0  0  0  0  0  0  0  0  0
    4.8271   -4.0411   27.4829 C   0  0  0  0  0  0  0  0  0  0  0  0
    4.7952   -5.4826   27.0159 C   0  0  0  0  0  0  0  0  0  0  0  0
    6.2469   -5.7842   26.7077 C   0  0  0  0  0  0  0  0  0  0  0  0
    9.1478    5.0839   25.2316 C   0  0  0  0  0  0  0  0  0  0  0  0
    6.7840   -4.5117   26.2659 N   0  0  0  0  0  0  0  0  0  0  0  0
   10.2626   -1.8042   24.2186 N   0  0  0  0  0  0  0  0  0  0  0  0
    9.9361    4.1115   22.8555 N   0  0  0  0  0  0  0  0  0  0  0  0
    6.1192   -2.2381   26.5620 O   0  0  0  0  0  0  0  0  0  0  0  0
    8.6582   -0.3546   25.0873 O   0  0  0  0  0  0  0  0  0  0  0  0
   11.5850    5.3867   24.3738 O   0  0  0  0  0  0  0  0  0  0  0  0
    9.7438    6.6914   23.2546 O   0  0  0  0  0  0  0  0  0  0  0  0
   10.2264    5.4716   23.8712 S   0  0  0  0  0  0  0  0  0  0  0  0
   13.6808    1.4632   23.1456 H   0  0  0  0  0  0  0  0  0  0  0  0
   10.4631   -6.3669   24.2332 H   0  0  0  0  0  0  0  0  0  0  0  0
   12.3824   -0.4493   24.0193 H   0  0  0  0  0  0  0  0  0  0  0  0
    8.3208   -6.5484   25.4502 H   0  0  0  0  0  0  0  0  0  0  0  0
   12.5506    3.5923   22.5989 H   0  0  0  0  0  0  0  0  0  0  0  0
   11.3819   -4.1496   23.6485 H   0  0  0  0  0  0  0  0  0  0  0  0
    8.7811    1.9018   23.8093 H   0  0  0  0  0  0  0  0  0  0  0  0
    7.9954   -2.2551   25.5155 H   0  0  0  0  0  0  0  0  0  0  0  0
    5.0583   -3.9671   28.5502 H   0  0  0  0  0  0  0  0  0  0  0  0
    3.8908   -3.5212   27.2659 H   0  0  0  0  0  0  0  0  0  0  0  0
    4.3750   -6.1557   27.7686 H   0  0  0  0  0  0  0  0  0  0  0  0
    4.1914   -5.5690   26.1043 H   0  0  0  0  0  0  0  0  0  0  0  0
    6.7922   -6.0942   27.6060 H   0  0  0  0  0  0  0  0  0  0  0  0
    6.3557   -6.5438   25.9276 H   0  0  0  0  0  0  0  0  0  0  0  0
    9.2290    5.8801   25.9732 H   0  0  0  0  0  0  0  0  0  0  0  0
    8.1267    5.0166   24.8530 H   0  0  0  0  0  0  0  0  0  0  0  0
    9.4613    4.1301   25.6585 H   0  0  0  0  0  0  0  0  0  0  0  0
   11.1557   -1.8080   23.7127 H   0  0  0  0  0  0  0  0  0  0  0  0
    8.9543    4.0034   22.5515 H   0  0  0  0  0  0  0  0  0  0  0  0
  1  3  1  0  0  0  0
  1  5  2  0  0  0  0
  2  4  1  0  0  0  0
  2  6  2  0  0  0  0
  3  9  2  0  0  0  0
  4 10  2  0  0  0  0
  5 11  1  0  0  0  0
  6 12  1  0  0  0  0
  7  9  1  0  0  0  0
  7 11  2  0  0  0  0
  8 10  1  0  0  0  0
  8 12  2  0  0  0  0
  9 14  1  0  0  0  0
 10 19  1  0  0  0  0
 11 21  1  0  0  0  0
 12 20  1  0  0  0  0
 13 15  1  0  0  0  0
 13 19  1  0  0  0  0
 13 22  2  0  0  0  0
 14 20  1  0  0  0  0
 14 23  2  0  0  0  0
 15 16  1  0  0  0  0
 16 17  1  0  0  0  0
 17 19  1  0  0  0  0
 18 26  1  0  0  0  0
 21 26  1  0  0  0  0
 24 26  2  0  0  0  0
 25 26  2  0  0  0  0
  1 27  1  0  0  0  0
  2 28  1  0  0  0  0
  3 29  1  0  0  0  0
  4 30  1  0  0  0  0
  5 31  1  0  0  0  0
  6 32  1  0  0  0  0
  7 33  1  0  0  0  0
  8 34  1  0  0  0  0
 15 35  1  0  0  0  0
 15 36  1  0  0  0  0
 16 37  1  0  0  0  0
 16 38  1  0  0  0  0
 17 39  1  0  0  0  0
 17 40  1  0  0  0  0
 18 41  1  0  0  0  0
 18 42  1  0  0  0  0
 18 43  1  0  0  0  0
 20 44  1  0  0  0  0
 21 45  1  0  0  0  0
M  END
> <IC50 (uM)>

> <IC50 (uM) - std>

> <Average Inhibition @ 20 uM>

> <Average Inhibition @ 20 uM - std>
0.866

> <Average Inhibition @ 50 uM>
2.74

> <Average Inhibition @ 50 uM - std>
5.19

> <Trypsin IC50 (uM)>
0.742

> <Relative Solubility @ 20 uM>
1.0

> <Relative Solubility @ 100 uM>
0.99

> <Hybrid2>
-7.669181

> <docked_fragment>
x1077

> <Mpro-_dock>
5.451528

> <site>
active-noncovalent

$$$$
MAK-UNK-1e8f9e3c-1
  -OEChem-05192003313D

 45 47  0     0  0  0  0  0  0999 V2000
   12.6085    1.5588   23.2903 C   0  0  0  0  0  0  0  0  0  0  0  0
    9.9228   -5.4673   24.5131 C   0  0  0  0  0  0  0  0  0  0  0  0
   11.8726    0.4816   23.7839 C   0  0  0  0  0  0  0  0  0  0  0  0
    8.7135   -5.5657   25.2012 C   0  0  0  0  0  0  0  0  0  0  0  0
   11.9677    2.7591   22.9834 C   0  0  0  0  0  0  0  0  0  0  0  0
   10.4390   -4.2135   24.1857 C   0  0  0  0  0  0  0  0  0  0  0  0
    9.8548    1.8050   23.6636 C   0  0  0  0  0  0  0  0  0  0  0  0
    8.5364   -3.1564   25.2344 C   0  0  0  0  0  0  0  0  0  0  0  0
   10.4957    0.6047   23.9705 C   0  0  0  0  0  0  0  0  0  0  0  0
    8.0203   -4.4103   25.5618 C   0  0  0  0  0  0  0  0  0  0  0  0
   10.5908    2.8822   23.1700 C   0  0  0  0  0  0  0  0  0  0  0  0
    9.7458   -3.0580   24.5463 C   0  0  0  0  0  0  0  0  0  0  0  0
    5.9720   -3.4442   26.6963 C   0  0  0  0  0  0  0  0  0  0  0  0
    9.7184   -0.5328   24.4915 C   0  0  0  0  0  0  0  0  0  0  0  0
    4.8271   -4.0411   27.4829 C   0  0  0  0  0  0  0  0  0  0  0  0
    4.7952   -5.4826   27.0159 C   0  0  0  0  0  0  0  0  0  0  0  0
    6.2469   -5.7842   26.7077 C   0  0  0  0  0  0  0  0  0  0  0  0
    9.1478    5.0839   25.2316 C   0  0  0  0  0  0  0  0  0  0  0  0
    6.7840   -4.5117   26.2659 N   0  0  0  0  0  0  0  0  0  0  0  0
   10.2626   -1.8042   24.2186 N   0  0  0  0  0  0  0  0  0  0  0  0
    9.9361    4.1115   22.8555 N   0  0  0  0  0  0  0  0  0  0  0  0
    6.1192   -2.2381   26.5620 O   0  0  0  0  0  0  0  0  0  0  0  0
    8.6582   -0.3546   25.0873 O   0  0  0  0  0  0  0  0  0  0  0  0
   11.5850    5.3867   24.3738 O   0  0  0  0  0  0  0  0  0  0  0  0
    9.7438    6.6914   23.2546 O   0  0  0  0  0  0  0  0  0  0  0  0
   10.2264    5.4716   23.8712 S   0  0  0  0  0  0  0  0  0  0  0  0
   13.6808    1.4632   23.1456 H   0  0  0  0  0  0  0  0  0  0  0  0
   10.4631   -6.3669   24.2332 H   0  0  0  0  0  0  0  0  0  0  0  0
   12.3824   -0.4493   24.0193 H   0  0  0  0  0  0  0  0  0  0  0  0
    8.3208   -6.5484   25.4502 H   0  0  0  0  0  0  0  0  0  0  0  0
   12.5506    3.5923   22.5989 H   0  0  0  0  0  0  0  0  0  0  0  0
   11.3819   -4.1496   23.6485 H   0  0  0  0  0  0  0  0  0  0  0  0
    8.7811    1.9018   23.8093 H   0  0  0  0  0  0  0  0  0  0  0  0
    7.9954   -2.2551   25.5155 H   0  0  0  0  0  0  0  0  0  0  0  0
    5.0583   -3.9671   28.5502 H   0  0  0  0  0  0  0  0  0  0  0  0
    3.8908   -3.5212   27.2659 H   0  0  0  0  0  0  0  0  0  0  0  0
    4.3750   -6.1557   27.7686 H   0  0  0  0  0  0  0  0  0  0  0  0
    4.1914   -5.5690   26.1043 H   0  0  0  0  0  0  0  0  0  0  0  0
    6.7922   -6.0942   27.6060 H   0  0  0  0  0  0  0  0  0  0  0  0
    6.3557   -6.5438   25.9276 H   0  0  0  0  0  0  0  0  0  0  0  0
    9.2290    5.8801   25.9732 H   0  0  0  0  0  0  0  0  0  0  0  0
    8.1267    5.0166   24.8530 H   0  0  0  0  0  0  0  0  0  0  0  0
    9.4613    4.1301   25.6585 H   0  0  0  0  0  0  0  0  0  0  0  0
   11.1557   -1.8080   23.7127 H   0  0  0  0  0  0  0  0  0  0  0  0
    8.9543    4.0034   22.5515 H   0  0  0  0  0  0  0  0  0  0  0  0
  1  3  1  0  0  0  0
  1  5  2  0  0  0  0
  2  4  1  0  0  0  0
  2  6  2  0  0  0  0
  3  9  2  0  0  0  0
  4 10  2  0  0  0  0
  5 11  1  0  0  0  0
  6 12  1  0  0  0  0
  7  9  1  0  0  0  0
  7 11  2  0  0  0  0
  8 10  1  0  0  0  0
  8 12  2  0  0  0  0
  9 14  1  0  0  0  0
 10 19  1  0  0  0  0
 11 21  1  0  0  0  0
 12 20  1  0  0  0  0
 13 15  1  0  0  0  0
 13 19  1  0  0  0  0
 13 22  2  0  0  0  0
 14 20  1  0  0  0  0
 14 23  2  0  0  0  0
 15 16  1  0  0  0  0
 16 17  1  0  0  0  0
 17 19  1  0  0  0  0
 18 26  1  0  0  0  0
 21 26  1  0  0  0  0
 24 26  2  0  0  0  0
 25 26  2  0  0  0  0
  1 27  1  0  0  0  0
  2 28  1  0  0  0  0
  3 29  1  0  0  0  0
  4 30  1  0  0  0  0
  5 31  1  0  0  0  0
  6 32  1  0  0  0  0
  7 33  1  0  0  0  0
  8 34  1  0  0  0  0
 15 35  1  0  0  0  0
 15 36  1  0  0  0  0
 16 37  1  0  0  0  0
 16 38  1  0  0  0  0
 17 39  1  0  0  0  0
 17 40  1  0  0  0  0
 18 41  1  0  0  0  0
 18 42  1  0  0  0  0
 18 43  1  0  0  0  0
 20 44  1  0  0  0  0
 21 45  1  0  0  0  0
M  END
> <IC50 (uM)>

> <IC50 (uM) - std>

> <Average Inhibition @ 20 uM>

> <Average Inhibition @ 20 uM - std>
0.866

> <Average Inhibition @ 50 uM>
2.74

> <Average Inhibition @ 50 uM - std>
5.19

> <Trypsin IC50 (uM)>
0.742

> <Relative Solubility @ 20 uM>
1.0

> <Relative Solubility @ 100 uM>
0.99

> <Hybrid2>
-7.669181

> <docked_fragment>
x1077

> <Mpro-_dock>
5.451528

> <site>
active-noncovalent

$$$$
CHR-SOS-7098f804-1
  -OEChem-05192003313D

 29 30  0     0  0  0  0  0  0999 V2000
   13.1952   -0.6558   21.9887 C   0  0  0  0  0  0  0  0  0  0  0  0
   11.9526   -0.3173   21.4532 C   0  0  0  0  0  0  0  0  0  0  0  0
    6.0330    0.4349   18.4928 C   0  0  0  0  0  0  0  0  0  0  0  0
    5.1864    0.9689   19.4642 C   0  0  0  0  0  0  0  0  0  0  0  0
    7.0417    1.1066   21.0056 C   0  0  0  0  0  0  0  0  0  0  0  0
   12.1091   -2.0834   23.6071 C   0  0  0  0  0  0  0  0  0  0  0  0
    7.8884    0.5725   20.0341 C   0  0  0  0  0  0  0  0  0  0  0  0
   13.2735   -1.5389   23.0656 C   0  0  0  0  0  0  0  0  0  0  0  0
   10.7881   -0.8618   21.9947 C   0  0  0  0  0  0  0  0  0  0  0  0
    7.3840    0.2366   18.7778 C   0  0  0  0  0  0  0  0  0  0  0  0
    5.6907    1.3048   20.7205 C   0  0  0  0  0  0  0  0  0  0  0  0
   10.8664   -1.7449   23.0717 C   0  0  0  0  0  0  0  0  0  0  0  0
    9.2951    0.3712   20.3526 C   0  0  0  0  0  0  0  0  0  0  0  0
    9.5415   -0.4963   21.4270 N   0  0  0  0  0  0  0  0  0  0  0  0
   14.5389   -1.8828   23.6100 N   0  0  0  0  0  0  0  0  0  0  0  0
   10.1916    0.9581   19.7329 O   0  0  0  0  0  0  0  0  0  0  0  0
   15.5737   -1.3812   23.1077 O   0  0  0  0  0  0  0  0  0  0  0  0
   14.5882   -2.6786   24.5790 O   0  0  0  0  0  0  0  0  0  0  0  0
    8.1947   -0.2884   17.8161 O   0  0  0  0  0  0  0  0  0  0  0  0
    4.6466    1.9657   21.9184 Cl  0  0  0  0  0  0  0  0  0  0  0  0
    9.4491   -2.4426   23.7716 Cl  0  0  0  0  0  0  0  0  0  0  0  0
   14.0944   -0.2237   21.5565 H   0  0  0  0  0  0  0  0  0  0  0  0
   11.9053    0.3725   20.6141 H   0  0  0  0  0  0  0  0  0  0  0  0
    5.6342    0.1746   17.5160 H   0  0  0  0  0  0  0  0  0  0  0  0
    4.1362    1.1191   19.2275 H   0  0  0  0  0  0  0  0  0  0  0  0
    7.4371    1.3670   21.9851 H   0  0  0  0  0  0  0  0  0  0  0  0
   12.1730   -2.7730   24.4465 H   0  0  0  0  0  0  0  0  0  0  0  0
    8.7200   -0.9174   21.8537 H   0  0  0  0  0  0  0  0  0  0  0  0
    9.1013   -0.3700   18.1509 H   0  0  0  0  0  0  0  0  0  0  0  0
  1  2  2  0  0  0  0
  1  8  1  0  0  0  0
  2  9  1  0  0  0  0
  3  4  2  0  0  0  0
  3 10  1  0  0  0  0
  4 11  1  0  0  0  0
  5  7  1  0  0  0  0
  5 11  2  0  0  0  0
  6  8  2  0  0  0  0
  6 12  1  0  0  0  0
  7 10  2  0  0  0  0
  7 13  1  0  0  0  0
  8 15  1  0  0  0  0
  9 12  2  0  0  0  0
  9 14  1  0  0  0  0
 10 19  1  0  0  0  0
 11 20  1  0  0  0  0
 12 21  1  0  0  0  0
 13 14  1  0  0  0  0
 13 16  2  0  0  0  0
 15 17  2  0  0  0  0
 15 18  2  0  0  0  0
  1 22  1  0  0  0  0
  2 23  1  0  0  0  0
  3 24  1  0  0  0  0
  4 25  1  0  0  0  0
  5 26  1  0  0  0  0
  6 27  1  0  0  0  0
 14 28  1  0  0  0  0
 19 29  1  0  0  0  0
M  END
> <IC50 (uM)>

> <IC50 (uM) - std>

> <Average Inhibition @ 20 uM>

> <Average Inhibition @ 20 uM - std>

> <Average Inhibition @ 50 uM>

> <Average Inhibition @ 50 uM - std>
18.2

> <Trypsin IC50 (uM)>
7.97

> <Relative Solubility @ 20 uM>

> <Relative Solubility @ 100 uM>

> <Hybrid2>
-7.658549

> <docked_fragment>
x0678

> <Mpro-_dock>
0.550615

> <site>
active-noncovalent

$$$$
PET-SGC-abcbce68-1
  -OEChem-05192003313D

 43 44  0     1  0  0  0  0  0999 V2000
   11.7461   -1.6165   24.1522 C   0  0  0  0  0  0  0  0  0  0  0  0
   10.5725   -1.0287   24.6098 C   0  0  0  0  0  0  0  0  0  0  0  0
   11.2291    1.0470   23.5636 C   0  0  0  0  0  0  0  0  0  0  0  0
   12.6658   -0.8775   23.3877 C   0  0  0  0  0  0  0  0  0  0  0  0
   12.4321    0.4873   23.0898 C   0  0  0  0  0  0  0  0  0  0  0  0
   10.3127    0.3021   24.3126 C   0  0  0  0  0  0  0  0  0  0  0  0
   13.9303   -1.5648   22.9323 C   0  0  0  0  0  0  0  0  0  0  0  0
   14.5616   -0.8325   21.7571 C   0  0  0  0  0  0  0  0  0  0  0  0
   14.6721    0.6509   22.0759 C   0  0  0  0  0  0  0  0  0  0  0  0
    9.9706    6.8753   23.3021 C   0  0  0  0  0  0  0  0  0  0  0  0
   13.6732    3.5064   23.2553 C   0  0  0  0  0  0  0  0  0  0  0  0
   13.1667    2.6459   22.0996 C   0  0  0  0  0  0  0  0  0  0  0  0
   13.5211    5.0074   23.0189 C   0  0  0  0  0  0  0  0  0  0  0  0
   13.3522    1.2220   22.3399 N   0  0  3  0  0  0  0  0  0  0  0  0
    9.3295    1.6511   26.3907 N   0  0  0  0  0  0  0  0  0  0  0  0
   12.1552    5.3953   22.7961 N   0  0  0  0  0  0  0  0  0  0  0  0
    8.5267    2.1685   23.9963 O   0  0  0  0  0  0  0  0  0  0  0  0
    7.8432    0.0014   25.0844 O   0  0  0  0  0  0  0  0  0  0  0  0
   11.9019    6.6428   25.0533 O   0  0  0  0  0  0  0  0  0  0  0  0
   10.4261    4.6522   24.5888 O   0  0  0  0  0  0  0  0  0  0  0  0
    8.8345    1.0463   24.8714 S   0  0  0  0  0  0  0  0  0  0  0  0
   11.1443    5.8245   24.1269 S   0  0  0  0  0  0  0  0  0  0  0  0
   11.9475   -2.6572   24.3945 H   0  0  0  0  0  0  0  0  0  0  0  0
    9.8706   -1.6162   25.1947 H   0  0  0  0  0  0  0  0  0  0  0  0
   10.9812    2.0843   23.3481 H   0  0  0  0  0  0  0  0  0  0  0  0
   14.6551   -1.6108   23.7534 H   0  0  0  0  0  0  0  0  0  0  0  0
   13.6820   -2.5936   22.6439 H   0  0  0  0  0  0  0  0  0  0  0  0
   15.5577   -1.2413   21.5420 H   0  0  0  0  0  0  0  0  0  0  0  0
   13.9537   -0.9816   20.8575 H   0  0  0  0  0  0  0  0  0  0  0  0
   15.3223    0.7723   22.9504 H   0  0  0  0  0  0  0  0  0  0  0  0
   15.1448    1.1902   21.2454 H   0  0  0  0  0  0  0  0  0  0  0  0
    9.2493    7.2311   24.0395 H   0  0  0  0  0  0  0  0  0  0  0  0
   10.5106    7.7140   22.8599 H   0  0  0  0  0  0  0  0  0  0  0  0
    9.4702    6.2916   22.5282 H   0  0  0  0  0  0  0  0  0  0  0  0
   14.7308    3.2721   23.4283 H   0  0  0  0  0  0  0  0  0  0  0  0
   13.1305    3.2398   24.1705 H   0  0  0  0  0  0  0  0  0  0  0  0
   12.1030    2.8171   21.9084 H   0  0  0  0  0  0  0  0  0  0  0  0
   13.7178    2.8881   21.1854 H   0  0  0  0  0  0  0  0  0  0  0  0
   14.0844    5.3032   22.1282 H   0  0  0  0  0  0  0  0  0  0  0  0
   13.8996    5.5873   23.8663 H   0  0  0  0  0  0  0  0  0  0  0  0
    9.4387    2.6675   26.4924 H   0  0  0  0  0  0  0  0  0  0  0  0
    8.9728    1.1855   27.2341 H   0  0  0  0  0  0  0  0  0  0  0  0
   11.6631    4.8993   22.0208 H   0  0  0  0  0  0  0  0  0  0  0  0
  1  2  2  0  0  0  0
  1  4  1  0  0  0  0
  2  6  1  0  0  0  0
  3  5  1  0  0  0  0
  3  6  2  0  0  0  0
  4  5  2  0  0  0  0
  4  7  1  0  0  0  0
  5 14  1  0  0  0  0
  6 21  1  0  0  0  0
  7  8  1  0  0  0  0
  8  9  1  0  0  0  0
  9 14  1  0  0  0  0
 10 22  1  0  0  0  0
 11 12  1  0  0  0  0
 11 13  1  0  0  0  0
 12 14  1  0  0  0  0
 13 16  1  0  0  0  0
 15 21  1  0  0  0  0
 16 22  1  0  0  0  0
 17 21  2  0  0  0  0
 18 21  2  0  0  0  0
 19 22  2  0  0  0  0
 20 22  2  0  0  0  0
  1 23  1  0  0  0  0
  2 24  1  0  0  0  0
  3 25  1  0  0  0  0
  7 26  1  0  0  0  0
  7 27  1  0  0  0  0
  8 28  1  0  0  0  0
  8 29  1  0  0  0  0
  9 30  1  0  0  0  0
  9 31  1  0  0  0  0
 10 32  1  0  0  0  0
 10 33  1  0  0  0  0
 10 34  1  0  0  0  0
 11 35  1  0  0  0  0
 11 36  1  0  0  0  0
 12 37  1  0  0  0  0
 12 38  1  0  0  0  0
 13 39  1  0  0  0  0
 13 40  1  0  0  0  0
 15 41  1  0  0  0  0
 15 42  1  0  0  0  0
 16 43  1  0  0  0  0
M  END
> <IC50 (uM)>

> <IC50 (uM) - std>

> <Average Inhibition @ 20 uM>

> <Average Inhibition @ 20 uM - std>

> <Average Inhibition @ 50 uM>

> <Average Inhibition @ 50 uM - std>
-1.74

> <Trypsin IC50 (uM)>
4.03

> <Relative Solubility @ 20 uM>

> <Relative Solubility @ 100 uM>

> <Hybrid2>
-7.647782

> <docked_fragment>
x0195

> <Mpro-_dock>
2.304781

> <site>
active-noncovalent

$$$$
MAR-UNI-9ca61fdc-1
  -OEChem-05192003313D

 34 35  0     0  0  0  0  0  0999 V2000
   11.9874    1.1540   24.5514 C   0  0  0  0  0  0  0  0  0  0  0  0
   12.9237    0.9425   23.5353 C   0  0  0  0  0  0  0  0  0  0  0  0
   11.8728   -1.1600   22.9253 C   0  0  0  0  0  0  0  0  0  0  0  0
    9.2332   -1.0193   25.4498 C   0  0  0  0  0  0  0  0  0  0  0  0
   10.9179   -0.9684   23.9436 C   0  0  0  0  0  0  0  0  0  0  0  0
    9.8001   -1.7166   24.4080 C   0  0  0  0  0  0  0  0  0  0  0  0
   10.9971    0.1819   24.7316 C   0  0  0  0  0  0  0  0  0  0  0  0
   12.8692   -0.1959   22.7336 C   0  0  0  0  0  0  0  0  0  0  0  0
   13.6861   -1.5589   20.9642 C   0  0  0  0  0  0  0  0  0  0  0  0
    6.2208   -0.3937   21.5204 C   0  0  0  0  0  0  0  0  0  0  0  0
    9.3244   -3.0090   23.8750 C   0  0  0  0  0  0  0  0  0  0  0  0
    8.0692   -2.8994   22.9903 C   0  0  0  0  0  0  0  0  0  0  0  0
    9.9619    0.1245   25.6373 N   0  0  0  0  0  0  0  0  0  0  0  0
    8.2924   -2.0757   21.8324 N   0  0  0  0  0  0  0  0  0  0  0  0
    6.0848   -2.8906   20.7475 O   0  0  0  0  0  0  0  0  0  0  0  0
    7.5555   -1.2926   19.4671 O   0  0  0  0  0  0  0  0  0  0  0  0
   13.7958   -0.3741   21.7500 O   0  0  0  0  0  0  0  0  0  0  0  0
    7.0082   -1.7733   20.7212 S   0  0  0  0  0  0  0  0  0  0  0  0
   12.0312    2.0405   25.1754 H   0  0  0  0  0  0  0  0  0  0  0  0
   13.7049    1.6820   23.3747 H   0  0  0  0  0  0  0  0  0  0  0  0
   11.8381   -2.0443   22.2946 H   0  0  0  0  0  0  0  0  0  0  0  0
    8.3773   -1.2332   26.0748 H   0  0  0  0  0  0  0  0  0  0  0  0
   14.4842   -1.5773   20.2180 H   0  0  0  0  0  0  0  0  0  0  0  0
   12.7110   -1.5811   20.4710 H   0  0  0  0  0  0  0  0  0  0  0  0
   13.7814   -2.4291   21.6179 H   0  0  0  0  0  0  0  0  0  0  0  0
    5.3673   -0.0859   20.9142 H   0  0  0  0  0  0  0  0  0  0  0  0
    5.8916   -0.7115   22.5108 H   0  0  0  0  0  0  0  0  0  0  0  0
    6.9458    0.4177   21.6001 H   0  0  0  0  0  0  0  0  0  0  0  0
    9.0926   -3.7018   24.7081 H   0  0  0  0  0  0  0  0  0  0  0  0
   10.1191   -3.5248   23.2989 H   0  0  0  0  0  0  0  0  0  0  0  0
    7.7606   -3.8832   22.6230 H   0  0  0  0  0  0  0  0  0  0  0  0
    7.2328   -2.4655   23.5481 H   0  0  0  0  0  0  0  0  0  0  0  0
    9.7691    0.8255   26.3392 H   0  0  0  0  0  0  0  0  0  0  0  0
    8.9479   -1.2752   21.9657 H   0  0  0  0  0  0  0  0  0  0  0  0
  1  2  2  0  0  0  0
  1  7  1  0  0  0  0
  2  8  1  0  0  0  0
  3  5  1  0  0  0  0
  3  8  2  0  0  0  0
  4  6  2  0  0  0  0
  4 13  1  0  0  0  0
  5  6  1  0  0  0  0
  5  7  2  0  0  0  0
  6 11  1  0  0  0  0
  7 13  1  0  0  0  0
  8 17  1  0  0  0  0
  9 17  1  0  0  0  0
 10 18  1  0  0  0  0
 11 12  1  0  0  0  0
 12 14  1  0  0  0  0
 14 18  1  0  0  0  0
 15 18  2  0  0  0  0
 16 18  2  0  0  0  0
  1 19  1  0  0  0  0
  2 20  1  0  0  0  0
  3 21  1  0  0  0  0
  4 22  1  0  0  0  0
  9 23  1  0  0  0  0
  9 24  1  0  0  0  0
  9 25  1  0  0  0  0
 10 26  1  0  0  0  0
 10 27  1  0  0  0  0
 10 28  1  0  0  0  0
 11 29  1  0  0  0  0
 11 30  1  0  0  0  0
 12 31  1  0  0  0  0
 12 32  1  0  0  0  0
 13 33  1  0  0  0  0
 14 34  1  0  0  0  0
M  END
> <IC50 (uM)>

> <IC50 (uM) - std>

> <Average Inhibition @ 20 uM>

> <Average Inhibition @ 20 uM - std>
-4.19

> <Average Inhibition @ 50 uM>
2.41

> <Average Inhibition @ 50 uM - std>
-4.39

> <Trypsin IC50 (uM)>
0.755

> <Relative Solubility @ 20 uM>
0.92

> <Relative Solubility @ 100 uM>
0.86

> <Hybrid2>
-7.645136

> <docked_fragment>
x0831

> <Mpro-_dock>
0.122811

> <site>
active-covalent

$$$$
JOH-UNI-c7afdb96-13
  -OEChem-05192003313D

 37 37  0     0  0  0  0  0  0999 V2000
    7.4820   -1.6152   21.0609 C   0  0  0  0  0  0  0  0  0  0  0  0
   11.6556   -4.0551   25.4154 C   0  0  0  0  0  0  0  0  0  0  0  0
   12.6377   -3.0666   25.4779 C   0  0  0  0  0  0  0  0  0  0  0  0
   10.5310   -3.8712   24.6108 C   0  0  0  0  0  0  0  0  0  0  0  0
   11.3708   -1.7102   23.9312 C   0  0  0  0  0  0  0  0  0  0  0  0
   12.4953   -1.8941   24.7358 C   0  0  0  0  0  0  0  0  0  0  0  0
   10.3886   -2.6987   23.8688 C   0  0  0  0  0  0  0  0  0  0  0  0
    7.3439   -2.9152   21.6351 C   0  0  0  0  0  0  0  0  0  0  0  0
    6.2284   -3.6567   21.4696 C   0  0  0  0  0  0  0  0  0  0  0  0
    8.4886   -3.4939   22.4251 C   0  0  0  0  0  0  0  0  0  0  0  0
   13.5456   -0.8377   24.8029 C   0  0  0  0  0  0  0  0  0  0  0  0
    4.8499   -4.1833   24.1075 C   0  0  0  0  0  0  0  0  0  0  0  0
    5.8141   -6.4935   24.1351 C   0  0  0  0  0  0  0  0  0  0  0  0
    6.0073   -5.0414   22.0461 C   0  0  0  0  0  0  0  0  0  0  0  0
    5.9817   -5.0737   23.5883 C   0  0  0  0  0  0  0  0  0  0  0  0
    7.6027   -0.5590   20.5954 N   0  0  0  0  0  0  0  0  0  0  0  0
    9.2469   -2.5125   23.0513 N   0  0  0  0  0  0  0  0  0  0  0  0
    8.6671   -4.7072   22.4607 O   0  0  0  0  0  0  0  0  0  0  0  0
    5.1831   -3.1966   20.6814 O   0  0  0  0  0  0  0  0  0  0  0  0
   11.7666   -4.9683   25.9929 H   0  0  0  0  0  0  0  0  0  0  0  0
   13.5097   -3.2187   26.1079 H   0  0  0  0  0  0  0  0  0  0  0  0
    9.7719   -4.6482   24.5700 H   0  0  0  0  0  0  0  0  0  0  0  0
   11.2616   -0.7946   23.3540 H   0  0  0  0  0  0  0  0  0  0  0  0
   14.3070   -1.0063   24.0315 H   0  0  0  0  0  0  0  0  0  0  0  0
   13.1159    0.1616   24.6549 H   0  0  0  0  0  0  0  0  0  0  0  0
   14.0397   -0.8286   25.7833 H   0  0  0  0  0  0  0  0  0  0  0  0
    3.8783   -4.5419   23.7514 H   0  0  0  0  0  0  0  0  0  0  0  0
    4.9732   -3.1530   23.7570 H   0  0  0  0  0  0  0  0  0  0  0  0
    4.8259   -4.1681   25.2026 H   0  0  0  0  0  0  0  0  0  0  0  0
    4.8827   -6.9480   23.7808 H   0  0  0  0  0  0  0  0  0  0  0  0
    6.6454   -7.1379   23.8329 H   0  0  0  0  0  0  0  0  0  0  0  0
    5.7898   -6.4862   25.2303 H   0  0  0  0  0  0  0  0  0  0  0  0
    6.7589   -5.7521   21.6826 H   0  0  0  0  0  0  0  0  0  0  0  0
    5.0499   -5.4168   21.6597 H   0  0  0  0  0  0  0  0  0  0  0  0
    6.9265   -4.6700   23.9740 H   0  0  0  0  0  0  0  0  0  0  0  0
    8.9608   -1.5428   22.9353 H   0  0  0  0  0  0  0  0  0  0  0  0
    4.4773   -3.8472   20.6761 H   0  0  0  0  0  0  0  0  0  0  0  0
  1  8  1  0  0  0  0
  1 16  3  0  0  0  0
  2  3  2  0  0  0  0
  2  4  1  0  0  0  0
  3  6  1  0  0  0  0
  4  7  2  0  0  0  0
  5  6  2  0  0  0  0
  5  7  1  0  0  0  0
  6 11  1  0  0  0  0
  7 17  1  0  0  0  0
  8  9  2  0  0  0  0
  8 10  1  0  0  0  0
  9 14  1  0  0  0  0
  9 19  1  0  0  0  0
 10 17  1  0  0  0  0
 10 18  2  0  0  0  0
 12 15  1  0  0  0  0
 13 15  1  0  0  0  0
 14 15  1  0  0  0  0
  2 20  1  0  0  0  0
  3 21  1  0  0  0  0
  4 22  1  0  0  0  0
  5 23  1  0  0  0  0
 11 24  1  0  0  0  0
 11 25  1  0  0  0  0
 11 26  1  0  0  0  0
 12 27  1  0  0  0  0
 12 28  1  0  0  0  0
 12 29  1  0  0  0  0
 13 30  1  0  0  0  0
 13 31  1  0  0  0  0
 13 32  1  0  0  0  0
 14 33  1  0  0  0  0
 14 34  1  0  0  0  0
 15 35  1  0  0  0  0
 17 36  1  0  0  0  0
 19 37  1  0  0  0  0
M  END
> <IC50 (uM)>

> <IC50 (uM) - std>

> <Average Inhibition @ 20 uM>

> <Average Inhibition @ 20 uM - std>

> <Average Inhibition @ 50 uM>

> <Average Inhibition @ 50 uM - std>
26.4

> <Trypsin IC50 (uM)>
0.783

> <Relative Solubility @ 20 uM>

> <Relative Solubility @ 100 uM>

> <Hybrid2>
-7.610608

> <docked_fragment>
x0749

> <Mpro-_dock>
-0.65401

> <site>
active-covalent

$$$$
LON-WEI-b8d98729-9
  -OEChem-05192003313D

 48 51  0     1  0  0  0  0  0999 V2000
    7.0045    0.5359   17.9177 C   0  0  0  0  0  0  0  0  0  0  0  0
    7.7729   -0.1347   18.8627 C   0  0  0  0  0  0  0  0  0  0  0  0
   11.9354   -1.2264   22.4567 C   0  0  0  0  0  0  0  0  0  0  0  0
   10.5832   -1.4386   22.1729 C   0  0  0  0  0  0  0  0  0  0  0  0
    7.5044   -4.1675   24.9589 C   0  0  0  0  0  0  0  0  0  0  0  0
    6.1071   -4.9647   23.1563 C   0  0  0  0  0  0  0  0  0  0  0  0
    7.0193   -5.1824   25.7837 C   0  0  0  0  0  0  0  0  0  0  0  0
    5.6220   -5.9796   23.9812 C   0  0  0  0  0  0  0  0  0  0  0  0
   10.0488    0.8321   22.8341 C   0  0  0  0  0  0  0  0  0  0  0  0
    5.6259    0.4818   18.0461 C   0  0  0  0  0  0  0  0  0  0  0  0
    5.7632   -0.8219   19.9328 C   0  0  0  0  0  0  0  0  0  0  0  0
   13.6901    1.6309   23.6728 C   0  0  0  0  0  0  0  0  0  0  0  0
    7.1482   -0.8291   19.8927 C   0  0  0  0  0  0  0  0  0  0  0  0
   12.3614    0.0309   22.9371 C   0  0  0  0  0  0  0  0  0  0  0  0
    7.0483   -4.0586   23.6452 C   0  0  0  0  0  0  0  0  0  0  0  0
    9.6538   -0.4214   22.3599 C   0  0  0  0  0  0  0  0  0  0  0  0
   11.4086    1.0383   23.1170 C   0  0  0  0  0  0  0  0  0  0  0  0
    6.0782   -6.0884   25.2949 C   0  0  0  0  0  0  0  0  0  0  0  0
    6.8298    1.4224   24.7216 C   0  0  0  0  0  0  0  0  0  0  0  0
    7.4392    0.3574   24.1912 C   0  0  0  0  0  0  0  0  0  0  0  0
    7.2272    0.0057   22.7564 C   0  0  0  0  0  0  0  0  0  0  0  0
    7.1979   -2.7754   21.4826 C   0  0  0  0  0  0  0  0  0  0  0  0
    7.9561   -1.5681   20.9365 C   0  0  2  0  0  0  0  0  0  0  0  0
    4.9832   -0.1822   19.0328 N   0  0  0  0  0  0  0  0  0  0  0  0
   13.6633    0.3855   23.2594 N   0  0  0  0  0  0  0  0  0  0  0  0
    7.5407   -3.0293   22.8082 N   0  0  0  0  0  0  0  0  0  0  0  0
    8.3079   -0.6533   22.0707 N   0  0  0  0  0  0  0  0  0  0  0  0
    6.1624    0.3137   22.2203 O   0  0  0  0  0  0  0  0  0  0  0  0
    6.4078   -3.4087   20.7876 O   0  0  0  0  0  0  0  0  0  0  0  0
   12.1923    2.4564   23.7065 S   0  0  0  0  0  0  0  0  0  0  0  0
    5.4211   -7.4634   26.4126 Br  0  0  0  0  0  0  0  0  0  0  0  0
    7.4698    1.0838   17.1063 H   0  0  0  0  0  0  0  0  0  0  0  0
    8.8568   -0.1107   18.7888 H   0  0  0  0  0  0  0  0  0  0  0  0
   12.6531   -2.0279   22.3060 H   0  0  0  0  0  0  0  0  0  0  0  0
   10.2694   -2.4124   21.8038 H   0  0  0  0  0  0  0  0  0  0  0  0
    8.2374   -3.4668   25.3500 H   0  0  0  0  0  0  0  0  0  0  0  0
    5.7449   -4.8890   22.1343 H   0  0  0  0  0  0  0  0  0  0  0  0
    7.3848   -5.2538   26.8048 H   0  0  0  0  0  0  0  0  0  0  0  0
    4.8889   -6.6775   23.5855 H   0  0  0  0  0  0  0  0  0  0  0  0
    9.3251    1.6292   22.9805 H   0  0  0  0  0  0  0  0  0  0  0  0
    4.9822    0.9881   17.3343 H   0  0  0  0  0  0  0  0  0  0  0  0
    5.2202   -1.3461   20.7131 H   0  0  0  0  0  0  0  0  0  0  0  0
   14.6083    2.1144   23.9770 H   0  0  0  0  0  0  0  0  0  0  0  0
    7.0055    1.6873   25.7590 H   0  0  0  0  0  0  0  0  0  0  0  0
    6.1475    2.0463   24.1548 H   0  0  0  0  0  0  0  0  0  0  0  0
    8.1267   -0.2304   24.7883 H   0  0  0  0  0  0  0  0  0  0  0  0
    8.9011   -1.9185   20.5035 H   0  0  0  0  0  0  0  0  0  0  0  0
    8.2254   -2.4011   23.2237 H   0  0  0  0  0  0  0  0  0  0  0  0
  1  2  2  0  0  0  0
  1 10  1  0  0  0  0
  2 13  1  0  0  0  0
  3  4  2  0  0  0  0
  3 14  1  0  0  0  0
  4 16  1  0  0  0  0
  5  7  2  0  0  0  0
  5 15  1  0  0  0  0
  6  8  1  0  0  0  0
  6 15  2  0  0  0  0
  7 18  1  0  0  0  0
  8 18  2  0  0  0  0
  9 16  2  0  0  0  0
  9 17  1  0  0  0  0
 10 24  2  0  0  0  0
 11 13  2  0  0  0  0
 11 24  1  0  0  0  0
 12 25  2  0  0  0  0
 12 30  1  0  0  0  0
 13 23  1  0  0  0  0
 14 17  2  0  0  0  0
 14 25  1  0  0  0  0
 15 26  1  0  0  0  0
 16 27  1  0  0  0  0
 17 30  1  0  0  0  0
 18 31  1  0  0  0  0
 19 20  2  0  0  0  0
 20 21  1  0  0  0  0
 21 27  1  0  0  0  0
 21 28  2  0  0  0  0
 22 23  1  0  0  0  0
 22 26  1  0  0  0  0
 22 29  2  0  0  0  0
 23 27  1  0  0  0  0
  1 32  1  0  0  0  0
  2 33  1  0  0  0  0
  3 34  1  0  0  0  0
  4 35  1  0  0  0  0
  5 36  1  0  0  0  0
  6 37  1  0  0  0  0
  7 38  1  0  0  0  0
  8 39  1  0  0  0  0
  9 40  1  0  0  0  0
 10 41  1  0  0  0  0
 11 42  1  0  0  0  0
 12 43  1  0  0  0  0
 19 44  1  0  0  0  0
 19 45  1  0  0  0  0
 20 46  1  0  0  0  0
 23 47  1  0  0  0  0
 26 48  1  0  0  0  0
M  END
> <IC50 (uM)>

> <IC50 (uM) - std>

> <Average Inhibition @ 20 uM>

> <Average Inhibition @ 20 uM - std>
17.4

> <Average Inhibition @ 50 uM>
4.44

> <Average Inhibition @ 50 uM - std>
34.9

> <Trypsin IC50 (uM)>
0.534

> <Relative Solubility @ 20 uM>
0.75

> <Relative Solubility @ 100 uM>
0.64

> <Hybrid2>
-7.523878

> <docked_fragment>
x0831

> <Mpro-_dock>
4.433122

> <site>
active-covalent

$$$$
JOH-UNI-c7afdb96-14
  -OEChem-05192003313D

 37 37  0     0  0  0  0  0  0999 V2000
    8.0033   -1.8758   21.5818 C   0  0  0  0  0  0  0  0  0  0  0  0
   11.5448   -0.7985   25.1722 C   0  0  0  0  0  0  0  0  0  0  0  0
   11.9864   -3.1201   24.6699 C   0  0  0  0  0  0  0  0  0  0  0  0
   12.7522   -0.7190   25.8661 C   0  0  0  0  0  0  0  0  0  0  0  0
   13.1938   -3.0406   25.3638 C   0  0  0  0  0  0  0  0  0  0  0  0
   11.1619   -1.9991   24.5741 C   0  0  0  0  0  0  0  0  0  0  0  0
   13.5767   -1.8400   25.9619 C   0  0  0  0  0  0  0  0  0  0  0  0
    8.0781   -2.8931   22.5802 C   0  0  0  0  0  0  0  0  0  0  0  0
    6.9967   -3.5954   22.9817 C   0  0  0  0  0  0  0  0  0  0  0  0
    9.4078   -3.1890   23.2208 C   0  0  0  0  0  0  0  0  0  0  0  0
    6.1372   -5.4226   26.3430 C   0  0  0  0  0  0  0  0  0  0  0  0
    7.4987   -6.5588   22.3491 C   0  0  0  0  0  0  0  0  0  0  0  0
    6.1373   -4.3428   25.2680 C   0  0  0  0  0  0  0  0  0  0  0  0
    6.5948   -6.0686   23.4736 C   0  0  0  0  0  0  0  0  0  0  0  0
    7.0150   -4.6944   24.0444 C   0  0  0  0  0  0  0  0  0  0  0  0
    7.9518   -1.0478   20.7703 N   0  0  0  0  0  0  0  0  0  0  0  0
    9.9358   -2.0801   23.8696 N   0  0  0  0  0  0  0  0  0  0  0  0
    9.9015   -4.3087   23.1347 O   0  0  0  0  0  0  0  0  0  0  0  0
    5.7484   -3.3234   22.4364 O   0  0  0  0  0  0  0  0  0  0  0  0
   14.7367   -1.7636   26.6273 F   0  0  0  0  0  0  0  0  0  0  0  0
   10.9102    0.0815   25.1044 H   0  0  0  0  0  0  0  0  0  0  0  0
   11.6970   -4.0615   24.2098 H   0  0  0  0  0  0  0  0  0  0  0  0
   13.0503    0.2152   26.3324 H   0  0  0  0  0  0  0  0  0  0  0  0
   13.8365   -3.9128   25.4375 H   0  0  0  0  0  0  0  0  0  0  0  0
    5.8261   -6.3873   25.9299 H   0  0  0  0  0  0  0  0  0  0  0  0
    5.4375   -5.1558   27.1417 H   0  0  0  0  0  0  0  0  0  0  0  0
    7.1264   -5.5415   26.7954 H   0  0  0  0  0  0  0  0  0  0  0  0
    7.4946   -5.8386   21.5244 H   0  0  0  0  0  0  0  0  0  0  0  0
    8.5339   -6.6719   22.6847 H   0  0  0  0  0  0  0  0  0  0  0  0
    7.1528   -7.5212   21.9588 H   0  0  0  0  0  0  0  0  0  0  0  0
    6.4527   -3.3923   25.7145 H   0  0  0  0  0  0  0  0  0  0  0  0
    5.1023   -4.1974   24.9332 H   0  0  0  0  0  0  0  0  0  0  0  0
    6.6230   -6.8123   24.2802 H   0  0  0  0  0  0  0  0  0  0  0  0
    5.5588   -6.0424   23.1153 H   0  0  0  0  0  0  0  0  0  0  0  0
    8.0346   -4.8242   24.4283 H   0  0  0  0  0  0  0  0  0  0  0  0
    9.3784   -1.2293   23.8349 H   0  0  0  0  0  0  0  0  0  0  0  0
    5.0964   -3.9080   22.8287 H   0  0  0  0  0  0  0  0  0  0  0  0
  1  8  1  0  0  0  0
  1 16  3  0  0  0  0
  2  4  2  0  0  0  0
  2  6  1  0  0  0  0
  3  5  1  0  0  0  0
  3  6  2  0  0  0  0
  4  7  1  0  0  0  0
  5  7  2  0  0  0  0
  6 17  1  0  0  0  0
  7 20  1  0  0  0  0
  8  9  2  0  0  0  0
  8 10  1  0  0  0  0
  9 15  1  0  0  0  0
  9 19  1  0  0  0  0
 10 17  1  0  0  0  0
 10 18  2  0  0  0  0
 11 13  1  0  0  0  0
 12 14  1  0  0  0  0
 13 15  1  0  0  0  0
 14 15  1  0  0  0  0
  2 21  1  0  0  0  0
  3 22  1  0  0  0  0
  4 23  1  0  0  0  0
  5 24  1  0  0  0  0
 11 25  1  0  0  0  0
 11 26  1  0  0  0  0
 11 27  1  0  0  0  0
 12 28  1  0  0  0  0
 12 29  1  0  0  0  0
 12 30  1  0  0  0  0
 13 31  1  0  0  0  0
 13 32  1  0  0  0  0
 14 33  1  0  0  0  0
 14 34  1  0  0  0  0
 15 35  1  0  0  0  0
 17 36  1  0  0  0  0
 19 37  1  0  0  0  0
M  END
> <IC50 (uM)>

> <IC50 (uM) - std>

> <Average Inhibition @ 20 uM>

> <Average Inhibition @ 20 uM - std>

> <Average Inhibition @ 50 uM>

> <Average Inhibition @ 50 uM - std>
13.7

> <Trypsin IC50 (uM)>
1.74

> <Relative Solubility @ 20 uM>

> <Relative Solubility @ 100 uM>

> <Hybrid2>
-7.504443

> <docked_fragment>
x0749

> <Mpro-_dock>
0.117847

> <site>
active-covalent

$$$$
NIM-UNI-02269248-3
  -OEChem-05192003313D

 46 48  0     0  0  0  0  0  0999 V2000
   12.9682   -1.8458   22.2673 C   0  0  0  0  0  0  0  0  0  0  0  0
   12.9987   -0.4554   22.3742 C   0  0  0  0  0  0  0  0  0  0  0  0
   11.8749   -2.5593   22.7587 C   0  0  0  0  0  0  0  0  0  0  0  0
   10.8427   -0.4919   23.4640 C   0  0  0  0  0  0  0  0  0  0  0  0
   11.0144    2.4052   23.6326 C   0  0  0  0  0  0  0  0  0  0  0  0
   11.9360    0.2216   22.9726 C   0  0  0  0  0  0  0  0  0  0  0  0
   10.8122   -1.8823   23.3570 C   0  0  0  0  0  0  0  0  0  0  0  0
   11.5281    3.6692   23.4860 C   0  0  0  0  0  0  0  0  0  0  0  0
    6.0973    7.2552   22.4484 C   0  0  0  0  0  0  0  0  0  0  0  0
    8.5411    7.3326   22.0699 C   0  0  0  0  0  0  0  0  0  0  0  0
    7.4730    5.1223   22.2865 C   0  0  0  0  0  0  0  0  0  0  0  0
    9.6167    6.9337   23.0696 C   0  0  0  0  0  0  0  0  0  0  0  0
    8.5344    4.6891   23.2888 C   0  0  0  0  0  0  0  0  0  0  0  0
    6.1659    8.6367   23.0488 C   0  0  0  0  0  0  0  0  0  0  0  0
   10.9371    4.9843   23.9012 C   0  0  0  0  0  0  0  0  0  0  0  0
   12.7448    3.6017   22.8659 N   0  0  0  0  0  0  0  0  0  0  0  0
   13.0065    2.3228   22.6186 N   0  0  0  0  0  0  0  0  0  0  0  0
   11.9677    1.6071   23.0790 N   0  0  0  0  0  0  0  0  0  0  0  0
    7.3074    6.5797   22.2966 N   0  0  0  0  0  0  0  0  0  0  0  0
    8.4324   -2.8100   22.5950 N   0  0  0  0  0  0  0  0  0  0  0  0
    9.8184    5.4362   23.0052 N   0  3  0  0  0  0  0  0  0  0  0  0
    5.0008    6.7932   22.1224 O   0  0  0  0  0  0  0  0  0  0  0  0
    9.8774   -4.1328   24.2707 O   0  0  0  0  0  0  0  0  0  0  0  0
    8.7979   -1.9782   25.0056 O   0  0  0  0  0  0  0  0  0  0  0  0
    9.4437   -2.7751   23.9718 S   0  0  0  0  0  0  0  0  0  0  0  0
   13.7957   -2.3726   21.8010 H   0  0  0  0  0  0  0  0  0  0  0  0
   13.8573    0.0880   21.9868 H   0  0  0  0  0  0  0  0  0  0  0  0
   11.8621   -3.6423   22.6700 H   0  0  0  0  0  0  0  0  0  0  0  0
   10.0120    0.0336   23.9301 H   0  0  0  0  0  0  0  0  0  0  0  0
   10.0963    2.0273   24.0619 H   0  0  0  0  0  0  0  0  0  0  0  0
    8.3575    8.4093   22.1408 H   0  0  0  0  0  0  0  0  0  0  0  0
    8.8690    7.1261   21.0438 H   0  0  0  0  0  0  0  0  0  0  0  0
    7.7638    4.8351   21.2687 H   0  0  0  0  0  0  0  0  0  0  0  0
    6.5385    4.6047   22.5096 H   0  0  0  0  0  0  0  0  0  0  0  0
   10.5729    7.4030   22.8165 H   0  0  0  0  0  0  0  0  0  0  0  0
    9.3387    7.1923   24.0976 H   0  0  0  0  0  0  0  0  0  0  0  0
    8.2381    4.9084   24.3207 H   0  0  0  0  0  0  0  0  0  0  0  0
    8.7493    3.6206   23.1857 H   0  0  0  0  0  0  0  0  0  0  0  0
    6.2889    9.3639   22.2530 H   0  0  0  0  0  0  0  0  0  0  0  0
    7.0091    8.6866   23.7304 H   0  0  0  0  0  0  0  0  0  0  0  0
    5.2475    8.8335   23.5926 H   0  0  0  0  0  0  0  0  0  0  0  0
   10.5262    4.9313   24.9151 H   0  0  0  0  0  0  0  0  0  0  0  0
   11.6913    5.7786   23.8878 H   0  0  0  0  0  0  0  0  0  0  0  0
    8.3190   -3.7047   22.1029 H   0  0  0  0  0  0  0  0  0  0  0  0
    7.5836   -2.2315   22.6055 H   0  0  0  0  0  0  0  0  0  0  0  0
   10.1021    5.2047   22.0432 H   0  0  0  0  0  0  0  0  0  0  0  0
  1  2  2  0  0  0  0
  1  3  1  0  0  0  0
  2  6  1  0  0  0  0
  3  7  2  0  0  0  0
  4  6  2  0  0  0  0
  4  7  1  0  0  0  0
  5  8  2  0  0  0  0
  5 18  1  0  0  0  0
  6 18  1  0  0  0  0
  7 25  1  0  0  0  0
  8 15  1  0  0  0  0
  8 16  1  0  0  0  0
  9 14  1  0  0  0  0
  9 19  1  0  0  0  0
  9 22  2  0  0  0  0
 10 12  1  0  0  0  0
 10 19  1  0  0  0  0
 11 13  1  0  0  0  0
 11 19  1  0  0  0  0
 12 21  1  0  0  0  0
 13 21  1  0  0  0  0
 15 21  1  0  0  0  0
 16 17  2  0  0  0  0
 17 18  1  0  0  0  0
 20 25  1  0  0  0  0
 23 25  2  0  0  0  0
 24 25  2  0  0  0  0
  1 26  1  0  0  0  0
  2 27  1  0  0  0  0
  3 28  1  0  0  0  0
  4 29  1  0  0  0  0
  5 30  1  0  0  0  0
 10 31  1  0  0  0  0
 10 32  1  0  0  0  0
 11 33  1  0  0  0  0
 11 34  1  0  0  0  0
 12 35  1  0  0  0  0
 12 36  1  0  0  0  0
 13 37  1  0  0  0  0
 13 38  1  0  0  0  0
 14 39  1  0  0  0  0
 14 40  1  0  0  0  0
 14 41  1  0  0  0  0
 15 42  1  0  0  0  0
 15 43  1  0  0  0  0
 20 44  1  0  0  0  0
 20 45  1  0  0  0  0
 21 46  1  0  0  0  0
M  CHG  1  21   1
M  END
> <IC50 (uM)>

> <IC50 (uM) - std>

> <Average Inhibition @ 20 uM>

> <Average Inhibition @ 20 uM - std>
-2.75

> <Average Inhibition @ 50 uM>
1.47

> <Average Inhibition @ 50 uM - std>
1.36

> <Trypsin IC50 (uM)>
0.123

> <Relative Solubility @ 20 uM>
0.95

> <Relative Solubility @ 100 uM>
0.97

> <Hybrid2>
-7.492530

> <docked_fragment>
x0104

> <Mpro-_dock>
3.13829

> <site>
active-noncovalent

$$$$
BAR-COM-4e090d3a-44
  -OEChem-05192003313D

 51 53  0     1  0  0  0  0  0999 V2000
   12.2593    1.3543   24.2735 C   0  0  0  0  0  0  0  0  0  0  0  0
   11.8409    1.9847   23.1017 C   0  0  0  0  0  0  0  0  0  0  0  0
   11.6307    0.1839   24.6985 C   0  0  0  0  0  0  0  0  0  0  0  0
   10.7938    1.4447   22.3549 C   0  0  0  0  0  0  0  0  0  0  0  0
    4.9893    1.5038   18.5371 C   0  0  0  0  0  0  0  0  0  0  0  0
    3.9233    2.0504   19.2130 C   0  0  0  0  0  0  0  0  0  0  0  0
    4.8366    0.6192   20.5794 C   0  0  0  0  0  0  0  0  0  0  0  0
   10.5835   -0.3560   23.9518 C   0  0  0  0  0  0  0  0  0  0  0  0
    5.5823    0.5741   19.4244 C   0  0  0  0  0  0  0  0  0  0  0  0
   10.1651    0.2744   22.7800 C   0  0  0  0  0  0  0  0  0  0  0  0
    9.9478   -1.5806   24.4241 C   0  0  0  0  0  0  0  0  0  0  0  0
    8.5714    0.2558   20.8203 C   0  0  0  0  0  0  0  0  0  0  0  0
    6.0551   -1.3241   26.0209 C   0  0  0  0  0  0  0  0  0  0  0  0
    8.2825   -0.1736   25.7647 C   0  0  0  0  0  0  0  0  0  0  0  0
    8.2082   -2.6376   25.8506 C   0  0  0  0  0  0  0  0  0  0  0  0
    6.7853   -0.1003   25.4424 C   0  0  2  0  0  0  0  0  0  0  0  0
    6.7040   -2.6354   25.5463 C   0  0  1  0  0  0  0  0  0  0  0  0
    6.1789    1.1950   25.9755 C   0  0  0  0  0  0  0  0  0  0  0  0
    6.0206   -3.8407   26.1870 C   0  0  0  0  0  0  0  0  0  0  0  0
    6.7829   -0.2879   19.1606 C   0  0  0  0  0  0  0  0  0  0  0  0
    8.8476   -1.4449   25.2906 N   0  0  0  0  0  0  0  0  0  0  0  0
    9.1169   -0.2474   22.0168 N   0  0  0  0  0  0  0  0  0  0  0  0
    7.5292   -0.5596   20.3675 N   0  0  0  0  0  0  0  0  0  0  0  0
   10.3748   -2.6786   24.0627 O   0  0  0  0  0  0  0  0  0  0  0  0
    8.9370    1.2687   20.2286 O   0  0  0  0  0  0  0  0  0  0  0  0
    3.8234    1.5167   20.4586 O   0  0  0  0  0  0  0  0  0  0  0  0
   13.0745    1.7752   24.8549 H   0  0  0  0  0  0  0  0  0  0  0  0
   12.3309    2.8958   22.7710 H   0  0  0  0  0  0  0  0  0  0  0  0
   11.9661   -0.2979   25.6134 H   0  0  0  0  0  0  0  0  0  0  0  0
   10.4771    1.9455   21.4435 H   0  0  0  0  0  0  0  0  0  0  0  0
    5.2973    1.7475   17.5303 H   0  0  0  0  0  0  0  0  0  0  0  0
    3.1785    2.7910   18.9607 H   0  0  0  0  0  0  0  0  0  0  0  0
    4.8920    0.1042   21.5277 H   0  0  0  0  0  0  0  0  0  0  0  0
    6.0703   -1.2801   27.1180 H   0  0  0  0  0  0  0  0  0  0  0  0
    5.0012   -1.3026   25.7170 H   0  0  0  0  0  0  0  0  0  0  0  0
    8.8009    0.6807   25.3210 H   0  0  0  0  0  0  0  0  0  0  0  0
    8.4528   -0.1274   26.8476 H   0  0  0  0  0  0  0  0  0  0  0  0
    8.3908   -2.6289   26.9322 H   0  0  0  0  0  0  0  0  0  0  0  0
    8.6736   -3.5435   25.4475 H   0  0  0  0  0  0  0  0  0  0  0  0
    6.6632   -0.1056   24.3488 H   0  0  0  0  0  0  0  0  0  0  0  0
    6.5719   -2.7126   24.4567 H   0  0  0  0  0  0  0  0  0  0  0  0
    6.2829    1.2329   27.0587 H   0  0  0  0  0  0  0  0  0  0  0  0
    5.1223    1.2416   25.7170 H   0  0  0  0  0  0  0  0  0  0  0  0
    6.6914    2.0501   25.5378 H   0  0  0  0  0  0  0  0  0  0  0  0
    6.1321   -3.7963   27.2691 H   0  0  0  0  0  0  0  0  0  0  0  0
    6.4731   -4.7602   25.8193 H   0  0  0  0  0  0  0  0  0  0  0  0
    4.9607   -3.8399   25.9373 H   0  0  0  0  0  0  0  0  0  0  0  0
    6.4813   -1.2478   18.7273 H   0  0  0  0  0  0  0  0  0  0  0  0
    7.4620    0.1916   18.4478 H   0  0  0  0  0  0  0  0  0  0  0  0
    8.6820   -1.1078   22.3631 H   0  0  0  0  0  0  0  0  0  0  0  0
    7.2857   -1.3808   20.9124 H   0  0  0  0  0  0  0  0  0  0  0  0
  1  2  1  0  0  0  0
  1  3  2  0  0  0  0
  2  4  2  0  0  0  0
  3  8  1  0  0  0  0
  4 10  1  0  0  0  0
  5  6  2  0  0  0  0
  5  9  1  0  0  0  0
  6 26  1  0  0  0  0
  7  9  2  0  0  0  0
  7 26  1  0  0  0  0
  8 10  2  0  0  0  0
  8 11  1  0  0  0  0
  9 20  1  0  0  0  0
 10 22  1  0  0  0  0
 11 21  1  0  0  0  0
 11 24  2  0  0  0  0
 12 22  1  0  0  0  0
 12 23  1  0  0  0  0
 12 25  2  0  0  0  0
 13 16  1  0  0  0  0
 13 17  1  0  0  0  0
 14 16  1  0  0  0  0
 14 21  1  0  0  0  0
 15 17  1  0  0  0  0
 15 21  1  0  0  0  0
 16 18  1  0  0  0  0
 17 19  1  0  0  0  0
 20 23  1  0  0  0  0
  1 27  1  0  0  0  0
  2 28  1  0  0  0  0
  3 29  1  0  0  0  0
  4 30  1  0  0  0  0
  5 31  1  0  0  0  0
  6 32  1  0  0  0  0
  7 33  1  0  0  0  0
 13 34  1  0  0  0  0
 13 35  1  0  0  0  0
 14 36  1  0  0  0  0
 14 37  1  0  0  0  0
 15 38  1  0  0  0  0
 15 39  1  0  0  0  0
 16 40  1  0  0  0  0
 17 41  1  0  0  0  0
 18 42  1  0  0  0  0
 18 43  1  0  0  0  0
 18 44  1  0  0  0  0
 19 45  1  0  0  0  0
 19 46  1  0  0  0  0
 19 47  1  0  0  0  0
 20 48  1  0  0  0  0
 20 49  1  0  0  0  0
 22 50  1  0  0  0  0
 23 51  1  0  0  0  0
M  END
> <IC50 (uM)>

> <IC50 (uM) - std>

> <Average Inhibition @ 20 uM>

> <Average Inhibition @ 20 uM - std>

> <Average Inhibition @ 50 uM>

> <Average Inhibition @ 50 uM - std>
-2.25

> <Trypsin IC50 (uM)>
2.31

> <Relative Solubility @ 20 uM>

> <Relative Solubility @ 100 uM>

> <Hybrid2>
-7.434844

> <docked_fragment>
x0434

> <Mpro-_dock>
1.961923

> <site>
active-noncovalent

$$$$
JOH-UNI-c7afdb96-8
  -OEChem-05192003313D

 32 33  0     0  0  0  0  0  0999 V2000
    7.2523   -1.9109   21.3193 C   0  0  0  0  0  0  0  0  0  0  0  0
   12.1235    0.8619   24.0218 C   0  0  0  0  0  0  0  0  0  0  0  0
   13.0183    0.0158   24.6768 C   0  0  0  0  0  0  0  0  0  0  0  0
   11.0325    0.3274   23.3365 C   0  0  0  0  0  0  0  0  0  0  0  0
   11.7310   -1.8994   23.9611 C   0  0  0  0  0  0  0  0  0  0  0  0
   12.8220   -1.3649   24.6465 C   0  0  0  0  0  0  0  0  0  0  0  0
   10.8362   -1.0532   23.3061 C   0  0  0  0  0  0  0  0  0  0  0  0
    7.9031   -3.0173   21.9449 C   0  0  0  0  0  0  0  0  0  0  0  0
    7.5529   -4.2937   21.6842 C   0  0  0  0  0  0  0  0  0  0  0  0
    9.0278   -2.7571   22.9134 C   0  0  0  0  0  0  0  0  0  0  0  0
    7.6660   -5.9605   23.6109 C   0  0  0  0  0  0  0  0  0  0  0  0
    7.3642   -6.7431   22.3673 C   0  0  0  0  0  0  0  0  0  0  0  0
    8.1858   -5.5124   22.2983 C   0  0  0  0  0  0  0  0  0  0  0  0
   13.7789   -2.2691   25.3469 C   0  0  0  0  0  0  0  0  0  0  0  0
    6.7292   -1.0055   20.8159 N   0  0  0  0  0  0  0  0  0  0  0  0
    9.7277   -1.5957   22.6106 N   0  0  0  0  0  0  0  0  0  0  0  0
    9.2406   -3.5325   23.8401 O   0  0  0  0  0  0  0  0  0  0  0  0
    6.5513   -4.5853   20.7707 O   0  0  0  0  0  0  0  0  0  0  0  0
   12.2761    1.9370   24.0457 H   0  0  0  0  0  0  0  0  0  0  0  0
   13.8655    0.4414   25.2074 H   0  0  0  0  0  0  0  0  0  0  0  0
   10.3417    0.9963   22.8294 H   0  0  0  0  0  0  0  0  0  0  0  0
   11.5805   -2.9766   23.9383 H   0  0  0  0  0  0  0  0  0  0  0  0
    6.8443   -5.4405   24.0888 H   0  0  0  0  0  0  0  0  0  0  0  0
    8.3932   -6.3716   24.3010 H   0  0  0  0  0  0  0  0  0  0  0  0
    7.8889   -7.6799   22.2224 H   0  0  0  0  0  0  0  0  0  0  0  0
    6.3404   -6.7474   22.0126 H   0  0  0  0  0  0  0  0  0  0  0  0
    9.2266   -5.5717   22.0830 H   0  0  0  0  0  0  0  0  0  0  0  0
   13.4566   -2.4389   26.3816 H   0  0  0  0  0  0  0  0  0  0  0  0
   13.8519   -3.2408   24.8415 H   0  0  0  0  0  0  0  0  0  0  0  0
   14.7907   -1.8430   25.3633 H   0  0  0  0  0  0  0  0  0  0  0  0
    9.4188   -1.0478   21.8106 H   0  0  0  0  0  0  0  0  0  0  0  0
    6.2025   -3.7681   20.4065 H   0  0  0  0  0  0  0  0  0  0  0  0
  1  8  1  0  0  0  0
  1 15  3  0  0  0  0
  2  3  2  0  0  0  0
  2  4  1  0  0  0  0
  3  6  1  0  0  0  0
  4  7  2  0  0  0  0
  5  6  2  0  0  0  0
  5  7  1  0  0  0  0
  6 14  1  0  0  0  0
  7 16  1  0  0  0  0
  8  9  2  0  0  0  0
  8 10  1  0  0  0  0
  9 13  1  0  0  0  0
  9 18  1  0  0  0  0
 10 16  1  0  0  0  0
 10 17  2  0  0  0  0
 11 12  1  0  0  0  0
 11 13  1  0  0  0  0
 12 13  1  0  0  0  0
  2 19  1  0  0  0  0
  3 20  1  0  0  0  0
  4 21  1  0  0  0  0
  5 22  1  0  0  0  0
 11 23  1  0  0  0  0
 11 24  1  0  0  0  0
 12 25  1  0  0  0  0
 12 26  1  0  0  0  0
 13 27  1  0  0  0  0
 14 28  1  0  0  0  0
 14 29  1  0  0  0  0
 14 30  1  0  0  0  0
 16 31  1  0  0  0  0
 18 32  1  0  0  0  0
M  END
> <IC50 (uM)>

> <IC50 (uM) - std>

> <Average Inhibition @ 20 uM>

> <Average Inhibition @ 20 uM - std>

> <Average Inhibition @ 50 uM>

> <Average Inhibition @ 50 uM - std>
24.5

> <Trypsin IC50 (uM)>
1.88

> <Relative Solubility @ 20 uM>

> <Relative Solubility @ 100 uM>

> <Hybrid2>
-7.429615

> <docked_fragment>
x0749

> <Mpro-_dock>
-0.814102

> <site>
active-covalent

$$$$
LON-WEI-d1c9908a-1
  -OEChem-05192003313D

 58 60  0     1  0  0  0  0  0999 V2000
    3.3852   -3.2034   25.0031 C   0  0  0  0  0  0  0  0  0  0  0  0
   10.9754   -2.4691   23.2447 C   0  0  0  0  0  0  0  0  0  0  0  0
    9.6796   -1.9339   25.2123 C   0  0  0  0  0  0  0  0  0  0  0  0
    4.4830   -2.6466   24.3564 C   0  0  0  0  0  0  0  0  0  0  0  0
    9.8389   -3.0094   22.6431 C   0  0  0  0  0  0  0  0  0  0  0  0
    8.5430   -2.4742   24.6107 C   0  0  0  0  0  0  0  0  0  0  0  0
    2.9145   -4.4242   24.5473 C   0  0  0  0  0  0  0  0  0  0  0  0
    4.5223   -4.5340   22.9099 C   0  0  0  0  0  0  0  0  0  0  0  0
   10.8958   -1.9313   24.5293 C   0  0  0  0  0  0  0  0  0  0  0  0
    5.0682   -3.3182   23.2888 C   0  0  0  0  0  0  0  0  0  0  0  0
    8.6227   -3.0120   23.3261 C   0  0  0  0  0  0  0  0  0  0  0  0
    8.9134   -6.8948   22.5229 C   0  0  0  0  0  0  0  0  0  0  0  0
    8.3565   -5.8192   23.0887 C   0  0  0  0  0  0  0  0  0  0  0  0
    7.4293   -4.9513   22.3049 C   0  0  0  0  0  0  0  0  0  0  0  0
    5.9819   -2.5377   21.0816 C   0  0  0  0  0  0  0  0  0  0  0  0
   13.3042   -2.2672   25.3833 C   0  0  0  0  0  0  0  0  0  0  0  0
   12.4806   -1.8456   26.5598 C   0  0  0  0  0  0  0  0  0  0  0  0
   12.1100   -1.3541   25.1721 C   0  0  0  0  0  0  0  0  0  0  0  0
   12.3791    0.0881   24.8432 C   0  0  0  0  0  0  0  0  0  0  0  0
    7.5284    0.1408   18.9383 C   0  0  0  0  0  0  0  0  0  0  0  0
    6.9806   -2.2090   18.2549 C   0  0  0  0  0  0  0  0  0  0  0  0
    5.1443   -0.6269   18.8979 C   0  0  0  0  0  0  0  0  0  0  0  0
    6.2624   -2.7399   22.5659 C   0  0  2  0  0  0  0  0  0  0  0  0
    6.5915   -1.0489   19.1772 C   0  0  0  0  0  0  0  0  0  0  0  0
    3.4567   -5.1063   23.5137 N   0  0  0  0  0  0  0  0  0  0  0  0
    6.7072   -1.4811   20.5581 N   0  0  0  0  0  0  0  0  0  0  0  0
    7.4277   -3.5802   22.6938 N   0  0  0  0  0  0  0  0  0  0  0  0
    6.7531   -5.4600   21.4104 O   0  0  0  0  0  0  0  0  0  0  0  0
    5.1726   -3.2208   20.4571 O   0  0  0  0  0  0  0  0  0  0  0  0
    2.9131   -2.6978   25.8377 H   0  0  0  0  0  0  0  0  0  0  0  0
   11.9184   -2.4718   22.7043 H   0  0  0  0  0  0  0  0  0  0  0  0
    9.6079   -1.5171   26.2135 H   0  0  0  0  0  0  0  0  0  0  0  0
    4.8754   -1.6901   24.6909 H   0  0  0  0  0  0  0  0  0  0  0  0
    9.9127   -3.4259   21.6417 H   0  0  0  0  0  0  0  0  0  0  0  0
    7.6007   -2.4708   25.1527 H   0  0  0  0  0  0  0  0  0  0  0  0
    2.0604   -4.9002   25.0179 H   0  0  0  0  0  0  0  0  0  0  0  0
    4.9365   -5.1038   22.0839 H   0  0  0  0  0  0  0  0  0  0  0  0
    9.5685   -7.5356   23.1038 H   0  0  0  0  0  0  0  0  0  0  0  0
    8.7439   -7.1617   21.4856 H   0  0  0  0  0  0  0  0  0  0  0  0
    8.5393   -5.5971   24.1336 H   0  0  0  0  0  0  0  0  0  0  0  0
   14.2994   -1.8484   25.2894 H   0  0  0  0  0  0  0  0  0  0  0  0
   13.2334   -3.3008   25.0643 H   0  0  0  0  0  0  0  0  0  0  0  0
   11.8575   -2.5970   27.0313 H   0  0  0  0  0  0  0  0  0  0  0  0
   12.9207   -1.1424   27.2574 H   0  0  0  0  0  0  0  0  0  0  0  0
   13.2849    0.4441   25.3495 H   0  0  0  0  0  0  0  0  0  0  0  0
   11.5437    0.7254   25.1586 H   0  0  0  0  0  0  0  0  0  0  0  0
   12.5197    0.2253   23.7639 H   0  0  0  0  0  0  0  0  0  0  0  0
    7.2699    0.9853   19.5877 H   0  0  0  0  0  0  0  0  0  0  0  0
    8.5722   -0.1278   19.1353 H   0  0  0  0  0  0  0  0  0  0  0  0
    7.4605    0.4954   17.9032 H   0  0  0  0  0  0  0  0  0  0  0  0
    6.3235   -3.0730   18.4077 H   0  0  0  0  0  0  0  0  0  0  0  0
    8.0059   -2.5435   18.4515 H   0  0  0  0  0  0  0  0  0  0  0  0
    6.9168   -1.9191   17.2003 H   0  0  0  0  0  0  0  0  0  0  0  0
    4.4513   -1.4603   19.0612 H   0  0  0  0  0  0  0  0  0  0  0  0
    4.8374    0.1998   19.5480 H   0  0  0  0  0  0  0  0  0  0  0  0
    5.0203   -0.3015   17.8584 H   0  0  0  0  0  0  0  0  0  0  0  0
    6.5493   -1.7777   23.0072 H   0  0  0  0  0  0  0  0  0  0  0  0
    7.3532   -0.9709   21.1481 H   0  0  0  0  0  0  0  0  0  0  0  0
  1  4  2  0  0  0  0
  1  7  1  0  0  0  0
  2  5  2  0  0  0  0
  2  9  1  0  0  0  0
  3  6  1  0  0  0  0
  3  9  2  0  0  0  0
  4 10  1  0  0  0  0
  5 11  1  0  0  0  0
  6 11  2  0  0  0  0
  7 25  2  0  0  0  0
  8 10  2  0  0  0  0
  8 25  1  0  0  0  0
  9 18  1  0  0  0  0
 10 23  1  0  0  0  0
 11 27  1  0  0  0  0
 12 13  2  0  0  0  0
 13 14  1  0  0  0  0
 14 27  1  0  0  0  0
 14 28  2  0  0  0  0
 15 23  1  0  0  0  0
 15 26  1  0  0  0  0
 15 29  2  0  0  0  0
 16 17  1  0  0  0  0
 16 18  1  0  0  0  0
 17 18  1  0  0  0  0
 18 19  1  0  0  0  0
 20 24  1  0  0  0  0
 21 24  1  0  0  0  0
 22 24  1  0  0  0  0
 23 27  1  0  0  0  0
 24 26  1  0  0  0  0
  1 30  1  0  0  0  0
  2 31  1  0  0  0  0
  3 32  1  0  0  0  0
  4 33  1  0  0  0  0
  5 34  1  0  0  0  0
  6 35  1  0  0  0  0
  7 36  1  0  0  0  0
  8 37  1  0  0  0  0
 12 38  1  0  0  0  0
 12 39  1  0  0  0  0
 13 40  1  0  0  0  0
 16 41  1  0  0  0  0
 16 42  1  0  0  0  0
 17 43  1  0  0  0  0
 17 44  1  0  0  0  0
 19 45  1  0  0  0  0
 19 46  1  0  0  0  0
 19 47  1  0  0  0  0
 20 48  1  0  0  0  0
 20 49  1  0  0  0  0
 20 50  1  0  0  0  0
 21 51  1  0  0  0  0
 21 52  1  0  0  0  0
 21 53  1  0  0  0  0
 22 54  1  0  0  0  0
 22 55  1  0  0  0  0
 22 56  1  0  0  0  0
 23 57  1  0  0  0  0
 26 58  1  0  0  0  0
M  END
> <IC50 (uM)>

> <IC50 (uM) - std>

> <Average Inhibition @ 20 uM>

> <Average Inhibition @ 20 uM - std>

> <Average Inhibition @ 50 uM>

> <Average Inhibition @ 50 uM - std>
25.8

> <Trypsin IC50 (uM)>
0.0492

> <Relative Solubility @ 20 uM>

> <Relative Solubility @ 100 uM>

> <Hybrid2>
-7.423429

> <docked_fragment>
x0749

> <Mpro-_dock>
2.038586

> <site>
active-covalent

$$$$
ANT-DIA-b7f58f21-2
  -OEChem-05192003313D

 27 27  0     0  0  0  0  0  0999 V2000
    7.7266   -6.3200   22.5286 C   0  0  0  0  0  0  0  0  0  0  0  0
    8.4395   -5.3767   23.2686 C   0  0  0  0  0  0  0  0  0  0  0  0
    6.8481   -5.9029   21.5286 C   0  0  0  0  0  0  0  0  0  0  0  0
    7.3953   -3.5992   22.0088 C   0  0  0  0  0  0  0  0  0  0  0  0
    8.2738   -4.0163   23.0088 C   0  0  0  0  0  0  0  0  0  0  0  0
    6.6824   -4.5425   21.2687 C   0  0  0  0  0  0  0  0  0  0  0  0
   13.6725   -2.5550   24.1968 C   0  0  0  0  0  0  0  0  0  0  0  0
    9.0447   -2.9960   23.8098 C   0  0  0  0  0  0  0  0  0  0  0  0
   10.3935   -2.6451   23.1866 C   0  0  0  0  0  0  0  0  0  0  0  0
   11.1506   -1.6681   23.9896 N   0  0  0  0  0  0  0  0  0  0  0  0
   11.7603   -3.4966   25.7157 O   0  0  0  0  0  0  0  0  0  0  0  0
   12.5515   -1.1294   26.0720 O   0  0  0  0  0  0  0  0  0  0  0  0
    5.8256   -4.1356   20.2924 O   0  0  0  0  0  0  0  0  0  0  0  0
   12.2305   -2.2317   25.1858 S   0  0  0  0  0  0  0  0  0  0  0  0
    7.8560   -7.3791   22.7306 H   0  0  0  0  0  0  0  0  0  0  0  0
    9.1213   -5.7112   24.0460 H   0  0  0  0  0  0  0  0  0  0  0  0
    6.2958   -6.6425   20.9557 H   0  0  0  0  0  0  0  0  0  0  0  0
    7.2638   -2.5392   21.8042 H   0  0  0  0  0  0  0  0  0  0  0  0
   14.4614   -2.9302   24.8506 H   0  0  0  0  0  0  0  0  0  0  0  0
   13.4133   -3.3005   23.4435 H   0  0  0  0  0  0  0  0  0  0  0  0
   13.9806   -1.6223   23.7220 H   0  0  0  0  0  0  0  0  0  0  0  0
    9.2046   -3.3949   24.8195 H   0  0  0  0  0  0  0  0  0  0  0  0
    8.4396   -2.0891   23.9359 H   0  0  0  0  0  0  0  0  0  0  0  0
   11.0153   -3.5429   23.1133 H   0  0  0  0  0  0  0  0  0  0  0  0
   10.2775   -2.2271   22.1812 H   0  0  0  0  0  0  0  0  0  0  0  0
   11.4320   -0.8279   23.4679 H   0  0  0  0  0  0  0  0  0  0  0  0
    5.8199   -3.1670   20.2324 H   0  0  0  0  0  0  0  0  0  0  0  0
  1  2  2  0  0  0  0
  1  3  1  0  0  0  0
  2  5  1  0  0  0  0
  3  6  2  0  0  0  0
  4  5  2  0  0  0  0
  4  6  1  0  0  0  0
  5  8  1  0  0  0  0
  6 13  1  0  0  0  0
  7 14  1  0  0  0  0
  8  9  1  0  0  0  0
  9 10  1  0  0  0  0
 10 14  1  0  0  0  0
 11 14  2  0  0  0  0
 12 14  2  0  0  0  0
  1 15  1  0  0  0  0
  2 16  1  0  0  0  0
  3 17  1  0  0  0  0
  4 18  1  0  0  0  0
  7 19  1  0  0  0  0
  7 20  1  0  0  0  0
  7 21  1  0  0  0  0
  8 22  1  0  0  0  0
  8 23  1  0  0  0  0
  9 24  1  0  0  0  0
  9 25  1  0  0  0  0
 10 26  1  0  0  0  0
 13 27  1  0  0  0  0
M  END
> <IC50 (uM)>

> <IC50 (uM) - std>

> <Average Inhibition @ 20 uM>

> <Average Inhibition @ 20 uM - std>
-1.8

> <Average Inhibition @ 50 uM>
0.0968

> <Average Inhibition @ 50 uM - std>
0.0445

> <Trypsin IC50 (uM)>
0.735

> <Relative Solubility @ 20 uM>
1.0

> <Relative Solubility @ 100 uM>
1.0

> <Hybrid2>
-7.416083

> <docked_fragment>
x0749

> <Mpro-_dock>
-2.026322

> <site>
active-covalent

$$$$
JOH-UNI-c7afdb96-12
  -OEChem-05192003313D

 37 37  0     0  0  0  0  0  0999 V2000
    7.9561   -4.2704   21.9122 C   0  0  0  0  0  0  0  0  0  0  0  0
   13.1708    0.2766   23.2658 C   0  0  0  0  0  0  0  0  0  0  0  0
   13.3230   -0.6831   22.2651 C   0  0  0  0  0  0  0  0  0  0  0  0
   11.9212    0.4827   23.8502 C   0  0  0  0  0  0  0  0  0  0  0  0
   12.2256   -1.4366   21.8487 C   0  0  0  0  0  0  0  0  0  0  0  0
   10.8237   -0.2708   23.4338 C   0  0  0  0  0  0  0  0  0  0  0  0
   10.9759   -1.2305   22.4331 C   0  0  0  0  0  0  0  0  0  0  0  0
    7.6416   -2.8849   21.7940 C   0  0  0  0  0  0  0  0  0  0  0  0
    6.6097   -2.4290   21.0541 C   0  0  0  0  0  0  0  0  0  0  0  0
    8.5584   -1.9143   22.4777 C   0  0  0  0  0  0  0  0  0  0  0  0
    5.3410    0.7807   19.2428 C   0  0  0  0  0  0  0  0  0  0  0  0
    6.0525   -1.4638   18.3916 C   0  0  0  0  0  0  0  0  0  0  0  0
    7.7566    0.1503   19.2475 C   0  0  0  0  0  0  0  0  0  0  0  0
    6.2294   -0.9685   20.8927 C   0  0  0  0  0  0  0  0  0  0  0  0
    6.3245   -0.3833   19.4528 C   0  0  0  0  0  0  0  0  0  0  0  0
    8.2174   -5.3964   22.0145 N   0  0  0  0  0  0  0  0  0  0  0  0
    9.8624   -1.9953   22.0105 N   0  0  0  0  0  0  0  0  0  0  0  0
    8.0985   -1.1372   23.3079 O   0  0  0  0  0  0  0  0  0  0  0  0
    5.7490   -3.3243   20.4335 O   0  0  0  0  0  0  0  0  0  0  0  0
   14.0253    0.8630   23.5908 H   0  0  0  0  0  0  0  0  0  0  0  0
   14.2960   -0.8444   21.8104 H   0  0  0  0  0  0  0  0  0  0  0  0
   11.8032    1.2294   24.6301 H   0  0  0  0  0  0  0  0  0  0  0  0
   12.3562   -2.1819   21.0680 H   0  0  0  0  0  0  0  0  0  0  0  0
    9.8545   -0.1015   23.8966 H   0  0  0  0  0  0  0  0  0  0  0  0
    5.5047    1.5727   19.9829 H   0  0  0  0  0  0  0  0  0  0  0  0
    5.4570    1.2369   18.2541 H   0  0  0  0  0  0  0  0  0  0  0  0
    4.3031    0.4445   19.3435 H   0  0  0  0  0  0  0  0  0  0  0  0
    6.7366   -2.3121   18.5100 H   0  0  0  0  0  0  0  0  0  0  0  0
    6.1888   -1.0780   17.3758 H   0  0  0  0  0  0  0  0  0  0  0  0
    5.0312   -1.8511   18.4742 H   0  0  0  0  0  0  0  0  0  0  0  0
    8.4989   -0.6439   19.3866 H   0  0  0  0  0  0  0  0  0  0  0  0
    7.8898    0.5553   18.2379 H   0  0  0  0  0  0  0  0  0  0  0  0
    7.9859    0.9510   19.9596 H   0  0  0  0  0  0  0  0  0  0  0  0
    5.2033   -0.8413   21.2661 H   0  0  0  0  0  0  0  0  0  0  0  0
    6.8384   -0.3487   21.5638 H   0  0  0  0  0  0  0  0  0  0  0  0
   10.0587   -2.6733   21.2767 H   0  0  0  0  0  0  0  0  0  0  0  0
    5.0766   -2.8375   19.9519 H   0  0  0  0  0  0  0  0  0  0  0  0
  1  8  1  0  0  0  0
  1 16  3  0  0  0  0
  2  3  1  0  0  0  0
  2  4  2  0  0  0  0
  3  5  2  0  0  0  0
  4  6  1  0  0  0  0
  5  7  1  0  0  0  0
  6  7  2  0  0  0  0
  7 17  1  0  0  0  0
  8  9  2  0  0  0  0
  8 10  1  0  0  0  0
  9 14  1  0  0  0  0
  9 19  1  0  0  0  0
 10 17  1  0  0  0  0
 10 18  2  0  0  0  0
 11 15  1  0  0  0  0
 12 15  1  0  0  0  0
 13 15  1  0  0  0  0
 14 15  1  0  0  0  0
  2 20  1  0  0  0  0
  3 21  1  0  0  0  0
  4 22  1  0  0  0  0
  5 23  1  0  0  0  0
  6 24  1  0  0  0  0
 11 25  1  0  0  0  0
 11 26  1  0  0  0  0
 11 27  1  0  0  0  0
 12 28  1  0  0  0  0
 12 29  1  0  0  0  0
 12 30  1  0  0  0  0
 13 31  1  0  0  0  0
 13 32  1  0  0  0  0
 13 33  1  0  0  0  0
 14 34  1  0  0  0  0
 14 35  1  0  0  0  0
 17 36  1  0  0  0  0
 19 37  1  0  0  0  0
M  END
> <IC50 (uM)>

> <IC50 (uM) - std>

> <Average Inhibition @ 20 uM>

> <Average Inhibition @ 20 uM - std>

> <Average Inhibition @ 50 uM>

> <Average Inhibition @ 50 uM - std>
9.17

> <Trypsin IC50 (uM)>
0.491

> <Relative Solubility @ 20 uM>

> <Relative Solubility @ 100 uM>

> <Hybrid2>
-7.342156

> <docked_fragment>
x0831

> <Mpro-_dock>
-0.913601

> <site>
active-covalent

$$$$
JOH-UNI-c7afdb96-11
  -OEChem-05192003313D

 37 37  0     0  0  0  0  0  0999 V2000
    7.7177   -2.6470   21.4406 C   0  0  0  0  0  0  0  0  0  0  0  0
   12.7797   -1.2951   24.7969 C   0  0  0  0  0  0  0  0  0  0  0  0
   12.4547   -3.4563   25.8270 C   0  0  0  0  0  0  0  0  0  0  0  0
   11.6187   -1.4784   24.0460 C   0  0  0  0  0  0  0  0  0  0  0  0
   11.2936   -3.6396   25.0761 C   0  0  0  0  0  0  0  0  0  0  0  0
   13.1978   -2.2841   25.6874 C   0  0  0  0  0  0  0  0  0  0  0  0
   10.8756   -2.6506   24.1856 C   0  0  0  0  0  0  0  0  0  0  0  0
    7.8851   -3.8439   22.2008 C   0  0  0  0  0  0  0  0  0  0  0  0
    6.9542   -4.8212   22.2124 C   0  0  0  0  0  0  0  0  0  0  0  0
    9.1522   -4.0402   22.9914 C   0  0  0  0  0  0  0  0  0  0  0  0
   14.4392   -2.0880   26.4902 C   0  0  0  0  0  0  0  0  0  0  0  0
    7.0379   -4.9702   25.2303 C   0  0  0  0  0  0  0  0  0  0  0  0
    4.8790   -5.8107   24.2816 C   0  0  0  0  0  0  0  0  0  0  0  0
    7.0593   -6.1173   22.9921 C   0  0  0  0  0  0  0  0  0  0  0  0
    6.3856   -6.0625   24.3790 C   0  0  0  0  0  0  0  0  0  0  0  0
    7.5901   -1.6724   20.8235 N   0  0  0  0  0  0  0  0  0  0  0  0
    9.6962   -2.8370   23.4233 N   0  0  0  0  0  0  0  0  0  0  0  0
    9.5929   -5.1683   23.1873 O   0  0  0  0  0  0  0  0  0  0  0  0
    5.8100   -4.7182   21.4343 O   0  0  0  0  0  0  0  0  0  0  0  0
   13.3537   -0.3797   24.6802 H   0  0  0  0  0  0  0  0  0  0  0  0
   12.7735   -4.2323   26.5179 H   0  0  0  0  0  0  0  0  0  0  0  0
   11.3020   -0.7009   23.3553 H   0  0  0  0  0  0  0  0  0  0  0  0
   10.7227   -4.5574   25.1919 H   0  0  0  0  0  0  0  0  0  0  0  0
   14.2045   -1.5984   27.4433 H   0  0  0  0  0  0  0  0  0  0  0  0
   14.9316   -3.0458   26.7031 H   0  0  0  0  0  0  0  0  0  0  0  0
   15.1685   -1.4690   25.9514 H   0  0  0  0  0  0  0  0  0  0  0  0
    6.9157   -3.9875   24.7624 H   0  0  0  0  0  0  0  0  0  0  0  0
    8.1118   -5.1537   25.3430 H   0  0  0  0  0  0  0  0  0  0  0  0
    6.5945   -4.9275   26.2310 H   0  0  0  0  0  0  0  0  0  0  0  0
    4.6668   -4.8631   23.7749 H   0  0  0  0  0  0  0  0  0  0  0  0
    4.3754   -6.6122   23.7322 H   0  0  0  0  0  0  0  0  0  0  0  0
    4.4285   -5.7674   25.2791 H   0  0  0  0  0  0  0  0  0  0  0  0
    8.1031   -6.4312   23.1099 H   0  0  0  0  0  0  0  0  0  0  0  0
    6.5897   -6.9087   22.3921 H   0  0  0  0  0  0  0  0  0  0  0  0
    6.5379   -7.0203   24.8928 H   0  0  0  0  0  0  0  0  0  0  0  0
    9.2015   -1.9790   23.1893 H   0  0  0  0  0  0  0  0  0  0  0  0
    5.2637   -5.4966   21.5656 H   0  0  0  0  0  0  0  0  0  0  0  0
  1  8  1  0  0  0  0
  1 16  3  0  0  0  0
  2  4  2  0  0  0  0
  2  6  1  0  0  0  0
  3  5  1  0  0  0  0
  3  6  2  0  0  0  0
  4  7  1  0  0  0  0
  5  7  2  0  0  0  0
  6 11  1  0  0  0  0
  7 17  1  0  0  0  0
  8  9  2  0  0  0  0
  8 10  1  0  0  0  0
  9 14  1  0  0  0  0
  9 19  1  0  0  0  0
 10 17  1  0  0  0  0
 10 18  2  0  0  0  0
 12 15  1  0  0  0  0
 13 15  1  0  0  0  0
 14 15  1  0  0  0  0
  2 20  1  0  0  0  0
  3 21  1  0  0  0  0
  4 22  1  0  0  0  0
  5 23  1  0  0  0  0
 11 24  1  0  0  0  0
 11 25  1  0  0  0  0
 11 26  1  0  0  0  0
 12 27  1  0  0  0  0
 12 28  1  0  0  0  0
 12 29  1  0  0  0  0
 13 30  1  0  0  0  0
 13 31  1  0  0  0  0
 13 32  1  0  0  0  0
 14 33  1  0  0  0  0
 14 34  1  0  0  0  0
 15 35  1  0  0  0  0
 17 36  1  0  0  0  0
 19 37  1  0  0  0  0
M  END
> <IC50 (uM)>

> <IC50 (uM) - std>

> <Average Inhibition @ 20 uM>

> <Average Inhibition @ 20 uM - std>

> <Average Inhibition @ 50 uM>

> <Average Inhibition @ 50 uM - std>
25.8

> <Trypsin IC50 (uM)>
0.292

> <Relative Solubility @ 20 uM>

> <Relative Solubility @ 100 uM>

> <Hybrid2>
-7.296918

> <docked_fragment>
x0749

> <Mpro-_dock>
0.099686

> <site>
active-covalent

$$$$
VIJ-CYC-1a381570-11
  -OEChem-05192003313D

 44 44  0     1  0  0  0  0  0999 V2000
   13.8531    1.7800   22.3283 C   0  0  0  0  0  0  0  0  0  0  0  0
   12.1653    1.2867   23.9852 C   0  0  0  0  0  0  0  0  0  0  0  0
   13.4546    3.1167   22.3204 C   0  0  0  0  0  0  0  0  0  0  0  0
   11.7669    2.6234   23.9773 C   0  0  0  0  0  0  0  0  0  0  0  0
   13.2084    0.8650   23.1607 C   0  0  0  0  0  0  0  0  0  0  0  0
   12.4115    3.5384   23.1450 C   0  0  0  0  0  0  0  0  0  0  0  0
   11.3648   -1.5657   22.8688 C   0  0  0  0  0  0  0  0  0  0  0  0
   14.2097   -1.0334   21.8244 C   0  0  0  0  0  0  0  0  0  0  0  0
    8.5347   -3.8545   23.8259 C   0  0  0  0  0  0  0  0  0  0  0  0
    8.3321   -1.5052   22.9726 C   0  0  0  0  0  0  0  0  0  0  0  0
    9.3278   -3.2889   21.5181 C   0  0  0  0  0  0  0  0  0  0  0  0
   12.5087    5.7922   25.7626 C   0  0  0  0  0  0  0  0  0  0  0  0
   13.6400   -0.5857   23.1689 C   0  0  2  0  0  0  0  0  0  0  0  0
    9.1892   -2.7752   22.9559 C   0  0  0  0  0  0  0  0  0  0  0  0
   12.5583   -1.4522   23.5767 N   0  0  0  0  0  0  0  0  0  0  0  0
   10.5055   -2.4662   23.4841 N   0  0  0  0  0  0  0  0  0  0  0  0
   12.9038    5.8964   24.3506 N   0  0  0  0  0  0  0  0  0  0  0  0
   11.1072   -0.9500   21.8352 O   0  0  0  0  0  0  0  0  0  0  0  0
   12.2747    5.8023   21.8542 O   0  0  0  0  0  0  0  0  0  0  0  0
   10.5280    5.2659   23.5821 O   0  0  0  0  0  0  0  0  0  0  0  0
   11.9141    5.2119   23.1369 S   0  0  0  0  0  0  0  0  0  0  0  0
   14.6664    1.4606   21.6823 H   0  0  0  0  0  0  0  0  0  0  0  0
   11.6570    0.5807   24.6367 H   0  0  0  0  0  0  0  0  0  0  0  0
   13.9632    3.8213   21.6677 H   0  0  0  0  0  0  0  0  0  0  0  0
   10.9528    2.9411   24.6234 H   0  0  0  0  0  0  0  0  0  0  0  0
   13.4700   -0.9188   21.0245 H   0  0  0  0  0  0  0  0  0  0  0  0
   15.0892   -0.4349   21.5616 H   0  0  0  0  0  0  0  0  0  0  0  0
   14.5279   -2.0819   21.8426 H   0  0  0  0  0  0  0  0  0  0  0  0
    9.1302   -4.7749   23.8302 H   0  0  0  0  0  0  0  0  0  0  0  0
    8.4264   -3.5191   24.8633 H   0  0  0  0  0  0  0  0  0  0  0  0
    7.5386   -4.1150   23.4494 H   0  0  0  0  0  0  0  0  0  0  0  0
    8.7806   -0.7174   22.3562 H   0  0  0  0  0  0  0  0  0  0  0  0
    8.2367   -1.1059   23.9890 H   0  0  0  0  0  0  0  0  0  0  0  0
    7.3237   -1.6993   22.5905 H   0  0  0  0  0  0  0  0  0  0  0  0
    9.7940   -2.5354   20.8727 H   0  0  0  0  0  0  0  0  0  0  0  0
    9.9412   -4.1957   21.4759 H   0  0  0  0  0  0  0  0  0  0  0  0
    8.3485   -3.5246   21.0857 H   0  0  0  0  0  0  0  0  0  0  0  0
   11.8735    4.9049   25.9016 H   0  0  0  0  0  0  0  0  0  0  0  0
   13.4081    5.7008   26.3892 H   0  0  0  0  0  0  0  0  0  0  0  0
   11.9487    6.6930   26.0539 H   0  0  0  0  0  0  0  0  0  0  0  0
   14.4227   -0.7236   23.9249 H   0  0  0  0  0  0  0  0  0  0  0  0
   12.6741   -2.0052   24.4202 H   0  0  0  0  0  0  0  0  0  0  0  0
   10.8150   -2.9652   24.3078 H   0  0  0  0  0  0  0  0  0  0  0  0
   13.5026    6.6951   24.1081 H   0  0  0  0  0  0  0  0  0  0  0  0
  1  3  2  0  0  0  0
  1  5  1  0  0  0  0
  2  4  1  0  0  0  0
  2  5  2  0  0  0  0
  3  6  1  0  0  0  0
  4  6  2  0  0  0  0
  5 13  1  0  0  0  0
  6 21  1  0  0  0  0
  7 15  1  0  0  0  0
  7 16  1  0  0  0  0
  7 18  2  0  0  0  0
  8 13  1  0  0  0  0
  9 14  1  0  0  0  0
 10 14  1  0  0  0  0
 11 14  1  0  0  0  0
 12 17  1  0  0  0  0
 13 15  1  0  0  0  0
 14 16  1  0  0  0  0
 17 21  1  0  0  0  0
 19 21  2  0  0  0  0
 20 21  2  0  0  0  0
  1 22  1  0  0  0  0
  2 23  1  0  0  0  0
  3 24  1  0  0  0  0
  4 25  1  0  0  0  0
  8 26  1  0  0  0  0
  8 27  1  0  0  0  0
  8 28  1  0  0  0  0
  9 29  1  0  0  0  0
  9 30  1  0  0  0  0
  9 31  1  0  0  0  0
 10 32  1  0  0  0  0
 10 33  1  0  0  0  0
 10 34  1  0  0  0  0
 11 35  1  0  0  0  0
 11 36  1  0  0  0  0
 11 37  1  0  0  0  0
 12 38  1  0  0  0  0
 12 39  1  0  0  0  0
 12 40  1  0  0  0  0
 13 41  1  0  0  0  0
 15 42  1  0  0  0  0
 16 43  1  0  0  0  0
 17 44  1  0  0  0  0
M  END
> <IC50 (uM)>

> <IC50 (uM) - std>

> <Average Inhibition @ 20 uM>

> <Average Inhibition @ 20 uM - std>
-0.809

> <Average Inhibition @ 50 uM>
3.03

> <Average Inhibition @ 50 uM - std>
-0.25

> <Trypsin IC50 (uM)>
0.284

> <Relative Solubility @ 20 uM>
1.0

> <Relative Solubility @ 100 uM>
1.0

> <Hybrid2>
-7.291488

> <docked_fragment>
x0195

> <Mpro-_dock>
2.079654

> <site>
active-noncovalent

$$$$
LON-WEI-d1c9908a-12
  -OEChem-05192003313D

 61 63  0     1  0  0  0  0  0999 V2000
    5.5260   -0.7369   18.2652 C   0  0  0  0  0  0  0  0  0  0  0  0
    6.1113    0.5288   18.2352 C   0  0  0  0  0  0  0  0  0  0  0  0
    4.9548   -6.8515   24.7910 C   0  0  0  0  0  0  0  0  0  0  0  0
    5.9238   -5.9681   24.3285 C   0  0  0  0  0  0  0  0  0  0  0  0
   10.3312   -4.0919   25.6035 C   0  0  0  0  0  0  0  0  0  0  0  0
   10.9641   -2.7011   23.7321 C   0  0  0  0  0  0  0  0  0  0  0  0
    5.7211   -1.5697   19.3671 C   0  0  0  0  0  0  0  0  0  0  0  0
    9.2346   -4.5637   24.8821 C   0  0  0  0  0  0  0  0  0  0  0  0
    9.8675   -3.1730   23.0106 C   0  0  0  0  0  0  0  0  0  0  0  0
    6.8918    0.9618   19.3071 C   0  0  0  0  0  0  0  0  0  0  0  0
    3.6349   -6.6024   24.4509 C   0  0  0  0  0  0  0  0  0  0  0  0
    4.2022   -4.7173   23.2665 C   0  0  0  0  0  0  0  0  0  0  0  0
   11.1959   -3.1605   25.0285 C   0  0  0  0  0  0  0  0  0  0  0  0
    5.5487   -4.8780   23.5512 C   0  0  0  0  0  0  0  0  0  0  0  0
    9.0027   -4.1043   23.5857 C   0  0  0  0  0  0  0  0  0  0  0  0
    6.5017   -1.1367   20.4389 C   0  0  0  0  0  0  0  0  0  0  0  0
    7.0871    0.1290   20.4090 C   0  0  0  0  0  0  0  0  0  0  0  0
    9.3884   -7.5155   21.1073 C   0  0  0  0  0  0  0  0  0  0  0  0
    9.2738   -6.4300   21.8791 C   0  0  0  0  0  0  0  0  0  0  0  0
    7.9579   -5.7394   22.0164 C   0  0  0  0  0  0  0  0  0  0  0  0
    6.1534   -3.2902   21.6988 C   0  0  0  0  0  0  0  0  0  0  0  0
   14.0514   -4.3567   24.7574 C   0  0  0  0  0  0  0  0  0  0  0  0
   12.5264   -3.2436   27.2450 C   0  0  0  0  0  0  0  0  0  0  0  0
   12.2442   -1.1107   26.0146 C   0  0  0  0  0  0  0  0  0  0  0  0
   13.7409   -2.8931   25.0580 C   0  0  0  0  0  0  0  0  0  0  0  0
    6.5789   -3.8993   23.0324 C   0  0  2  0  0  0  0  0  0  0  0  0
   12.4063   -2.6398   25.8250 C   0  0  0  0  0  0  0  0  0  0  0  0
    3.2322   -5.5544   23.6979 N   0  0  0  0  0  0  0  0  0  0  0  0
    6.6766   -2.0095   21.5390 N   0  0  0  0  0  0  0  0  0  0  0  0
    7.9062   -4.5762   22.8637 N   0  0  0  0  0  0  0  0  0  0  0  0
    6.9798   -6.2027   21.4292 O   0  0  0  0  0  0  0  0  0  0  0  0
    5.4302   -3.8980   20.9140 O   0  0  0  0  0  0  0  0  0  0  0  0
    8.1614    0.7676   21.8379 Br  0  0  0  0  0  0  0  0  0  0  0  0
    4.9183   -1.0739   17.4304 H   0  0  0  0  0  0  0  0  0  0  0  0
    5.9589    1.1770   17.3772 H   0  0  0  0  0  0  0  0  0  0  0  0
    5.2242   -7.7081   25.3982 H   0  0  0  0  0  0  0  0  0  0  0  0
    6.9678   -6.1368   24.5784 H   0  0  0  0  0  0  0  0  0  0  0  0
   10.5029   -4.4536   26.6139 H   0  0  0  0  0  0  0  0  0  0  0  0
   11.6322   -1.9750   23.2766 H   0  0  0  0  0  0  0  0  0  0  0  0
    5.2590   -2.5537   19.3774 H   0  0  0  0  0  0  0  0  0  0  0  0
    8.5674   -5.2897   25.3400 H   0  0  0  0  0  0  0  0  0  0  0  0
    9.6955   -2.8074   22.0013 H   0  0  0  0  0  0  0  0  0  0  0  0
    7.3395    1.9515   19.2654 H   0  0  0  0  0  0  0  0  0  0  0  0
    2.8415   -7.2618   24.7873 H   0  0  0  0  0  0  0  0  0  0  0  0
    3.8497   -3.8855   22.6645 H   0  0  0  0  0  0  0  0  0  0  0  0
   10.3418   -8.0275   21.0292 H   0  0  0  0  0  0  0  0  0  0  0  0
    8.5576   -7.9158   20.5368 H   0  0  0  0  0  0  0  0  0  0  0  0
   10.1255   -6.0720   22.4458 H   0  0  0  0  0  0  0  0  0  0  0  0
   13.2548   -4.8274   24.1748 H   0  0  0  0  0  0  0  0  0  0  0  0
   14.1432   -4.9146   25.6953 H   0  0  0  0  0  0  0  0  0  0  0  0
   14.9937   -4.4685   24.2136 H   0  0  0  0  0  0  0  0  0  0  0  0
   13.4014   -2.8425   27.7702 H   0  0  0  0  0  0  0  0  0  0  0  0
   12.6303   -4.3335   27.2255 H   0  0  0  0  0  0  0  0  0  0  0  0
   11.6478   -3.0064   27.8568 H   0  0  0  0  0  0  0  0  0  0  0  0
   13.0764   -0.6729   26.5770 H   0  0  0  0  0  0  0  0  0  0  0  0
   11.3257   -0.8761   26.5655 H   0  0  0  0  0  0  0  0  0  0  0  0
   12.1938   -0.5947   25.0482 H   0  0  0  0  0  0  0  0  0  0  0  0
   14.5763   -2.4838   25.6420 H   0  0  0  0  0  0  0  0  0  0  0  0
   13.7483   -2.3422   24.1094 H   0  0  0  0  0  0  0  0  0  0  0  0
    6.7242   -3.0865   23.7547 H   0  0  0  0  0  0  0  0  0  0  0  0
    7.2520   -1.6606   22.3026 H   0  0  0  0  0  0  0  0  0  0  0  0
  1  2  1  0  0  0  0
  1  7  2  0  0  0  0
  2 10  2  0  0  0  0
  3  4  2  0  0  0  0
  3 11  1  0  0  0  0
  4 14  1  0  0  0  0
  5  8  2  0  0  0  0
  5 13  1  0  0  0  0
  6  9  1  0  0  0  0
  6 13  2  0  0  0  0
  7 16  1  0  0  0  0
  8 15  1  0  0  0  0
  9 15  2  0  0  0  0
 10 17  1  0  0  0  0
 11 28  2  0  0  0  0
 12 14  2  0  0  0  0
 12 28  1  0  0  0  0
 13 27  1  0  0  0  0
 14 26  1  0  0  0  0
 15 30  1  0  0  0  0
 16 17  2  0  0  0  0
 16 29  1  0  0  0  0
 17 33  1  0  0  0  0
 18 19  2  0  0  0  0
 19 20  1  0  0  0  0
 20 30  1  0  0  0  0
 20 31  2  0  0  0  0
 21 26  1  0  0  0  0
 21 29  1  0  0  0  0
 21 32  2  0  0  0  0
 22 25  1  0  0  0  0
 23 27  1  0  0  0  0
 24 27  1  0  0  0  0
 25 27  1  0  0  0  0
 26 30  1  0  0  0  0
  1 34  1  0  0  0  0
  2 35  1  0  0  0  0
  3 36  1  0  0  0  0
  4 37  1  0  0  0  0
  5 38  1  0  0  0  0
  6 39  1  0  0  0  0
  7 40  1  0  0  0  0
  8 41  1  0  0  0  0
  9 42  1  0  0  0  0
 10 43  1  0  0  0  0
 11 44  1  0  0  0  0
 12 45  1  0  0  0  0
 18 46  1  0  0  0  0
 18 47  1  0  0  0  0
 19 48  1  0  0  0  0
 22 49  1  0  0  0  0
 22 50  1  0  0  0  0
 22 51  1  0  0  0  0
 23 52  1  0  0  0  0
 23 53  1  0  0  0  0
 23 54  1  0  0  0  0
 24 55  1  0  0  0  0
 24 56  1  0  0  0  0
 24 57  1  0  0  0  0
 25 58  1  0  0  0  0
 25 59  1  0  0  0  0
 26 60  1  0  0  0  0
 29 61  1  0  0  0  0
M  END
> <IC50 (uM)>

> <IC50 (uM) - std>

> <Average Inhibition @ 20 uM>

> <Average Inhibition @ 20 uM - std>

> <Average Inhibition @ 50 uM>

> <Average Inhibition @ 50 uM - std>
20.7

> <Trypsin IC50 (uM)>
0.213

> <Relative Solubility @ 20 uM>

> <Relative Solubility @ 100 uM>

> <Hybrid2>
-7.274395

> <docked_fragment>
x0749

> <Mpro-_dock>
4.838636

> <site>
active-covalent

$$$$
LON-WEI-b8d98729-43
  -OEChem-05192003313D

 61 63  0     1  0  0  0  0  0999 V2000
    7.6635   -5.8092   26.4598 C   0  0  0  0  0  0  0  0  0  0  0  0
    8.3542   -5.2257   25.4035 C   0  0  0  0  0  0  0  0  0  0  0  0
   10.6320    0.0704   24.0187 C   0  0  0  0  0  0  0  0  0  0  0  0
   11.4251    1.2137   24.1156 C   0  0  0  0  0  0  0  0  0  0  0  0
   12.8722    0.3569   22.3810 C   0  0  0  0  0  0  0  0  0  0  0  0
    7.0046   -1.9516   20.3741 C   0  0  0  0  0  0  0  0  0  0  0  0
    6.3181   -5.5090   26.5996 C   0  0  0  0  0  0  0  0  0  0  0  0
    6.3412   -4.1363   24.7575 C   0  0  0  0  0  0  0  0  0  0  0  0
    7.6878   -4.3720   24.5315 C   0  0  0  0  0  0  0  0  0  0  0  0
   12.0791   -0.7865   22.2841 C   0  0  0  0  0  0  0  0  0  0  0  0
   10.9591   -0.9297   23.1030 C   0  0  0  0  0  0  0  0  0  0  0  0
   12.5452    1.3570   23.2967 C   0  0  0  0  0  0  0  0  0  0  0  0
    6.8282   -0.5933   20.3766 C   0  0  0  0  0  0  0  0  0  0  0  0
    7.2389   -2.2608   21.7251 C   0  0  0  0  0  0  0  0  0  0  0  0
    6.4694   -7.0822   22.1588 C   0  0  0  0  0  0  0  0  0  0  0  0
    7.3113   -6.0453   22.2144 C   0  0  0  0  0  0  0  0  0  0  0  0
    6.9324   -4.7347   21.6093 C   0  0  0  0  0  0  0  0  0  0  0  0
    9.0021   -2.3708   23.7661 C   0  0  0  0  0  0  0  0  0  0  0  0
   12.4537   -1.8414   21.2943 C   0  0  0  0  0  0  0  0  0  0  0  0
    6.4308   -0.2622   17.9112 C   0  0  0  0  0  0  0  0  0  0  0  0
    7.6770    1.4828   19.2295 C   0  0  0  0  0  0  0  0  0  0  0  0
    5.2184    1.2242   19.4931 C   0  0  0  0  0  0  0  0  0  0  0  0
   14.4489    2.5547   22.5239 C   0  0  0  0  0  0  0  0  0  0  0  0
    8.4108   -3.7221   23.3725 C   0  0  2  0  0  0  0  0  0  0  0  0
    6.5356    0.4442   19.2802 C   0  0  0  0  0  0  0  0  0  0  0  0
    5.6367   -4.6847   25.7727 N   0  0  0  0  0  0  0  0  0  0  0  0
    7.2100   -1.1770   22.5058 N   0  0  0  0  0  0  0  0  0  0  0  0
   10.1431   -2.0830   23.0212 N   0  0  0  0  0  0  0  0  0  0  0  0
    7.4741   -3.5322   22.2077 N   0  0  0  0  0  0  0  0  0  0  0  0
    6.1568   -4.7240   20.6530 O   0  0  0  0  0  0  0  0  0  0  0  0
    8.4967   -1.6772   24.6445 O   0  0  0  0  0  0  0  0  0  0  0  0
    6.9484   -0.1194   21.6431 O   0  0  0  0  0  0  0  0  0  0  0  0
   13.3188    2.4730   23.3909 O   0  0  0  0  0  0  0  0  0  0  0  0
    8.1625   -6.4780   27.1518 H   0  0  0  0  0  0  0  0  0  0  0  0
    9.4103   -5.4419   25.2675 H   0  0  0  0  0  0  0  0  0  0  0  0
    9.7620   -0.0306   24.6629 H   0  0  0  0  0  0  0  0  0  0  0  0
   11.1649    1.9895   24.8305 H   0  0  0  0  0  0  0  0  0  0  0  0
   13.7463    0.4713   21.7444 H   0  0  0  0  0  0  0  0  0  0  0  0
    6.9683   -2.6147   19.5223 H   0  0  0  0  0  0  0  0  0  0  0  0
    5.7349   -5.9384   27.4076 H   0  0  0  0  0  0  0  0  0  0  0  0
    5.7686   -3.4792   24.1102 H   0  0  0  0  0  0  0  0  0  0  0  0
    6.7399   -8.0261   22.6206 H   0  0  0  0  0  0  0  0  0  0  0  0
    5.5092   -7.0277   21.6579 H   0  0  0  0  0  0  0  0  0  0  0  0
    8.2550   -6.1372   22.7394 H   0  0  0  0  0  0  0  0  0  0  0  0
   13.1284   -2.5715   21.7555 H   0  0  0  0  0  0  0  0  0  0  0  0
   11.5666   -2.3693   20.9241 H   0  0  0  0  0  0  0  0  0  0  0  0
   12.9538   -1.4049   20.4212 H   0  0  0  0  0  0  0  0  0  0  0  0
    6.2221    0.4567   17.1103 H   0  0  0  0  0  0  0  0  0  0  0  0
    7.3564   -0.7823   17.6410 H   0  0  0  0  0  0  0  0  0  0  0  0
    5.6242   -1.0050   17.9114 H   0  0  0  0  0  0  0  0  0  0  0  0
    7.5107    2.2445   18.4600 H   0  0  0  0  0  0  0  0  0  0  0  0
    7.7746    2.0099   20.1859 H   0  0  0  0  0  0  0  0  0  0  0  0
    8.6385    1.0019   19.0141 H   0  0  0  0  0  0  0  0  0  0  0  0
    5.0544    1.9501   18.6875 H   0  0  0  0  0  0  0  0  0  0  0  0
    4.3502    0.5549   19.5044 H   0  0  0  0  0  0  0  0  0  0  0  0
    5.2295    1.7856   20.4347 H   0  0  0  0  0  0  0  0  0  0  0  0
   14.9785    3.4938   22.7019 H   0  0  0  0  0  0  0  0  0  0  0  0
   14.1161    2.5031   21.4842 H   0  0  0  0  0  0  0  0  0  0  0  0
   15.1180    1.7165   22.7322 H   0  0  0  0  0  0  0  0  0  0  0  0
    9.2253   -4.3697   23.0254 H   0  0  0  0  0  0  0  0  0  0  0  0
   10.4227   -2.7840   22.3383 H   0  0  0  0  0  0  0  0  0  0  0  0
  1  2  2  0  0  0  0
  1  7  1  0  0  0  0
  2  9  1  0  0  0  0
  3  4  2  0  0  0  0
  3 11  1  0  0  0  0
  4 12  1  0  0  0  0
  5 10  1  0  0  0  0
  5 12  2  0  0  0  0
  6 13  2  0  0  0  0
  6 14  1  0  0  0  0
  7 26  2  0  0  0  0
  8  9  2  0  0  0  0
  8 26  1  0  0  0  0
  9 24  1  0  0  0  0
 10 11  2  0  0  0  0
 10 19  1  0  0  0  0
 11 28  1  0  0  0  0
 12 33  1  0  0  0  0
 13 25  1  0  0  0  0
 13 32  1  0  0  0  0
 14 27  2  0  0  0  0
 14 29  1  0  0  0  0
 15 16  2  0  0  0  0
 16 17  1  0  0  0  0
 17 29  1  0  0  0  0
 17 30  2  0  0  0  0
 18 24  1  0  0  0  0
 18 28  1  0  0  0  0
 18 31  2  0  0  0  0
 20 25  1  0  0  0  0
 21 25  1  0  0  0  0
 22 25  1  0  0  0  0
 23 33  1  0  0  0  0
 24 29  1  0  0  0  0
 27 32  1  0  0  0  0
  1 34  1  0  0  0  0
  2 35  1  0  0  0  0
  3 36  1  0  0  0  0
  4 37  1  0  0  0  0
  5 38  1  0  0  0  0
  6 39  1  0  0  0  0
  7 40  1  0  0  0  0
  8 41  1  0  0  0  0
 15 42  1  0  0  0  0
 15 43  1  0  0  0  0
 16 44  1  0  0  0  0
 19 45  1  0  0  0  0
 19 46  1  0  0  0  0
 19 47  1  0  0  0  0
 20 48  1  0  0  0  0
 20 49  1  0  0  0  0
 20 50  1  0  0  0  0
 21 51  1  0  0  0  0
 21 52  1  0  0  0  0
 21 53  1  0  0  0  0
 22 54  1  0  0  0  0
 22 55  1  0  0  0  0
 22 56  1  0  0  0  0
 23 57  1  0  0  0  0
 23 58  1  0  0  0  0
 23 59  1  0  0  0  0
 24 60  1  0  0  0  0
 28 61  1  0  0  0  0
M  END
> <IC50 (uM)>

> <IC50 (uM) - std>

> <Average Inhibition @ 20 uM>

> <Average Inhibition @ 20 uM - std>
12.9

> <Average Inhibition @ 50 uM>
3.4

> <Average Inhibition @ 50 uM - std>
23.4

> <Trypsin IC50 (uM)>
0.0163

> <Relative Solubility @ 20 uM>
1.0

> <Relative Solubility @ 100 uM>
0.91

> <Hybrid2>
-7.271996

> <docked_fragment>
x1392

> <Mpro-_dock>
5.571238

> <site>
active-covalent

$$$$
LON-WEI-b8d98729-21
  -OEChem-05192003313D

 55 57  0     1  0  0  0  0  0999 V2000
    7.2246   -5.2573   26.6081 C   0  0  0  0  0  0  0  0  0  0  0  0
    8.0158   -4.8885   25.5258 C   0  0  0  0  0  0  0  0  0  0  0  0
   12.5121   -1.4728   22.1648 C   0  0  0  0  0  0  0  0  0  0  0  0
   11.2753   -0.2174   23.8174 C   0  0  0  0  0  0  0  0  0  0  0  0
   13.5167   -0.5053   22.1816 C   0  0  0  0  0  0  0  0  0  0  0  0
   12.2799    0.7501   23.8343 C   0  0  0  0  0  0  0  0  0  0  0  0
    7.3226   -1.7769   20.2648 C   0  0  0  0  0  0  0  0  0  0  0  0
    5.9597   -4.7003   26.7063 C   0  0  0  0  0  0  0  0  0  0  0  0
    6.2466   -3.4868   24.7768 C   0  0  0  0  0  0  0  0  0  0  0  0
    7.5250   -3.9868   24.5882 C   0  0  0  0  0  0  0  0  0  0  0  0
   11.3914   -1.3289   22.9827 C   0  0  0  0  0  0  0  0  0  0  0  0
   13.4006    0.6062   23.0163 C   0  0  0  0  0  0  0  0  0  0  0  0
    7.3997   -0.4102   20.1519 C   0  0  0  0  0  0  0  0  0  0  0  0
    7.4911   -2.0265   21.6400 C   0  0  0  0  0  0  0  0  0  0  0  0
    5.8224   -6.5752   22.3826 C   0  0  0  0  0  0  0  0  0  0  0  0
    6.8450   -5.7143   22.3819 C   0  0  0  0  0  0  0  0  0  0  0  0
    6.7224   -4.4003   21.6849 C   0  0  0  0  0  0  0  0  0  0  0  0
    9.1957   -2.3265   23.7106 C   0  0  0  0  0  0  0  0  0  0  0  0
    5.9236    0.3538   18.2591 C   0  0  0  0  0  0  0  0  0  0  0  0
    8.4124    0.1841   17.9230 C   0  0  0  0  0  0  0  0  0  0  0  0
    7.4496    2.0247   19.2892 C   0  0  0  0  0  0  0  0  0  0  0  0
    8.3608   -3.5662   23.3995 C   0  0  2  0  0  0  0  0  0  0  0  0
    7.2998    0.5272   18.9372 C   0  0  0  0  0  0  0  0  0  0  0  0
    5.4485   -3.8214   25.8154 N   0  0  0  0  0  0  0  0  0  0  0  0
    7.6626   -0.9081   22.3498 N   0  0  0  0  0  0  0  0  0  0  0  0
    7.6023    0.0574   21.4170 N   0  0  0  0  0  0  0  0  0  0  0  0
   10.3724   -2.3107   22.9659 N   0  0  0  0  0  0  0  0  0  0  0  0
    7.4802   -3.2842   22.2104 N   0  0  0  0  0  0  0  0  0  0  0  0
    5.9654   -4.3090   20.7181 O   0  0  0  0  0  0  0  0  0  0  0  0
    8.8281   -1.4912   24.5324 O   0  0  0  0  0  0  0  0  0  0  0  0
   14.6404    1.8000   23.0370 Cl  0  0  0  0  0  0  0  0  0  0  0  0
    7.5864   -5.9588   27.3511 H   0  0  0  0  0  0  0  0  0  0  0  0
    9.0125   -5.3086   25.4212 H   0  0  0  0  0  0  0  0  0  0  0  0
   12.6126   -2.3348   21.5103 H   0  0  0  0  0  0  0  0  0  0  0  0
   10.4063   -0.0953   24.4589 H   0  0  0  0  0  0  0  0  0  0  0  0
   14.3845   -0.6303   21.5392 H   0  0  0  0  0  0  0  0  0  0  0  0
   12.1764    1.6112   24.4895 H   0  0  0  0  0  0  0  0  0  0  0  0
    7.1667   -2.4863   19.4646 H   0  0  0  0  0  0  0  0  0  0  0  0
    5.3038   -4.9554   27.5322 H   0  0  0  0  0  0  0  0  0  0  0  0
    5.8101   -2.7798   24.0779 H   0  0  0  0  0  0  0  0  0  0  0  0
    5.9083   -7.5193   22.9104 H   0  0  0  0  0  0  0  0  0  0  0  0
    4.8911   -6.3750   21.8644 H   0  0  0  0  0  0  0  0  0  0  0  0
    7.7530   -5.9463   22.9264 H   0  0  0  0  0  0  0  0  0  0  0  0
    5.8262    1.0125   17.3881 H   0  0  0  0  0  0  0  0  0  0  0  0
    5.7617   -0.6703   17.9053 H   0  0  0  0  0  0  0  0  0  0  0  0
    5.1091    0.5950   18.9524 H   0  0  0  0  0  0  0  0  0  0  0  0
    8.3801    0.8290   17.0381 H   0  0  0  0  0  0  0  0  0  0  0  0
    9.4060    0.3042   18.3705 H   0  0  0  0  0  0  0  0  0  0  0  0
    8.3252   -0.8529   17.5778 H   0  0  0  0  0  0  0  0  0  0  0  0
    7.3714    2.6511   18.3924 H   0  0  0  0  0  0  0  0  0  0  0  0
    6.6679    2.3566   19.9825 H   0  0  0  0  0  0  0  0  0  0  0  0
    8.4236    2.2365   19.7457 H   0  0  0  0  0  0  0  0  0  0  0  0
    9.0393   -4.3779   23.1095 H   0  0  0  0  0  0  0  0  0  0  0  0
    7.7079    1.0189   21.7164 H   0  0  0  0  0  0  0  0  0  0  0  0
   10.5164   -3.0972   22.3361 H   0  0  0  0  0  0  0  0  0  0  0  0
  1  2  2  0  0  0  0
  1  8  1  0  0  0  0
  2 10  1  0  0  0  0
  3  5  2  0  0  0  0
  3 11  1  0  0  0  0
  4  6  1  0  0  0  0
  4 11  2  0  0  0  0
  5 12  1  0  0  0  0
  6 12  2  0  0  0  0
  7 13  2  0  0  0  0
  7 14  1  0  0  0  0
  8 24  2  0  0  0  0
  9 10  2  0  0  0  0
  9 24  1  0  0  0  0
 10 22  1  0  0  0  0
 11 27  1  0  0  0  0
 12 31  1  0  0  0  0
 13 23  1  0  0  0  0
 13 26  1  0  0  0  0
 14 25  2  0  0  0  0
 14 28  1  0  0  0  0
 15 16  2  0  0  0  0
 16 17  1  0  0  0  0
 17 28  1  0  0  0  0
 17 29  2  0  0  0  0
 18 22  1  0  0  0  0
 18 27  1  0  0  0  0
 18 30  2  0  0  0  0
 19 23  1  0  0  0  0
 20 23  1  0  0  0  0
 21 23  1  0  0  0  0
 22 28  1  0  0  0  0
 25 26  1  0  0  0  0
  1 32  1  0  0  0  0
  2 33  1  0  0  0  0
  3 34  1  0  0  0  0
  4 35  1  0  0  0  0
  5 36  1  0  0  0  0
  6 37  1  0  0  0  0
  7 38  1  0  0  0  0
  8 39  1  0  0  0  0
  9 40  1  0  0  0  0
 15 41  1  0  0  0  0
 15 42  1  0  0  0  0
 16 43  1  0  0  0  0
 19 44  1  0  0  0  0
 19 45  1  0  0  0  0
 19 46  1  0  0  0  0
 20 47  1  0  0  0  0
 20 48  1  0  0  0  0
 20 49  1  0  0  0  0
 21 50  1  0  0  0  0
 21 51  1  0  0  0  0
 21 52  1  0  0  0  0
 22 53  1  0  0  0  0
 26 54  1  0  0  0  0
 27 55  1  0  0  0  0
M  END
> <IC50 (uM)>

> <IC50 (uM) - std>

> <Average Inhibition @ 20 uM>

> <Average Inhibition @ 20 uM - std>
6.12

> <Average Inhibition @ 50 uM>
0.252

> <Average Inhibition @ 50 uM - std>
19.5

> <Trypsin IC50 (uM)>
0.43

> <Relative Solubility @ 20 uM>
0.78

> <Relative Solubility @ 100 uM>
0.68

> <Hybrid2>
-7.264618

> <docked_fragment>
x1418

> <Mpro-_dock>
3.244373

> <site>
active-covalent

$$$$
WAR-XCH-eb7b662f-2
  -OEChem-05192003313D

 28 29  0     0  0  0  0  0  0999 V2000
    5.9587   -4.7623   20.8709 C   0  0  0  0  0  0  0  0  0  0  0  0
   14.5318   -2.8827   26.5033 C   0  0  0  0  0  0  0  0  0  0  0  0
   13.3516   -3.0977   25.8004 C   0  0  0  0  0  0  0  0  0  0  0  0
    7.6946   -3.9109   22.3682 C   0  0  0  0  0  0  0  0  0  0  0  0
    6.0641   -5.4847   23.2055 C   0  0  0  0  0  0  0  0  0  0  0  0
    7.7859   -4.6342   24.6715 C   0  0  0  0  0  0  0  0  0  0  0  0
   14.9277   -1.5728   26.7209 C   0  0  0  0  0  0  0  0  0  0  0  0
   13.0952   -0.7407   25.6127 C   0  0  0  0  0  0  0  0  0  0  0  0
    6.5773   -4.7190   22.1586 C   0  0  0  0  0  0  0  0  0  0  0  0
   12.6136   -2.0116   25.3430 C   0  0  0  0  0  0  0  0  0  0  0  0
    8.2990   -3.8685   23.6246 C   0  0  0  0  0  0  0  0  0  0  0  0
    6.6684   -5.4423   24.4620 C   0  0  0  0  0  0  0  0  0  0  0  0
   10.4918   -3.2559   24.7362 C   0  0  0  0  0  0  0  0  0  0  0  0
    5.4566   -4.7975   19.8252 N   0  0  0  0  0  0  0  0  0  0  0  0
   14.2373   -0.4924   26.2921 N   0  0  0  0  0  0  0  0  0  0  0  0
   11.4090   -2.1987   24.6248 N   0  0  0  0  0  0  0  0  0  0  0  0
    9.4169   -3.0607   23.8348 N   0  0  0  0  0  0  0  0  0  0  0  0
   10.5989   -4.2108   25.4991 O   0  0  0  0  0  0  0  0  0  0  0  0
    6.0356   -6.3876   25.7538 Cl  0  0  0  0  0  0  0  0  0  0  0  0
   15.1231   -3.7143   26.8692 H   0  0  0  0  0  0  0  0  0  0  0  0
   13.0163   -4.1147   25.6148 H   0  0  0  0  0  0  0  0  0  0  0  0
    8.0980   -3.3124   21.5534 H   0  0  0  0  0  0  0  0  0  0  0  0
    5.1925   -6.1159   23.0431 H   0  0  0  0  0  0  0  0  0  0  0  0
    8.2593   -4.5996   25.6505 H   0  0  0  0  0  0  0  0  0  0  0  0
   15.8412   -1.3520   27.2631 H   0  0  0  0  0  0  0  0  0  0  0  0
   12.5635    0.1464   25.2818 H   0  0  0  0  0  0  0  0  0  0  0  0
   11.1792   -1.4789   23.9443 H   0  0  0  0  0  0  0  0  0  0  0  0
    9.4806   -2.2094   23.2664 H   0  0  0  0  0  0  0  0  0  0  0  0
  1  9  1  0  0  0  0
  1 14  3  0  0  0  0
  2  3  2  0  0  0  0
  2  7  1  0  0  0  0
  3 10  1  0  0  0  0
  4  9  2  0  0  0  0
  4 11  1  0  0  0  0
  5  9  1  0  0  0  0
  5 12  2  0  0  0  0
  6 11  2  0  0  0  0
  6 12  1  0  0  0  0
  7 15  2  0  0  0  0
  8 10  2  0  0  0  0
  8 15  1  0  0  0  0
 10 16  1  0  0  0  0
 11 17  1  0  0  0  0
 12 19  1  0  0  0  0
 13 16  1  0  0  0  0
 13 17  1  0  0  0  0
 13 18  2  0  0  0  0
  2 20  1  0  0  0  0
  3 21  1  0  0  0  0
  4 22  1  0  0  0  0
  5 23  1  0  0  0  0
  6 24  1  0  0  0  0
  7 25  1  0  0  0  0
  8 26  1  0  0  0  0
 16 27  1  0  0  0  0
 17 28  1  0  0  0  0
M  END
> <IC50 (uM)>

> <IC50 (uM) - std>

> <Average Inhibition @ 20 uM>

> <Average Inhibition @ 20 uM - std>
23.0

> <Average Inhibition @ 50 uM>
0.819

> <Average Inhibition @ 50 uM - std>
43.9

> <Trypsin IC50 (uM)>
1.17

> <Relative Solubility @ 20 uM>
0.99

> <Relative Solubility @ 100 uM>
0.88

> <Hybrid2>
-7.243569

> <docked_fragment>
x0749

> <Mpro-_dock>
1.538457

> <site>
active-covalent

$$$$
TRY-UNI-714a760b-24
  -OEChem-05192003313D

 31 32  0     0  0  0  0  0  0999 V2000
   12.2799    0.9824   24.4418 C   0  0  0  0  0  0  0  0  0  0  0  0
   13.7406   -2.1500   25.8239 C   0  0  0  0  0  0  0  0  0  0  0  0
   13.5986   -0.8146   25.4470 C   0  0  0  0  0  0  0  0  0  0  0  0
   12.7090   -3.0569   25.5806 C   0  0  0  0  0  0  0  0  0  0  0  0
    5.4493   -5.9978   22.6018 C   0  0  0  0  0  0  0  0  0  0  0  0
   11.3933   -1.2928   24.5838 C   0  0  0  0  0  0  0  0  0  0  0  0
    5.5624   -5.6290   21.2710 C   0  0  0  0  0  0  0  0  0  0  0  0
    7.6180   -4.6642   21.6203 C   0  0  0  0  0  0  0  0  0  0  0  0
   12.4249   -0.3860   24.8270 C   0  0  0  0  0  0  0  0  0  0  0  0
    6.4924   -5.6672   23.4597 C   0  0  0  0  0  0  0  0  0  0  0  0
   11.5354   -2.6283   24.9606 C   0  0  0  0  0  0  0  0  0  0  0  0
    7.6011   -4.9876   22.9675 C   0  0  0  0  0  0  0  0  0  0  0  0
    9.5478   -3.5270   23.6719 C   0  0  0  0  0  0  0  0  0  0  0  0
    6.3965   -6.0521   24.8996 C   0  0  0  0  0  0  0  0  0  0  0  0
   12.1622    2.0937   24.1288 N   0  0  0  0  0  0  0  0  0  0  0  0
    6.6237   -4.9683   20.7563 N   0  0  0  0  0  0  0  0  0  0  0  0
   10.5044   -3.5358   24.7164 N   0  0  0  0  0  0  0  0  0  0  0  0
    8.6877   -4.6294   23.8000 N   0  0  0  0  0  0  0  0  0  0  0  0
    9.4860   -2.6777   22.7887 O   0  0  0  0  0  0  0  0  0  0  0  0
   14.6549   -2.4840   26.3059 H   0  0  0  0  0  0  0  0  0  0  0  0
   14.4114   -0.1198   25.6441 H   0  0  0  0  0  0  0  0  0  0  0  0
   12.8309   -4.0953   25.8786 H   0  0  0  0  0  0  0  0  0  0  0  0
    4.5707   -6.5273   22.9541 H   0  0  0  0  0  0  0  0  0  0  0  0
   10.4759   -0.9617   24.1008 H   0  0  0  0  0  0  0  0  0  0  0  0
    4.7760   -5.8632   20.5611 H   0  0  0  0  0  0  0  0  0  0  0  0
    8.4558   -4.1343   21.1768 H   0  0  0  0  0  0  0  0  0  0  0  0
    6.8287   -7.0472   25.0563 H   0  0  0  0  0  0  0  0  0  0  0  0
    6.9282   -5.3355   25.5376 H   0  0  0  0  0  0  0  0  0  0  0  0
    5.3528   -6.0670   25.2371 H   0  0  0  0  0  0  0  0  0  0  0  0
   10.4291   -4.3128   25.3816 H   0  0  0  0  0  0  0  0  0  0  0  0
    8.8612   -5.2505   24.5862 H   0  0  0  0  0  0  0  0  0  0  0  0
  1  9  1  0  0  0  0
  1 15  3  0  0  0  0
  2  3  1  0  0  0  0
  2  4  2  0  0  0  0
  3  9  2  0  0  0  0
  4 11  1  0  0  0  0
  5  7  2  0  0  0  0
  5 10  1  0  0  0  0
  6  9  1  0  0  0  0
  6 11  2  0  0  0  0
  7 16  1  0  0  0  0
  8 12  1  0  0  0  0
  8 16  2  0  0  0  0
 10 12  2  0  0  0  0
 10 14  1  0  0  0  0
 11 17  1  0  0  0  0
 12 18  1  0  0  0  0
 13 17  1  0  0  0  0
 13 18  1  0  0  0  0
 13 19  2  0  0  0  0
  2 20  1  0  0  0  0
  3 21  1  0  0  0  0
  4 22  1  0  0  0  0
  5 23  1  0  0  0  0
  6 24  1  0  0  0  0
  7 25  1  0  0  0  0
  8 26  1  0  0  0  0
 14 27  1  0  0  0  0
 14 28  1  0  0  0  0
 14 29  1  0  0  0  0
 17 30  1  0  0  0  0
 18 31  1  0  0  0  0
M  END
> <IC50 (uM)>

> <IC50 (uM) - std>

> <Average Inhibition @ 20 uM>

> <Average Inhibition @ 20 uM - std>
19.4

> <Average Inhibition @ 50 uM>
2.58

> <Average Inhibition @ 50 uM - std>
44.3

> <Trypsin IC50 (uM)>
0.178

> <Relative Solubility @ 20 uM>
1.0

> <Relative Solubility @ 100 uM>
0.97

> <Hybrid2>
-7.196349

> <docked_fragment>
x0749

> <Mpro-_dock>
0.974347

> <site>
active-covalent

$$$$
LON-WEI-b8d98729-23
  -OEChem-05192003313D

 56 57  0     1  0  0  0  0  0999 V2000
    4.8398   -5.0759   24.4071 C   0  0  0  0  0  0  0  0  0  0  0  0
    6.0668   -4.4237   24.4556 C   0  0  0  0  0  0  0  0  0  0  0  0
   10.2702   -1.9826   24.6923 C   0  0  0  0  0  0  0  0  0  0  0  0
    4.1185   -5.0138   23.2257 C   0  0  0  0  0  0  0  0  0  0  0  0
    5.7317   -3.7368   22.2034 C   0  0  0  0  0  0  0  0  0  0  0  0
    6.5285   -3.7389   23.3370 C   0  0  0  0  0  0  0  0  0  0  0  0
   11.4792   -1.9351   25.3343 C   0  0  0  0  0  0  0  0  0  0  0  0
   10.1045   -3.3456   24.3919 C   0  0  0  0  0  0  0  0  0  0  0  0
    7.4389   -6.8859   22.2477 C   0  0  0  0  0  0  0  0  0  0  0  0
    8.0636   -5.7042   22.2688 C   0  0  0  0  0  0  0  0  0  0  0  0
    8.8910   -5.3109   23.4469 C   0  0  0  0  0  0  0  0  0  0  0  0
    8.1716   -2.3724   22.0146 C   0  0  0  0  0  0  0  0  0  0  0  0
   11.5053   -0.1094   27.0698 C   0  0  0  0  0  0  0  0  0  0  0  0
   12.6625    0.2381   24.8616 C   0  0  0  0  0  0  0  0  0  0  0  0
   13.6466   -1.2717   26.5743 C   0  0  0  0  0  0  0  0  0  0  0  0
    7.1928    1.1235   21.0247 C   0  0  0  0  0  0  0  0  0  0  0  0
    9.3107   -0.0772   20.4240 C   0  0  0  0  0  0  0  0  0  0  0  0
    7.1044   -0.9262   19.5875 C   0  0  0  0  0  0  0  0  0  0  0  0
    7.8578   -3.0208   23.3577 C   0  0  2  0  0  0  0  0  0  0  0  0
   12.2761   -0.8511   25.9224 C   0  0  0  0  0  0  0  0  0  0  0  0
    7.8250   -0.2474   20.7580 C   0  0  0  0  0  0  0  0  0  0  0  0
    4.5343   -4.3586   22.1187 N   0  0  0  0  0  0  0  0  0  0  0  0
   11.1322   -4.0869   24.8152 N   0  0  0  0  0  0  0  0  0  0  0  0
    7.6970   -1.0738   21.9445 N   0  0  0  0  0  0  0  0  0  0  0  0
    8.9438   -3.9084   23.6942 N   0  0  0  0  0  0  0  0  0  0  0  0
    9.4518   -6.1915   24.0996 O   0  0  0  0  0  0  0  0  0  0  0  0
    8.7442   -2.9683   21.1043 O   0  0  0  0  0  0  0  0  0  0  0  0
   12.0036   -3.1848   25.4138 O   0  0  0  0  0  0  0  0  0  0  0  0
    4.4601   -5.6161   25.2668 H   0  0  0  0  0  0  0  0  0  0  0  0
    6.6559   -4.4545   25.3681 H   0  0  0  0  0  0  0  0  0  0  0  0
    9.6110   -1.1547   24.4763 H   0  0  0  0  0  0  0  0  0  0  0  0
    3.1554   -5.5057   23.1372 H   0  0  0  0  0  0  0  0  0  0  0  0
    6.0397   -3.2193   21.3001 H   0  0  0  0  0  0  0  0  0  0  0  0
    6.8576   -7.1769   21.3791 H   0  0  0  0  0  0  0  0  0  0  0  0
    7.4801   -7.5822   23.0780 H   0  0  0  0  0  0  0  0  0  0  0  0
    8.0100   -5.0443   21.4107 H   0  0  0  0  0  0  0  0  0  0  0  0
   12.0789    0.7056   27.5264 H   0  0  0  0  0  0  0  0  0  0  0  0
   10.5703    0.3256   26.6999 H   0  0  0  0  0  0  0  0  0  0  0  0
   11.2460   -0.8204   27.8632 H   0  0  0  0  0  0  0  0  0  0  0  0
   13.2562    1.0387   25.3163 H   0  0  0  0  0  0  0  0  0  0  0  0
   13.2470   -0.1566   24.0222 H   0  0  0  0  0  0  0  0  0  0  0  0
   11.7546    0.6948   24.4503 H   0  0  0  0  0  0  0  0  0  0  0  0
   14.2043   -0.4283   26.9992 H   0  0  0  0  0  0  0  0  0  0  0  0
   13.4805   -1.9891   27.3865 H   0  0  0  0  0  0  0  0  0  0  0  0
   14.2966   -1.7442   25.8286 H   0  0  0  0  0  0  0  0  0  0  0  0
    6.1278    1.0284   21.2664 H   0  0  0  0  0  0  0  0  0  0  0  0
    7.6834    1.6330   21.8614 H   0  0  0  0  0  0  0  0  0  0  0  0
    7.2683    1.7715   20.1437 H   0  0  0  0  0  0  0  0  0  0  0  0
    9.7855   -1.0459   20.2289 H   0  0  0  0  0  0  0  0  0  0  0  0
    9.8524    0.3869   21.2563 H   0  0  0  0  0  0  0  0  0  0  0  0
    9.4511    0.5516   19.5378 H   0  0  0  0  0  0  0  0  0  0  0  0
    7.5371   -1.9106   19.3746 H   0  0  0  0  0  0  0  0  0  0  0  0
    6.0389   -1.0649   19.8014 H   0  0  0  0  0  0  0  0  0  0  0  0
    7.1888   -0.3303   18.6712 H   0  0  0  0  0  0  0  0  0  0  0  0
    7.8642   -2.2474   24.1353 H   0  0  0  0  0  0  0  0  0  0  0  0
    7.2345   -0.6615   22.7456 H   0  0  0  0  0  0  0  0  0  0  0  0
  1  2  2  0  0  0  0
  1  4  1  0  0  0  0
  2  6  1  0  0  0  0
  3  7  2  0  0  0  0
  3  8  1  0  0  0  0
  4 22  2  0  0  0  0
  5  6  2  0  0  0  0
  5 22  1  0  0  0  0
  6 19  1  0  0  0  0
  7 20  1  0  0  0  0
  7 28  1  0  0  0  0
  8 23  2  0  0  0  0
  8 25  1  0  0  0  0
  9 10  2  0  0  0  0
 10 11  1  0  0  0  0
 11 25  1  0  0  0  0
 11 26  2  0  0  0  0
 12 19  1  0  0  0  0
 12 24  1  0  0  0  0
 12 27  2  0  0  0  0
 13 20  1  0  0  0  0
 14 20  1  0  0  0  0
 15 20  1  0  0  0  0
 16 21  1  0  0  0  0
 17 21  1  0  0  0  0
 18 21  1  0  0  0  0
 19 25  1  0  0  0  0
 21 24  1  0  0  0  0
 23 28  1  0  0  0  0
  1 29  1  0  0  0  0
  2 30  1  0  0  0  0
  3 31  1  0  0  0  0
  4 32  1  0  0  0  0
  5 33  1  0  0  0  0
  9 34  1  0  0  0  0
  9 35  1  0  0  0  0
 10 36  1  0  0  0  0
 13 37  1  0  0  0  0
 13 38  1  0  0  0  0
 13 39  1  0  0  0  0
 14 40  1  0  0  0  0
 14 41  1  0  0  0  0
 14 42  1  0  0  0  0
 15 43  1  0  0  0  0
 15 44  1  0  0  0  0
 15 45  1  0  0  0  0
 16 46  1  0  0  0  0
 16 47  1  0  0  0  0
 16 48  1  0  0  0  0
 17 49  1  0  0  0  0
 17 50  1  0  0  0  0
 17 51  1  0  0  0  0
 18 52  1  0  0  0  0
 18 53  1  0  0  0  0
 18 54  1  0  0  0  0
 19 55  1  0  0  0  0
 24 56  1  0  0  0  0
M  END
> <IC50 (uM)>
99.0

> <IC50 (uM) - std>

> <Average Inhibition @ 20 uM>
> 99.0

> <Average Inhibition @ 20 uM - std>
7.86

> <Average Inhibition @ 50 uM>
1.11

> <Average Inhibition @ 50 uM - std>
16.1

> <Trypsin IC50 (uM)>
0.414

> <Relative Solubility @ 20 uM>
0.98

> <Relative Solubility @ 100 uM>
0.91

> <Hybrid2>
-7.190642

> <docked_fragment>
x0749

> <Mpro-_dock>
2.608409

> <site>
active-covalent

$$$$
DAR-DIA-23aa0b97-17
  -OEChem-05192003313D

 28 29  0     0  0  0  0  0  0999 V2000
    6.6558   -2.7982   20.5407 C   0  0  0  0  0  0  0  0  0  0  0  0
   13.5008   -1.2930   25.1705 C   0  0  0  0  0  0  0  0  0  0  0  0
   12.8433   -2.4184   24.6864 C   0  0  0  0  0  0  0  0  0  0  0  0
    7.8621   -4.0766   22.2511 C   0  0  0  0  0  0  0  0  0  0  0  0
   12.7703   -0.3897   25.9256 C   0  0  0  0  0  0  0  0  0  0  0  0
    6.0480   -5.1016   21.1043 C   0  0  0  0  0  0  0  0  0  0  0  0
    7.1717   -6.3068   22.7052 C   0  0  0  0  0  0  0  0  0  0  0  0
   10.8537   -1.6416   25.7325 C   0  0  0  0  0  0  0  0  0  0  0  0
    6.8542   -3.9913   21.2971 C   0  0  0  0  0  0  0  0  0  0  0  0
    8.0306   -5.2530   22.9729 C   0  0  0  0  0  0  0  0  0  0  0  0
   11.4943   -2.6035   24.9682 C   0  0  0  0  0  0  0  0  0  0  0  0
    9.4572   -4.0583   24.6878 C   0  0  0  0  0  0  0  0  0  0  0  0
    9.0986   -5.3756   24.0011 C   0  0  0  0  0  0  0  0  0  0  0  0
    6.4945   -1.8276   19.9252 N   0  0  0  0  0  0  0  0  0  0  0  0
   11.4590   -0.5355   26.2201 N   0  0  0  0  0  0  0  0  0  0  0  0
    6.1813   -6.2612   21.7861 N   0  0  0  0  0  0  0  0  0  0  0  0
   10.7980   -3.7387   24.4892 N   0  0  0  0  0  0  0  0  0  0  0  0
    8.6255   -3.4140   25.3189 O   0  0  0  0  0  0  0  0  0  0  0  0
   14.5520   -1.1283   24.9633 H   0  0  0  0  0  0  0  0  0  0  0  0
   13.3910   -3.1442   24.0911 H   0  0  0  0  0  0  0  0  0  0  0  0
    8.5187   -3.2295   22.4373 H   0  0  0  0  0  0  0  0  0  0  0  0
   13.2369    0.5045   26.3255 H   0  0  0  0  0  0  0  0  0  0  0  0
    5.2438   -5.0991   20.3740 H   0  0  0  0  0  0  0  0  0  0  0  0
    7.2562   -7.2505   23.2354 H   0  0  0  0  0  0  0  0  0  0  0  0
    9.8014   -1.7306   25.9859 H   0  0  0  0  0  0  0  0  0  0  0  0
    8.8013   -6.0945   24.7842 H   0  0  0  0  0  0  0  0  0  0  0  0
   10.0201   -5.7861   23.5530 H   0  0  0  0  0  0  0  0  0  0  0  0
   11.3403   -4.3982   23.9351 H   0  0  0  0  0  0  0  0  0  0  0  0
  1  9  1  0  0  0  0
  1 14  3  0  0  0  0
  2  3  2  0  0  0  0
  2  5  1  0  0  0  0
  3 11  1  0  0  0  0
  4  9  2  0  0  0  0
  4 10  1  0  0  0  0
  5 15  2  0  0  0  0
  6  9  1  0  0  0  0
  6 16  2  0  0  0  0
  7 10  2  0  0  0  0
  7 16  1  0  0  0  0
  8 11  2  0  0  0  0
  8 15  1  0  0  0  0
 10 13  1  0  0  0  0
 11 17  1  0  0  0  0
 12 13  1  0  0  0  0
 12 17  1  0  0  0  0
 12 18  2  0  0  0  0
  2 19  1  0  0  0  0
  3 20  1  0  0  0  0
  4 21  1  0  0  0  0
  5 22  1  0  0  0  0
  6 23  1  0  0  0  0
  7 24  1  0  0  0  0
  8 25  1  0  0  0  0
 13 26  1  0  0  0  0
 13 27  1  0  0  0  0
 17 28  1  0  0  0  0
M  END
> <IC50 (uM)>

> <IC50 (uM) - std>

> <Average Inhibition @ 20 uM>

> <Average Inhibition @ 20 uM - std>
6.61

> <Average Inhibition @ 50 uM>
1.66

> <Average Inhibition @ 50 uM - std>
21.8

> <Trypsin IC50 (uM)>
0.112

> <Relative Solubility @ 20 uM>
1.0

> <Relative Solubility @ 100 uM>
1.0

> <Hybrid2>
-7.190603

> <docked_fragment>
x0749

> <Mpro-_dock>
-0.712754

> <site>
active-covalent

$$$$
DAV-CRI-3edb475e-4
  -OEChem-05192003313D

 26 26  0     1  0  0  0  0  0999 V2000
    8.9370   -5.9689   23.2904 C   0  0  0  0  0  0  0  0  0  0  0  0
    7.8826   -5.4389   22.5469 C   0  0  0  0  0  0  0  0  0  0  0  0
    9.8989   -5.1207   23.8392 C   0  0  0  0  0  0  0  0  0  0  0  0
    8.7519   -3.2127   22.9008 C   0  0  0  0  0  0  0  0  0  0  0  0
    7.7900   -4.0608   22.3520 C   0  0  0  0  0  0  0  0  0  0  0  0
    9.8064   -3.7427   23.6444 C   0  0  0  0  0  0  0  0  0  0  0  0
    6.4800   -1.9911   19.5945 C   0  0  0  0  0  0  0  0  0  0  0  0
    7.0625   -0.7400   18.9882 C   0  0  0  0  0  0  0  0  0  0  0  0
    5.4338   -3.1390   22.4117 C   0  0  0  0  0  0  0  0  0  0  0  0
    6.6629   -3.4950   21.5558 C   0  0  1  0  0  0  0  0  0  0  0  0
    7.0812   -2.3320   20.7875 N   0  0  0  0  0  0  0  0  0  0  0  0
    5.5573   -2.6026   19.0589 O   0  0  0  0  0  0  0  0  0  0  0  0
    4.6953   -4.3178   22.7163 O   0  0  0  0  0  0  0  0  0  0  0  0
   10.9941   -2.6968   24.3207 Cl  0  0  0  0  0  0  0  0  0  0  0  0
    5.7836    0.0640   18.0647 Cl  0  0  0  0  0  0  0  0  0  0  0  0
    9.0088   -7.0421   23.4419 H   0  0  0  0  0  0  0  0  0  0  0  0
    7.1377   -6.1073   22.1229 H   0  0  0  0  0  0  0  0  0  0  0  0
   10.7154   -5.5478   24.4163 H   0  0  0  0  0  0  0  0  0  0  0  0
    8.6750   -2.1389   22.7464 H   0  0  0  0  0  0  0  0  0  0  0  0
    7.4402   -0.0446   19.7419 H   0  0  0  0  0  0  0  0  0  0  0  0
    7.8775   -1.0099   18.3111 H   0  0  0  0  0  0  0  0  0  0  0  0
    5.7463   -2.6894   23.3607 H   0  0  0  0  0  0  0  0  0  0  0  0
    4.7675   -2.4398   21.8948 H   0  0  0  0  0  0  0  0  0  0  0  0
    6.3319   -4.2162   20.7869 H   0  0  0  0  0  0  0  0  0  0  0  0
    7.8344   -1.7574   21.1387 H   0  0  0  0  0  0  0  0  0  0  0  0
    3.9369   -4.0391   23.2532 H   0  0  0  0  0  0  0  0  0  0  0  0
  1  2  2  0  0  0  0
  1  3  1  0  0  0  0
  2  5  1  0  0  0  0
  3  6  2  0  0  0  0
  4  5  2  0  0  0  0
  4  6  1  0  0  0  0
  5 10  1  0  0  0  0
  6 14  1  0  0  0  0
  7  8  1  0  0  0  0
  7 11  1  0  0  0  0
  7 12  2  0  0  0  0
  8 15  1  0  0  0  0
  9 10  1  0  0  0  0
  9 13  1  0  0  0  0
 10 11  1  0  0  0  0
  1 16  1  0  0  0  0
  2 17  1  0  0  0  0
  3 18  1  0  0  0  0
  4 19  1  0  0  0  0
  8 20  1  0  0  0  0
  8 21  1  0  0  0  0
  9 22  1  0  0  0  0
  9 23  1  0  0  0  0
 10 24  1  0  0  0  0
 11 25  1  0  0  0  0
 13 26  1  0  0  0  0
M  END
> <IC50 (uM)>

> <IC50 (uM) - std>

> <Average Inhibition @ 20 uM>

> <Average Inhibition @ 20 uM - std>

> <Average Inhibition @ 50 uM>

> <Average Inhibition @ 50 uM - std>
41.5

> <Trypsin IC50 (uM)>
0.939

> <Relative Solubility @ 20 uM>

> <Relative Solubility @ 100 uM>

> <Hybrid2>
-7.169279

> <docked_fragment>
x0749

> <Mpro-_dock>
-1.838645

> <site>
active-covalent

$$$$
VIJ-CYC-1a381570-10
  -OEChem-05192003313D

 46 46  0     1  0  0  0  0  0999 V2000
    7.3245   -4.4182   21.7596 C   0  0  0  0  0  0  0  0  0  0  0  0
    6.6637   -3.1249   23.6904 C   0  0  0  0  0  0  0  0  0  0  0  0
    8.2784   -5.0822   22.5308 C   0  0  0  0  0  0  0  0  0  0  0  0
    7.6176   -3.7889   24.4616 C   0  0  0  0  0  0  0  0  0  0  0  0
    6.5172   -3.4394   22.3394 C   0  0  0  0  0  0  0  0  0  0  0  0
    8.4249   -4.7676   23.8819 C   0  0  0  0  0  0  0  0  0  0  0  0
    6.6401   -0.5710   17.2564 C   0  0  0  0  0  0  0  0  0  0  0  0
    6.6578   -0.6791   18.5884 C   0  0  0  0  0  0  0  0  0  0  0  0
    5.9558   -1.8043   19.2617 C   0  0  0  0  0  0  0  0  0  0  0  0
   11.0067   -3.5611   25.0101 C   0  0  0  0  0  0  0  0  0  0  0  0
    9.0408   -5.6180   26.1818 C   0  0  0  0  0  0  0  0  0  0  0  0
   12.4870   -1.7502   26.6469 C   0  0  0  0  0  0  0  0  0  0  0  0
   14.2146   -1.8062   24.8244 C   0  0  0  0  0  0  0  0  0  0  0  0
   11.9111   -0.9314   24.3377 C   0  0  0  0  0  0  0  0  0  0  0  0
    5.4972   -2.7290   21.5155 C   0  0  0  0  0  0  0  0  0  0  0  0
    9.4589   -5.4899   24.7184 C   0  0  2  0  0  0  0  0  0  0  0  0
   12.7280   -1.9356   25.1495 C   0  0  0  0  0  0  0  0  0  0  0  0
    6.0864   -1.7472   20.6408 N   0  0  0  0  0  0  0  0  0  0  0  0
   10.7535   -4.8572   24.6131 N   0  0  0  0  0  0  0  0  0  0  0  0
    5.3442   -2.6673   18.6402 O   0  0  0  0  0  0  0  0  0  0  0  0
   10.1876   -2.7874   25.4950 O   0  0  0  0  0  0  0  0  0  0  0  0
   12.3208   -3.2546   24.7836 O   0  0  0  0  0  0  0  0  0  0  0  0
    7.2177   -4.6693   20.7076 H   0  0  0  0  0  0  0  0  0  0  0  0
    6.0380   -2.3644   24.1504 H   0  0  0  0  0  0  0  0  0  0  0  0
    8.9019   -5.8444   22.0712 H   0  0  0  0  0  0  0  0  0  0  0  0
    7.7253   -3.5376   25.5135 H   0  0  0  0  0  0  0  0  0  0  0  0
    7.1537    0.2532   16.7725 H   0  0  0  0  0  0  0  0  0  0  0  0
    6.1269   -1.2827   16.6191 H   0  0  0  0  0  0  0  0  0  0  0  0
    7.1837    0.0546   19.1896 H   0  0  0  0  0  0  0  0  0  0  0  0
    8.8857   -4.6330   26.6355 H   0  0  0  0  0  0  0  0  0  0  0  0
    8.1047   -6.1814   26.2657 H   0  0  0  0  0  0  0  0  0  0  0  0
    9.7910   -6.1501   26.7775 H   0  0  0  0  0  0  0  0  0  0  0  0
   11.4211   -1.8424   26.8844 H   0  0  0  0  0  0  0  0  0  0  0  0
   13.0401   -2.4868   27.2388 H   0  0  0  0  0  0  0  0  0  0  0  0
   12.7903   -0.7480   26.9707 H   0  0  0  0  0  0  0  0  0  0  0  0
   14.3921   -1.9386   23.7510 H   0  0  0  0  0  0  0  0  0  0  0  0
   14.7943   -2.5859   25.3316 H   0  0  0  0  0  0  0  0  0  0  0  0
   14.6101   -0.8302   25.1235 H   0  0  0  0  0  0  0  0  0  0  0  0
   12.0838   -1.0642   23.2636 H   0  0  0  0  0  0  0  0  0  0  0  0
   10.8383   -1.0346   24.5306 H   0  0  0  0  0  0  0  0  0  0  0  0
   12.2102    0.0961   24.5743 H   0  0  0  0  0  0  0  0  0  0  0  0
    4.9337   -3.4339   20.8881 H   0  0  0  0  0  0  0  0  0  0  0  0
    4.7626   -2.2079   22.1448 H   0  0  0  0  0  0  0  0  0  0  0  0
    9.5983   -6.5031   24.3218 H   0  0  0  0  0  0  0  0  0  0  0  0
    6.6416   -1.0074   21.0654 H   0  0  0  0  0  0  0  0  0  0  0  0
   11.5204   -5.3975   24.2247 H   0  0  0  0  0  0  0  0  0  0  0  0
  1  3  2  0  0  0  0
  1  5  1  0  0  0  0
  2  4  1  0  0  0  0
  2  5  2  0  0  0  0
  3  6  1  0  0  0  0
  4  6  2  0  0  0  0
  5 15  1  0  0  0  0
  6 16  1  0  0  0  0
  7  8  2  0  0  0  0
  8  9  1  0  0  0  0
  9 18  1  0  0  0  0
  9 20  2  0  0  0  0
 10 19  1  0  0  0  0
 10 21  2  0  0  0  0
 10 22  1  0  0  0  0
 11 16  1  0  0  0  0
 12 17  1  0  0  0  0
 13 17  1  0  0  0  0
 14 17  1  0  0  0  0
 15 18  1  0  0  0  0
 16 19  1  0  0  0  0
 17 22  1  0  0  0  0
  1 23  1  0  0  0  0
  2 24  1  0  0  0  0
  3 25  1  0  0  0  0
  4 26  1  0  0  0  0
  7 27  1  0  0  0  0
  7 28  1  0  0  0  0
  8 29  1  0  0  0  0
 11 30  1  0  0  0  0
 11 31  1  0  0  0  0
 11 32  1  0  0  0  0
 12 33  1  0  0  0  0
 12 34  1  0  0  0  0
 12 35  1  0  0  0  0
 13 36  1  0  0  0  0
 13 37  1  0  0  0  0
 13 38  1  0  0  0  0
 14 39  1  0  0  0  0
 14 40  1  0  0  0  0
 14 41  1  0  0  0  0
 15 42  1  0  0  0  0
 15 43  1  0  0  0  0
 16 44  1  0  0  0  0
 18 45  1  0  0  0  0
 19 46  1  0  0  0  0
M  END
> <IC50 (uM)>

> <IC50 (uM) - std>

> <Average Inhibition @ 20 uM>

> <Average Inhibition @ 20 uM - std>

> <Average Inhibition @ 50 uM>

> <Average Inhibition @ 50 uM - std>
3.94

> <Trypsin IC50 (uM)>
4.74

> <Relative Solubility @ 20 uM>

> <Relative Solubility @ 100 uM>

> <Hybrid2>
-7.127817

> <docked_fragment>
x0749

> <Mpro-_dock>
2.101524

> <site>
active-covalent

$$$$
JOH-UNI-c7afdb96-10
  -OEChem-05192003313D

 35 35  0     0  0  0  0  0  0999 V2000
    6.6377   -5.5062   25.6686 C   0  0  0  0  0  0  0  0  0  0  0  0
   11.7388   -3.9849   25.5975 C   0  0  0  0  0  0  0  0  0  0  0  0
   12.8816   -3.1940   25.7152 C   0  0  0  0  0  0  0  0  0  0  0  0
   11.8675   -1.5183   24.3006 C   0  0  0  0  0  0  0  0  0  0  0  0
   10.6603   -3.5426   24.8313 C   0  0  0  0  0  0  0  0  0  0  0  0
   12.9460   -1.9607   25.0668 C   0  0  0  0  0  0  0  0  0  0  0  0
   10.7247   -2.3093   24.1829 C   0  0  0  0  0  0  0  0  0  0  0  0
    7.2219   -5.0602   24.4470 C   0  0  0  0  0  0  0  0  0  0  0  0
    6.8881   -5.5799   23.2478 C   0  0  0  0  0  0  0  0  0  0  0  0
    8.1948   -3.9211   24.5283 C   0  0  0  0  0  0  0  0  0  0  0  0
    6.8764   -0.5610   21.5082 C   0  0  0  0  0  0  0  0  0  0  0  0
    7.4699   -5.1506   21.9249 C   0  0  0  0  0  0  0  0  0  0  0  0
    7.0292   -1.9664   20.9449 C   0  0  0  0  0  0  0  0  0  0  0  0
    5.9615   -2.9005   21.5032 C   0  0  0  0  0  0  0  0  0  0  0  0
    6.1682   -5.8651   26.6673 N   0  0  0  0  0  0  0  0  0  0  0  0
    9.5020   -4.3476   24.7132 N   0  0  0  0  0  0  0  0  0  0  0  0
    7.7745   -2.7695   24.4813 O   0  0  0  0  0  0  0  0  0  0  0  0
    5.9835   -6.6301   23.1637 O   0  0  0  0  0  0  0  0  0  0  0  0
   14.0433   -1.2009   25.1808 F   0  0  0  0  0  0  0  0  0  0  0  0
    9.6948   -1.8748   23.4426 F   0  0  0  0  0  0  0  0  0  0  0  0
    6.1547   -4.5630   20.8206 S   0  0  0  0  0  0  0  0  0  0  0  0
   11.7002   -4.9447   26.1065 H   0  0  0  0  0  0  0  0  0  0  0  0
   13.7217   -3.5387   26.3109 H   0  0  0  0  0  0  0  0  0  0  0  0
   11.9174   -0.5577   23.7969 H   0  0  0  0  0  0  0  0  0  0  0  0
    5.8867   -0.1525   21.2803 H   0  0  0  0  0  0  0  0  0  0  0  0
    6.9963   -0.5737   22.5961 H   0  0  0  0  0  0  0  0  0  0  0  0
    7.6314    0.1130   21.0910 H   0  0  0  0  0  0  0  0  0  0  0  0
    8.2117   -4.3537   22.0260 H   0  0  0  0  0  0  0  0  0  0  0  0
    7.9803   -5.9953   21.4494 H   0  0  0  0  0  0  0  0  0  0  0  0
    8.0305   -2.3382   21.1940 H   0  0  0  0  0  0  0  0  0  0  0  0
    6.9596   -1.9166   19.8516 H   0  0  0  0  0  0  0  0  0  0  0  0
    6.0345   -2.9630   22.5938 H   0  0  0  0  0  0  0  0  0  0  0  0
    4.9601   -2.5369   21.2516 H   0  0  0  0  0  0  0  0  0  0  0  0
    9.6444   -5.3541   24.7704 H   0  0  0  0  0  0  0  0  0  0  0  0
    5.8629   -6.8730   22.2432 H   0  0  0  0  0  0  0  0  0  0  0  0
  1  8  1  0  0  0  0
  1 15  3  0  0  0  0
  2  3  2  0  0  0  0
  2  5  1  0  0  0  0
  3  6  1  0  0  0  0
  4  6  2  0  0  0  0
  4  7  1  0  0  0  0
  5  7  2  0  0  0  0
  5 16  1  0  0  0  0
  6 19  1  0  0  0  0
  7 20  1  0  0  0  0
  8  9  2  0  0  0  0
  8 10  1  0  0  0  0
  9 12  1  0  0  0  0
  9 18  1  0  0  0  0
 10 16  1  0  0  0  0
 10 17  2  0  0  0  0
 11 13  1  0  0  0  0
 12 21  1  0  0  0  0
 13 14  1  0  0  0  0
 14 21  1  0  0  0  0
  2 22  1  0  0  0  0
  3 23  1  0  0  0  0
  4 24  1  0  0  0  0
 11 25  1  0  0  0  0
 11 26  1  0  0  0  0
 11 27  1  0  0  0  0
 12 28  1  0  0  0  0
 12 29  1  0  0  0  0
 13 30  1  0  0  0  0
 13 31  1  0  0  0  0
 14 32  1  0  0  0  0
 14 33  1  0  0  0  0
 16 34  1  0  0  0  0
 18 35  1  0  0  0  0
M  END
> <IC50 (uM)>

> <IC50 (uM) - std>

> <Average Inhibition @ 20 uM>

> <Average Inhibition @ 20 uM - std>

> <Average Inhibition @ 50 uM>

> <Average Inhibition @ 50 uM - std>
4.38

> <Trypsin IC50 (uM)>
2.03

> <Relative Solubility @ 20 uM>

> <Relative Solubility @ 100 uM>

> <Hybrid2>
-7.116019

> <docked_fragment>
x0749

> <Mpro-_dock>
3.409525

> <site>
active-covalent

$$$$
ALE-UNK-fca05062-9
  -OEChem-05192003313D

 42 42  0     1  0  0  0  0  0999 V2000
   10.2812   -1.7525   24.2274 C   0  0  0  0  0  0  0  0  0  0  0  0
   10.5561   -0.6813   23.4033 C   0  0  0  0  0  0  0  0  0  0  0  0
    9.2385    0.3327   24.8337 C   0  0  0  0  0  0  0  0  0  0  0  0
   12.4524    3.8535   23.3078 C   0  0  0  0  0  0  0  0  0  0  0  0
   13.6018    0.4180   22.7482 C   0  0  0  0  0  0  0  0  0  0  0  0
    8.4509    1.3907   25.5030 C   0  0  0  0  0  0  0  0  0  0  0  0
   11.2520    7.4153   26.0741 C   0  0  0  0  0  0  0  0  0  0  0  0
   14.0754    3.4196   21.4463 C   0  0  0  0  0  0  0  0  0  0  0  0
   13.4422   -2.0808   22.6514 C   0  0  0  0  0  0  0  0  0  0  0  0
   11.4344   -0.7142   22.1861 C   0  0  0  0  0  0  0  0  0  0  0  0
   12.1224    6.2796   25.5551 C   0  0  0  0  0  0  0  0  0  0  0  0
   12.1565    6.2121   24.0330 C   0  0  0  0  0  0  0  0  0  0  0  0
   13.5063    2.9015   22.7579 C   0  0  2  0  0  0  0  0  0  0  0  0
    9.9587    0.5151   23.7491 N   0  0  0  0  0  0  0  0  0  0  0  0
   12.9676    5.1195   23.5489 N   0  0  0  0  0  0  0  0  0  0  0  0
   12.8912    1.6044   22.5884 N   0  0  0  0  0  0  0  0  0  0  0  0
   12.8521   -0.7537   22.5359 N   0  0  0  0  0  0  0  0  0  0  0  0
   11.2784    3.5301   23.4754 O   0  0  0  0  0  0  0  0  0  0  0  0
   14.8004    0.4068   23.0444 O   0  0  0  0  0  0  0  0  0  0  0  0
    9.2349   -1.2525   25.4910 S   0  0  0  0  0  0  0  0  0  0  0  0
   10.6322   -2.7721   24.1536 H   0  0  0  0  0  0  0  0  0  0  0  0
    7.4268    1.4341   25.1006 H   0  0  0  0  0  0  0  0  0  0  0  0
    8.3798    1.2241   26.5903 H   0  0  0  0  0  0  0  0  0  0  0  0
    8.9070    2.3860   25.3740 H   0  0  0  0  0  0  0  0  0  0  0  0
   11.6108    8.3829   25.7089 H   0  0  0  0  0  0  0  0  0  0  0  0
   10.2203    7.2859   25.7316 H   0  0  0  0  0  0  0  0  0  0  0  0
   11.2413    7.4420   27.1681 H   0  0  0  0  0  0  0  0  0  0  0  0
   13.2873    3.5500   20.6957 H   0  0  0  0  0  0  0  0  0  0  0  0
   14.5660    4.3891   21.5821 H   0  0  0  0  0  0  0  0  0  0  0  0
   14.8115    2.7193   21.0371 H   0  0  0  0  0  0  0  0  0  0  0  0
   13.3420   -2.4383   23.6868 H   0  0  0  0  0  0  0  0  0  0  0  0
   12.9228   -2.7732   21.9726 H   0  0  0  0  0  0  0  0  0  0  0  0
   14.5075   -2.0330   22.3816 H   0  0  0  0  0  0  0  0  0  0  0  0
   11.2133   -1.5956   21.5742 H   0  0  0  0  0  0  0  0  0  0  0  0
   11.2689    0.1675   21.5581 H   0  0  0  0  0  0  0  0  0  0  0  0
   11.7301    5.3323   25.9428 H   0  0  0  0  0  0  0  0  0  0  0  0
   13.1388    6.3956   25.9496 H   0  0  0  0  0  0  0  0  0  0  0  0
   11.1458    6.0577   23.6423 H   0  0  0  0  0  0  0  0  0  0  0  0
   12.5504    7.1382   23.6028 H   0  0  0  0  0  0  0  0  0  0  0  0
   14.3075    2.7777   23.4946 H   0  0  0  0  0  0  0  0  0  0  0  0
   13.9610    5.2875   23.4199 H   0  0  0  0  0  0  0  0  0  0  0  0
   11.9090    1.5571   22.3449 H   0  0  0  0  0  0  0  0  0  0  0  0
  1  2  2  0  0  0  0
  1 20  1  0  0  0  0
  2 10  1  0  0  0  0
  2 14  1  0  0  0  0
  3  6  1  0  0  0  0
  3 14  2  0  0  0  0
  3 20  1  0  0  0  0
  4 13  1  0  0  0  0
  4 15  1  0  0  0  0
  4 18  2  0  0  0  0
  5 16  1  0  0  0  0
  5 17  1  0  0  0  0
  5 19  2  0  0  0  0
  7 11  1  0  0  0  0
  8 13  1  0  0  0  0
  9 17  1  0  0  0  0
 10 17  1  0  0  0  0
 11 12  1  0  0  0  0
 12 15  1  0  0  0  0
 13 16  1  0  0  0  0
  1 21  1  0  0  0  0
  6 22  1  0  0  0  0
  6 23  1  0  0  0  0
  6 24  1  0  0  0  0
  7 25  1  0  0  0  0
  7 26  1  0  0  0  0
  7 27  1  0  0  0  0
  8 28  1  0  0  0  0
  8 29  1  0  0  0  0
  8 30  1  0  0  0  0
  9 31  1  0  0  0  0
  9 32  1  0  0  0  0
  9 33  1  0  0  0  0
 10 34  1  0  0  0  0
 10 35  1  0  0  0  0
 11 36  1  0  0  0  0
 11 37  1  0  0  0  0
 12 38  1  0  0  0  0
 12 39  1  0  0  0  0
 13 40  1  0  0  0  0
 15 41  1  0  0  0  0
 16 42  1  0  0  0  0
M  END
> <IC50 (uM)>

> <IC50 (uM) - std>

> <Average Inhibition @ 20 uM>

> <Average Inhibition @ 20 uM - std>
0.814

> <Average Inhibition @ 50 uM>
2.71

> <Average Inhibition @ 50 uM - std>
-2.74

> <Trypsin IC50 (uM)>
0.376

> <Relative Solubility @ 20 uM>
1.0

> <Relative Solubility @ 100 uM>
1.0

> <Hybrid2>
-7.045680

> <docked_fragment>
x0195

> <Mpro-_dock>
0.801408

> <site>
active-noncovalent

$$$$
LON-WEI-b8d98729-36
  -OEChem-05192003313D

 64 66  0     1  0  0  0  0  0999 V2000
    5.4646   -1.8194   18.0713 C   0  0  0  0  0  0  0  0  0  0  0  0
    5.3949   -5.9742   26.0345 C   0  0  0  0  0  0  0  0  0  0  0  0
    6.3218   -5.2599   25.2836 C   0  0  0  0  0  0  0  0  0  0  0  0
   11.5743   -2.8880   23.5078 C   0  0  0  0  0  0  0  0  0  0  0  0
   10.5028   -2.6131   25.6557 C   0  0  0  0  0  0  0  0  0  0  0  0
    5.7334   -2.3421   19.3362 C   0  0  0  0  0  0  0  0  0  0  0  0
   10.4325   -3.5231   23.0195 C   0  0  0  0  0  0  0  0  0  0  0  0
    9.3609   -3.2482   25.1673 C   0  0  0  0  0  0  0  0  0  0  0  0
    6.0461   -0.6145   17.6765 C   0  0  0  0  0  0  0  0  0  0  0  0
    4.0522   -5.8093   25.7349 C   0  0  0  0  0  0  0  0  0  0  0  0
    4.5193   -4.3194   24.0496 C   0  0  0  0  0  0  0  0  0  0  0  0
   11.6095   -2.4331   24.8260 C   0  0  0  0  0  0  0  0  0  0  0  0
    5.8838   -4.4144   24.2703 C   0  0  0  0  0  0  0  0  0  0  0  0
    7.1652   -0.4551   19.8118 C   0  0  0  0  0  0  0  0  0  0  0  0
    9.3258   -3.7032   23.8491 C   0  0  0  0  0  0  0  0  0  0  0  0
    6.5836   -1.6600   20.2065 C   0  0  0  0  0  0  0  0  0  0  0  0
    6.8964    0.0676   18.5468 C   0  0  0  0  0  0  0  0  0  0  0  0
    9.7200   -7.3357   21.8846 C   0  0  0  0  0  0  0  0  0  0  0  0
    9.4899   -6.4053   22.8165 C   0  0  0  0  0  0  0  0  0  0  0  0
    8.1824   -5.6869   22.8564 C   0  0  0  0  0  0  0  0  0  0  0  0
    6.3423   -3.3909   22.0208 C   0  0  0  0  0  0  0  0  0  0  0  0
    8.0794    0.2946   20.7258 C   0  0  0  0  0  0  0  0  0  0  0  0
   11.9374    0.6565   24.8973 C   0  0  0  0  0  0  0  0  0  0  0  0
   14.0094   -1.6088   24.3248 C   0  0  0  0  0  0  0  0  0  0  0  0
   13.4365   -2.5777   26.5331 C   0  0  0  0  0  0  0  0  0  0  0  0
   12.5367   -0.3105   25.9143 C   0  0  0  0  0  0  0  0  0  0  0  0
    6.8671   -3.6242   23.4353 C   0  0  2  0  0  0  0  0  0  0  0  0
   12.8699   -1.7321   25.3650 C   0  0  0  0  0  0  0  0  0  0  0  0
    3.5888   -4.9973   24.7583 N   0  0  0  0  0  0  0  0  0  0  0  0
    6.8435   -2.2070   21.4855 N   0  0  0  0  0  0  0  0  0  0  0  0
    8.1835   -4.3381   23.3609 N   0  0  0  0  0  0  0  0  0  0  0  0
    7.1679   -6.2786   22.4867 O   0  0  0  0  0  0  0  0  0  0  0  0
    5.5689   -4.1782   21.4821 O   0  0  0  0  0  0  0  0  0  0  0  0
    7.4500    1.2247   18.1574 F   0  0  0  0  0  0  0  0  0  0  0  0
    4.8026   -2.3504   17.3935 H   0  0  0  0  0  0  0  0  0  0  0  0
    5.7134   -6.6393   26.8290 H   0  0  0  0  0  0  0  0  0  0  0  0
    7.3822   -5.3683   25.4946 H   0  0  0  0  0  0  0  0  0  0  0  0
   12.4329   -2.7540   22.8550 H   0  0  0  0  0  0  0  0  0  0  0  0
   10.5218   -2.2624   26.6842 H   0  0  0  0  0  0  0  0  0  0  0  0
    5.2741   -3.2820   19.6322 H   0  0  0  0  0  0  0  0  0  0  0  0
   10.4161   -3.8733   21.9904 H   0  0  0  0  0  0  0  0  0  0  0  0
    8.5044   -3.3843   25.8229 H   0  0  0  0  0  0  0  0  0  0  0  0
    5.8370   -0.2075   16.6917 H   0  0  0  0  0  0  0  0  0  0  0  0
    3.2898   -6.3439   26.2919 H   0  0  0  0  0  0  0  0  0  0  0  0
    4.1184   -3.6757   23.2727 H   0  0  0  0  0  0  0  0  0  0  0  0
   10.6634   -7.8716   21.8742 H   0  0  0  0  0  0  0  0  0  0  0  0
    8.9959   -7.5830   21.1162 H   0  0  0  0  0  0  0  0  0  0  0  0
   10.2345   -6.1999   23.5768 H   0  0  0  0  0  0  0  0  0  0  0  0
    9.1154   -0.0290   20.5745 H   0  0  0  0  0  0  0  0  0  0  0  0
    8.0198    1.3747   20.5460 H   0  0  0  0  0  0  0  0  0  0  0  0
    7.8106    0.1297   21.7763 H   0  0  0  0  0  0  0  0  0  0  0  0
   11.0177    0.2614   24.4571 H   0  0  0  0  0  0  0  0  0  0  0  0
   12.6473    0.8186   24.0793 H   0  0  0  0  0  0  0  0  0  0  0  0
   11.7197    1.6312   25.3430 H   0  0  0  0  0  0  0  0  0  0  0  0
   14.8822   -1.1042   24.7556 H   0  0  0  0  0  0  0  0  0  0  0  0
   13.7058   -1.0366   23.4420 H   0  0  0  0  0  0  0  0  0  0  0  0
   14.3455   -2.5942   23.9803 H   0  0  0  0  0  0  0  0  0  0  0  0
   14.3398   -2.1332   26.9655 H   0  0  0  0  0  0  0  0  0  0  0  0
   13.7042   -3.5863   26.1970 H   0  0  0  0  0  0  0  0  0  0  0  0
   12.7021   -2.6799   27.3410 H   0  0  0  0  0  0  0  0  0  0  0  0
   13.4521    0.1455   26.3150 H   0  0  0  0  0  0  0  0  0  0  0  0
   11.8471   -0.3801   26.7647 H   0  0  0  0  0  0  0  0  0  0  0  0
    7.0581   -2.6490   23.8999 H   0  0  0  0  0  0  0  0  0  0  0  0
    7.4698   -1.6727   22.0840 H   0  0  0  0  0  0  0  0  0  0  0  0
  1  6  2  0  0  0  0
  1  9  1  0  0  0  0
  2  3  2  0  0  0  0
  2 10  1  0  0  0  0
  3 13  1  0  0  0  0
  4  7  2  0  0  0  0
  4 12  1  0  0  0  0
  5  8  1  0  0  0  0
  5 12  2  0  0  0  0
  6 16  1  0  0  0  0
  7 15  1  0  0  0  0
  8 15  2  0  0  0  0
  9 17  2  0  0  0  0
 10 29  2  0  0  0  0
 11 13  2  0  0  0  0
 11 29  1  0  0  0  0
 12 28  1  0  0  0  0
 13 27  1  0  0  0  0
 14 16  2  0  0  0  0
 14 17  1  0  0  0  0
 14 22  1  0  0  0  0
 15 31  1  0  0  0  0
 16 30  1  0  0  0  0
 17 34  1  0  0  0  0
 18 19  2  0  0  0  0
 19 20  1  0  0  0  0
 20 31  1  0  0  0  0
 20 32  2  0  0  0  0
 21 27  1  0  0  0  0
 21 30  1  0  0  0  0
 21 33  2  0  0  0  0
 23 26  1  0  0  0  0
 24 28  1  0  0  0  0
 25 28  1  0  0  0  0
 26 28  1  0  0  0  0
 27 31  1  0  0  0  0
  1 35  1  0  0  0  0
  2 36  1  0  0  0  0
  3 37  1  0  0  0  0
  4 38  1  0  0  0  0
  5 39  1  0  0  0  0
  6 40  1  0  0  0  0
  7 41  1  0  0  0  0
  8 42  1  0  0  0  0
  9 43  1  0  0  0  0
 10 44  1  0  0  0  0
 11 45  1  0  0  0  0
 18 46  1  0  0  0  0
 18 47  1  0  0  0  0
 19 48  1  0  0  0  0
 22 49  1  0  0  0  0
 22 50  1  0  0  0  0
 22 51  1  0  0  0  0
 23 52  1  0  0  0  0
 23 53  1  0  0  0  0
 23 54  1  0  0  0  0
 24 55  1  0  0  0  0
 24 56  1  0  0  0  0
 24 57  1  0  0  0  0
 25 58  1  0  0  0  0
 25 59  1  0  0  0  0
 25 60  1  0  0  0  0
 26 61  1  0  0  0  0
 26 62  1  0  0  0  0
 27 63  1  0  0  0  0
 30 64  1  0  0  0  0
M  END
> <IC50 (uM)>

> <IC50 (uM) - std>

> <Average Inhibition @ 20 uM>

> <Average Inhibition @ 20 uM - std>
16.3

> <Average Inhibition @ 50 uM>
0.472

> <Average Inhibition @ 50 uM - std>
31.8

> <Trypsin IC50 (uM)>
1.09

> <Relative Solubility @ 20 uM>
0.86

> <Relative Solubility @ 100 uM>
0.72

> <Hybrid2>
-6.975394

> <docked_fragment>
x0749

> <Mpro-_dock>
5.058728

> <site>
active-covalent

$$$$
JOH-UNI-c7afdb96-9
  -OEChem-05192003313D

 35 35  0     0  0  0  0  0  0999 V2000
    8.2252   -5.5405   24.1970 C   0  0  0  0  0  0  0  0  0  0  0  0
   12.4061   -0.6784   24.4060 C   0  0  0  0  0  0  0  0  0  0  0  0
   13.4653   -1.1639   25.1727 C   0  0  0  0  0  0  0  0  0  0  0  0
   11.3570   -1.5260   24.0498 C   0  0  0  0  0  0  0  0  0  0  0  0
   13.4757   -2.4969   25.5832 C   0  0  0  0  0  0  0  0  0  0  0  0
   11.3673   -2.8590   24.4603 C   0  0  0  0  0  0  0  0  0  0  0  0
   12.4266   -3.3445   25.2270 C   0  0  0  0  0  0  0  0  0  0  0  0
    8.2566   -4.5631   23.1595 C   0  0  0  0  0  0  0  0  0  0  0  0
    7.4572   -4.6267   22.0749 C   0  0  0  0  0  0  0  0  0  0  0  0
    9.1805   -3.3960   23.3453 C   0  0  0  0  0  0  0  0  0  0  0  0
    5.7909    0.7346   18.5435 C   0  0  0  0  0  0  0  0  0  0  0  0
    7.4445   -3.6257   20.9477 C   0  0  0  0  0  0  0  0  0  0  0  0
    5.5885   -0.1023   19.7982 C   0  0  0  0  0  0  0  0  0  0  0  0
    6.4815   -1.3379   19.7838 C   0  0  0  0  0  0  0  0  0  0  0  0
    8.2071   -6.3331   25.0445 N   0  0  0  0  0  0  0  0  0  0  0  0
   10.3013   -3.7167   24.0976 N   0  0  0  0  0  0  0  0  0  0  0  0
    8.8634   -2.3021   22.8893 O   0  0  0  0  0  0  0  0  0  0  0  0
    6.5947   -5.7007   21.8989 O   0  0  0  0  0  0  0  0  0  0  0  0
   12.4473   -4.6240   25.6273 F   0  0  0  0  0  0  0  0  0  0  0  0
    6.2320   -2.3172   21.2824 S   0  0  0  0  0  0  0  0  0  0  0  0
   12.3989    0.3593   24.0860 H   0  0  0  0  0  0  0  0  0  0  0  0
   14.2824   -0.5041   25.4497 H   0  0  0  0  0  0  0  0  0  0  0  0
   10.5370   -1.1365   23.4518 H   0  0  0  0  0  0  0  0  0  0  0  0
   14.3003   -2.8748   26.1799 H   0  0  0  0  0  0  0  0  0  0  0  0
    6.8353    1.0473   18.4448 H   0  0  0  0  0  0  0  0  0  0  0  0
    5.5244    0.1547   17.6542 H   0  0  0  0  0  0  0  0  0  0  0  0
    5.1636    1.6315   18.5648 H   0  0  0  0  0  0  0  0  0  0  0  0
    8.4183   -3.1551   20.7869 H   0  0  0  0  0  0  0  0  0  0  0  0
    7.1783   -4.1234   20.0088 H   0  0  0  0  0  0  0  0  0  0  0  0
    4.5331   -0.3943   19.8598 H   0  0  0  0  0  0  0  0  0  0  0  0
    5.8095    0.5187   20.6748 H   0  0  0  0  0  0  0  0  0  0  0  0
    6.2564   -1.9674   18.9169 H   0  0  0  0  0  0  0  0  0  0  0  0
    7.5366   -1.0514   19.7289 H   0  0  0  0  0  0  0  0  0  0  0  0
   10.3641   -4.6782   24.4260 H   0  0  0  0  0  0  0  0  0  0  0  0
    6.1052   -5.5848   21.0817 H   0  0  0  0  0  0  0  0  0  0  0  0
  1  8  1  0  0  0  0
  1 15  3  0  0  0  0
  2  3  1  0  0  0  0
  2  4  2  0  0  0  0
  3  5  2  0  0  0  0
  4  6  1  0  0  0  0
  5  7  1  0  0  0  0
  6  7  2  0  0  0  0
  6 16  1  0  0  0  0
  7 19  1  0  0  0  0
  8  9  2  0  0  0  0
  8 10  1  0  0  0  0
  9 12  1  0  0  0  0
  9 18  1  0  0  0  0
 10 16  1  0  0  0  0
 10 17  2  0  0  0  0
 11 13  1  0  0  0  0
 12 20  1  0  0  0  0
 13 14  1  0  0  0  0
 14 20  1  0  0  0  0
  2 21  1  0  0  0  0
  3 22  1  0  0  0  0
  4 23  1  0  0  0  0
  5 24  1  0  0  0  0
 11 25  1  0  0  0  0
 11 26  1  0  0  0  0
 11 27  1  0  0  0  0
 12 28  1  0  0  0  0
 12 29  1  0  0  0  0
 13 30  1  0  0  0  0
 13 31  1  0  0  0  0
 14 32  1  0  0  0  0
 14 33  1  0  0  0  0
 16 34  1  0  0  0  0
 18 35  1  0  0  0  0
M  END
> <IC50 (uM)>

> <IC50 (uM) - std>

> <Average Inhibition @ 20 uM>

> <Average Inhibition @ 20 uM - std>

> <Average Inhibition @ 50 uM>

> <Average Inhibition @ 50 uM - std>
9.99

> <Trypsin IC50 (uM)>
1.01

> <Relative Solubility @ 20 uM>

> <Relative Solubility @ 100 uM>

> <Hybrid2>
-6.906663

> <docked_fragment>
x0749

> <Mpro-_dock>
-0.691132

> <site>
active-covalent

$$$$
GIA-UNK-d2defdc3-4
  -OEChem-05192003313D

 55 57  0     1  0  0  0  0  0999 V2000
    8.4858    7.0277   23.8238 C   0  0  0  0  0  0  0  0  0  0  0  0
    7.2811    7.2797   23.1675 C   0  0  0  0  0  0  0  0  0  0  0  0
    8.9948    5.7300   23.8736 C   0  0  0  0  0  0  0  0  0  0  0  0
    6.5852    6.2339   22.5611 C   0  0  0  0  0  0  0  0  0  0  0  0
    8.2989    4.6841   23.2672 C   0  0  0  0  0  0  0  0  0  0  0  0
    7.0942    4.9361   22.6109 C   0  0  0  0  0  0  0  0  0  0  0  0
    6.3530    3.8222   21.9650 C   0  0  0  0  0  0  0  0  0  0  0  0
    9.3756    0.6578   22.3224 C   0  0  0  0  0  0  0  0  0  0  0  0
    5.2387    0.8693   18.8388 C   0  0  0  0  0  0  0  0  0  0  0  0
    6.3244   -0.1448   18.4981 C   0  0  0  0  0  0  0  0  0  0  0  0
    5.8055    2.0515   19.6177 C   0  0  0  0  0  0  0  0  0  0  0  0
    7.0601   -0.6135   19.7487 C   0  0  0  0  0  0  0  0  0  0  0  0
   10.2001   -1.4902   23.2919 C   0  0  0  0  0  0  0  0  0  0  0  0
   11.0519    0.7243   24.1713 C   0  0  0  0  0  0  0  0  0  0  0  0
   11.4928   -1.6591   22.5029 C   0  0  0  0  0  0  0  0  0  0  0  0
   12.3358    0.5322   23.3731 C   0  0  0  0  0  0  0  0  0  0  0  0
    9.8619   -0.0249   23.5699 C   0  0  0  0  0  0  0  0  0  0  0  0
    6.5516    1.6032   20.8793 C   0  0  1  0  0  0  0  0  0  0  0  0
    7.6338    0.5595   20.5495 C   0  0  1  0  0  0  0  0  0  0  0  0
   13.9397   -1.1876   22.5476 C   0  0  0  0  0  0  0  0  0  0  0  0
    7.1237    2.7524   21.5471 N   0  0  0  0  0  0  0  0  0  0  0  0
    8.2655    0.0641   21.7525 N   0  0  0  0  0  0  0  0  0  0  0  0
   12.6138   -0.9421   23.2138 N   0  3  0  0  0  0  0  0  0  0  0  0
    5.1367    3.9146   21.8214 O   0  0  0  0  0  0  0  0  0  0  0  0
    9.9631    1.6504   21.9087 O   0  0  0  0  0  0  0  0  0  0  0  0
    9.0275    7.8420   24.2960 H   0  0  0  0  0  0  0  0  0  0  0  0
    6.8848    8.2902   23.1290 H   0  0  0  0  0  0  0  0  0  0  0  0
    9.9329    5.5338   24.3844 H   0  0  0  0  0  0  0  0  0  0  0  0
    5.6474    6.4414   22.0523 H   0  0  0  0  0  0  0  0  0  0  0  0
    8.7050    3.6768   23.3124 H   0  0  0  0  0  0  0  0  0  0  0  0
    4.7663    1.2242   17.9159 H   0  0  0  0  0  0  0  0  0  0  0  0
    4.4552    0.3824   19.4293 H   0  0  0  0  0  0  0  0  0  0  0  0
    5.8758   -1.0039   17.9864 H   0  0  0  0  0  0  0  0  0  0  0  0
    7.0379    0.3039   17.7989 H   0  0  0  0  0  0  0  0  0  0  0  0
    6.4642    2.6410   18.9718 H   0  0  0  0  0  0  0  0  0  0  0  0
    4.9826    2.7148   19.9059 H   0  0  0  0  0  0  0  0  0  0  0  0
    6.3892   -1.2119   20.3725 H   0  0  0  0  0  0  0  0  0  0  0  0
    7.8791   -1.2770   19.4515 H   0  0  0  0  0  0  0  0  0  0  0  0
    9.3818   -1.9700   22.7413 H   0  0  0  0  0  0  0  0  0  0  0  0
   10.2923   -2.0246   24.2463 H   0  0  0  0  0  0  0  0  0  0  0  0
   11.2144    0.3744   25.1988 H   0  0  0  0  0  0  0  0  0  0  0  0
   10.8295    1.7963   24.2358 H   0  0  0  0  0  0  0  0  0  0  0  0
   11.7669   -2.7175   22.4405 H   0  0  0  0  0  0  0  0  0  0  0  0
   11.4182   -1.2439   21.4918 H   0  0  0  0  0  0  0  0  0  0  0  0
   12.2769    0.9721   22.3720 H   0  0  0  0  0  0  0  0  0  0  0  0
   13.1851    0.9694   23.9085 H   0  0  0  0  0  0  0  0  0  0  0  0
    9.0277    0.0178   24.2743 H   0  0  0  0  0  0  0  0  0  0  0  0
    5.8307    1.1850   21.5915 H   0  0  0  0  0  0  0  0  0  0  0  0
    8.4427    1.0245   19.9728 H   0  0  0  0  0  0  0  0  0  0  0  0
   13.8902   -0.7686   21.5408 H   0  0  0  0  0  0  0  0  0  0  0  0
   14.7093   -0.6914   23.1419 H   0  0  0  0  0  0  0  0  0  0  0  0
   14.1030   -2.2665   22.5159 H   0  0  0  0  0  0  0  0  0  0  0  0
    8.1317    2.7708   21.6414 H   0  0  0  0  0  0  0  0  0  0  0  0
    7.8746   -0.7596   22.1999 H   0  0  0  0  0  0  0  0  0  0  0  0
   12.6850   -1.3446   24.1584 H   0  0  0  0  0  0  0  0  0  0  0  0
  1  2  1  0  0  0  0
  1  3  2  0  0  0  0
  2  4  2  0  0  0  0
  3  5  1  0  0  0  0
  4  6  1  0  0  0  0
  5  6  2  0  0  0  0
  6  7  1  0  0  0  0
  7 21  1  0  0  0  0
  7 24  2  0  0  0  0
  8 17  1  0  0  0  0
  8 22  1  0  0  0  0
  8 25  2  0  0  0  0
  9 10  1  0  0  0  0
  9 11  1  0  0  0  0
 10 12  1  0  0  0  0
 11 18  1  0  0  0  0
 12 19  1  0  0  0  0
 13 15  1  0  0  0  0
 13 17  1  0  0  0  0
 14 16  1  0  0  0  0
 14 17  1  0  0  0  0
 15 23  1  0  0  0  0
 16 23  1  0  0  0  0
 18 19  1  0  0  0  0
 18 21  1  0  0  0  0
 19 22  1  0  0  0  0
 20 23  1  0  0  0  0
  1 26  1  0  0  0  0
  2 27  1  0  0  0  0
  3 28  1  0  0  0  0
  4 29  1  0  0  0  0
  5 30  1  0  0  0  0
  9 31  1  0  0  0  0
  9 32  1  0  0  0  0
 10 33  1  0  0  0  0
 10 34  1  0  0  0  0
 11 35  1  0  0  0  0
 11 36  1  0  0  0  0
 12 37  1  0  0  0  0
 12 38  1  0  0  0  0
 13 39  1  0  0  0  0
 13 40  1  0  0  0  0
 14 41  1  0  0  0  0
 14 42  1  0  0  0  0
 15 43  1  0  0  0  0
 15 44  1  0  0  0  0
 16 45  1  0  0  0  0
 16 46  1  0  0  0  0
 17 47  1  0  0  0  0
 18 48  1  0  0  0  0
 19 49  1  0  0  0  0
 20 50  1  0  0  0  0
 20 51  1  0  0  0  0
 20 52  1  0  0  0  0
 21 53  1  0  0  0  0
 22 54  1  0  0  0  0
 23 55  1  0  0  0  0
M  CHG  1  23   1
M  END
> <IC50 (uM)>

> <IC50 (uM) - std>

> <Average Inhibition @ 20 uM>

> <Average Inhibition @ 20 uM - std>

> <Average Inhibition @ 50 uM>

> <Average Inhibition @ 50 uM - std>
0.89

> <Trypsin IC50 (uM)>
4.23

> <Relative Solubility @ 20 uM>

> <Relative Solubility @ 100 uM>

> <Hybrid2>
-6.880795

> <docked_fragment>
x0967

> <Mpro-_dock>
2.981867

> <site>
active-noncovalent

$$$$
LON-WEI-b8d98729-31
  -OEChem-05192003313D

 50 52  0     1  0  0  0  0  0999 V2000
    6.9695    0.1741   18.0019 C   0  0  0  0  0  0  0  0  0  0  0  0
    7.7512   -0.5789   18.8709 C   0  0  0  0  0  0  0  0  0  0  0  0
   12.1134   -2.2529   22.0054 C   0  0  0  0  0  0  0  0  0  0  0  0
   10.7264   -2.3118   21.8412 C   0  0  0  0  0  0  0  0  0  0  0  0
   10.4965   -0.0351   22.6428 C   0  0  0  0  0  0  0  0  0  0  0  0
    5.6023    0.2086   18.2240 C   0  0  0  0  0  0  0  0  0  0  0  0
    5.7751   -1.1657   20.0569 C   0  0  0  0  0  0  0  0  0  0  0  0
   14.2621    0.3458   23.1683 C   0  0  0  0  0  0  0  0  0  0  0  0
    7.1504   -1.2648   19.9206 C   0  0  0  0  0  0  0  0  0  0  0  0
   12.7112   -1.0714   22.4951 C   0  0  0  0  0  0  0  0  0  0  0  0
    9.9303   -1.2161   22.1564 C   0  0  0  0  0  0  0  0  0  0  0  0
   11.8903    0.0172   22.8051 C   0  0  0  0  0  0  0  0  0  0  0  0
    7.8162    0.7211   24.9273 C   0  0  0  0  0  0  0  0  0  0  0  0
    8.1268   -0.3727   24.2243 C   0  0  0  0  0  0  0  0  0  0  0  0
    7.6246   -0.5386   22.8288 C   0  0  0  0  0  0  0  0  0  0  0  0
    7.1690   -3.2486   21.4632 C   0  0  0  0  0  0  0  0  0  0  0  0
    7.7116   -4.7584   24.8670 C   0  0  0  0  0  0  0  0  0  0  0  0
    5.5186   -4.4216   23.6983 C   0  0  0  0  0  0  0  0  0  0  0  0
    7.2270   -5.9860   22.7379 C   0  0  0  0  0  0  0  0  0  0  0  0
    7.9723   -2.0911   20.8823 C   0  0  2  0  0  0  0  0  0  0  0  0
    7.0172   -4.6741   23.5028 C   0  0  0  0  0  0  0  0  0  0  0  0
    4.9827   -0.4443   19.2327 N   0  0  0  0  0  0  0  0  0  0  0  0
   14.0668   -0.8678   22.7082 N   0  0  0  0  0  0  0  0  0  0  0  0
    7.5876   -3.5780   22.7410 N   0  0  0  0  0  0  0  0  0  0  0  0
    8.4772   -1.2990   21.9769 N   0  0  0  0  0  0  0  0  0  0  0  0
    6.5489   -0.0252   22.5196 O   0  0  0  0  0  0  0  0  0  0  0  0
    6.2863   -3.8292   20.8344 O   0  0  0  0  0  0  0  0  0  0  0  0
   12.8691    1.3165   23.3765 S   0  0  0  0  0  0  0  0  0  0  0  0
    7.4163    0.7171   17.1769 H   0  0  0  0  0  0  0  0  0  0  0  0
    8.8267   -0.6254   18.7227 H   0  0  0  0  0  0  0  0  0  0  0  0
   12.7259   -3.1144   21.7550 H   0  0  0  0  0  0  0  0  0  0  0  0
   10.2796   -3.2286   21.4633 H   0  0  0  0  0  0  0  0  0  0  0  0
    9.8772    0.8230   22.8893 H   0  0  0  0  0  0  0  0  0  0  0  0
    4.9490    0.7813   17.5740 H   0  0  0  0  0  0  0  0  0  0  0  0
    5.2505   -1.6788   20.8571 H   0  0  0  0  0  0  0  0  0  0  0  0
   15.2497    0.7173   23.4047 H   0  0  0  0  0  0  0  0  0  0  0  0
    8.2030    0.8477   25.9331 H   0  0  0  0  0  0  0  0  0  0  0  0
    7.1764    1.5040   24.5354 H   0  0  0  0  0  0  0  0  0  0  0  0
    8.7832   -1.1242   24.6475 H   0  0  0  0  0  0  0  0  0  0  0  0
    8.7870   -4.9390   24.7537 H   0  0  0  0  0  0  0  0  0  0  0  0
    7.5844   -3.8316   25.4372 H   0  0  0  0  0  0  0  0  0  0  0  0
    7.3063   -5.5820   25.4663 H   0  0  0  0  0  0  0  0  0  0  0  0
    4.9995   -4.3574   22.7349 H   0  0  0  0  0  0  0  0  0  0  0  0
    5.3423   -3.4763   24.2246 H   0  0  0  0  0  0  0  0  0  0  0  0
    5.0514   -5.2238   24.2802 H   0  0  0  0  0  0  0  0  0  0  0  0
    6.7398   -5.9533   21.7565 H   0  0  0  0  0  0  0  0  0  0  0  0
    8.2918   -6.1896   22.5795 H   0  0  0  0  0  0  0  0  0  0  0  0
    6.7996   -6.8353   23.2836 H   0  0  0  0  0  0  0  0  0  0  0  0
    8.8613   -2.4923   20.3809 H   0  0  0  0  0  0  0  0  0  0  0  0
    8.3257   -3.0441   23.1837 H   0  0  0  0  0  0  0  0  0  0  0  0
  1  2  2  0  0  0  0
  1  6  1  0  0  0  0
  2  9  1  0  0  0  0
  3  4  2  0  0  0  0
  3 10  1  0  0  0  0
  4 11  1  0  0  0  0
  5 11  2  0  0  0  0
  5 12  1  0  0  0  0
  6 22  2  0  0  0  0
  7  9  2  0  0  0  0
  7 22  1  0  0  0  0
  8 23  2  0  0  0  0
  8 28  1  0  0  0  0
  9 20  1  0  0  0  0
 10 12  2  0  0  0  0
 10 23  1  0  0  0  0
 11 25  1  0  0  0  0
 12 28  1  0  0  0  0
 13 14  2  0  0  0  0
 14 15  1  0  0  0  0
 15 25  1  0  0  0  0
 15 26  2  0  0  0  0
 16 20  1  0  0  0  0
 16 24  1  0  0  0  0
 16 27  2  0  0  0  0
 17 21  1  0  0  0  0
 18 21  1  0  0  0  0
 19 21  1  0  0  0  0
 20 25  1  0  0  0  0
 21 24  1  0  0  0  0
  1 29  1  0  0  0  0
  2 30  1  0  0  0  0
  3 31  1  0  0  0  0
  4 32  1  0  0  0  0
  5 33  1  0  0  0  0
  6 34  1  0  0  0  0
  7 35  1  0  0  0  0
  8 36  1  0  0  0  0
 13 37  1  0  0  0  0
 13 38  1  0  0  0  0
 14 39  1  0  0  0  0
 17 40  1  0  0  0  0
 17 41  1  0  0  0  0
 17 42  1  0  0  0  0
 18 43  1  0  0  0  0
 18 44  1  0  0  0  0
 18 45  1  0  0  0  0
 19 46  1  0  0  0  0
 19 47  1  0  0  0  0
 19 48  1  0  0  0  0
 20 49  1  0  0  0  0
 24 50  1  0  0  0  0
M  END
> <IC50 (uM)>

> <IC50 (uM) - std>

> <Average Inhibition @ 20 uM>

> <Average Inhibition @ 20 uM - std>
9.29

> <Average Inhibition @ 50 uM>
11.4

> <Average Inhibition @ 50 uM - std>
0.772

> <Trypsin IC50 (uM)>
1.75

> <Relative Solubility @ 20 uM>
1.0

> <Relative Solubility @ 100 uM>
1.0

> <Hybrid2>
-6.844155

> <docked_fragment>
x0831

> <Mpro-_dock>
2.887503

> <site>
active-covalent

$$$$
DAR-DIA-23aa0b97-11
  -OEChem-05192003313D

 32 34  0     0  0  0  0  0  0999 V2000
   12.1652    0.6194   24.7361 C   0  0  0  0  0  0  0  0  0  0  0  0
   14.0188   -2.2344   26.2448 C   0  0  0  0  0  0  0  0  0  0  0  0
    7.0698   -3.8644   20.2896 C   0  0  0  0  0  0  0  0  0  0  0  0
   13.6772   -0.9370   25.8630 C   0  0  0  0  0  0  0  0  0  0  0  0
    7.9584   -4.1297   21.3300 C   0  0  0  0  0  0  0  0  0  0  0  0
   13.1979   -3.3048   25.8898 C   0  0  0  0  0  0  0  0  0  0  0  0
   11.6938   -1.7804   24.7714 C   0  0  0  0  0  0  0  0  0  0  0  0
    5.9817   -4.7077   20.1093 C   0  0  0  0  0  0  0  0  0  0  0  0
    7.5690   -6.9476   23.6209 C   0  0  0  0  0  0  0  0  0  0  0  0
   12.5147   -0.7100   25.1264 C   0  0  0  0  0  0  0  0  0  0  0  0
    7.7009   -5.2445   22.1440 C   0  0  0  0  0  0  0  0  0  0  0  0
   12.0353   -3.0778   25.1532 C   0  0  0  0  0  0  0  0  0  0  0  0
    8.3243   -5.8504   23.2668 C   0  0  0  0  0  0  0  0  0  0  0  0
    6.5727   -6.0050   21.8504 C   0  0  0  0  0  0  0  0  0  0  0  0
   10.0061   -4.1294   24.0599 C   0  0  0  0  0  0  0  0  0  0  0  0
   11.8814    1.6991   24.4191 N   0  0  0  0  0  0  0  0  0  0  0  0
    5.6846   -5.7934   20.8607 N   0  0  0  0  0  0  0  0  0  0  0  0
    6.5096   -7.0319   22.7551 N   0  0  0  0  0  0  0  0  0  0  0  0
   11.2036   -4.1641   24.7922 N   0  0  0  0  0  0  0  0  0  0  0  0
    9.4718   -5.4453   23.9102 N   0  0  0  0  0  0  0  0  0  0  0  0
    9.4810   -3.1178   23.6061 O   0  0  0  0  0  0  0  0  0  0  0  0
   14.9245   -2.4113   26.8177 H   0  0  0  0  0  0  0  0  0  0  0  0
    7.2264   -3.0144   19.6337 H   0  0  0  0  0  0  0  0  0  0  0  0
   14.3271   -0.1132   26.1480 H   0  0  0  0  0  0  0  0  0  0  0  0
    8.8189   -3.4903   21.4980 H   0  0  0  0  0  0  0  0  0  0  0  0
   13.4741   -4.3117   26.1928 H   0  0  0  0  0  0  0  0  0  0  0  0
   10.7857   -1.6069   24.1972 H   0  0  0  0  0  0  0  0  0  0  0  0
    5.2786   -4.5155   19.3030 H   0  0  0  0  0  0  0  0  0  0  0  0
    7.6882   -7.6774   24.4101 H   0  0  0  0  0  0  0  0  0  0  0  0
    5.7914   -7.7424   22.7793 H   0  0  0  0  0  0  0  0  0  0  0  0
   11.5109   -5.0828   25.1012 H   0  0  0  0  0  0  0  0  0  0  0  0
   10.0499   -6.1755   24.3595 H   0  0  0  0  0  0  0  0  0  0  0  0
  1 10  1  0  0  0  0
  1 16  3  0  0  0  0
  2  4  2  0  0  0  0
  2  6  1  0  0  0  0
  3  5  2  0  0  0  0
  3  8  1  0  0  0  0
  4 10  1  0  0  0  0
  5 11  1  0  0  0  0
  6 12  2  0  0  0  0
  7 10  2  0  0  0  0
  7 12  1  0  0  0  0
  8 17  2  0  0  0  0
  9 13  2  0  0  0  0
  9 18  1  0  0  0  0
 11 13  1  0  0  0  0
 11 14  2  0  0  0  0
 12 19  1  0  0  0  0
 13 20  1  0  0  0  0
 14 17  1  0  0  0  0
 14 18  1  0  0  0  0
 15 19  1  0  0  0  0
 15 20  1  0  0  0  0
 15 21  2  0  0  0  0
  2 22  1  0  0  0  0
  3 23  1  0  0  0  0
  4 24  1  0  0  0  0
  5 25  1  0  0  0  0
  6 26  1  0  0  0  0
  7 27  1  0  0  0  0
  8 28  1  0  0  0  0
  9 29  1  0  0  0  0
 18 30  1  0  0  0  0
 19 31  1  0  0  0  0
 20 32  1  0  0  0  0
M  END
> <IC50 (uM)>

> <IC50 (uM) - std>

> <Average Inhibition @ 20 uM>

> <Average Inhibition @ 20 uM - std>

> <Average Inhibition @ 50 uM>

> <Average Inhibition @ 50 uM - std>
49.3

> <Trypsin IC50 (uM)>
2.37

> <Relative Solubility @ 20 uM>

> <Relative Solubility @ 100 uM>

> <Hybrid2>
-6.808415

> <docked_fragment>
x0749

> <Mpro-_dock>
1.724748

> <site>
active-covalent

$$$$
TOB-UNK-c2aba166-1
  -OEChem-05192003313D

 27 27  0     0  0  0  0  0  0999 V2000
   13.0785   -0.9119   21.9184 C   0  0  0  0  0  0  0  0  0  0  0  0
   12.2271   -1.6172   22.3863 C   0  0  0  0  0  0  0  0  0  0  0  0
    6.1459   -1.3689   20.9659 C   0  0  0  0  0  0  0  0  0  0  0  0
    7.3992   -2.0331   22.9930 C   0  0  0  0  0  0  0  0  0  0  0  0
    8.3857   -0.3077   21.5360 C   0  0  0  0  0  0  0  0  0  0  0  0
    8.7185   -2.7907   23.0240 C   0  0  0  0  0  0  0  0  0  0  0  0
    9.7214   -1.0389   21.5465 C   0  0  0  0  0  0  0  0  0  0  0  0
   11.1951   -2.4790   22.9571 C   0  0  0  0  0  0  0  0  0  0  0  0
    5.7298   -0.1485   20.1842 C   0  0  0  0  0  0  0  0  0  0  0  0
    7.2772   -1.2393   21.7702 N   0  0  0  0  0  0  0  0  0  0  0  0
    9.8547   -1.8094   22.8411 N   0  3  0  0  0  0  0  0  0  0  0  0
    5.4857   -2.4058   20.8614 O   0  0  0  0  0  0  0  0  0  0  0  0
    6.5903   -0.2152   18.6502 Cl  0  0  0  0  0  0  0  0  0  0  0  0
   13.8334   -0.2859   21.5033 H   0  0  0  0  0  0  0  0  0  0  0  0
    6.5691   -2.7411   23.0808 H   0  0  0  0  0  0  0  0  0  0  0  0
    7.3280   -1.3426   23.8423 H   0  0  0  0  0  0  0  0  0  0  0  0
    8.3519    0.4449   22.3331 H   0  0  0  0  0  0  0  0  0  0  0  0
    8.2773    0.2246   20.5895 H   0  0  0  0  0  0  0  0  0  0  0  0
    8.8615   -3.2786   23.9936 H   0  0  0  0  0  0  0  0  0  0  0  0
    8.7840   -3.5351   22.2225 H   0  0  0  0  0  0  0  0  0  0  0  0
    9.8049   -1.7529   20.7196 H   0  0  0  0  0  0  0  0  0  0  0  0
   10.5516   -0.3264   21.5042 H   0  0  0  0  0  0  0  0  0  0  0  0
   11.3619   -2.6674   24.0211 H   0  0  0  0  0  0  0  0  0  0  0  0
   11.1182   -3.4319   22.4267 H   0  0  0  0  0  0  0  0  0  0  0  0
    6.0207    0.7383   20.7358 H   0  0  0  0  0  0  0  0  0  0  0  0
    4.6602   -0.1886   20.0132 H   0  0  0  0  0  0  0  0  0  0  0  0
    9.8002   -1.1281   23.6108 H   0  0  0  0  0  0  0  0  0  0  0  0
  1  2  3  0  0  0  0
  2  8  1  0  0  0  0
  3  9  1  0  0  0  0
  3 10  1  0  0  0  0
  3 12  2  0  0  0  0
  4  6  1  0  0  0  0
  4 10  1  0  0  0  0
  5  7  1  0  0  0  0
  5 10  1  0  0  0  0
  6 11  1  0  0  0  0
  7 11  1  0  0  0  0
  8 11  1  0  0  0  0
  9 13  1  0  0  0  0
  1 14  1  0  0  0  0
  4 15  1  0  0  0  0
  4 16  1  0  0  0  0
  5 17  1  0  0  0  0
  5 18  1  0  0  0  0
  6 19  1  0  0  0  0
  6 20  1  0  0  0  0
  7 21  1  0  0  0  0
  7 22  1  0  0  0  0
  8 23  1  0  0  0  0
  8 24  1  0  0  0  0
  9 25  1  0  0  0  0
  9 26  1  0  0  0  0
 11 27  1  0  0  0  0
M  CHG  1  11   1
M  END
> <IC50 (uM)>

> <IC50 (uM) - std>

> <Average Inhibition @ 20 uM>

> <Average Inhibition @ 20 uM - std>

> <Average Inhibition @ 50 uM>

> <Average Inhibition @ 50 uM - std>
24.9

> <Trypsin IC50 (uM)>
3.22

> <Relative Solubility @ 20 uM>

> <Relative Solubility @ 100 uM>

> <Hybrid2>
-6.639501

> <docked_fragment>
x0831

> <Mpro-_dock>
-2.050301

> <site>
active-covalent

$$$$
VIJ-CYC-1a381570-12
  -OEChem-05192003313D

 33 33  0     1  0  0  0  0  0999 V2000
    8.2145    0.1153   20.7697 C   0  0  0  0  0  0  0  0  0  0  0  0
   11.3845   -1.2019   22.4825 C   0  0  0  0  0  0  0  0  0  0  0  0
   10.2521   -0.5321   24.5088 C   0  0  0  0  0  0  0  0  0  0  0  0
   10.2569   -1.9233   22.0907 C   0  0  0  0  0  0  0  0  0  0  0  0
    9.1244   -1.2534   24.1170 C   0  0  0  0  0  0  0  0  0  0  0  0
   11.3822   -0.5064   23.6916 C   0  0  0  0  0  0  0  0  0  0  0  0
    9.1268   -1.9491   22.9079 C   0  0  0  0  0  0  0  0  0  0  0  0
    6.9126   -0.0433   18.0421 C   0  0  0  0  0  0  0  0  0  0  0  0
    5.4367   -1.8461   18.9660 C   0  0  0  0  0  0  0  0  0  0  0  0
   12.5880    0.2644   24.1111 C   0  0  0  0  0  0  0  0  0  0  0  0
    7.3961   -1.0402   20.3658 C   0  0  2  0  0  0  0  0  0  0  0  0
    6.3244   -0.6485   19.3225 C   0  0  0  0  0  0  0  0  0  0  0  0
    8.8625    1.0239   21.0878 N   0  0  0  0  0  0  0  0  0  0  0  0
    6.8245   -1.6704   21.5308 N   0  0  0  0  0  0  0  0  0  0  0  0
    8.1251   -3.8986   21.4915 O   0  0  0  0  0  0  0  0  0  0  0  0
    6.9759   -3.2101   23.6199 O   0  0  0  0  0  0  0  0  0  0  0  0
   12.2830    1.5845   24.2591 F   0  0  0  0  0  0  0  0  0  0  0  0
    7.6967   -2.8614   22.4106 S   0  0  0  0  0  0  0  0  0  0  0  0
   12.2605   -1.1879   21.8395 H   0  0  0  0  0  0  0  0  0  0  0  0
   10.2414    0.0065   25.4527 H   0  0  0  0  0  0  0  0  0  0  0  0
   10.2694   -2.4622   21.1470 H   0  0  0  0  0  0  0  0  0  0  0  0
    8.2494   -1.2670   24.7616 H   0  0  0  0  0  0  0  0  0  0  0  0
    7.5744   -0.7631   17.5479 H   0  0  0  0  0  0  0  0  0  0  0  0
    7.5004    0.8563   18.2525 H   0  0  0  0  0  0  0  0  0  0  0  0
    6.1266    0.2217   17.3279 H   0  0  0  0  0  0  0  0  0  0  0  0
    6.0144   -2.6555   18.5073 H   0  0  0  0  0  0  0  0  0  0  0  0
    4.9421   -2.2436   19.8585 H   0  0  0  0  0  0  0  0  0  0  0  0
    4.6553   -1.5498   18.2579 H   0  0  0  0  0  0  0  0  0  0  0  0
   13.3948    0.1926   23.3722 H   0  0  0  0  0  0  0  0  0  0  0  0
   12.9872   -0.0916   25.0682 H   0  0  0  0  0  0  0  0  0  0  0  0
    8.0667   -1.7858   19.9206 H   0  0  0  0  0  0  0  0  0  0  0  0
    5.6726    0.1125   19.7740 H   0  0  0  0  0  0  0  0  0  0  0  0
    6.0979   -1.1407   22.0526 H   0  0  0  0  0  0  0  0  0  0  0  0
  1 11  1  0  0  0  0
  1 13  3  0  0  0  0
  2  4  2  0  0  0  0
  2  6  1  0  0  0  0
  3  5  1  0  0  0  0
  3  6  2  0  0  0  0
  4  7  1  0  0  0  0
  5  7  2  0  0  0  0
  6 10  1  0  0  0  0
  7 18  1  0  0  0  0
  8 12  1  0  0  0  0
  9 12  1  0  0  0  0
 10 17  1  0  0  0  0
 11 12  1  0  0  0  0
 11 14  1  0  0  0  0
 14 18  1  0  0  0  0
 15 18  2  0  0  0  0
 16 18  2  0  0  0  0
  2 19  1  0  0  0  0
  3 20  1  0  0  0  0
  4 21  1  0  0  0  0
  5 22  1  0  0  0  0
  8 23  1  0  0  0  0
  8 24  1  0  0  0  0
  8 25  1  0  0  0  0
  9 26  1  0  0  0  0
  9 27  1  0  0  0  0
  9 28  1  0  0  0  0
 10 29  1  0  0  0  0
 10 30  1  0  0  0  0
 11 31  1  0  0  0  0
 12 32  1  0  0  0  0
 14 33  1  0  0  0  0
M  END
> <IC50 (uM)>

> <IC50 (uM) - std>

> <Average Inhibition @ 20 uM>

> <Average Inhibition @ 20 uM - std>

> <Average Inhibition @ 50 uM>

> <Average Inhibition @ 50 uM - std>
22.6

> <Trypsin IC50 (uM)>
1.08

> <Relative Solubility @ 20 uM>

> <Relative Solubility @ 100 uM>

> <Hybrid2>
-6.573712

> <docked_fragment>
x1386

> <Mpro-_dock>
-0.869388

> <site>
active-covalent

$$$$
LON-WEI-b8d98729-35
  -OEChem-05192003313D

 61 63  0     1  0  0  0  0  0999 V2000
    2.8529   -4.3685   24.2396 C   0  0  0  0  0  0  0  0  0  0  0  0
    3.9041   -3.7047   23.6169 C   0  0  0  0  0  0  0  0  0  0  0  0
   11.1471   -3.7672   24.2305 C   0  0  0  0  0  0  0  0  0  0  0  0
    9.7928   -2.3958   25.6873 C   0  0  0  0  0  0  0  0  0  0  0  0
    9.9971   -4.2056   23.5741 C   0  0  0  0  0  0  0  0  0  0  0  0
    8.6428   -2.8341   25.0308 C   0  0  0  0  0  0  0  0  0  0  0  0
    7.5016    0.0439   20.0400 C   0  0  0  0  0  0  0  0  0  0  0  0
    5.9031   -1.5757   19.2284 C   0  0  0  0  0  0  0  0  0  0  0  0
    7.4624    0.6993   18.8094 C   0  0  0  0  0  0  0  0  0  0  0  0
    5.8639   -0.9203   17.9977 C   0  0  0  0  0  0  0  0  0  0  0  0
    3.1633   -5.3142   25.2036 C   0  0  0  0  0  0  0  0  0  0  0  0
    5.4196   -4.9645   24.9483 C   0  0  0  0  0  0  0  0  0  0  0  0
   11.0449   -2.8623   25.2872 C   0  0  0  0  0  0  0  0  0  0  0  0
    5.2149   -4.0026   23.9722 C   0  0  0  0  0  0  0  0  0  0  0  0
    6.7220   -1.0937   20.2495 C   0  0  0  0  0  0  0  0  0  0  0  0
    8.7449   -3.7391   23.9742 C   0  0  0  0  0  0  0  0  0  0  0  0
    6.6435    0.2173   17.7883 C   0  0  0  0  0  0  0  0  0  0  0  0
    8.2454   -7.8069   22.7494 C   0  0  0  0  0  0  0  0  0  0  0  0
    8.3068   -6.5786   23.2736 C   0  0  0  0  0  0  0  0  0  0  0  0
    7.4792   -5.4749   22.7043 C   0  0  0  0  0  0  0  0  0  0  0  0
    6.0552   -2.8974   21.8769 C   0  0  0  0  0  0  0  0  0  0  0  0
   12.4964   -0.2062   24.5829 C   0  0  0  0  0  0  0  0  0  0  0  0
   13.6232   -2.9861   25.4519 C   0  0  0  0  0  0  0  0  0  0  0  0
   12.2285   -2.8208   27.4941 C   0  0  0  0  0  0  0  0  0  0  0  0
   12.4288   -0.8231   25.9770 C   0  0  0  0  0  0  0  0  0  0  0  0
    6.3802   -3.2976   23.3138 C   0  0  2  0  0  0  0  0  0  0  0  0
   12.3144   -2.3785   26.0117 C   0  0  0  0  0  0  0  0  0  0  0  0
    4.4240   -5.6304   25.5753 N   0  0  0  0  0  0  0  0  0  0  0  0
    6.7615   -1.7584   21.4982 N   0  0  0  0  0  0  0  0  0  0  0  0
    7.5945   -4.1772   23.3176 N   0  0  0  0  0  0  0  0  0  0  0  0
    6.7231   -5.7232   21.7647 O   0  0  0  0  0  0  0  0  0  0  0  0
    5.2546   -3.5328   21.1961 O   0  0  0  0  0  0  0  0  0  0  0  0
    6.5905    1.1055   16.1210 Br  0  0  0  0  0  0  0  0  0  0  0  0
    1.8232   -4.1524   23.9788 H   0  0  0  0  0  0  0  0  0  0  0  0
    3.6926   -2.9575   22.8569 H   0  0  0  0  0  0  0  0  0  0  0  0
   12.1184   -4.1377   23.9136 H   0  0  0  0  0  0  0  0  0  0  0  0
    9.7039   -1.6912   26.5100 H   0  0  0  0  0  0  0  0  0  0  0  0
   10.0886   -4.9107   22.7517 H   0  0  0  0  0  0  0  0  0  0  0  0
    7.6718   -2.4649   25.3515 H   0  0  0  0  0  0  0  0  0  0  0  0
    8.1433    0.4278   20.8288 H   0  0  0  0  0  0  0  0  0  0  0  0
    5.2916   -2.4613   19.3809 H   0  0  0  0  0  0  0  0  0  0  0  0
    8.0757    1.5844   18.6620 H   0  0  0  0  0  0  0  0  0  0  0  0
    5.2208   -1.3084   17.2122 H   0  0  0  0  0  0  0  0  0  0  0  0
    2.3792   -5.8597   25.7183 H   0  0  0  0  0  0  0  0  0  0  0  0
    6.4205   -5.2388   25.2669 H   0  0  0  0  0  0  0  0  0  0  0  0
    8.8315   -8.6112   23.1817 H   0  0  0  0  0  0  0  0  0  0  0  0
    7.6290   -8.0437   21.8893 H   0  0  0  0  0  0  0  0  0  0  0  0
    8.9236   -6.3880   24.1442 H   0  0  0  0  0  0  0  0  0  0  0  0
   11.6254   -0.4751   23.9792 H   0  0  0  0  0  0  0  0  0  0  0  0
   13.3838   -0.5760   24.0583 H   0  0  0  0  0  0  0  0  0  0  0  0
   12.5685    0.8844   24.6244 H   0  0  0  0  0  0  0  0  0  0  0  0
   14.4963   -2.6117   25.9994 H   0  0  0  0  0  0  0  0  0  0  0  0
   13.7743   -2.7445   24.3946 H   0  0  0  0  0  0  0  0  0  0  0  0
   13.6297   -4.0787   25.5454 H   0  0  0  0  0  0  0  0  0  0  0  0
   13.1055   -2.5069   28.0711 H   0  0  0  0  0  0  0  0  0  0  0  0
   12.1628   -3.9120   27.5776 H   0  0  0  0  0  0  0  0  0  0  0  0
   11.3442   -2.3955   27.9839 H   0  0  0  0  0  0  0  0  0  0  0  0
   13.3284   -0.5148   26.5266 H   0  0  0  0  0  0  0  0  0  0  0  0
   11.5872   -0.3649   26.5111 H   0  0  0  0  0  0  0  0  0  0  0  0
    6.6396   -2.3921   23.8761 H   0  0  0  0  0  0  0  0  0  0  0  0
    7.3781   -1.3573   22.2016 H   0  0  0  0  0  0  0  0  0  0  0  0
  1  2  2  0  0  0  0
  1 11  1  0  0  0  0
  2 14  1  0  0  0  0
  3  5  2  0  0  0  0
  3 13  1  0  0  0  0
  4  6  1  0  0  0  0
  4 13  2  0  0  0  0
  5 16  1  0  0  0  0
  6 16  2  0  0  0  0
  7  9  2  0  0  0  0
  7 15  1  0  0  0  0
  8 10  1  0  0  0  0
  8 15  2  0  0  0  0
  9 17  1  0  0  0  0
 10 17  2  0  0  0  0
 11 28  2  0  0  0  0
 12 14  2  0  0  0  0
 12 28  1  0  0  0  0
 13 27  1  0  0  0  0
 14 26  1  0  0  0  0
 15 29  1  0  0  0  0
 16 30  1  0  0  0  0
 17 33  1  0  0  0  0
 18 19  2  0  0  0  0
 19 20  1  0  0  0  0
 20 30  1  0  0  0  0
 20 31  2  0  0  0  0
 21 26  1  0  0  0  0
 21 29  1  0  0  0  0
 21 32  2  0  0  0  0
 22 25  1  0  0  0  0
 23 27  1  0  0  0  0
 24 27  1  0  0  0  0
 25 27  1  0  0  0  0
 26 30  1  0  0  0  0
  1 34  1  0  0  0  0
  2 35  1  0  0  0  0
  3 36  1  0  0  0  0
  4 37  1  0  0  0  0
  5 38  1  0  0  0  0
  6 39  1  0  0  0  0
  7 40  1  0  0  0  0
  8 41  1  0  0  0  0
  9 42  1  0  0  0  0
 10 43  1  0  0  0  0
 11 44  1  0  0  0  0
 12 45  1  0  0  0  0
 18 46  1  0  0  0  0
 18 47  1  0  0  0  0
 19 48  1  0  0  0  0
 22 49  1  0  0  0  0
 22 50  1  0  0  0  0
 22 51  1  0  0  0  0
 23 52  1  0  0  0  0
 23 53  1  0  0  0  0
 23 54  1  0  0  0  0
 24 55  1  0  0  0  0
 24 56  1  0  0  0  0
 24 57  1  0  0  0  0
 25 58  1  0  0  0  0
 25 59  1  0  0  0  0
 26 60  1  0  0  0  0
 29 61  1  0  0  0  0
M  END
> <IC50 (uM)>

> <IC50 (uM) - std>

> <Average Inhibition @ 20 uM>

> <Average Inhibition @ 20 uM - std>
8.32

> <Average Inhibition @ 50 uM>
0.271

> <Average Inhibition @ 50 uM - std>
18.4

> <Trypsin IC50 (uM)>
0.232

> <Relative Solubility @ 20 uM>
0.91

> <Relative Solubility @ 100 uM>
0.66

> <Hybrid2>
-6.567985

> <docked_fragment>
x0749

> <Mpro-_dock>
4.689454

> <site>
active-covalent

$$$$
DAN-PUR-6788a628-2
  -OEChem-05192003313D

 32 32  0     1  0  0  0  0  0999 V2000
    6.1428   -2.2443   20.4269 C   0  0  0  0  0  0  0  0  0  0  0  0
    8.9062   -3.7020   24.1107 C   0  0  0  0  0  0  0  0  0  0  0  0
   11.3512   -2.3235   22.7495 C   0  0  0  0  0  0  0  0  0  0  0  0
   12.2073   -1.0645   22.6767 C   0  0  0  0  0  0  0  0  0  0  0  0
    9.7773   -0.7307   23.7231 C   0  0  0  0  0  0  0  0  0  0  0  0
    9.8961   -1.8499   22.6893 C   0  0  2  0  0  0  0  0  0  0  0  0
    7.1312   -1.9908   21.5508 C   0  0  0  0  0  0  0  0  0  0  0  0
    7.5265   -4.2204   24.4639 C   0  0  0  0  0  0  0  0  0  0  0  0
    8.0097   -3.1937   21.8654 C   0  0  0  0  0  0  0  0  0  0  0  0
    5.8493   -1.0974   19.7202 N   0  0  0  0  0  0  0  0  0  0  0  0
    8.9663   -2.9158   22.9403 N   0  0  0  0  0  0  0  0  0  0  0  0
    5.6655   -3.3448   20.1667 O   0  0  0  0  0  0  0  0  0  0  0  0
    9.8883   -3.9619   24.8103 O   0  0  0  0  0  0  0  0  0  0  0  0
   11.1367    1.3389   22.8119 O   0  0  0  0  0  0  0  0  0  0  0  0
   11.9008    0.2224   24.9584 O   0  0  0  0  0  0  0  0  0  0  0  0
   11.3239    0.1599   23.6316 S   0  0  0  0  0  0  0  0  0  0  0  0
    7.0073   -3.6039   26.0452 Cl  0  0  0  0  0  0  0  0  0  0  0  0
   11.5583   -2.9563   21.8810 H   0  0  0  0  0  0  0  0  0  0  0  0
   11.5673   -2.9076   23.6457 H   0  0  0  0  0  0  0  0  0  0  0  0
   13.1829   -1.2186   23.1463 H   0  0  0  0  0  0  0  0  0  0  0  0
   12.3394   -0.7083   21.6530 H   0  0  0  0  0  0  0  0  0  0  0  0
    8.9824   -0.0341   23.4440 H   0  0  0  0  0  0  0  0  0  0  0  0
    9.6119   -1.0882   24.7405 H   0  0  0  0  0  0  0  0  0  0  0  0
    9.6541   -1.4622   21.6844 H   0  0  0  0  0  0  0  0  0  0  0  0
    6.5748   -1.6802   22.4434 H   0  0  0  0  0  0  0  0  0  0  0  0
    7.7685   -1.1531   21.2429 H   0  0  0  0  0  0  0  0  0  0  0  0
    6.7961   -3.8823   23.7245 H   0  0  0  0  0  0  0  0  0  0  0  0
    7.5384   -5.3116   24.5242 H   0  0  0  0  0  0  0  0  0  0  0  0
    7.4118   -4.0587   22.1700 H   0  0  0  0  0  0  0  0  0  0  0  0
    8.5954   -3.4731   20.9841 H   0  0  0  0  0  0  0  0  0  0  0  0
    6.2931   -0.2271   19.9939 H   0  0  0  0  0  0  0  0  0  0  0  0
    5.2051   -1.0929   18.9359 H   0  0  0  0  0  0  0  0  0  0  0  0
  1  7  1  0  0  0  0
  1 10  1  0  0  0  0
  1 12  2  0  0  0  0
  2  8  1  0  0  0  0
  2 11  1  0  0  0  0
  2 13  2  0  0  0  0
  3  4  1  0  0  0  0
  3  6  1  0  0  0  0
  4 16  1  0  0  0  0
  5  6  1  0  0  0  0
  5 16  1  0  0  0  0
  6 11  1  0  0  0  0
  7  9  1  0  0  0  0
  8 17  1  0  0  0  0
  9 11  1  0  0  0  0
 14 16  2  0  0  0  0
 15 16  2  0  0  0  0
  3 18  1  0  0  0  0
  3 19  1  0  0  0  0
  4 20  1  0  0  0  0
  4 21  1  0  0  0  0
  5 22  1  0  0  0  0
  5 23  1  0  0  0  0
  6 24  1  0  0  0  0
  7 25  1  0  0  0  0
  7 26  1  0  0  0  0
  8 27  1  0  0  0  0
  8 28  1  0  0  0  0
  9 29  1  0  0  0  0
  9 30  1  0  0  0  0
 10 31  1  0  0  0  0
 10 32  1  0  0  0  0
M  END
> <IC50 (uM)>

> <IC50 (uM) - std>

> <Average Inhibition @ 20 uM>

> <Average Inhibition @ 20 uM - std>

> <Average Inhibition @ 50 uM>

> <Average Inhibition @ 50 uM - std>
31.4

> <Trypsin IC50 (uM)>
13.1

> <Relative Solubility @ 20 uM>

> <Relative Solubility @ 100 uM>

> <Hybrid2>
-6.467215

> <docked_fragment>
x0770

> <Mpro-_dock>
-1.077626

> <site>
active-covalent

$$$$
MAT-POS-916a2c5a-1
  -OEChem-05192003313D

 41 43  0     1  0  0  0  0  0999 V2000
    6.3895   -5.1117   27.6750 C   0  0  0  0  0  0  0  0  0  0  0  0
    9.7548   -2.4014   22.4285 C   0  0  0  0  0  0  0  0  0  0  0  0
   11.1003   -2.3050   22.0738 C   0  0  0  0  0  0  0  0  0  0  0  0
    6.7684   -3.9666   26.9164 C   0  0  0  0  0  0  0  0  0  0  0  0
    9.7272   -0.0459   22.9648 C   0  0  0  0  0  0  0  0  0  0  0  0
    5.8998   -6.1222   26.8770 C   0  0  0  0  0  0  0  0  0  0  0  0
    9.0682   -1.2719   22.8739 C   0  0  0  0  0  0  0  0  0  0  0  0
   11.7593   -1.0790   22.1646 C   0  0  0  0  0  0  0  0  0  0  0  0
   11.0728    0.0506   22.6101 C   0  0  0  0  0  0  0  0  0  0  0  0
    6.5542   -4.1458   25.5673 C   0  0  0  0  0  0  0  0  0  0  0  0
    6.8139   -3.2067   24.4541 C   0  0  0  0  0  0  0  0  0  0  0  0
    6.6422   -2.3240   21.1182 C   0  0  0  0  0  0  0  0  0  0  0  0
    7.3909   -1.8327   24.6929 C   0  0  0  0  0  0  0  0  0  0  0  0
    7.6042   -1.3761   23.2572 C   0  0  2  0  0  0  0  0  0  0  0  0
   13.3645   -0.6912   20.4532 C   0  0  0  0  0  0  0  0  0  0  0  0
   12.3409    1.5564   23.9443 C   0  0  0  0  0  0  0  0  0  0  0  0
    7.0731   -1.0455   20.4421 C   0  0  0  0  0  0  0  0  0  0  0  0
    6.5429   -3.4820   23.2142 N   0  0  0  0  0  0  0  0  0  0  0  0
    6.9319   -2.4084   22.4671 N   0  0  0  0  0  0  0  0  0  0  0  0
    6.0743   -3.2101   20.4782 O   0  0  0  0  0  0  0  0  0  0  0  0
   13.0737   -0.9981   21.8152 O   0  0  0  0  0  0  0  0  0  0  0  0
   11.7060    1.2531   22.7037 O   0  0  0  0  0  0  0  0  0  0  0  0
    5.8984   -5.6891   25.2203 S   0  0  0  0  0  0  0  0  0  0  0  0
    5.9549   -0.7801   19.1096 Cl  0  0  0  0  0  0  0  0  0  0  0  0
    6.4708   -5.1896   28.7513 H   0  0  0  0  0  0  0  0  0  0  0  0
    9.2490   -3.3603   22.3530 H   0  0  0  0  0  0  0  0  0  0  0  0
   11.6292   -3.1889   21.7280 H   0  0  0  0  0  0  0  0  0  0  0  0
    7.1775   -3.0599   27.3440 H   0  0  0  0  0  0  0  0  0  0  0  0
    9.1942    0.8363   23.3112 H   0  0  0  0  0  0  0  0  0  0  0  0
    5.5421   -7.0936   27.1881 H   0  0  0  0  0  0  0  0  0  0  0  0
    6.6366   -1.2247   25.2027 H   0  0  0  0  0  0  0  0  0  0  0  0
    8.2986   -1.8927   25.3006 H   0  0  0  0  0  0  0  0  0  0  0  0
    7.1311   -0.4002   23.0504 H   0  0  0  0  0  0  0  0  0  0  0  0
   14.4472   -0.6571   20.3097 H   0  0  0  0  0  0  0  0  0  0  0  0
   12.9211    0.2734   20.1934 H   0  0  0  0  0  0  0  0  0  0  0  0
   12.9390   -1.4692   19.8149 H   0  0  0  0  0  0  0  0  0  0  0  0
   12.8069    2.5430   23.8843 H   0  0  0  0  0  0  0  0  0  0  0  0
   13.0964    0.7976   24.1631 H   0  0  0  0  0  0  0  0  0  0  0  0
   11.5892    1.5587   24.7372 H   0  0  0  0  0  0  0  0  0  0  0  0
    8.0807   -1.1718   20.0638 H   0  0  0  0  0  0  0  0  0  0  0  0
    7.0041   -0.2321   21.1547 H   0  0  0  0  0  0  0  0  0  0  0  0
  1  4  1  0  0  0  0
  1  6  2  0  0  0  0
  2  3  2  0  0  0  0
  2  7  1  0  0  0  0
  3  8  1  0  0  0  0
  4 10  2  0  0  0  0
  5  7  2  0  0  0  0
  5  9  1  0  0  0  0
  6 23  1  0  0  0  0
  7 14  1  0  0  0  0
  8  9  2  0  0  0  0
  8 21  1  0  0  0  0
  9 22  1  0  0  0  0
 10 11  1  0  0  0  0
 10 23  1  0  0  0  0
 11 13  1  0  0  0  0
 11 18  2  0  0  0  0
 12 17  1  0  0  0  0
 12 19  1  0  0  0  0
 12 20  2  0  0  0  0
 13 14  1  0  0  0  0
 14 19  1  0  0  0  0
 15 21  1  0  0  0  0
 16 22  1  0  0  0  0
 17 24  1  0  0  0  0
 18 19  1  0  0  0  0
  1 25  1  0  0  0  0
  2 26  1  0  0  0  0
  3 27  1  0  0  0  0
  4 28  1  0  0  0  0
  5 29  1  0  0  0  0
  6 30  1  0  0  0  0
 13 31  1  0  0  0  0
 13 32  1  0  0  0  0
 14 33  1  0  0  0  0
 15 34  1  0  0  0  0
 15 35  1  0  0  0  0
 15 36  1  0  0  0  0
 16 37  1  0  0  0  0
 16 38  1  0  0  0  0
 16 39  1  0  0  0  0
 17 40  1  0  0  0  0
 17 41  1  0  0  0  0
M  END
> <IC50 (uM)>
1.75

> <IC50 (uM) - std>
0.14

> <Average Inhibition @ 20 uM>
> 49.5

> <Average Inhibition @ 20 uM - std>
99.4

> <Average Inhibition @ 50 uM>
0.0695

> <Average Inhibition @ 50 uM - std>
99.2

> <Trypsin IC50 (uM)>
0.0382

> <Relative Solubility @ 20 uM>
0.95

> <Relative Solubility @ 100 uM>
0.83

> <Hybrid2>
-6.344529

> <docked_fragment>
x1392

> <Mpro-_dock>
1.213684

> <site>
active-covalent

$$$$
VIJ-CYC-1a381570-13
  -OEChem-05192003313D

 44 45  0     0  0  0  0  0  0999 V2000
    8.6701    4.3427   24.9095 C   0  0  0  0  0  0  0  0  0  0  0  0
    8.4297    6.0468   23.2138 C   0  0  0  0  0  0  0  0  0  0  0  0
   10.0373    4.2703   24.6429 C   0  0  0  0  0  0  0  0  0  0  0  0
    9.7969    5.9744   22.9472 C   0  0  0  0  0  0  0  0  0  0  0  0
    7.8662    5.2309   24.1949 C   0  0  0  0  0  0  0  0  0  0  0  0
   10.6007    5.0862   23.6618 C   0  0  0  0  0  0  0  0  0  0  0  0
   12.8856    0.1335   23.1742 C   0  0  0  0  0  0  0  0  0  0  0  0
   11.5491    0.4732   23.1557 C   0  0  0  0  0  0  0  0  0  0  0  0
   12.3878    2.4000   22.5282 C   0  0  0  0  0  0  0  0  0  0  0  0
   13.5220   -1.0985   23.5039 C   0  0  0  0  0  0  0  0  0  0  0  0
   10.5186   -0.9484   24.9621 C   0  0  0  0  0  0  0  0  0  0  0  0
   10.3700   -1.6706   22.5553 C   0  0  0  0  0  0  0  0  0  0  0  0
    8.9883    0.2206   23.3894 C   0  0  0  0  0  0  0  0  0  0  0  0
   14.4822   -2.3871   25.2991 C   0  0  0  0  0  0  0  0  0  0  0  0
    6.4043    5.3081   24.4792 C   0  0  0  0  0  0  0  0  0  0  0  0
   10.3738   -0.4543   23.5064 C   0  0  0  0  0  0  0  0  0  0  0  0
   11.2617    1.7726   22.7859 N   0  0  0  0  0  0  0  0  0  0  0  0
   12.4105    3.7966   22.1106 N   0  0  0  0  0  0  0  0  0  0  0  0
   13.7867   -2.0216   22.6962 O   0  0  0  0  0  0  0  0  0  0  0  0
   12.9692    4.4692   24.5194 O   0  0  0  0  0  0  0  0  0  0  0  0
   12.7516    6.2810   22.7962 O   0  0  0  0  0  0  0  0  0  0  0  0
   13.8366   -1.1933   24.8433 O   0  0  0  0  0  0  0  0  0  0  0  0
    5.7182    5.6671   23.3575 F   0  0  0  0  0  0  0  0  0  0  0  0
   13.8299    1.4877   22.7097 S   0  0  0  0  0  0  0  0  0  0  0  0
   12.3359    4.9961   23.3249 S   0  0  0  0  0  0  0  0  0  0  0  0
    8.2399    3.7030   25.6754 H   0  0  0  0  0  0  0  0  0  0  0  0
    7.8110    6.7415   22.6517 H   0  0  0  0  0  0  0  0  0  0  0  0
   10.6545    3.5745   25.2051 H   0  0  0  0  0  0  0  0  0  0  0  0
   10.2254    6.6143   22.1804 H   0  0  0  0  0  0  0  0  0  0  0  0
    9.6915   -1.6130   25.2380 H   0  0  0  0  0  0  0  0  0  0  0  0
   11.4461   -1.5100   25.1191 H   0  0  0  0  0  0  0  0  0  0  0  0
   10.5200   -0.1076   25.6658 H   0  0  0  0  0  0  0  0  0  0  0  0
    9.5468   -2.3612   22.7687 H   0  0  0  0  0  0  0  0  0  0  0  0
   10.2608   -1.3555   21.5109 H   0  0  0  0  0  0  0  0  0  0  0  0
   11.3048   -2.2378   22.6366 H   0  0  0  0  0  0  0  0  0  0  0  0
    8.1848   -0.4792   23.6488 H   0  0  0  0  0  0  0  0  0  0  0  0
    8.8986    1.0784   24.0661 H   0  0  0  0  0  0  0  0  0  0  0  0
    8.7942    0.5692   22.3683 H   0  0  0  0  0  0  0  0  0  0  0  0
   14.6661   -2.3152   26.3738 H   0  0  0  0  0  0  0  0  0  0  0  0
   15.4267   -2.5182   24.7650 H   0  0  0  0  0  0  0  0  0  0  0  0
   13.8313   -3.2416   25.0994 H   0  0  0  0  0  0  0  0  0  0  0  0
    6.1788    6.0486   25.2555 H   0  0  0  0  0  0  0  0  0  0  0  0
    6.0031    4.3455   24.8176 H   0  0  0  0  0  0  0  0  0  0  0  0
   11.9022    3.9746   21.2438 H   0  0  0  0  0  0  0  0  0  0  0  0
  1  3  2  0  0  0  0
  1  5  1  0  0  0  0
  2  4  1  0  0  0  0
  2  5  2  0  0  0  0
  3  6  1  0  0  0  0
  4  6  2  0  0  0  0
  5 15  1  0  0  0  0
  6 25  1  0  0  0  0
  7  8  2  0  0  0  0
  7 10  1  0  0  0  0
  7 24  1  0  0  0  0
  8 16  1  0  0  0  0
  8 17  1  0  0  0  0
  9 17  2  0  0  0  0
  9 18  1  0  0  0  0
  9 24  1  0  0  0  0
 10 19  2  0  0  0  0
 10 22  1  0  0  0  0
 11 16  1  0  0  0  0
 12 16  1  0  0  0  0
 13 16  1  0  0  0  0
 14 22  1  0  0  0  0
 15 23  1  0  0  0  0
 18 25  1  0  0  0  0
 20 25  2  0  0  0  0
 21 25  2  0  0  0  0
  1 26  1  0  0  0  0
  2 27  1  0  0  0  0
  3 28  1  0  0  0  0
  4 29  1  0  0  0  0
 11 30  1  0  0  0  0
 11 31  1  0  0  0  0
 11 32  1  0  0  0  0
 12 33  1  0  0  0  0
 12 34  1  0  0  0  0
 12 35  1  0  0  0  0
 13 36  1  0  0  0  0
 13 37  1  0  0  0  0
 13 38  1  0  0  0  0
 14 39  1  0  0  0  0
 14 40  1  0  0  0  0
 14 41  1  0  0  0  0
 15 42  1  0  0  0  0
 15 43  1  0  0  0  0
 18 44  1  0  0  0  0
M  END
> <IC50 (uM)>

> <IC50 (uM) - std>

> <Average Inhibition @ 20 uM>

> <Average Inhibition @ 20 uM - std>

> <Average Inhibition @ 50 uM>

> <Average Inhibition @ 50 uM - std>
9.22

> <Trypsin IC50 (uM)>
3.77

> <Relative Solubility @ 20 uM>

> <Relative Solubility @ 100 uM>

> <Hybrid2>
-6.340725

> <docked_fragment>
x0161

> <Mpro-_dock>
2.031266

> <site>
active-noncovalent

$$$$
LON-WEI-b8d98729-22
  -OEChem-05192003313D

 56 58  0     1  0  0  0  0  0999 V2000
    3.0061   -5.0295   23.6994 C   0  0  0  0  0  0  0  0  0  0  0  0
    4.0346   -4.2705   23.1524 C   0  0  0  0  0  0  0  0  0  0  0  0
   10.5044   -4.4898   25.2863 C   0  0  0  0  0  0  0  0  0  0  0  0
   10.6022   -2.4938   23.9285 C   0  0  0  0  0  0  0  0  0  0  0  0
    9.3865   -4.9209   24.5722 C   0  0  0  0  0  0  0  0  0  0  0  0
    9.4843   -2.9249   23.2143 C   0  0  0  0  0  0  0  0  0  0  0  0
    7.5052   -0.0430   20.0105 C   0  0  0  0  0  0  0  0  0  0  0  0
    5.9469   -1.6049   19.0261 C   0  0  0  0  0  0  0  0  0  0  0  0
    7.4403    0.7457   18.8619 C   0  0  0  0  0  0  0  0  0  0  0  0
    5.8819   -0.8161   17.8775 C   0  0  0  0  0  0  0  0  0  0  0  0
    3.3484   -6.0687   24.5495 C   0  0  0  0  0  0  0  0  0  0  0  0
    5.5925   -5.6293   24.3283 C   0  0  0  0  0  0  0  0  0  0  0  0
   11.1123   -3.2762   24.9645 C   0  0  0  0  0  0  0  0  0  0  0  0
    5.3554   -4.5696   23.4677 C   0  0  0  0  0  0  0  0  0  0  0  0
    6.7586   -1.2184   20.0926 C   0  0  0  0  0  0  0  0  0  0  0  0
    8.8765   -4.1385   23.5362 C   0  0  0  0  0  0  0  0  0  0  0  0
    6.6286    0.3592   17.7955 C   0  0  0  0  0  0  0  0  0  0  0  0
    9.0385   -7.8723   21.9917 C   0  0  0  0  0  0  0  0  0  0  0  0
    9.0200   -6.5383   22.0764 C   0  0  0  0  0  0  0  0  0  0  0  0
    7.7219   -5.8018   22.0773 C   0  0  0  0  0  0  0  0  0  0  0  0
    6.1519   -3.2120   21.5080 C   0  0  0  0  0  0  0  0  0  0  0  0
   11.9499   -1.9251   26.9195 C   0  0  0  0  0  0  0  0  0  0  0  0
   14.4823   -2.0018   25.3660 C   0  0  0  0  0  0  0  0  0  0  0  0
    6.4967   -3.7625   22.8895 C   0  0  2  0  0  0  0  0  0  0  0  0
   12.3075   -2.8153   25.7282 C   0  0  2  0  0  0  0  0  0  0  0  0
    4.6196   -6.3893   24.8793 N   0  0  0  0  0  0  0  0  0  0  0  0
    6.8241   -2.0183   21.2581 N   0  0  0  0  0  0  0  0  0  0  0  0
    7.7125   -4.5873   22.7920 N   0  0  0  0  0  0  0  0  0  0  0  0
    6.7616   -6.2899   21.4809 O   0  0  0  0  0  0  0  0  0  0  0  0
    5.3647   -3.7888   20.7623 O   0  0  0  0  0  0  0  0  0  0  0  0
   13.1626   -2.0699   24.8539 O   0  0  0  0  0  0  0  0  0  0  0  0
    6.5486    1.3327   16.3782 Cl  0  0  0  0  0  0  0  0  0  0  0  0
    1.9692   -4.8143   23.4679 H   0  0  0  0  0  0  0  0  0  0  0  0
    3.7979   -3.4485   22.4822 H   0  0  0  0  0  0  0  0  0  0  0  0
   10.8938   -5.1047   26.0935 H   0  0  0  0  0  0  0  0  0  0  0  0
   11.0691   -1.5466   23.6715 H   0  0  0  0  0  0  0  0  0  0  0  0
    8.9211   -5.8685   24.8313 H   0  0  0  0  0  0  0  0  0  0  0  0
    9.0944   -2.3068   22.4095 H   0  0  0  0  0  0  0  0  0  0  0  0
    8.1412    0.2674   20.8355 H   0  0  0  0  0  0  0  0  0  0  0  0
    5.3608   -2.5188   19.0795 H   0  0  0  0  0  0  0  0  0  0  0  0
    8.0273    1.6591   18.8117 H   0  0  0  0  0  0  0  0  0  0  0  0
    5.2454   -1.1294   17.0540 H   0  0  0  0  0  0  0  0  0  0  0  0
    2.5827   -6.6906   25.0017 H   0  0  0  0  0  0  0  0  0  0  0  0
    6.6026   -5.9097   24.6108 H   0  0  0  0  0  0  0  0  0  0  0  0
    9.9837   -8.4044   22.0149 H   0  0  0  0  0  0  0  0  0  0  0  0
    8.1344   -8.4629   21.8925 H   0  0  0  0  0  0  0  0  0  0  0  0
    9.9459   -5.9868   22.1909 H   0  0  0  0  0  0  0  0  0  0  0  0
   11.3512   -1.0649   26.6032 H   0  0  0  0  0  0  0  0  0  0  0  0
   12.8490   -1.5539   27.4241 H   0  0  0  0  0  0  0  0  0  0  0  0
   11.3837   -2.4871   27.6703 H   0  0  0  0  0  0  0  0  0  0  0  0
   15.1110   -1.4287   24.6801 H   0  0  0  0  0  0  0  0  0  0  0  0
   14.8808   -3.0125   25.4843 H   0  0  0  0  0  0  0  0  0  0  0  0
   14.4609   -1.5045   26.3386 H   0  0  0  0  0  0  0  0  0  0  0  0
    6.7346   -2.9193   23.5497 H   0  0  0  0  0  0  0  0  0  0  0  0
   12.9075   -3.6611   26.1051 H   0  0  0  0  0  0  0  0  0  0  0  0
    7.4339   -1.6819   22.0005 H   0  0  0  0  0  0  0  0  0  0  0  0
  1  2  2  0  0  0  0
  1 11  1  0  0  0  0
  2 14  1  0  0  0  0
  3  5  2  0  0  0  0
  3 13  1  0  0  0  0
  4  6  1  0  0  0  0
  4 13  2  0  0  0  0
  5 16  1  0  0  0  0
  6 16  2  0  0  0  0
  7  9  2  0  0  0  0
  7 15  1  0  0  0  0
  8 10  1  0  0  0  0
  8 15  2  0  0  0  0
  9 17  1  0  0  0  0
 10 17  2  0  0  0  0
 11 26  2  0  0  0  0
 12 14  2  0  0  0  0
 12 26  1  0  0  0  0
 13 25  1  0  0  0  0
 14 24  1  0  0  0  0
 15 27  1  0  0  0  0
 16 28  1  0  0  0  0
 17 32  1  0  0  0  0
 18 19  2  0  0  0  0
 19 20  1  0  0  0  0
 20 28  1  0  0  0  0
 20 29  2  0  0  0  0
 21 24  1  0  0  0  0
 21 27  1  0  0  0  0
 21 30  2  0  0  0  0
 22 25  1  0  0  0  0
 23 31  1  0  0  0  0
 24 28  1  0  0  0  0
 25 31  1  0  0  0  0
  1 33  1  0  0  0  0
  2 34  1  0  0  0  0
  3 35  1  0  0  0  0
  4 36  1  0  0  0  0
  5 37  1  0  0  0  0
  6 38  1  0  0  0  0
  7 39  1  0  0  0  0
  8 40  1  0  0  0  0
  9 41  1  0  0  0  0
 10 42  1  0  0  0  0
 11 43  1  0  0  0  0
 12 44  1  0  0  0  0
 18 45  1  0  0  0  0
 18 46  1  0  0  0  0
 19 47  1  0  0  0  0
 22 48  1  0  0  0  0
 22 49  1  0  0  0  0
 22 50  1  0  0  0  0
 23 51  1  0  0  0  0
 23 52  1  0  0  0  0
 23 53  1  0  0  0  0
 24 54  1  0  0  0  0
 25 55  1  0  0  0  0
 27 56  1  0  0  0  0
M  END
> <IC50 (uM)>

> <IC50 (uM) - std>

> <Average Inhibition @ 20 uM>

> <Average Inhibition @ 20 uM - std>
12.3

> <Average Inhibition @ 50 uM>
2.71

> <Average Inhibition @ 50 uM - std>
26.1

> <Trypsin IC50 (uM)>
1.87

> <Relative Solubility @ 20 uM>
0.84

> <Relative Solubility @ 100 uM>
0.76

> <Hybrid2>
-6.333134

> <docked_fragment>
x0749

> <Mpro-_dock>
4.670924

> <site>
active-covalent

$$$$
AAR-POS-dddeddbf-2
  -OEChem-05192003313D

 35 36  0     0  0  0  0  0  0999 V2000
   11.0198    0.1338   23.7367 C   0  0  0  0  0  0  0  0  0  0  0  0
   12.6715    1.6471   22.8318 C   0  0  0  0  0  0  0  0  0  0  0  0
    7.6645    3.6191   23.3092 C   0  0  0  0  0  0  0  0  0  0  0  0
    7.9541    6.0569   21.9840 C   0  0  0  0  0  0  0  0  0  0  0  0
   12.1922    0.3496   23.0125 C   0  0  0  0  0  0  0  0  0  0  0  0
    6.7139    4.0198   22.3704 C   0  0  0  0  0  0  0  0  0  0  0  0
   10.3266    1.2153   24.2802 C   0  0  0  0  0  0  0  0  0  0  0  0
   11.9783    2.7287   23.3754 C   0  0  0  0  0  0  0  0  0  0  0  0
    8.7599    4.4374   23.5855 C   0  0  0  0  0  0  0  0  0  0  0  0
   10.8059    2.5128   24.0996 C   0  0  0  0  0  0  0  0  0  0  0  0
    6.8587    5.2386   21.7077 C   0  0  0  0  0  0  0  0  0  0  0  0
    8.9047    5.6562   22.9228 C   0  0  0  0  0  0  0  0  0  0  0  0
    5.5560    3.1141   22.1018 C   0  0  0  0  0  0  0  0  0  0  0  0
   12.9348   -0.8065   22.4332 C   0  0  0  0  0  0  0  0  0  0  0  0
    9.1341    0.9573   25.0126 N   0  0  0  0  0  0  0  0  0  0  0  0
   12.4965    4.0381   23.1706 N   0  0  0  0  0  0  0  0  0  0  0  0
    8.7492   -0.2283   25.1436 O   0  0  0  0  0  0  0  0  0  0  0  0
    8.5053    1.9233   25.5047 O   0  0  0  0  0  0  0  0  0  0  0  0
   13.5538    4.1740   22.5115 O   0  0  0  0  0  0  0  0  0  0  0  0
   11.8796    5.0155   23.6552 O   0  0  0  0  0  0  0  0  0  0  0  0
   10.8597    4.9803   24.9630 O   0  0  0  0  0  0  0  0  0  0  0  0
    9.1972    3.3465   25.9211 O   0  0  0  0  0  0  0  0  0  0  0  0
   12.3528   -2.0154   22.6900 F   0  0  0  0  0  0  0  0  0  0  0  0
   13.0572   -0.7522   21.0738 F   0  0  0  0  0  0  0  0  0  0  0  0
   14.2094   -0.9051   22.9117 F   0  0  0  0  0  0  0  0  0  0  0  0
    9.9315    3.8769   24.7858 S   0  0  0  0  0  0  0  0  0  0  0  0
    5.7024    5.7675   20.5403 Cl  0  0  0  0  0  0  0  0  0  0  0  0
   10.2430    6.7046   23.2274 Cl  0  0  0  0  0  0  0  0  0  0  0  0
   10.6515   -0.8807   23.8740 H   0  0  0  0  0  0  0  0  0  0  0  0
   13.5861    1.8094   22.2652 H   0  0  0  0  0  0  0  0  0  0  0  0
    7.5496    2.6677   23.8235 H   0  0  0  0  0  0  0  0  0  0  0  0
    8.0664    7.0076   21.4667 H   0  0  0  0  0  0  0  0  0  0  0  0
    4.7254    3.3507   22.7764 H   0  0  0  0  0  0  0  0  0  0  0  0
    5.2066    3.2149   21.0672 H   0  0  0  0  0  0  0  0  0  0  0  0
    5.8348    2.0630   22.2445 H   0  0  0  0  0  0  0  0  0  0  0  0
  1  5  1  0  0  0  0
  1  7  2  0  0  0  0
  2  5  2  0  0  0  0
  2  8  1  0  0  0  0
  3  6  1  0  0  0  0
  3  9  2  0  0  0  0
  4 11  1  0  0  0  0
  4 12  2  0  0  0  0
  5 14  1  0  0  0  0
  6 11  2  0  0  0  0
  6 13  1  0  0  0  0
  7 10  1  0  0  0  0
  7 15  1  0  0  0  0
  8 10  2  0  0  0  0
  8 16  1  0  0  0  0
  9 12  1  0  0  0  0
  9 26  1  0  0  0  0
 10 26  1  0  0  0  0
 11 27  1  0  0  0  0
 12 28  1  0  0  0  0
 14 23  1  0  0  0  0
 14 24  1  0  0  0  0
 14 25  1  0  0  0  0
 15 17  2  0  0  0  0
 15 18  2  0  0  0  0
 16 19  2  0  0  0  0
 16 20  2  0  0  0  0
 21 26  2  0  0  0  0
 22 26  2  0  0  0  0
  1 29  1  0  0  0  0
  2 30  1  0  0  0  0
  3 31  1  0  0  0  0
  4 32  1  0  0  0  0
 13 33  1  0  0  0  0
 13 34  1  0  0  0  0
 13 35  1  0  0  0  0
M  END
> <IC50 (uM)>

> <IC50 (uM) - std>

> <Average Inhibition @ 20 uM>

> <Average Inhibition @ 20 uM - std>

> <Average Inhibition @ 50 uM>

> <Average Inhibition @ 50 uM - std>
10.7

> <Trypsin IC50 (uM)>
10.7

> <Relative Solubility @ 20 uM>

> <Relative Solubility @ 100 uM>

> <Hybrid2>
-6.275576

> <docked_fragment>
x0104

> <Mpro-_dock>
2.393945

> <site>
active-noncovalent

$$$$
LON-WEI-b8d98729-10
  -OEChem-05192003313D

 58 59  0     1  0  0  0  0  0999 V2000
    4.2001   -5.3376   24.1821 C   0  0  0  0  0  0  0  0  0  0  0  0
    5.1870   -4.7585   23.3922 C   0  0  0  0  0  0  0  0  0  0  0  0
   11.4451   -2.1498   23.1033 C   0  0  0  0  0  0  0  0  0  0  0  0
   10.2885   -1.6734   25.1702 C   0  0  0  0  0  0  0  0  0  0  0  0
   10.3101   -2.7990   22.6177 C   0  0  0  0  0  0  0  0  0  0  0  0
    9.1534   -2.3225   24.6846 C   0  0  0  0  0  0  0  0  0  0  0  0
    3.7229   -4.6104   25.2606 C   0  0  0  0  0  0  0  0  0  0  0  0
    5.1169   -2.8432   24.8004 C   0  0  0  0  0  0  0  0  0  0  0  0
   11.4344   -1.5871   24.3796 C   0  0  0  0  0  0  0  0  0  0  0  0
    5.6597   -3.4877   23.7005 C   0  0  0  0  0  0  0  0  0  0  0  0
    9.1642   -2.8853   23.4083 C   0  0  0  0  0  0  0  0  0  0  0  0
    9.7127   -6.7499   22.6535 C   0  0  0  0  0  0  0  0  0  0  0  0
    9.1186   -5.7102   23.2478 C   0  0  0  0  0  0  0  0  0  0  0  0
    8.0545   -4.9433   22.5359 C   0  0  0  0  0  0  0  0  0  0  0  0
    6.3029   -2.6915   21.4052 C   0  0  0  0  0  0  0  0  0  0  0  0
   13.1700   -1.4960   26.2039 C   0  0  0  0  0  0  0  0  0  0  0  0
    7.4177    0.0499   19.0811 C   0  0  0  0  0  0  0  0  0  0  0  0
    7.0139   -2.3543   18.4938 C   0  0  0  0  0  0  0  0  0  0  0  0
    5.1139   -0.9147   19.2721 C   0  0  0  0  0  0  0  0  0  0  0  0
   12.3615    1.2295   23.9315 C   0  0  0  0  0  0  0  0  0  0  0  0
    6.7309   -2.8309   22.8613 C   0  0  2  0  0  0  0  0  0  0  0  0
   12.6481   -0.8931   24.8987 C   0  0  2  0  0  0  0  0  0  0  0  0
    6.6108   -1.2071   19.4261 C   0  0  0  0  0  0  0  0  0  0  0  0
    4.1574   -3.3737   25.5913 N   0  0  0  0  0  0  0  0  0  0  0  0
    6.8858   -1.5920   20.7985 N   0  0  0  0  0  0  0  0  0  0  0  0
    7.9705   -3.5675   22.8980 N   0  0  0  0  0  0  0  0  0  0  0  0
    7.3471   -5.5297   21.7162 O   0  0  0  0  0  0  0  0  0  0  0  0
    5.5025   -3.4557   20.8697 O   0  0  0  0  0  0  0  0  0  0  0  0
   12.3340    0.4839   25.1364 O   0  0  0  0  0  0  0  0  0  0  0  0
    3.8165   -6.3270   23.9605 H   0  0  0  0  0  0  0  0  0  0  0  0
    5.5813   -5.3040   22.5391 H   0  0  0  0  0  0  0  0  0  0  0  0
   12.3343   -2.0892   22.4812 H   0  0  0  0  0  0  0  0  0  0  0  0
   10.2716   -1.2384   26.1661 H   0  0  0  0  0  0  0  0  0  0  0  0
   10.3295   -3.2336   21.6214 H   0  0  0  0  0  0  0  0  0  0  0  0
    8.2661   -2.3850   25.3096 H   0  0  0  0  0  0  0  0  0  0  0  0
    2.9532   -5.0182   25.9076 H   0  0  0  0  0  0  0  0  0  0  0  0
    5.4462   -1.8500   25.0897 H   0  0  0  0  0  0  0  0  0  0  0  0
   10.4692   -7.3185   23.1841 H   0  0  0  0  0  0  0  0  0  0  0  0
    9.4748   -7.0570   21.6411 H   0  0  0  0  0  0  0  0  0  0  0  0
    9.3742   -5.4465   24.2675 H   0  0  0  0  0  0  0  0  0  0  0  0
   12.3891   -1.5119   26.9709 H   0  0  0  0  0  0  0  0  0  0  0  0
   14.0240   -0.9293   26.5916 H   0  0  0  0  0  0  0  0  0  0  0  0
   13.5248   -2.5204   26.0459 H   0  0  0  0  0  0  0  0  0  0  0  0
    7.1470    0.8866   19.7357 H   0  0  0  0  0  0  0  0  0  0  0  0
    8.4940   -0.1254   19.1872 H   0  0  0  0  0  0  0  0  0  0  0  0
    7.2278    0.3706   18.0502 H   0  0  0  0  0  0  0  0  0  0  0  0
    6.4492   -3.2659   18.7216 H   0  0  0  0  0  0  0  0  0  0  0  0
    8.0774   -2.5969   18.6023 H   0  0  0  0  0  0  0  0  0  0  0  0
    6.8317   -2.0983   17.4442 H   0  0  0  0  0  0  0  0  0  0  0  0
    4.5118   -1.7985   19.5131 H   0  0  0  0  0  0  0  0  0  0  0  0
    4.7966   -0.0998   19.9321 H   0  0  0  0  0  0  0  0  0  0  0  0
    4.8703   -0.6279   18.2424 H   0  0  0  0  0  0  0  0  0  0  0  0
   12.1187    2.2738   24.1426 H   0  0  0  0  0  0  0  0  0  0  0  0
   11.6383    0.8115   23.2267 H   0  0  0  0  0  0  0  0  0  0  0  0
   13.3635    1.1708   23.4999 H   0  0  0  0  0  0  0  0  0  0  0  0
    6.9728   -1.8370   23.2568 H   0  0  0  0  0  0  0  0  0  0  0  0
   13.4736   -0.9029   24.1667 H   0  0  0  0  0  0  0  0  0  0  0  0
    7.5358   -1.0145   21.3178 H   0  0  0  0  0  0  0  0  0  0  0  0
  1  2  2  0  0  0  0
  1  7  1  0  0  0  0
  2 10  1  0  0  0  0
  3  5  2  0  0  0  0
  3  9  1  0  0  0  0
  4  6  1  0  0  0  0
  4  9  2  0  0  0  0
  5 11  1  0  0  0  0
  6 11  2  0  0  0  0
  7 24  2  0  0  0  0
  8 10  2  0  0  0  0
  8 24  1  0  0  0  0
  9 22  1  0  0  0  0
 10 21  1  0  0  0  0
 11 26  1  0  0  0  0
 12 13  2  0  0  0  0
 13 14  1  0  0  0  0
 14 26  1  0  0  0  0
 14 27  2  0  0  0  0
 15 21  1  0  0  0  0
 15 25  1  0  0  0  0
 15 28  2  0  0  0  0
 16 22  1  0  0  0  0
 17 23  1  0  0  0  0
 18 23  1  0  0  0  0
 19 23  1  0  0  0  0
 20 29  1  0  0  0  0
 21 26  1  0  0  0  0
 22 29  1  0  0  0  0
 23 25  1  0  0  0  0
  1 30  1  0  0  0  0
  2 31  1  0  0  0  0
  3 32  1  0  0  0  0
  4 33  1  0  0  0  0
  5 34  1  0  0  0  0
  6 35  1  0  0  0  0
  7 36  1  0  0  0  0
  8 37  1  0  0  0  0
 12 38  1  0  0  0  0
 12 39  1  0  0  0  0
 13 40  1  0  0  0  0
 16 41  1  0  0  0  0
 16 42  1  0  0  0  0
 16 43  1  0  0  0  0
 17 44  1  0  0  0  0
 17 45  1  0  0  0  0
 17 46  1  0  0  0  0
 18 47  1  0  0  0  0
 18 48  1  0  0  0  0
 18 49  1  0  0  0  0
 19 50  1  0  0  0  0
 19 51  1  0  0  0  0
 19 52  1  0  0  0  0
 20 53  1  0  0  0  0
 20 54  1  0  0  0  0
 20 55  1  0  0  0  0
 21 56  1  0  0  0  0
 22 57  1  0  0  0  0
 25 58  1  0  0  0  0
M  END
> <IC50 (uM)>

> <IC50 (uM) - std>

> <Average Inhibition @ 20 uM>

> <Average Inhibition @ 20 uM - std>
7.07

> <Average Inhibition @ 50 uM>
1.98

> <Average Inhibition @ 50 uM - std>
15.9

> <Trypsin IC50 (uM)>
0.706

> <Relative Solubility @ 20 uM>
0.98

> <Relative Solubility @ 100 uM>
0.86

> <Hybrid2>
-6.235109

> <docked_fragment>
x0749

> <Mpro-_dock>
1.79502

> <site>
active-covalent

$$$$
MAK-UNK-129dcd6f-12
  -OEChem-05192003313D

 43 45  0     0  0  0  0  0  0999 V2000
    4.1950   -4.9903   28.5932 C   0  0  0  0  0  0  0  0  0  0  0  0
   11.0089   -1.4935   23.2836 C   0  0  0  0  0  0  0  0  0  0  0  0
    9.9475   -0.1409   24.9810 C   0  0  0  0  0  0  0  0  0  0  0  0
    5.2137   -4.4954   27.7867 C   0  0  0  0  0  0  0  0  0  0  0  0
   10.1870   -2.5674   23.6254 C   0  0  0  0  0  0  0  0  0  0  0  0
    9.1256   -1.2148   25.3228 C   0  0  0  0  0  0  0  0  0  0  0  0
   11.7158    5.7836   23.6472 C   0  0  0  0  0  0  0  0  0  0  0  0
    3.7938   -6.3023   28.3996 C   0  0  0  0  0  0  0  0  0  0  0  0
   12.9660    5.7720   23.0501 C   0  0  0  0  0  0  0  0  0  0  0  0
    5.3196   -6.6136   26.7104 C   0  0  0  0  0  0  0  0  0  0  0  0
   13.0243    3.4757   23.0098 C   0  0  0  0  0  0  0  0  0  0  0  0
   10.8892   -0.2803   23.9614 C   0  0  0  0  0  0  0  0  0  0  0  0
   11.1167    4.5604   23.9268 C   0  0  0  0  0  0  0  0  0  0  0  0
    9.2453   -2.4281   24.6449 C   0  0  0  0  0  0  0  0  0  0  0  0
    5.7921   -5.3161   26.8248 C   0  0  0  0  0  0  0  0  0  0  0  0
   11.7768    3.3796   23.6052 C   0  0  0  0  0  0  0  0  0  0  0  0
   11.7462    0.8394   23.6052 C   0  0  0  0  0  0  0  0  0  0  0  0
    7.4164   -3.5649   25.9796 C   0  0  0  0  0  0  0  0  0  0  0  0
    9.7693    4.5434   24.5708 C   0  0  0  0  0  0  0  0  0  0  0  0
    4.3318   -7.1297   27.4757 N   0  0  0  0  0  0  0  0  0  0  0  0
   13.6381    4.6455   22.7230 N   0  0  0  0  0  0  0  0  0  0  0  0
   11.2079    2.1083   23.8697 N   0  0  0  0  0  0  0  0  0  0  0  0
    8.4237   -3.5028   24.9859 N   0  0  0  0  0  0  0  0  0  0  0  0
    6.8303   -4.8408   25.9892 N   0  0  0  0  0  0  0  0  0  0  0  0
   12.8531    0.6695   23.0754 O   0  0  0  0  0  0  0  0  0  0  0  0
    7.1069   -2.6365   26.7194 O   0  0  0  0  0  0  0  0  0  0  0  0
    3.7297   -4.3685   29.3496 H   0  0  0  0  0  0  0  0  0  0  0  0
   11.7396   -1.6130   22.4880 H   0  0  0  0  0  0  0  0  0  0  0  0
    9.8458    0.8000   25.5157 H   0  0  0  0  0  0  0  0  0  0  0  0
    5.5490   -3.4697   27.9161 H   0  0  0  0  0  0  0  0  0  0  0  0
   10.2881   -3.5086   23.0906 H   0  0  0  0  0  0  0  0  0  0  0  0
    8.3952   -1.0948   26.1191 H   0  0  0  0  0  0  0  0  0  0  0  0
   11.2276    6.7224   23.8856 H   0  0  0  0  0  0  0  0  0  0  0  0
    3.0025   -6.7354   29.0025 H   0  0  0  0  0  0  0  0  0  0  0  0
   13.4762    6.6995   22.8116 H   0  0  0  0  0  0  0  0  0  0  0  0
    5.7314   -7.3018   25.9782 H   0  0  0  0  0  0  0  0  0  0  0  0
   13.5889    2.5897   22.7349 H   0  0  0  0  0  0  0  0  0  0  0  0
    8.9832    4.5443   23.8069 H   0  0  0  0  0  0  0  0  0  0  0  0
    9.6427    3.6551   25.2018 H   0  0  0  0  0  0  0  0  0  0  0  0
    9.6286    5.4177   25.2184 H   0  0  0  0  0  0  0  0  0  0  0  0
   10.2903    2.1169   24.3082 H   0  0  0  0  0  0  0  0  0  0  0  0
    8.5682   -4.3620   24.4450 H   0  0  0  0  0  0  0  0  0  0  0  0
    7.1924   -5.5109   25.3154 H   0  0  0  0  0  0  0  0  0  0  0  0
  1  4  2  0  0  0  0
  1  8  1  0  0  0  0
  2  5  2  0  0  0  0
  2 12  1  0  0  0  0
  3  6  1  0  0  0  0
  3 12  2  0  0  0  0
  4 15  1  0  0  0  0
  5 14  1  0  0  0  0
  6 14  2  0  0  0  0
  7  9  2  0  0  0  0
  7 13  1  0  0  0  0
  8 20  2  0  0  0  0
  9 21  1  0  0  0  0
 10 15  2  0  0  0  0
 10 20  1  0  0  0  0
 11 16  1  0  0  0  0
 11 21  2  0  0  0  0
 12 17  1  0  0  0  0
 13 16  2  0  0  0  0
 13 19  1  0  0  0  0
 14 23  1  0  0  0  0
 15 24  1  0  0  0  0
 16 22  1  0  0  0  0
 17 22  1  0  0  0  0
 17 25  2  0  0  0  0
 18 23  1  0  0  0  0
 18 24  1  0  0  0  0
 18 26  2  0  0  0  0
  1 27  1  0  0  0  0
  2 28  1  0  0  0  0
  3 29  1  0  0  0  0
  4 30  1  0  0  0  0
  5 31  1  0  0  0  0
  6 32  1  0  0  0  0
  7 33  1  0  0  0  0
  8 34  1  0  0  0  0
  9 35  1  0  0  0  0
 10 36  1  0  0  0  0
 11 37  1  0  0  0  0
 19 38  1  0  0  0  0
 19 39  1  0  0  0  0
 19 40  1  0  0  0  0
 22 41  1  0  0  0  0
 23 42  1  0  0  0  0
 24 43  1  0  0  0  0
M  END
> <IC50 (uM)>

> <IC50 (uM) - std>

> <Average Inhibition @ 20 uM>

> <Average Inhibition @ 20 uM - std>

> <Average Inhibition @ 50 uM>

> <Average Inhibition @ 50 uM - std>
-0.926

> <Trypsin IC50 (uM)>
2.18

> <Relative Solubility @ 20 uM>

> <Relative Solubility @ 100 uM>

> <Hybrid2>
-6.229748

> <docked_fragment>
x0104

> <Mpro-_dock>
8.429572

> <site>
active-noncovalent

$$$$
LON-WEI-b8d98729-33
  -OEChem-05192003313D

 61 63  0     1  0  0  0  0  0999 V2000
    5.4079   -5.5963   26.1652 C   0  0  0  0  0  0  0  0  0  0  0  0
    6.3671   -4.9595   25.3857 C   0  0  0  0  0  0  0  0  0  0  0  0
   11.4755   -2.3977   23.4439 C   0  0  0  0  0  0  0  0  0  0  0  0
   10.9682   -3.1423   25.6856 C   0  0  0  0  0  0  0  0  0  0  0  0
   10.2893   -2.9705   22.9851 C   0  0  0  0  0  0  0  0  0  0  0  0
    9.7819   -3.7151   25.2268 C   0  0  0  0  0  0  0  0  0  0  0  0
    7.4435   -0.3449   19.8082 C   0  0  0  0  0  0  0  0  0  0  0  0
    5.8827   -2.1345   19.3630 C   0  0  0  0  0  0  0  0  0  0  0  0
    7.2038    0.1801   18.5384 C   0  0  0  0  0  0  0  0  0  0  0  0
    5.6429   -1.6094   18.0932 C   0  0  0  0  0  0  0  0  0  0  0  0
    4.0741   -5.3540   25.8786 C   0  0  0  0  0  0  0  0  0  0  0  0
    4.6100   -3.9361   24.1522 C   0  0  0  0  0  0  0  0  0  0  0  0
   11.8150   -2.4837   24.7941 C   0  0  0  0  0  0  0  0  0  0  0  0
    5.9689   -4.1118   24.3580 C   0  0  0  0  0  0  0  0  0  0  0  0
    6.7830   -1.5023   20.2205 C   0  0  0  0  0  0  0  0  0  0  0  0
    9.4425   -3.6292   23.8766 C   0  0  0  0  0  0  0  0  0  0  0  0
    6.3034   -0.4521   17.6809 C   0  0  0  0  0  0  0  0  0  0  0  0
    9.4034   -7.6259   22.4796 C   0  0  0  0  0  0  0  0  0  0  0  0
    9.4221   -6.3596   22.9074 C   0  0  0  0  0  0  0  0  0  0  0  0
    8.1630   -5.5593   22.9463 C   0  0  0  0  0  0  0  0  0  0  0  0
    6.4591   -3.1719   22.0789 C   0  0  0  0  0  0  0  0  0  0  0  0
   11.9559    0.3518   26.0583 C   0  0  0  0  0  0  0  0  0  0  0  0
   13.9529   -1.1584   24.1918 C   0  0  0  0  0  0  0  0  0  0  0  0
   14.0203   -2.9779   25.8735 C   0  0  0  0  0  0  0  0  0  0  0  0
   12.8528   -0.8221   26.4407 C   0  0  0  0  0  0  0  0  0  0  0  0
    6.9880   -3.4049   23.4919 C   0  0  2  0  0  0  0  0  0  0  0  0
   13.1244   -1.8514   25.3003 C   0  0  0  0  0  0  0  0  0  0  0  0
    3.6489   -4.5374   24.8887 N   0  0  0  0  0  0  0  0  0  0  0  0
    7.0260   -2.0347   21.5089 N   0  0  0  0  0  0  0  0  0  0  0  0
    8.2559   -4.2020   23.4181 N   0  0  0  0  0  0  0  0  0  0  0  0
    7.1082   -6.0943   22.6038 O   0  0  0  0  0  0  0  0  0  0  0  0
    5.6302   -3.9211   21.5691 O   0  0  0  0  0  0  0  0  0  0  0  0
    6.0076    0.1960   16.1140 Cl  0  0  0  0  0  0  0  0  0  0  0  0
    5.6951   -6.2616   26.9714 H   0  0  0  0  0  0  0  0  0  0  0  0
    7.4215   -5.1297   25.5859 H   0  0  0  0  0  0  0  0  0  0  0  0
   12.1304   -1.8883   22.7418 H   0  0  0  0  0  0  0  0  0  0  0  0
   11.2252   -3.2147   26.7391 H   0  0  0  0  0  0  0  0  0  0  0  0
   10.0345   -2.8971   21.9308 H   0  0  0  0  0  0  0  0  0  0  0  0
    9.1298   -4.2271   25.9301 H   0  0  0  0  0  0  0  0  0  0  0  0
    8.1473    0.1556   20.4682 H   0  0  0  0  0  0  0  0  0  0  0  0
    5.3625   -3.0368   19.6741 H   0  0  0  0  0  0  0  0  0  0  0  0
    7.7253    1.0826   18.2303 H   0  0  0  0  0  0  0  0  0  0  0  0
    4.9389   -2.1124   17.4353 H   0  0  0  0  0  0  0  0  0  0  0  0
    3.2875   -5.8264   26.4579 H   0  0  0  0  0  0  0  0  0  0  0  0
    4.2395   -3.2867   23.3651 H   0  0  0  0  0  0  0  0  0  0  0  0
   10.3172   -8.2107   22.4751 H   0  0  0  0  0  0  0  0  0  0  0  0
    8.4998   -8.1075   22.1223 H   0  0  0  0  0  0  0  0  0  0  0  0
   10.3440   -5.9212   23.2717 H   0  0  0  0  0  0  0  0  0  0  0  0
   10.9814    0.0143   25.6951 H   0  0  0  0  0  0  0  0  0  0  0  0
   12.4238    0.9263   25.2517 H   0  0  0  0  0  0  0  0  0  0  0  0
   11.7977    1.0328   26.8994 H   0  0  0  0  0  0  0  0  0  0  0  0
   14.8731   -0.7251   24.6014 H   0  0  0  0  0  0  0  0  0  0  0  0
   13.4003   -0.3478   23.7054 H   0  0  0  0  0  0  0  0  0  0  0  0
   14.2519   -1.8689   23.4118 H   0  0  0  0  0  0  0  0  0  0  0  0
   14.9741   -2.5951   26.2535 H   0  0  0  0  0  0  0  0  0  0  0  0
   14.2568   -3.7238   25.1055 H   0  0  0  0  0  0  0  0  0  0  0  0
   13.5225   -3.4980   26.7007 H   0  0  0  0  0  0  0  0  0  0  0  0
   13.8095   -0.4147   26.7948 H   0  0  0  0  0  0  0  0  0  0  0  0
   12.4071   -1.3216   27.3098 H   0  0  0  0  0  0  0  0  0  0  0  0
    7.2464   -2.4332   23.9305 H   0  0  0  0  0  0  0  0  0  0  0  0
    7.6930   -1.5273   22.0865 H   0  0  0  0  0  0  0  0  0  0  0  0
  1  2  2  0  0  0  0
  1 11  1  0  0  0  0
  2 14  1  0  0  0  0
  3  5  2  0  0  0  0
  3 13  1  0  0  0  0
  4  6  1  0  0  0  0
  4 13  2  0  0  0  0
  5 16  1  0  0  0  0
  6 16  2  0  0  0  0
  7  9  2  0  0  0  0
  7 15  1  0  0  0  0
  8 10  1  0  0  0  0
  8 15  2  0  0  0  0
  9 17  1  0  0  0  0
 10 17  2  0  0  0  0
 11 28  2  0  0  0  0
 12 14  2  0  0  0  0
 12 28  1  0  0  0  0
 13 27  1  0  0  0  0
 14 26  1  0  0  0  0
 15 29  1  0  0  0  0
 16 30  1  0  0  0  0
 17 33  1  0  0  0  0
 18 19  2  0  0  0  0
 19 20  1  0  0  0  0
 20 30  1  0  0  0  0
 20 31  2  0  0  0  0
 21 26  1  0  0  0  0
 21 29  1  0  0  0  0
 21 32  2  0  0  0  0
 22 25  1  0  0  0  0
 23 27  1  0  0  0  0
 24 27  1  0  0  0  0
 25 27  1  0  0  0  0
 26 30  1  0  0  0  0
  1 34  1  0  0  0  0
  2 35  1  0  0  0  0
  3 36  1  0  0  0  0
  4 37  1  0  0  0  0
  5 38  1  0  0  0  0
  6 39  1  0  0  0  0
  7 40  1  0  0  0  0
  8 41  1  0  0  0  0
  9 42  1  0  0  0  0
 10 43  1  0  0  0  0
 11 44  1  0  0  0  0
 12 45  1  0  0  0  0
 18 46  1  0  0  0  0
 18 47  1  0  0  0  0
 19 48  1  0  0  0  0
 22 49  1  0  0  0  0
 22 50  1  0  0  0  0
 22 51  1  0  0  0  0
 23 52  1  0  0  0  0
 23 53  1  0  0  0  0
 23 54  1  0  0  0  0
 24 55  1  0  0  0  0
 24 56  1  0  0  0  0
 24 57  1  0  0  0  0
 25 58  1  0  0  0  0
 25 59  1  0  0  0  0
 26 60  1  0  0  0  0
 29 61  1  0  0  0  0
M  END
> <IC50 (uM)>

> <IC50 (uM) - std>

> <Average Inhibition @ 20 uM>

> <Average Inhibition @ 20 uM - std>
16.5

> <Average Inhibition @ 50 uM>
5.09

> <Average Inhibition @ 50 uM - std>
22.7

> <Trypsin IC50 (uM)>
2.32

> <Relative Solubility @ 20 uM>
0.82

> <Relative Solubility @ 100 uM>
0.68

> <Hybrid2>
-6.207908

> <docked_fragment>
x0749

> <Mpro-_dock>
4.781483

> <site>
active-covalent

$$$$
LON-WEI-8f408cad-9
  -OEChem-05192003313D

 59 60  0     1  0  0  0  0  0999 V2000
    5.3155   -6.3960   24.3633 C   0  0  0  0  0  0  0  0  0  0  0  0
    6.1784   -5.4691   23.7893 C   0  0  0  0  0  0  0  0  0  0  0  0
    9.7498   -2.3139   22.0827 C   0  0  0  0  0  0  0  0  0  0  0  0
   10.8565   -1.7161   22.6856 C   0  0  0  0  0  0  0  0  0  0  0  0
    9.4399   -3.7066   24.0324 C   0  0  0  0  0  0  0  0  0  0  0  0
    3.9551   -6.2271   24.1620 C   0  0  0  0  0  0  0  0  0  0  0  0
    4.2860   -4.3362   22.8997 C   0  0  0  0  0  0  0  0  0  0  0  0
    5.6619   -4.4164   23.0420 C   0  0  0  0  0  0  0  0  0  0  0  0
   10.5466   -3.1088   24.6353 C   0  0  0  0  0  0  0  0  0  0  0  0
    9.0415   -3.3091   22.7561 C   0  0  0  0  0  0  0  0  0  0  0  0
   11.2549   -2.1136   23.9619 C   0  0  0  0  0  0  0  0  0  0  0  0
    9.8747   -6.1385   20.0252 C   0  0  0  0  0  0  0  0  0  0  0  0
    9.4886   -5.5119   21.1411 C   0  0  0  0  0  0  0  0  0  0  0  0
    8.0650   -5.1012   21.3198 C   0  0  0  0  0  0  0  0  0  0  0  0
    5.9917   -2.8489   21.1056 C   0  0  0  0  0  0  0  0  0  0  0  0
   10.9521   -3.5544   26.0026 C   0  0  0  0  0  0  0  0  0  0  0  0
    6.5889    0.6132   19.7576 C   0  0  0  0  0  0  0  0  0  0  0  0
    6.3743   -1.5051   18.4329 C   0  0  0  0  0  0  0  0  0  0  0  0
    4.4245   -0.6478   19.7563 C   0  0  0  0  0  0  0  0  0  0  0  0
   12.2155   -0.3082   25.3683 C   0  0  0  0  0  0  0  0  0  0  0  0
   13.7018   -2.0548   24.3738 C   0  0  0  0  0  0  0  0  0  0  0  0
    6.5732   -3.3933   22.4049 C   0  0  2  0  0  0  0  0  0  0  0  0
    5.9512   -0.7803   19.7148 C   0  0  0  0  0  0  0  0  0  0  0  0
    3.4162   -5.2174   23.4425 N   0  0  0  0  0  0  0  0  0  0  0  0
    6.3977   -1.5477   20.8632 N   0  0  0  0  0  0  0  0  0  0  0  0
    7.8784   -3.9376   22.1213 N   0  0  0  0  0  0  0  0  0  0  0  0
   12.3775   -1.4971   24.5569 N   0  0  0  0  0  0  0  0  0  0  0  0
    7.1817   -5.7712   20.7840 O   0  0  0  0  0  0  0  0  0  0  0  0
    5.2238   -3.4959   20.3963 O   0  0  0  0  0  0  0  0  0  0  0  0
    5.6958   -7.2247   24.9496 H   0  0  0  0  0  0  0  0  0  0  0  0
    7.2508   -5.5749   23.9291 H   0  0  0  0  0  0  0  0  0  0  0  0
    9.4483   -1.9956   21.0879 H   0  0  0  0  0  0  0  0  0  0  0  0
   11.4002   -0.9405   22.1520 H   0  0  0  0  0  0  0  0  0  0  0  0
    8.8879   -4.4824   24.5587 H   0  0  0  0  0  0  0  0  0  0  0  0
    3.2405   -6.9229   24.5892 H   0  0  0  0  0  0  0  0  0  0  0  0
    3.8251   -3.5368   22.3278 H   0  0  0  0  0  0  0  0  0  0  0  0
   10.9059   -6.4557   19.9102 H   0  0  0  0  0  0  0  0  0  0  0  0
    9.1938   -6.3450   19.2069 H   0  0  0  0  0  0  0  0  0  0  0  0
   10.1978   -5.3393   21.9423 H   0  0  0  0  0  0  0  0  0  0  0  0
   11.6670   -4.3824   25.9351 H   0  0  0  0  0  0  0  0  0  0  0  0
   11.4172   -2.7351   26.5641 H   0  0  0  0  0  0  0  0  0  0  0  0
   10.0838   -3.8879   26.5838 H   0  0  0  0  0  0  0  0  0  0  0  0
    6.3008    1.1530   20.6673 H   0  0  0  0  0  0  0  0  0  0  0  0
    7.6826    0.5522   19.7349 H   0  0  0  0  0  0  0  0  0  0  0  0
    6.2667    1.2214   18.9044 H   0  0  0  0  0  0  0  0  0  0  0  0
    5.9299   -2.5059   18.3795 H   0  0  0  0  0  0  0  0  0  0  0  0
    7.4624   -1.6316   18.3909 H   0  0  0  0  0  0  0  0  0  0  0  0
    6.0645   -0.9506   17.5401 H   0  0  0  0  0  0  0  0  0  0  0  0
    3.9417   -1.6315   19.7269 H   0  0  0  0  0  0  0  0  0  0  0  0
    4.0931   -0.1362   20.6667 H   0  0  0  0  0  0  0  0  0  0  0  0
    4.0528   -0.0787   18.8963 H   0  0  0  0  0  0  0  0  0  0  0  0
   13.1976    0.0192   25.7401 H   0  0  0  0  0  0  0  0  0  0  0  0
   11.7682    0.4922   24.7607 H   0  0  0  0  0  0  0  0  0  0  0  0
   11.5573   -0.5330   26.2206 H   0  0  0  0  0  0  0  0  0  0  0  0
   14.4374   -1.4377   24.9105 H   0  0  0  0  0  0  0  0  0  0  0  0
   13.7253   -3.0808   24.7698 H   0  0  0  0  0  0  0  0  0  0  0  0
   13.9482   -2.0697   23.3019 H   0  0  0  0  0  0  0  0  0  0  0  0
    6.7511   -2.5571   23.0919 H   0  0  0  0  0  0  0  0  0  0  0  0
    7.0341   -1.0898   21.5044 H   0  0  0  0  0  0  0  0  0  0  0  0
  1  2  2  0  0  0  0
  1  6  1  0  0  0  0
  2  8  1  0  0  0  0
  3  4  2  0  0  0  0
  3 10  1  0  0  0  0
  4 11  1  0  0  0  0
  5  9  1  0  0  0  0
  5 10  2  0  0  0  0
  6 24  2  0  0  0  0
  7  8  2  0  0  0  0
  7 24  1  0  0  0  0
  8 22  1  0  0  0  0
  9 11  2  0  0  0  0
  9 16  1  0  0  0  0
 10 26  1  0  0  0  0
 11 27  1  0  0  0  0
 12 13  2  0  0  0  0
 13 14  1  0  0  0  0
 14 26  1  0  0  0  0
 14 28  2  0  0  0  0
 15 22  1  0  0  0  0
 15 25  1  0  0  0  0
 15 29  2  0  0  0  0
 17 23  1  0  0  0  0
 18 23  1  0  0  0  0
 19 23  1  0  0  0  0
 20 27  1  0  0  0  0
 21 27  1  0  0  0  0
 22 26  1  0  0  0  0
 23 25  1  0  0  0  0
  1 30  1  0  0  0  0
  2 31  1  0  0  0  0
  3 32  1  0  0  0  0
  4 33  1  0  0  0  0
  5 34  1  0  0  0  0
  6 35  1  0  0  0  0
  7 36  1  0  0  0  0
 12 37  1  0  0  0  0
 12 38  1  0  0  0  0
 13 39  1  0  0  0  0
 16 40  1  0  0  0  0
 16 41  1  0  0  0  0
 16 42  1  0  0  0  0
 17 43  1  0  0  0  0
 17 44  1  0  0  0  0
 17 45  1  0  0  0  0
 18 46  1  0  0  0  0
 18 47  1  0  0  0  0
 18 48  1  0  0  0  0
 19 49  1  0  0  0  0
 19 50  1  0  0  0  0
 19 51  1  0  0  0  0
 20 52  1  0  0  0  0
 20 53  1  0  0  0  0
 20 54  1  0  0  0  0
 21 55  1  0  0  0  0
 21 56  1  0  0  0  0
 21 57  1  0  0  0  0
 22 58  1  0  0  0  0
 25 59  1  0  0  0  0
M  END
> <IC50 (uM)>

> <IC50 (uM) - std>

> <Average Inhibition @ 20 uM>

> <Average Inhibition @ 20 uM - std>
2.89

> <Average Inhibition @ 50 uM>
1.54

> <Average Inhibition @ 50 uM - std>
8.8

> <Trypsin IC50 (uM)>
1.67

> <Relative Solubility @ 20 uM>
0.98

> <Relative Solubility @ 100 uM>
0.95

> <Hybrid2>
-6.128372

> <docked_fragment>
x0749

> <Mpro-_dock>
2.08568

> <site>
active-covalent

$$$$
LON-WEI-b8d98729-47
  -OEChem-05192003313D

 54 56  0     1  0  0  0  0  0999 V2000
    7.3712   -1.4236   20.3880 C   0  0  0  0  0  0  0  0  0  0  0  0
    7.7861   -1.9708   21.5970 C   0  0  0  0  0  0  0  0  0  0  0  0
   10.8344   -0.7454   25.3736 C   0  0  0  0  0  0  0  0  0  0  0  0
   11.7713   -2.7409   24.3852 C   0  0  0  0  0  0  0  0  0  0  0  0
    5.2290   -6.4259   24.3965 C   0  0  0  0  0  0  0  0  0  0  0  0
    6.2797   -4.8049   25.8476 C   0  0  0  0  0  0  0  0  0  0  0  0
   12.1143   -0.3215   25.7312 C   0  0  0  0  0  0  0  0  0  0  0  0
   13.0512   -2.3171   24.7427 C   0  0  0  0  0  0  0  0  0  0  0  0
    4.3627   -6.7879   25.4280 C   0  0  0  0  0  0  0  0  0  0  0  0
    5.4133   -5.1669   26.8792 C   0  0  0  0  0  0  0  0  0  0  0  0
    6.2499   -1.9662   19.7814 C   0  0  0  0  0  0  0  0  0  0  0  0
    5.9686   -3.4994   21.4691 C   0  0  0  0  0  0  0  0  0  0  0  0
    7.0769   -3.0288   22.1546 C   0  0  0  0  0  0  0  0  0  0  0  0
   10.6629   -1.9551   24.7007 C   0  0  0  0  0  0  0  0  0  0  0  0
    6.1876   -5.4345   24.6063 C   0  0  0  0  0  0  0  0  0  0  0  0
   13.2227   -1.1074   25.4157 C   0  0  0  0  0  0  0  0  0  0  0  0
    4.4548   -6.1583   26.6693 C   0  0  0  0  0  0  0  0  0  0  0  0
    8.7796   -6.2348   20.4757 C   0  0  0  0  0  0  0  0  0  0  0  0
    8.3502   -5.4385   21.4598 C   0  0  0  0  0  0  0  0  0  0  0  0
    7.4846   -5.9839   22.5462 C   0  0  0  0  0  0  0  0  0  0  0  0
    9.0131   -3.5549   23.6687 C   0  0  0  0  0  0  0  0  0  0  0  0
   14.5748    0.5528   26.4508 C   0  0  0  0  0  0  0  0  0  0  0  0
    4.5532   -7.1731   29.2137 C   0  0  0  0  0  0  0  0  0  0  0  0
    7.5023   -3.6455   23.4689 C   0  0  2  0  0  0  0  0  0  0  0  0
    5.5353   -2.9936   20.2926 N   0  0  0  0  0  0  0  0  0  0  0  0
    9.3645   -2.3852   24.3379 N   0  0  0  0  0  0  0  0  0  0  0  0
    7.0898   -5.0575   23.5320 N   0  0  0  0  0  0  0  0  0  0  0  0
    7.1847   -7.1779   22.5239 O   0  0  0  0  0  0  0  0  0  0  0  0
    9.7713   -4.4293   23.2578 O   0  0  0  0  0  0  0  0  0  0  0  0
   14.4717   -0.6938   25.7645 O   0  0  0  0  0  0  0  0  0  0  0  0
    3.3479   -6.6209   27.9870 S   0  0  0  0  0  0  0  0  0  0  0  0
    7.9085   -0.5984   19.9348 H   0  0  0  0  0  0  0  0  0  0  0  0
    8.6621   -1.5667   22.0971 H   0  0  0  0  0  0  0  0  0  0  0  0
    9.9777   -0.1249   25.6244 H   0  0  0  0  0  0  0  0  0  0  0  0
   11.6497   -3.6855   23.8610 H   0  0  0  0  0  0  0  0  0  0  0  0
    5.1487   -6.9233   23.4332 H   0  0  0  0  0  0  0  0  0  0  0  0
    7.0228   -4.0310   26.0223 H   0  0  0  0  0  0  0  0  0  0  0  0
   12.2415    0.6218   26.2552 H   0  0  0  0  0  0  0  0  0  0  0  0
   13.9108   -2.9336   24.4942 H   0  0  0  0  0  0  0  0  0  0  0  0
    3.6223   -7.5628   25.2457 H   0  0  0  0  0  0  0  0  0  0  0  0
    5.5002   -4.6649   27.8396 H   0  0  0  0  0  0  0  0  0  0  0  0
    5.8860   -1.5749   18.8370 H   0  0  0  0  0  0  0  0  0  0  0  0
    5.3759   -4.3229   21.8553 H   0  0  0  0  0  0  0  0  0  0  0  0
    9.4277   -5.8388   19.7009 H   0  0  0  0  0  0  0  0  0  0  0  0
    8.5007   -7.2806   20.4081 H   0  0  0  0  0  0  0  0  0  0  0  0
    8.6659   -4.4024   21.4991 H   0  0  0  0  0  0  0  0  0  0  0  0
   15.6245    0.7633   26.6697 H   0  0  0  0  0  0  0  0  0  0  0  0
   14.0000    0.5073   27.3792 H   0  0  0  0  0  0  0  0  0  0  0  0
   14.1722    1.3437   25.8136 H   0  0  0  0  0  0  0  0  0  0  0  0
    4.0377   -7.5041   30.1186 H   0  0  0  0  0  0  0  0  0  0  0  0
    5.2272   -6.3512   29.4678 H   0  0  0  0  0  0  0  0  0  0  0  0
    5.1382   -8.0037   28.8115 H   0  0  0  0  0  0  0  0  0  0  0  0
    7.0103   -3.1310   24.3035 H   0  0  0  0  0  0  0  0  0  0  0  0
    8.5978   -1.7676   24.5963 H   0  0  0  0  0  0  0  0  0  0  0  0
  1  2  2  0  0  0  0
  1 11  1  0  0  0  0
  2 13  1  0  0  0  0
  3  7  2  0  0  0  0
  3 14  1  0  0  0  0
  4  8  1  0  0  0  0
  4 14  2  0  0  0  0
  5  9  2  0  0  0  0
  5 15  1  0  0  0  0
  6 10  1  0  0  0  0
  6 15  2  0  0  0  0
  7 16  1  0  0  0  0
  8 16  2  0  0  0  0
  9 17  1  0  0  0  0
 10 17  2  0  0  0  0
 11 25  2  0  0  0  0
 12 13  2  0  0  0  0
 12 25  1  0  0  0  0
 13 24  1  0  0  0  0
 14 26  1  0  0  0  0
 15 27  1  0  0  0  0
 16 30  1  0  0  0  0
 17 31  1  0  0  0  0
 18 19  2  0  0  0  0
 19 20  1  0  0  0  0
 20 27  1  0  0  0  0
 20 28  2  0  0  0  0
 21 24  1  0  0  0  0
 21 26  1  0  0  0  0
 21 29  2  0  0  0  0
 22 30  1  0  0  0  0
 23 31  1  0  0  0  0
 24 27  1  0  0  0  0
  1 32  1  0  0  0  0
  2 33  1  0  0  0  0
  3 34  1  0  0  0  0
  4 35  1  0  0  0  0
  5 36  1  0  0  0  0
  6 37  1  0  0  0  0
  7 38  1  0  0  0  0
  8 39  1  0  0  0  0
  9 40  1  0  0  0  0
 10 41  1  0  0  0  0
 11 42  1  0  0  0  0
 12 43  1  0  0  0  0
 18 44  1  0  0  0  0
 18 45  1  0  0  0  0
 19 46  1  0  0  0  0
 22 47  1  0  0  0  0
 22 48  1  0  0  0  0
 22 49  1  0  0  0  0
 23 50  1  0  0  0  0
 23 51  1  0  0  0  0
 23 52  1  0  0  0  0
 24 53  1  0  0  0  0
 26 54  1  0  0  0  0
M  END
> <IC50 (uM)>

> <IC50 (uM) - std>

> <Average Inhibition @ 20 uM>

> <Average Inhibition @ 20 uM - std>
13.5

> <Average Inhibition @ 50 uM>
2.82

> <Average Inhibition @ 50 uM - std>
27.0

> <Trypsin IC50 (uM)>
0.9

> <Relative Solubility @ 20 uM>
0.91

> <Relative Solubility @ 100 uM>
0.77

> <Hybrid2>
-6.003866

> <docked_fragment>
x0749

> <Mpro-_dock>
3.609512

> <site>
active-covalent

$$$$
LON-WEI-b8d98729-46
  -OEChem-05192003313D

 63 65  0     1  0  0  0  0  0999 V2000
   13.9473   -0.6443   22.3310 C   0  0  0  0  0  0  0  0  0  0  0  0
    4.9061    1.0413   23.8586 C   0  0  0  0  0  0  0  0  0  0  0  0
   13.2289    0.2347   23.1413 C   0  0  0  0  0  0  0  0  0  0  0  0
   13.2980   -1.7147   21.7159 C   0  0  0  0  0  0  0  0  0  0  0  0
    5.5067   -0.1689   23.5297 C   0  0  0  0  0  0  0  0  0  0  0  0
    6.6098   -0.4097   19.9923 C   0  0  0  0  0  0  0  0  0  0  0  0
    5.6064    2.2066   23.5913 C   0  0  0  0  0  0  0  0  0  0  0  0
    7.3880    1.0432   22.7248 C   0  0  0  0  0  0  0  0  0  0  0  0
    6.7713   -0.1766   22.9517 C   0  0  0  0  0  0  0  0  0  0  0  0
   11.8611    0.0433   23.3368 C   0  0  0  0  0  0  0  0  0  0  0  0
   11.9303   -1.9062   21.9113 C   0  0  0  0  0  0  0  0  0  0  0  0
   11.2118   -1.0272   22.7218 C   0  0  0  0  0  0  0  0  0  0  0  0
    6.0808   -0.3119   18.7326 C   0  0  0  0  0  0  0  0  0  0  0  0
    6.2684   -1.7114   20.3981 C   0  0  0  0  0  0  0  0  0  0  0  0
    7.4950   -5.1541   23.4536 C   0  0  0  0  0  0  0  0  0  0  0  0
    6.7032   -4.0813   23.3581 C   0  0  0  0  0  0  0  0  0  0  0  0
    6.2375   -3.6057   22.0223 C   0  0  0  0  0  0  0  0  0  0  0  0
    8.8215   -1.2345   21.9539 C   0  0  0  0  0  0  0  0  0  0  0  0
   11.1186    1.0018   24.2106 C   0  0  0  0  0  0  0  0  0  0  0  0
   10.9947   -4.2143   22.2011 C   0  0  0  0  0  0  0  0  0  0  0  0
    7.4958    1.1783   17.2757 C   0  0  0  0  0  0  0  0  0  0  0  0
    5.3433    2.0479   18.2487 C   0  0  0  0  0  0  0  0  0  0  0  0
    5.3080    0.4128   16.3761 C   0  0  0  0  0  0  0  0  0  0  0  0
   11.2633   -3.0620   21.2385 C   0  0  0  0  0  0  0  0  0  0  0  0
    7.4511   -1.4764   22.5818 C   0  0  2  0  0  0  0  0  0  0  0  0
    6.0520    0.8024   17.6735 C   0  0  0  0  0  0  0  0  0  0  0  0
    6.8362    2.2389   23.0309 N   0  0  0  0  0  0  0  0  0  0  0  0
    5.5802   -2.3705   19.4617 N   0  0  0  0  0  0  0  0  0  0  0  0
    9.8242   -1.2217   22.9202 N   0  0  0  0  0  0  0  0  0  0  0  0
    6.5976   -2.2618   21.6202 N   0  0  0  0  0  0  0  0  0  0  0  0
    5.5456   -4.3555   21.3329 O   0  0  0  0  0  0  0  0  0  0  0  0
    8.9561   -1.0675   20.7447 O   0  0  0  0  0  0  0  0  0  0  0  0
    5.4638   -1.4759   18.4047 O   0  0  0  0  0  0  0  0  0  0  0  0
   15.0124   -0.4952   22.1785 H   0  0  0  0  0  0  0  0  0  0  0  0
    3.9209    1.0714   24.3097 H   0  0  0  0  0  0  0  0  0  0  0  0
   13.7441    1.0654   23.6165 H   0  0  0  0  0  0  0  0  0  0  0  0
   13.8670   -2.3935   21.0860 H   0  0  0  0  0  0  0  0  0  0  0  0
    4.9824   -1.1000   23.7270 H   0  0  0  0  0  0  0  0  0  0  0  0
    7.1589    0.3477   20.5320 H   0  0  0  0  0  0  0  0  0  0  0  0
    5.1815    3.1762   23.8295 H   0  0  0  0  0  0  0  0  0  0  0  0
    8.3750    1.0999   22.2764 H   0  0  0  0  0  0  0  0  0  0  0  0
    7.8118   -5.5095   24.4285 H   0  0  0  0  0  0  0  0  0  0  0  0
    7.8501   -5.6960   22.5841 H   0  0  0  0  0  0  0  0  0  0  0  0
    6.3574   -3.5779   24.2535 H   0  0  0  0  0  0  0  0  0  0  0  0
   10.7309    1.8355   23.6144 H   0  0  0  0  0  0  0  0  0  0  0  0
   10.2774    0.5090   24.7126 H   0  0  0  0  0  0  0  0  0  0  0  0
   11.7686    1.4052   24.9964 H   0  0  0  0  0  0  0  0  0  0  0  0
   11.9217   -4.5578   22.6725 H   0  0  0  0  0  0  0  0  0  0  0  0
   10.5486   -5.0624   21.6724 H   0  0  0  0  0  0  0  0  0  0  0  0
   10.3059   -3.9102   22.9966 H   0  0  0  0  0  0  0  0  0  0  0  0
    7.5036    1.9726   16.5201 H   0  0  0  0  0  0  0  0  0  0  0  0
    8.0795    1.5423   18.1284 H   0  0  0  0  0  0  0  0  0  0  0  0
    8.0272    0.3150   16.8579 H   0  0  0  0  0  0  0  0  0  0  0  0
    5.2992    2.8704   17.5265 H   0  0  0  0  0  0  0  0  0  0  0  0
    4.3104    1.8178   18.5354 H   0  0  0  0  0  0  0  0  0  0  0  0
    5.8618    2.4202   19.1401 H   0  0  0  0  0  0  0  0  0  0  0  0
    5.3147    1.2381   15.6538 H   0  0  0  0  0  0  0  0  0  0  0  0
    5.7766   -0.4481   15.8850 H   0  0  0  0  0  0  0  0  0  0  0  0
    4.2582    0.1650   16.5718 H   0  0  0  0  0  0  0  0  0  0  0  0
   10.3136   -2.7416   20.7833 H   0  0  0  0  0  0  0  0  0  0  0  0
   11.8814   -3.4248   20.4029 H   0  0  0  0  0  0  0  0  0  0  0  0
    7.5835   -2.1000   23.4745 H   0  0  0  0  0  0  0  0  0  0  0  0
    9.5240   -1.3696   23.8815 H   0  0  0  0  0  0  0  0  0  0  0  0
  1  3  1  0  0  0  0
  1  4  2  0  0  0  0
  2  5  2  0  0  0  0
  2  7  1  0  0  0  0
  3 10  2  0  0  0  0
  4 11  1  0  0  0  0
  5  9  1  0  0  0  0
  6 13  2  0  0  0  0
  6 14  1  0  0  0  0
  7 27  2  0  0  0  0
  8  9  2  0  0  0  0
  8 27  1  0  0  0  0
  9 25  1  0  0  0  0
 10 12  1  0  0  0  0
 10 19  1  0  0  0  0
 11 12  2  0  0  0  0
 11 24  1  0  0  0  0
 12 29  1  0  0  0  0
 13 26  1  0  0  0  0
 13 33  1  0  0  0  0
 14 28  2  0  0  0  0
 14 30  1  0  0  0  0
 15 16  2  0  0  0  0
 16 17  1  0  0  0  0
 17 30  1  0  0  0  0
 17 31  2  0  0  0  0
 18 25  1  0  0  0  0
 18 29  1  0  0  0  0
 18 32  2  0  0  0  0
 20 24  1  0  0  0  0
 21 26  1  0  0  0  0
 22 26  1  0  0  0  0
 23 26  1  0  0  0  0
 25 30  1  0  0  0  0
 28 33  1  0  0  0  0
  1 34  1  0  0  0  0
  2 35  1  0  0  0  0
  3 36  1  0  0  0  0
  4 37  1  0  0  0  0
  5 38  1  0  0  0  0
  6 39  1  0  0  0  0
  7 40  1  0  0  0  0
  8 41  1  0  0  0  0
 15 42  1  0  0  0  0
 15 43  1  0  0  0  0
 16 44  1  0  0  0  0
 19 45  1  0  0  0  0
 19 46  1  0  0  0  0
 19 47  1  0  0  0  0
 20 48  1  0  0  0  0
 20 49  1  0  0  0  0
 20 50  1  0  0  0  0
 21 51  1  0  0  0  0
 21 52  1  0  0  0  0
 21 53  1  0  0  0  0
 22 54  1  0  0  0  0
 22 55  1  0  0  0  0
 22 56  1  0  0  0  0
 23 57  1  0  0  0  0
 23 58  1  0  0  0  0
 23 59  1  0  0  0  0
 24 60  1  0  0  0  0
 24 61  1  0  0  0  0
 25 62  1  0  0  0  0
 29 63  1  0  0  0  0
M  END
> <IC50 (uM)>

> <IC50 (uM) - std>

> <Average Inhibition @ 20 uM>

> <Average Inhibition @ 20 uM - std>
7.33

> <Average Inhibition @ 50 uM>
0.74

> <Average Inhibition @ 50 uM - std>
21.1

> <Trypsin IC50 (uM)>
0.99

> <Relative Solubility @ 20 uM>
0.99

> <Relative Solubility @ 100 uM>
0.9

> <Hybrid2>
-5.954724

> <docked_fragment>
x0831

> <Mpro-_dock>
4.937933

> <site>
active-covalent

$$$$
LON-WEI-8f408cad-8
  -OEChem-05192003313D

 60 61  0     1  0  0  0  0  0999 V2000
    4.0729   -5.8428   23.7838 C   0  0  0  0  0  0  0  0  0  0  0  0
    5.0895   -5.2297   23.0600 C   0  0  0  0  0  0  0  0  0  0  0  0
   10.3737   -2.6925   25.1461 C   0  0  0  0  0  0  0  0  0  0  0  0
   11.4911   -2.9781   23.0231 C   0  0  0  0  0  0  0  0  0  0  0  0
    9.1996   -3.2086   24.5976 C   0  0  0  0  0  0  0  0  0  0  0  0
   10.3170   -3.4942   22.4746 C   0  0  0  0  0  0  0  0  0  0  0  0
    3.6439   -5.2273   24.9487 C   0  0  0  0  0  0  0  0  0  0  0  0
    5.1391   -3.5017   24.6934 C   0  0  0  0  0  0  0  0  0  0  0  0
   11.5194   -2.5773   24.3589 C   0  0  0  0  0  0  0  0  0  0  0  0
    5.6382   -4.0365   23.5167 C   0  0  0  0  0  0  0  0  0  0  0  0
    9.1713   -3.6094   23.2618 C   0  0  0  0  0  0  0  0  0  0  0  0
    9.4855   -7.3770   22.0322 C   0  0  0  0  0  0  0  0  0  0  0  0
    8.9568   -6.3854   22.7562 C   0  0  0  0  0  0  0  0  0  0  0  0
    7.9376   -5.4755   22.1557 C   0  0  0  0  0  0  0  0  0  0  0  0
    6.3190   -3.0026   21.3297 C   0  0  0  0  0  0  0  0  0  0  0  0
   13.2653   -2.8907   26.1475 C   0  0  0  0  0  0  0  0  0  0  0  0
   12.5632   -0.5707   25.4684 C   0  0  0  0  0  0  0  0  0  0  0  0
   13.9932   -1.9428   23.9672 C   0  0  0  0  0  0  0  0  0  0  0  0
    7.5864   -0.0659   19.3474 C   0  0  0  0  0  0  0  0  0  0  0  0
    7.0377   -2.3516   18.4739 C   0  0  0  0  0  0  0  0  0  0  0  0
    5.2299   -0.9098   19.4441 C   0  0  0  0  0  0  0  0  0  0  0  0
    6.7435   -3.3453   22.7527 C   0  0  2  0  0  0  0  0  0  0  0  0
   12.7746   -2.0255   24.9454 C   0  0  0  0  0  0  0  0  0  0  0  0
    6.7073   -1.3063   19.5445 C   0  0  0  0  0  0  0  0  0  0  0  0
    4.1526   -4.0684   25.4238 N   0  0  0  0  0  0  0  0  0  0  0  0
    6.9641   -1.8729   20.8560 N   0  0  0  0  0  0  0  0  0  0  0  0
    7.9371   -4.1523   22.6849 N   0  0  0  0  0  0  0  0  0  0  0  0
    7.1934   -5.9139   21.2781 O   0  0  0  0  0  0  0  0  0  0  0  0
    5.4724   -3.6467   20.7133 O   0  0  0  0  0  0  0  0  0  0  0  0
    3.6301   -6.7731   23.4467 H   0  0  0  0  0  0  0  0  0  0  0  0
    5.4473   -5.6881   22.1422 H   0  0  0  0  0  0  0  0  0  0  0  0
   10.3861   -2.3806   26.1871 H   0  0  0  0  0  0  0  0  0  0  0  0
   12.3789   -2.8911   22.4023 H   0  0  0  0  0  0  0  0  0  0  0  0
    8.3127   -3.2942   25.2204 H   0  0  0  0  0  0  0  0  0  0  0  0
   10.3057   -3.8025   21.4322 H   0  0  0  0  0  0  0  0  0  0  0  0
    2.8538   -5.6658   25.5493 H   0  0  0  0  0  0  0  0  0  0  0  0
    5.5280   -2.5728   25.0988 H   0  0  0  0  0  0  0  0  0  0  0  0
   10.2089   -8.0500   22.4805 H   0  0  0  0  0  0  0  0  0  0  0  0
    9.2259   -7.5425   20.9924 H   0  0  0  0  0  0  0  0  0  0  0  0
    9.2316   -6.2648   23.7976 H   0  0  0  0  0  0  0  0  0  0  0  0
   14.1880   -2.5061   26.5976 H   0  0  0  0  0  0  0  0  0  0  0  0
   12.5145   -2.9334   26.9441 H   0  0  0  0  0  0  0  0  0  0  0  0
   13.4571   -3.9196   25.8208 H   0  0  0  0  0  0  0  0  0  0  0  0
   13.4832   -0.1618   25.9002 H   0  0  0  0  0  0  0  0  0  0  0  0
   12.2447    0.1210   24.6797 H   0  0  0  0  0  0  0  0  0  0  0  0
   11.7974   -0.5574   26.2530 H   0  0  0  0  0  0  0  0  0  0  0  0
   14.8910   -1.5314   24.4442 H   0  0  0  0  0  0  0  0  0  0  0  0
   14.2574   -2.9371   23.5884 H   0  0  0  0  0  0  0  0  0  0  0  0
   13.7617   -1.3008   23.1094 H   0  0  0  0  0  0  0  0  0  0  0  0
    7.3685    0.6981   20.1027 H   0  0  0  0  0  0  0  0  0  0  0  0
    8.6507   -0.3159   19.4192 H   0  0  0  0  0  0  0  0  0  0  0  0
    7.4120    0.3900   18.3659 H   0  0  0  0  0  0  0  0  0  0  0  0
    6.4206   -3.2496   18.5943 H   0  0  0  0  0  0  0  0  0  0  0  0
    8.0853   -2.6677   18.5400 H   0  0  0  0  0  0  0  0  0  0  0  0
    6.8672   -1.9579   17.4658 H   0  0  0  0  0  0  0  0  0  0  0  0
    4.5772   -1.7797   19.5815 H   0  0  0  0  0  0  0  0  0  0  0  0
    4.9642   -0.1653   20.2027 H   0  0  0  0  0  0  0  0  0  0  0  0
    4.9999   -0.4846   18.4602 H   0  0  0  0  0  0  0  0  0  0  0  0
    7.0457   -2.4236   23.2646 H   0  0  0  0  0  0  0  0  0  0  0  0
    7.6494   -1.4030   21.4350 H   0  0  0  0  0  0  0  0  0  0  0  0
  1  2  2  0  0  0  0
  1  7  1  0  0  0  0
  2 10  1  0  0  0  0
  3  5  2  0  0  0  0
  3  9  1  0  0  0  0
  4  6  1  0  0  0  0
  4  9  2  0  0  0  0
  5 11  1  0  0  0  0
  6 11  2  0  0  0  0
  7 25  2  0  0  0  0
  8 10  2  0  0  0  0
  8 25  1  0  0  0  0
  9 23  1  0  0  0  0
 10 22  1  0  0  0  0
 11 27  1  0  0  0  0
 12 13  2  0  0  0  0
 13 14  1  0  0  0  0
 14 27  1  0  0  0  0
 14 28  2  0  0  0  0
 15 22  1  0  0  0  0
 15 26  1  0  0  0  0
 15 29  2  0  0  0  0
 16 23  1  0  0  0  0
 17 23  1  0  0  0  0
 18 23  1  0  0  0  0
 19 24  1  0  0  0  0
 20 24  1  0  0  0  0
 21 24  1  0  0  0  0
 22 27  1  0  0  0  0
 24 26  1  0  0  0  0
  1 30  1  0  0  0  0
  2 31  1  0  0  0  0
  3 32  1  0  0  0  0
  4 33  1  0  0  0  0
  5 34  1  0  0  0  0
  6 35  1  0  0  0  0
  7 36  1  0  0  0  0
  8 37  1  0  0  0  0
 12 38  1  0  0  0  0
 12 39  1  0  0  0  0
 13 40  1  0  0  0  0
 16 41  1  0  0  0  0
 16 42  1  0  0  0  0
 16 43  1  0  0  0  0
 17 44  1  0  0  0  0
 17 45  1  0  0  0  0
 17 46  1  0  0  0  0
 18 47  1  0  0  0  0
 18 48  1  0  0  0  0
 18 49  1  0  0  0  0
 19 50  1  0  0  0  0
 19 51  1  0  0  0  0
 19 52  1  0  0  0  0
 20 53  1  0  0  0  0
 20 54  1  0  0  0  0
 20 55  1  0  0  0  0
 21 56  1  0  0  0  0
 21 57  1  0  0  0  0
 21 58  1  0  0  0  0
 22 59  1  0  0  0  0
 26 60  1  0  0  0  0
M  END
> <IC50 (uM)>

> <IC50 (uM) - std>

> <Average Inhibition @ 20 uM>

> <Average Inhibition @ 20 uM - std>
12.7

> <Average Inhibition @ 50 uM>
2.36

> <Average Inhibition @ 50 uM - std>
27.2

> <Trypsin IC50 (uM)>
0.674

> <Relative Solubility @ 20 uM>
0.96

> <Relative Solubility @ 100 uM>
0.89

> <Hybrid2>
-5.917193

> <docked_fragment>
x0749

> <Mpro-_dock>
2.402975

> <site>
active-covalent

$$$$
LON-WEI-b8d98729-6
  -OEChem-05192003313D

 52 53  0     1  0  0  0  0  0999 V2000
    3.4611   -4.4972   23.7928 C   0  0  0  0  0  0  0  0  0  0  0  0
    4.4465   -3.7691   23.1354 C   0  0  0  0  0  0  0  0  0  0  0  0
    9.8420   -3.7641   24.6278 C   0  0  0  0  0  0  0  0  0  0  0  0
    9.7815   -2.0067   22.9709 C   0  0  0  0  0  0  0  0  0  0  0  0
   10.9230   -3.1400   25.2503 C   0  0  0  0  0  0  0  0  0  0  0  0
   10.8625   -1.3826   23.5934 C   0  0  0  0  0  0  0  0  0  0  0  0
    3.8579   -5.3674   24.7954 C   0  0  0  0  0  0  0  0  0  0  0  0
    6.0726   -4.8266   24.5115 C   0  0  0  0  0  0  0  0  0  0  0  0
    5.7797   -3.9312   23.4955 C   0  0  0  0  0  0  0  0  0  0  0  0
    9.2712   -3.1975   23.4880 C   0  0  0  0  0  0  0  0  0  0  0  0
   11.4332   -1.9492   24.7331 C   0  0  0  0  0  0  0  0  0  0  0  0
   10.5570   -5.5585   21.4703 C   0  0  0  0  0  0  0  0  0  0  0  0
    9.6684   -5.7337   22.4536 C   0  0  0  0  0  0  0  0  0  0  0  0
    8.2890   -5.1777   22.3297 C   0  0  0  0  0  0  0  0  0  0  0  0
    6.5264   -2.8668   21.3449 C   0  0  0  0  0  0  0  0  0  0  0  0
    7.6753    0.1470   19.4066 C   0  0  0  0  0  0  0  0  0  0  0  0
    7.3931   -2.1881   18.5371 C   0  0  0  0  0  0  0  0  0  0  0  0
    5.4004   -0.9000   19.3485 C   0  0  0  0  0  0  0  0  0  0  0  0
   13.9998   -1.1718   24.1660 C   0  0  0  0  0  0  0  0  0  0  0  0
    6.8736   -3.1542   22.8008 C   0  0  2  0  0  0  0  0  0  0  0  0
    6.8955   -1.1637   19.5621 C   0  0  0  0  0  0  0  0  0  0  0  0
    5.1429   -5.5515   25.1730 N   0  0  0  0  0  0  0  0  0  0  0  0
    7.1037   -1.6902   20.8987 N   0  0  0  0  0  0  0  0  0  0  0  0
    8.1346   -3.8536   22.8336 N   0  0  0  0  0  0  0  0  0  0  0  0
    7.4109   -5.8751   21.8211 O   0  0  0  0  0  0  0  0  0  0  0  0
    5.7865   -3.5900   20.6808 O   0  0  0  0  0  0  0  0  0  0  0  0
   12.8143   -1.1521   25.5286 S   0  0  0  0  0  0  0  0  0  0  0  0
    2.4155   -4.3869   23.5290 H   0  0  0  0  0  0  0  0  0  0  0  0
    4.1666   -3.0784   22.3447 H   0  0  0  0  0  0  0  0  0  0  0  0
    9.4525   -4.6920   25.0391 H   0  0  0  0  0  0  0  0  0  0  0  0
    9.3445   -1.5562   22.0832 H   0  0  0  0  0  0  0  0  0  0  0  0
   11.3547   -3.5967   26.1375 H   0  0  0  0  0  0  0  0  0  0  0  0
   11.2463   -0.4550   23.1759 H   0  0  0  0  0  0  0  0  0  0  0  0
    3.1275   -5.9585   25.3381 H   0  0  0  0  0  0  0  0  0  0  0  0
    7.0949   -4.9949   24.8358 H   0  0  0  0  0  0  0  0  0  0  0  0
   11.5512   -5.9847   21.5552 H   0  0  0  0  0  0  0  0  0  0  0  0
   10.3302   -4.9929   20.5733 H   0  0  0  0  0  0  0  0  0  0  0  0
    9.9305   -6.3199   23.3267 H   0  0  0  0  0  0  0  0  0  0  0  0
    7.3370    0.8976   20.1304 H   0  0  0  0  0  0  0  0  0  0  0  0
    8.7492   -0.0074   19.5593 H   0  0  0  0  0  0  0  0  0  0  0  0
    7.5343    0.5743   18.4070 H   0  0  0  0  0  0  0  0  0  0  0  0
    6.8492   -3.1355   18.6289 H   0  0  0  0  0  0  0  0  0  0  0  0
    8.4566   -2.4099   18.6841 H   0  0  0  0  0  0  0  0  0  0  0  0
    7.2633   -1.8227   17.5123 H   0  0  0  0  0  0  0  0  0  0  0  0
    4.8176   -1.8224   19.4542 H   0  0  0  0  0  0  0  0  0  0  0  0
    5.0161   -0.1730   20.0725 H   0  0  0  0  0  0  0  0  0  0  0  0
    5.2071   -0.5081   18.3431 H   0  0  0  0  0  0  0  0  0  0  0  0
   14.9372   -0.7077   24.4821 H   0  0  0  0  0  0  0  0  0  0  0  0
   13.5965   -0.6169   23.3153 H   0  0  0  0  0  0  0  0  0  0  0  0
   14.1963   -2.2021   23.8600 H   0  0  0  0  0  0  0  0  0  0  0  0
    7.0561   -2.2036   23.3164 H   0  0  0  0  0  0  0  0  0  0  0  0
    7.7012   -1.1550   21.5170 H   0  0  0  0  0  0  0  0  0  0  0  0
  1  2  2  0  0  0  0
  1  7  1  0  0  0  0
  2  9  1  0  0  0  0
  3  5  2  0  0  0  0
  3 10  1  0  0  0  0
  4  6  1  0  0  0  0
  4 10  2  0  0  0  0
  5 11  1  0  0  0  0
  6 11  2  0  0  0  0
  7 22  2  0  0  0  0
  8  9  2  0  0  0  0
  8 22  1  0  0  0  0
  9 20  1  0  0  0  0
 10 24  1  0  0  0  0
 11 27  1  0  0  0  0
 12 13  2  0  0  0  0
 13 14  1  0  0  0  0
 14 24  1  0  0  0  0
 14 25  2  0  0  0  0
 15 20  1  0  0  0  0
 15 23  1  0  0  0  0
 15 26  2  0  0  0  0
 16 21  1  0  0  0  0
 17 21  1  0  0  0  0
 18 21  1  0  0  0  0
 19 27  1  0  0  0  0
 20 24  1  0  0  0  0
 21 23  1  0  0  0  0
  1 28  1  0  0  0  0
  2 29  1  0  0  0  0
  3 30  1  0  0  0  0
  4 31  1  0  0  0  0
  5 32  1  0  0  0  0
  6 33  1  0  0  0  0
  7 34  1  0  0  0  0
  8 35  1  0  0  0  0
 12 36  1  0  0  0  0
 12 37  1  0  0  0  0
 13 38  1  0  0  0  0
 16 39  1  0  0  0  0
 16 40  1  0  0  0  0
 16 41  1  0  0  0  0
 17 42  1  0  0  0  0
 17 43  1  0  0  0  0
 17 44  1  0  0  0  0
 18 45  1  0  0  0  0
 18 46  1  0  0  0  0
 18 47  1  0  0  0  0
 19 48  1  0  0  0  0
 19 49  1  0  0  0  0
 19 50  1  0  0  0  0
 20 51  1  0  0  0  0
 23 52  1  0  0  0  0
M  END
> <IC50 (uM)>

> <IC50 (uM) - std>

> <Average Inhibition @ 20 uM>

> <Average Inhibition @ 20 uM - std>
3.54

> <Average Inhibition @ 50 uM>
5.36

> <Average Inhibition @ 50 uM - std>
7.75

> <Trypsin IC50 (uM)>
2.46

> <Relative Solubility @ 20 uM>
1.0

> <Relative Solubility @ 100 uM>
0.99

> <Hybrid2>
-5.821193

> <docked_fragment>
x0749

> <Mpro-_dock>
1.479574

> <site>
active-covalent

$$$$
JOH-UNI-c7afdb96-2
  -OEChem-05192003313D

 32 33  0     0  0  0  0  0  0999 V2000
    7.8343   -5.3266   22.1256 C   0  0  0  0  0  0  0  0  0  0  0  0
    9.2419   -3.8598   25.1244 C   0  0  0  0  0  0  0  0  0  0  0  0
    7.0889   -4.8299   25.6351 C   0  0  0  0  0  0  0  0  0  0  0  0
    7.9362    0.0236   19.8714 C   0  0  0  0  0  0  0  0  0  0  0  0
    6.1445   -1.3636   19.0333 C   0  0  0  0  0  0  0  0  0  0  0  0
    7.6847    0.9563   18.8653 C   0  0  0  0  0  0  0  0  0  0  0  0
    5.8930   -0.4309   18.0272 C   0  0  0  0  0  0  0  0  0  0  0  0
    9.7777   -4.4451   26.2715 C   0  0  0  0  0  0  0  0  0  0  0  0
    7.6247   -5.4153   26.7821 C   0  0  0  0  0  0  0  0  0  0  0  0
    7.8974   -4.0521   24.8062 C   0  0  0  0  0  0  0  0  0  0  0  0
    7.1662   -1.1364   19.9554 C   0  0  0  0  0  0  0  0  0  0  0  0
    6.6631    0.7291   17.9432 C   0  0  0  0  0  0  0  0  0  0  0  0
    8.9692   -5.2229   27.1003 C   0  0  0  0  0  0  0  0  0  0  0  0
    7.3078   -4.0246   22.3779 C   0  0  0  0  0  0  0  0  0  0  0  0
    7.3383   -3.4424   23.6097 C   0  0  0  0  0  0  0  0  0  0  0  0
    6.7582   -3.2809   21.1971 C   0  0  0  0  0  0  0  0  0  0  0  0
    8.2612   -6.3854   21.9181 N   0  0  0  0  0  0  0  0  0  0  0  0
    7.4213   -2.0827   20.9757 N   0  0  0  0  0  0  0  0  0  0  0  0
    5.7998   -3.7437   20.5880 O   0  0  0  0  0  0  0  0  0  0  0  0
    6.8170   -2.1745   23.8457 O   0  0  0  0  0  0  0  0  0  0  0  0
    6.4207    1.6253   16.9775 F   0  0  0  0  0  0  0  0  0  0  0  0
    9.6305   -5.9450   28.5152 Cl  0  0  0  0  0  0  0  0  0  0  0  0
    9.8840   -3.2555   24.4879 H   0  0  0  0  0  0  0  0  0  0  0  0
    6.0392   -4.9886   25.3996 H   0  0  0  0  0  0  0  0  0  0  0  0
    8.7353    0.2111   20.5843 H   0  0  0  0  0  0  0  0  0  0  0  0
    5.5397   -2.2652   19.0877 H   0  0  0  0  0  0  0  0  0  0  0  0
    8.2845    1.8591   18.7991 H   0  0  0  0  0  0  0  0  0  0  0  0
    5.0969   -0.6069   17.3099 H   0  0  0  0  0  0  0  0  0  0  0  0
   10.8272   -4.2869   26.5064 H   0  0  0  0  0  0  0  0  0  0  0  0
    6.9827   -6.0188   27.4188 H   0  0  0  0  0  0  0  0  0  0  0  0
    8.1830   -1.8418   21.6067 H   0  0  0  0  0  0  0  0  0  0  0  0
    6.4636   -1.8213   23.0273 H   0  0  0  0  0  0  0  0  0  0  0  0
  1 14  1  0  0  0  0
  1 17  3  0  0  0  0
  2  8  2  0  0  0  0
  2 10  1  0  0  0  0
  3  9  1  0  0  0  0
  3 10  2  0  0  0  0
  4  6  2  0  0  0  0
  4 11  1  0  0  0  0
  5  7  1  0  0  0  0
  5 11  2  0  0  0  0
  6 12  1  0  0  0  0
  7 12  2  0  0  0  0
  8 13  1  0  0  0  0
  9 13  2  0  0  0  0
 10 15  1  0  0  0  0
 11 18  1  0  0  0  0
 12 21  1  0  0  0  0
 13 22  1  0  0  0  0
 14 15  2  0  0  0  0
 14 16  1  0  0  0  0
 15 20  1  0  0  0  0
 16 18  1  0  0  0  0
 16 19  2  0  0  0  0
  2 23  1  0  0  0  0
  3 24  1  0  0  0  0
  4 25  1  0  0  0  0
  5 26  1  0  0  0  0
  6 27  1  0  0  0  0
  7 28  1  0  0  0  0
  8 29  1  0  0  0  0
  9 30  1  0  0  0  0
 18 31  1  0  0  0  0
 20 32  1  0  0  0  0
M  END
> <IC50 (uM)>

> <IC50 (uM) - std>

> <Average Inhibition @ 20 uM>

> <Average Inhibition @ 20 uM - std>

> <Average Inhibition @ 50 uM>

> <Average Inhibition @ 50 uM - std>
7.43

> <Trypsin IC50 (uM)>
2.3

> <Relative Solubility @ 20 uM>

> <Relative Solubility @ 100 uM>

> <Hybrid2>
-5.794032

> <docked_fragment>
x0734

> <Mpro-_dock>
1.605694

> <site>
active-covalent

$$$$
LON-WEI-b8d98729-32
  -OEChem-05192003313D

 56 57  0     1  0  0  0  0  0999 V2000
    3.2858   -4.2143   24.4854 C   0  0  0  0  0  0  0  0  0  0  0  0
    4.2362   -3.5947   23.6817 C   0  0  0  0  0  0  0  0  0  0  0  0
   10.0771   -4.0129   24.1792 C   0  0  0  0  0  0  0  0  0  0  0  0
   11.2297   -3.3809   24.6324 C   0  0  0  0  0  0  0  0  0  0  0  0
    3.7360   -5.0281   25.5125 C   0  0  0  0  0  0  0  0  0  0  0  0
    5.9359   -4.6366   24.9785 C   0  0  0  0  0  0  0  0  0  0  0  0
    9.3110   -1.9151   23.3613 C   0  0  0  0  0  0  0  0  0  0  0  0
    5.5888   -3.8047   23.9262 C   0  0  0  0  0  0  0  0  0  0  0  0
    9.0946   -3.2732   23.5306 C   0  0  0  0  0  0  0  0  0  0  0  0
   11.3507   -2.0181   24.4136 C   0  0  0  0  0  0  0  0  0  0  0  0
    9.6115   -6.9636   22.1114 C   0  0  0  0  0  0  0  0  0  0  0  0
    9.1902   -5.6998   22.0001 C   0  0  0  0  0  0  0  0  0  0  0  0
    7.9066   -5.2757   22.6324 C   0  0  0  0  0  0  0  0  0  0  0  0
    6.1717   -2.9487   21.6364 C   0  0  0  0  0  0  0  0  0  0  0  0
   13.8551   -1.8237   24.2048 C   0  0  0  0  0  0  0  0  0  0  0  0
   12.7356   -1.3687   26.4172 C   0  0  0  0  0  0  0  0  0  0  0  0
    7.2712   -0.1589   19.3632 C   0  0  0  0  0  0  0  0  0  0  0  0
    6.7900   -2.5327   18.7141 C   0  0  0  0  0  0  0  0  0  0  0  0
    4.9528   -1.0764   19.6041 C   0  0  0  0  0  0  0  0  0  0  0  0
    6.6460   -3.1454   23.0714 C   0  0  2  0  0  0  0  0  0  0  0  0
   12.5744   -1.3072   24.8868 C   0  0  0  0  0  0  0  0  0  0  0  0
    6.4468   -1.4077   19.6961 C   0  0  0  0  0  0  0  0  0  0  0  0
    5.0412   -5.2560   25.7807 N   0  0  0  0  0  0  0  0  0  0  0  0
   10.4177   -1.2662   23.7876 N   0  0  0  0  0  0  0  0  0  0  0  0
    6.7595   -1.8436   21.0450 N   0  0  0  0  0  0  0  0  0  0  0  0
    7.8681   -3.9109   23.0410 N   0  0  0  0  0  0  0  0  0  0  0  0
    7.0029   -6.1029   22.7549 O   0  0  0  0  0  0  0  0  0  0  0  0
    5.3352   -3.6765   21.1052 O   0  0  0  0  0  0  0  0  0  0  0  0
    2.2260   -4.0649   24.3135 H   0  0  0  0  0  0  0  0  0  0  0  0
    3.9142   -2.9504   22.8682 H   0  0  0  0  0  0  0  0  0  0  0  0
    9.9552   -5.0814   24.3361 H   0  0  0  0  0  0  0  0  0  0  0  0
   12.0036   -3.9467   25.1402 H   0  0  0  0  0  0  0  0  0  0  0  0
    3.0343   -5.5343   26.1673 H   0  0  0  0  0  0  0  0  0  0  0  0
    6.9757   -4.8379   25.2173 H   0  0  0  0  0  0  0  0  0  0  0  0
    8.5802   -1.2852   22.8630 H   0  0  0  0  0  0  0  0  0  0  0  0
   10.5567   -7.2613   21.6697 H   0  0  0  0  0  0  0  0  0  0  0  0
    9.0390   -7.7258   22.6283 H   0  0  0  0  0  0  0  0  0  0  0  0
    9.8010   -4.9649   21.4887 H   0  0  0  0  0  0  0  0  0  0  0  0
   14.0142   -2.8898   24.3998 H   0  0  0  0  0  0  0  0  0  0  0  0
   14.7415   -1.2855   24.5581 H   0  0  0  0  0  0  0  0  0  0  0  0
   13.7916   -1.6888   23.1193 H   0  0  0  0  0  0  0  0  0  0  0  0
   12.8112   -2.4092   26.7525 H   0  0  0  0  0  0  0  0  0  0  0  0
   11.8802   -0.9133   26.9282 H   0  0  0  0  0  0  0  0  0  0  0  0
   13.6383   -0.8443   26.7492 H   0  0  0  0  0  0  0  0  0  0  0  0
    7.0432    0.6619   20.0533 H   0  0  0  0  0  0  0  0  0  0  0  0
    8.3460   -0.3621   19.4258 H   0  0  0  0  0  0  0  0  0  0  0  0
    7.0537    0.1997   18.3504 H   0  0  0  0  0  0  0  0  0  0  0  0
    6.2118   -3.4382   18.9324 H   0  0  0  0  0  0  0  0  0  0  0  0
    7.8505   -2.8029   18.7773 H   0  0  0  0  0  0  0  0  0  0  0  0
    6.5781   -2.2384   17.6802 H   0  0  0  0  0  0  0  0  0  0  0  0
    4.3385   -1.9536   19.8378 H   0  0  0  0  0  0  0  0  0  0  0  0
    4.6780   -0.2765   20.3006 H   0  0  0  0  0  0  0  0  0  0  0  0
    4.6810   -0.7506   18.5933 H   0  0  0  0  0  0  0  0  0  0  0  0
    6.9250   -2.1707   23.4897 H   0  0  0  0  0  0  0  0  0  0  0  0
   12.5057   -0.2329   24.6313 H   0  0  0  0  0  0  0  0  0  0  0  0
    7.4406   -1.2983   21.5593 H   0  0  0  0  0  0  0  0  0  0  0  0
  1  2  2  0  0  0  0
  1  5  1  0  0  0  0
  2  8  1  0  0  0  0
  3  4  2  0  0  0  0
  3  9  1  0  0  0  0
  4 10  1  0  0  0  0
  5 23  2  0  0  0  0
  6  8  2  0  0  0  0
  6 23  1  0  0  0  0
  7  9  2  0  0  0  0
  7 24  1  0  0  0  0
  8 20  1  0  0  0  0
  9 26  1  0  0  0  0
 10 21  1  0  0  0  0
 10 24  2  0  0  0  0
 11 12  2  0  0  0  0
 12 13  1  0  0  0  0
 13 26  1  0  0  0  0
 13 27  2  0  0  0  0
 14 20  1  0  0  0  0
 14 25  1  0  0  0  0
 14 28  2  0  0  0  0
 15 21  1  0  0  0  0
 16 21  1  0  0  0  0
 17 22  1  0  0  0  0
 18 22  1  0  0  0  0
 19 22  1  0  0  0  0
 20 26  1  0  0  0  0
 22 25  1  0  0  0  0
  1 29  1  0  0  0  0
  2 30  1  0  0  0  0
  3 31  1  0  0  0  0
  4 32  1  0  0  0  0
  5 33  1  0  0  0  0
  6 34  1  0  0  0  0
  7 35  1  0  0  0  0
 11 36  1  0  0  0  0
 11 37  1  0  0  0  0
 12 38  1  0  0  0  0
 15 39  1  0  0  0  0
 15 40  1  0  0  0  0
 15 41  1  0  0  0  0
 16 42  1  0  0  0  0
 16 43  1  0  0  0  0
 16 44  1  0  0  0  0
 17 45  1  0  0  0  0
 17 46  1  0  0  0  0
 17 47  1  0  0  0  0
 18 48  1  0  0  0  0
 18 49  1  0  0  0  0
 18 50  1  0  0  0  0
 19 51  1  0  0  0  0
 19 52  1  0  0  0  0
 19 53  1  0  0  0  0
 20 54  1  0  0  0  0
 21 55  1  0  0  0  0
 25 56  1  0  0  0  0
M  END
> <IC50 (uM)>

> <IC50 (uM) - std>

> <Average Inhibition @ 20 uM>

> <Average Inhibition @ 20 uM - std>
11.7

> <Average Inhibition @ 50 uM>
8.33

> <Average Inhibition @ 50 uM - std>
11.4

> <Trypsin IC50 (uM)>
1.46

> <Relative Solubility @ 20 uM>
1.0

> <Relative Solubility @ 100 uM>
0.99

> <Hybrid2>
-5.736517

> <docked_fragment>
x0749

> <Mpro-_dock>
1.734861

> <site>
active-covalent

$$$$
LON-WEI-b8d98729-19
  -OEChem-05192003313D

 56 58  0     1  0  0  0  0  0999 V2000
    5.4675   -0.7623   17.8719 C   0  0  0  0  0  0  0  0  0  0  0  0
    6.1269    0.4607   17.7498 C   0  0  0  0  0  0  0  0  0  0  0  0
    3.1085   -5.1842   23.7070 C   0  0  0  0  0  0  0  0  0  0  0  0
    4.0696   -4.3579   23.1354 C   0  0  0  0  0  0  0  0  0  0  0  0
   11.3079   -3.7542   23.5155 C   0  0  0  0  0  0  0  0  0  0  0  0
    9.8717   -2.7304   25.1666 C   0  0  0  0  0  0  0  0  0  0  0  0
    5.6487   -1.5414   19.0146 C   0  0  0  0  0  0  0  0  0  0  0  0
   10.1871   -4.2336   22.8377 C   0  0  0  0  0  0  0  0  0  0  0  0
    8.7508   -3.2097   24.4888 C   0  0  0  0  0  0  0  0  0  0  0  0
    6.9678    0.9046   18.7704 C   0  0  0  0  0  0  0  0  0  0  0  0
    3.5431   -6.2191   24.5193 C   0  0  0  0  0  0  0  0  0  0  0  0
    5.7482   -5.6499   24.2166 C   0  0  0  0  0  0  0  0  0  0  0  0
   11.1503   -3.0027   24.6800 C   0  0  0  0  0  0  0  0  0  0  0  0
    5.4169   -4.5885   23.3899 C   0  0  0  0  0  0  0  0  0  0  0  0
    8.9085   -3.9613   23.3243 C   0  0  0  0  0  0  0  0  0  0  0  0
    6.4896   -1.0975   20.0352 C   0  0  0  0  0  0  0  0  0  0  0  0
    7.1491    0.1255   19.9131 C   0  0  0  0  0  0  0  0  0  0  0  0
    9.3622   -7.4922   21.4489 C   0  0  0  0  0  0  0  0  0  0  0  0
    8.8030   -6.6546   22.3280 C   0  0  0  0  0  0  0  0  0  0  0  0
    7.7877   -5.6579   21.8774 C   0  0  0  0  0  0  0  0  0  0  0  0
    6.0541   -3.1498   21.4298 C   0  0  0  0  0  0  0  0  0  0  0  0
   12.4197   -2.9669   26.8563 C   0  0  0  0  0  0  0  0  0  0  0  0
   12.7797   -0.5371   24.1708 C   0  0  0  0  0  0  0  0  0  0  0  0
    6.4865   -3.7071   22.7837 C   0  0  2  0  0  0  0  0  0  0  0  0
   12.3488   -2.4902   25.4047 C   0  0  2  0  0  0  0  0  0  0  0  0
    4.8429   -6.4742   24.7898 N   0  0  0  0  0  0  0  0  0  0  0  0
    6.6482   -1.9154   21.1791 N   0  0  0  0  0  0  0  0  0  0  0  0
    7.7409   -4.4601   22.6185 N   0  0  0  0  0  0  0  0  0  0  0  0
    7.0649   -5.9372   20.9205 O   0  0  0  0  0  0  0  0  0  0  0  0
    5.2696   -3.7550   20.7042 O   0  0  0  0  0  0  0  0  0  0  0  0
   12.3185   -1.0583   25.4053 O   0  0  0  0  0  0  0  0  0  0  0  0
    8.3074    0.7763   21.2690 Br  0  0  0  0  0  0  0  0  0  0  0  0
    4.8129   -1.1078   17.0770 H   0  0  0  0  0  0  0  0  0  0  0  0
    5.9853    1.0671   16.8600 H   0  0  0  0  0  0  0  0  0  0  0  0
    2.0524   -5.0232   23.5227 H   0  0  0  0  0  0  0  0  0  0  0  0
    3.7598   -3.5375   22.4937 H   0  0  0  0  0  0  0  0  0  0  0  0
   12.3005   -3.9730   23.1304 H   0  0  0  0  0  0  0  0  0  0  0  0
    9.7397   -2.1462   26.0736 H   0  0  0  0  0  0  0  0  0  0  0  0
    5.1286   -2.4926   19.0969 H   0  0  0  0  0  0  0  0  0  0  0  0
   10.3217   -4.8179   21.9309 H   0  0  0  0  0  0  0  0  0  0  0  0
    7.7590   -2.9926   24.8774 H   0  0  0  0  0  0  0  0  0  0  0  0
    7.4728    1.8605   18.6570 H   0  0  0  0  0  0  0  0  0  0  0  0
    2.8327   -6.8919   24.9885 H   0  0  0  0  0  0  0  0  0  0  0  0
    6.7832   -5.8785   24.4514 H   0  0  0  0  0  0  0  0  0  0  0  0
   10.0825   -8.2304   21.7853 H   0  0  0  0  0  0  0  0  0  0  0  0
    9.1308   -7.4658   20.3897 H   0  0  0  0  0  0  0  0  0  0  0  0
    9.0501   -6.7253   23.3809 H   0  0  0  0  0  0  0  0  0  0  0  0
   11.5087   -2.7031   27.4029 H   0  0  0  0  0  0  0  0  0  0  0  0
   13.2763   -2.5270   27.3792 H   0  0  0  0  0  0  0  0  0  0  0  0
   12.5530   -4.0533   26.9040 H   0  0  0  0  0  0  0  0  0  0  0  0
   12.7456    0.5547   24.1999 H   0  0  0  0  0  0  0  0  0  0  0  0
   12.1506   -0.9104   23.3588 H   0  0  0  0  0  0  0  0  0  0  0  0
   13.8101   -0.8630   24.0101 H   0  0  0  0  0  0  0  0  0  0  0  0
    6.7048   -2.8651   23.4520 H   0  0  0  0  0  0  0  0  0  0  0  0
   13.2886   -2.7822   24.9057 H   0  0  0  0  0  0  0  0  0  0  0  0
    7.2689   -1.5599   21.9032 H   0  0  0  0  0  0  0  0  0  0  0  0
  1  2  1  0  0  0  0
  1  7  2  0  0  0  0
  2 10  2  0  0  0  0
  3  4  2  0  0  0  0
  3 11  1  0  0  0  0
  4 14  1  0  0  0  0
  5  8  2  0  0  0  0
  5 13  1  0  0  0  0
  6  9  1  0  0  0  0
  6 13  2  0  0  0  0
  7 16  1  0  0  0  0
  8 15  1  0  0  0  0
  9 15  2  0  0  0  0
 10 17  1  0  0  0  0
 11 26  2  0  0  0  0
 12 14  2  0  0  0  0
 12 26  1  0  0  0  0
 13 25  1  0  0  0  0
 14 24  1  0  0  0  0
 15 28  1  0  0  0  0
 16 17  2  0  0  0  0
 16 27  1  0  0  0  0
 17 32  1  0  0  0  0
 18 19  2  0  0  0  0
 19 20  1  0  0  0  0
 20 28  1  0  0  0  0
 20 29  2  0  0  0  0
 21 24  1  0  0  0  0
 21 27  1  0  0  0  0
 21 30  2  0  0  0  0
 22 25  1  0  0  0  0
 23 31  1  0  0  0  0
 24 28  1  0  0  0  0
 25 31  1  0  0  0  0
  1 33  1  0  0  0  0
  2 34  1  0  0  0  0
  3 35  1  0  0  0  0
  4 36  1  0  0  0  0
  5 37  1  0  0  0  0
  6 38  1  0  0  0  0
  7 39  1  0  0  0  0
  8 40  1  0  0  0  0
  9 41  1  0  0  0  0
 10 42  1  0  0  0  0
 11 43  1  0  0  0  0
 12 44  1  0  0  0  0
 18 45  1  0  0  0  0
 18 46  1  0  0  0  0
 19 47  1  0  0  0  0
 22 48  1  0  0  0  0
 22 49  1  0  0  0  0
 22 50  1  0  0  0  0
 23 51  1  0  0  0  0
 23 52  1  0  0  0  0
 23 53  1  0  0  0  0
 24 54  1  0  0  0  0
 25 55  1  0  0  0  0
 27 56  1  0  0  0  0
M  END
> <IC50 (uM)>

> <IC50 (uM) - std>

> <Average Inhibition @ 20 uM>

> <Average Inhibition @ 20 uM - std>
3.04

> <Average Inhibition @ 50 uM>
4.9

> <Average Inhibition @ 50 uM - std>
9.73

> <Trypsin IC50 (uM)>
0.763

> <Relative Solubility @ 20 uM>
0.89

> <Relative Solubility @ 100 uM>
0.84

> <Hybrid2>
-5.576895

> <docked_fragment>
x0749

> <Mpro-_dock>
4.531846

> <site>
active-covalent

$$$$
LON-WEI-b8d98729-5
  -OEChem-05192003313D

 84 86  0     1  0  0  0  0  0999 V2000
    4.7091   -5.8322   27.0526 C   0  0  0  0  0  0  0  0  0  0  0  0
    5.6269   -6.5943   26.3299 C   0  0  0  0  0  0  0  0  0  0  0  0
    4.4193   -4.5271   26.6546 C   0  0  0  0  0  0  0  0  0  0  0  0
    6.2551   -6.0513   25.2091 C   0  0  0  0  0  0  0  0  0  0  0  0
    5.0475   -3.9841   25.5338 C   0  0  0  0  0  0  0  0  0  0  0  0
    5.9654   -4.7462   24.8110 C   0  0  0  0  0  0  0  0  0  0  0  0
    6.5039    0.7991   18.3137 C   0  0  0  0  0  0  0  0  0  0  0  0
    8.7701   -0.3220   20.2769 C   0  0  0  0  0  0  0  0  0  0  0  0
   11.9464    2.0819   23.6807 C   0  0  0  0  0  0  0  0  0  0  0  0
    5.2782    6.1026   23.1828 C   0  0  0  0  0  0  0  0  0  0  0  0
    6.5948    5.4369   23.5708 C   0  0  0  0  0  0  0  0  0  0  0  0
    4.2279    5.0738   22.7758 C   0  0  0  0  0  0  0  0  0  0  0  0
    7.1096    4.5190   22.4644 C   0  0  0  0  0  0  0  0  0  0  0  0
    4.7387    4.1551   21.6681 C   0  0  0  0  0  0  0  0  0  0  0  0
    5.5835    1.5181   20.4877 C   0  0  0  0  0  0  0  0  0  0  0  0
    7.8248    1.8084   21.2814 C   0  0  0  0  0  0  0  0  0  0  0  0
    6.4645    0.4823   19.7970 C   0  0  2  0  0  0  0  0  0  0  0  0
    6.0588    3.4767   22.0583 C   0  0  0  0  0  0  0  0  0  0  0  0
    6.5765    2.6060   20.9150 C   0  0  2  0  0  0  0  0  0  0  0  0
   13.0382    3.8654   22.3282 C   0  0  0  0  0  0  0  0  0  0  0  0
   14.9324   -0.0411   22.7188 C   0  0  0  0  0  0  0  0  0  0  0  0
   14.1253   -1.7669   24.3458 C   0  0  0  0  0  0  0  0  0  0  0  0
    6.6444   -4.1584   23.5995 C   0  0  0  0  0  0  0  0  0  0  0  0
   10.0260   -0.0760   21.0742 C   0  0  0  0  0  0  0  0  0  0  0  0
   11.7628    3.4207   23.0156 C   0  0  0  0  0  0  0  0  0  0  0  0
    7.9607   -3.4390   23.9167 C   0  0  0  0  0  0  0  0  0  0  0  0
    8.6743   -2.9202   22.6643 C   0  0  0  0  0  0  0  0  0  0  0  0
    9.9682   -2.1910   23.0042 C   0  0  0  0  0  0  0  0  0  0  0  0
   13.8768   -0.3657   23.7775 C   0  0  0  0  0  0  0  0  0  0  0  0
   12.4528   -0.2153   23.2021 C   0  0  1  0  0  0  0  0  0  0  0  0
    7.7706    0.6246   20.4285 N   0  0  0  0  0  0  0  0  0  0  0  0
    7.5835    0.5074   17.7286 O   0  5  0  0  0  0  0  0  0  0  0  0
    5.4470    1.3160   17.8543 O   0  0  0  0  0  0  0  0  0  0  0  0
    8.6810   -1.3084   19.5439 O   0  0  0  0  0  0  0  0  0  0  0  0
   11.8242    1.8984   24.8846 O   0  0  0  0  0  0  0  0  0  0  0  0
   10.9179   -2.5891   20.4652 O   0  0  0  0  0  0  0  0  0  0  0  0
   12.2511    1.1387   22.7448 O   0  0  0  0  0  0  0  0  0  0  0  0
   12.2910   -1.1180   22.1100 O   0  0  0  0  0  0  0  0  0  0  0  0
   10.8375   -1.5803   21.5756 P   0  0  1  0  0  0  0  0  0  0  0  0
    4.2190   -6.2557   27.9245 H   0  0  0  0  0  0  0  0  0  0  0  0
    5.8518   -7.6109   26.6391 H   0  0  0  0  0  0  0  0  0  0  0  0
    3.7039   -3.9339   27.2164 H   0  0  0  0  0  0  0  0  0  0  0  0
    6.9690   -6.6524   24.6522 H   0  0  0  0  0  0  0  0  0  0  0  0
    4.8156   -2.9664   25.2311 H   0  0  0  0  0  0  0  0  0  0  0  0
    4.9045    6.6982   24.0233 H   0  0  0  0  0  0  0  0  0  0  0  0
    5.4515    6.7955   22.3503 H   0  0  0  0  0  0  0  0  0  0  0  0
    7.3445    6.2053   23.7913 H   0  0  0  0  0  0  0  0  0  0  0  0
    6.4534    4.8557   24.4904 H   0  0  0  0  0  0  0  0  0  0  0  0
    3.9487    4.4716   23.6491 H   0  0  0  0  0  0  0  0  0  0  0  0
    3.3204    5.5879   22.4395 H   0  0  0  0  0  0  0  0  0  0  0  0
    7.3889    5.1263   21.5938 H   0  0  0  0  0  0  0  0  0  0  0  0
    8.0224    4.0167   22.8064 H   0  0  0  0  0  0  0  0  0  0  0  0
    3.9784    3.3961   21.4484 H   0  0  0  0  0  0  0  0  0  0  0  0
    4.8769    4.7407   20.7500 H   0  0  0  0  0  0  0  0  0  0  0  0
    4.7972    1.9274   19.8444 H   0  0  0  0  0  0  0  0  0  0  0  0
    5.1057    1.0684   21.3671 H   0  0  0  0  0  0  0  0  0  0  0  0
    8.7461    2.3710   21.1050 H   0  0  0  0  0  0  0  0  0  0  0  0
    7.8107    1.4689   22.3231 H   0  0  0  0  0  0  0  0  0  0  0  0
    6.0850   -0.5364   19.9257 H   0  0  0  0  0  0  0  0  0  0  0  0
    5.8704    2.8212   22.9182 H   0  0  0  0  0  0  0  0  0  0  0  0
    6.8003    3.2460   20.0514 H   0  0  0  0  0  0  0  0  0  0  0  0
   13.8594    3.9577   23.0467 H   0  0  0  0  0  0  0  0  0  0  0  0
   13.3312    3.1419   21.5615 H   0  0  0  0  0  0  0  0  0  0  0  0
   12.9083    4.8399   21.8461 H   0  0  0  0  0  0  0  0  0  0  0  0
   14.8669   -0.7184   21.8608 H   0  0  0  0  0  0  0  0  0  0  0  0
   14.8116    0.9839   22.3525 H   0  0  0  0  0  0  0  0  0  0  0  0
   15.9403   -0.1281   23.1385 H   0  0  0  0  0  0  0  0  0  0  0  0
   14.0259   -2.5385   23.5751 H   0  0  0  0  0  0  0  0  0  0  0  0
   13.4205   -1.9974   25.1509 H   0  0  0  0  0  0  0  0  0  0  0  0
   15.1359   -1.8392   24.7623 H   0  0  0  0  0  0  0  0  0  0  0  0
    5.9639   -3.4726   23.0793 H   0  0  0  0  0  0  0  0  0  0  0  0
    6.8431   -4.9727   22.8908 H   0  0  0  0  0  0  0  0  0  0  0  0
   10.7105    0.5242   20.4685 H   0  0  0  0  0  0  0  0  0  0  0  0
    9.7561    0.5017   21.9626 H   0  0  0  0  0  0  0  0  0  0  0  0
   10.9499    3.3324   22.2863 H   0  0  0  0  0  0  0  0  0  0  0  0
   11.4383    4.1524   23.7635 H   0  0  0  0  0  0  0  0  0  0  0  0
    7.7785   -2.6128   24.6136 H   0  0  0  0  0  0  0  0  0  0  0  0
    8.6206   -4.1476   24.4330 H   0  0  0  0  0  0  0  0  0  0  0  0
    8.9053   -3.7619   22.0010 H   0  0  0  0  0  0  0  0  0  0  0  0
    8.0179   -2.2368   22.1144 H   0  0  0  0  0  0  0  0  0  0  0  0
   10.6428   -2.8789   23.5248 H   0  0  0  0  0  0  0  0  0  0  0  0
    9.7718   -1.3514   23.6791 H   0  0  0  0  0  0  0  0  0  0  0  0
   13.9943    0.3440   24.6061 H   0  0  0  0  0  0  0  0  0  0  0  0
   11.7157   -0.4522   23.9764 H   0  0  0  0  0  0  0  0  0  0  0  0
  1  2  1  0  0  0  0
  1  3  2  0  0  0  0
  2  4  2  0  0  0  0
  3  5  1  0  0  0  0
  4  6  1  0  0  0  0
  5  6  2  0  0  0  0
  6 23  1  0  0  0  0
  7 17  1  0  0  0  0
  7 32  1  0  0  0  0
  7 33  2  0  0  0  0
  8 24  1  0  0  0  0
  8 31  1  0  0  0  0
  8 34  2  0  0  0  0
  9 25  1  0  0  0  0
  9 35  2  0  0  0  0
  9 37  1  0  0  0  0
 10 11  1  0  0  0  0
 10 12  1  0  0  0  0
 11 13  1  0  0  0  0
 12 14  1  0  0  0  0
 13 18  1  0  0  0  0
 14 18  1  0  0  0  0
 15 17  1  0  0  0  0
 15 19  1  0  0  0  0
 16 19  1  0  0  0  0
 16 31  1  0  0  0  0
 17 31  1  0  0  0  0
 18 19  1  0  0  0  0
 20 25  1  0  0  0  0
 21 29  1  0  0  0  0
 22 29  1  0  0  0  0
 23 26  1  0  0  0  0
 24 39  1  0  0  0  0
 26 27  1  0  0  0  0
 27 28  1  0  0  0  0
 28 39  1  0  0  0  0
 29 30  1  0  0  0  0
 30 37  1  0  0  0  0
 30 38  1  0  0  0  0
 36 39  2  0  0  0  0
 38 39  1  0  0  0  0
  1 40  1  0  0  0  0
  2 41  1  0  0  0  0
  3 42  1  0  0  0  0
  4 43  1  0  0  0  0
  5 44  1  0  0  0  0
 10 45  1  0  0  0  0
 10 46  1  0  0  0  0
 11 47  1  0  0  0  0
 11 48  1  0  0  0  0
 12 49  1  0  0  0  0
 12 50  1  0  0  0  0
 13 51  1  0  0  0  0
 13 52  1  0  0  0  0
 14 53  1  0  0  0  0
 14 54  1  0  0  0  0
 15 55  1  0  0  0  0
 15 56  1  0  0  0  0
 16 57  1  0  0  0  0
 16 58  1  0  0  0  0
 17 59  1  0  0  0  0
 18 60  1  0  0  0  0
 19 61  1  0  0  0  0
 20 62  1  0  0  0  0
 20 63  1  0  0  0  0
 20 64  1  0  0  0  0
 21 65  1  0  0  0  0
 21 66  1  0  0  0  0
 21 67  1  0  0  0  0
 22 68  1  0  0  0  0
 22 69  1  0  0  0  0
 22 70  1  0  0  0  0
 23 71  1  0  0  0  0
 23 72  1  0  0  0  0
 24 73  1  0  0  0  0
 24 74  1  0  0  0  0
 25 75  1  0  0  0  0
 25 76  1  0  0  0  0
 26 77  1  0  0  0  0
 26 78  1  0  0  0  0
 27 79  1  0  0  0  0
 27 80  1  0  0  0  0
 28 81  1  0  0  0  0
 28 82  1  0  0  0  0
 29 83  1  0  0  0  0
 30 84  1  0  0  0  0
M  CHG  1  32  -1
M  END
> <IC50 (uM)>

> <IC50 (uM) - std>

> <Average Inhibition @ 20 uM>

> <Average Inhibition @ 20 uM - std>
4.91

> <Average Inhibition @ 50 uM>
5.73

> <Average Inhibition @ 50 uM - std>
-0.253

> <Trypsin IC50 (uM)>
1.1

> <Relative Solubility @ 20 uM>
1.0

> <Relative Solubility @ 100 uM>
0.92

> <Hybrid2>
-5.570315

> <docked_fragment>
x0678

> <Mpro-_dock>
7.501105

> <site>
active-noncovalent

$$$$
LON-WEI-b8d98729-25
  -OEChem-05192003313D

 52 55  0     1  0  0  0  0  0999 V2000
    7.6067   -5.9866   26.6161 C   0  0  0  0  0  0  0  0  0  0  0  0
    8.2836   -5.4376   25.5328 C   0  0  0  0  0  0  0  0  0  0  0  0
    6.4230   -0.1601   22.2556 C   0  0  0  0  0  0  0  0  0  0  0  0
    6.6251   -1.4640   22.7172 C   0  0  0  0  0  0  0  0  0  0  0  0
   12.0697   -1.1888   22.2473 C   0  0  0  0  0  0  0  0  0  0  0  0
   10.7423   -0.2366   24.0272 C   0  0  0  0  0  0  0  0  0  0  0  0
   12.9218   -0.0854   22.2924 C   0  0  0  0  0  0  0  0  0  0  0  0
   11.5944    0.8668   24.0724 C   0  0  0  0  0  0  0  0  0  0  0  0
    7.5357   -2.1241   20.5693 C   0  0  0  0  0  0  0  0  0  0  0  0
    6.2802   -5.6309   26.7999 C   0  0  0  0  0  0  0  0  0  0  0  0
    6.2955   -4.2704   24.9488 C   0  0  0  0  0  0  0  0  0  0  0  0
    7.0719    1.3730   19.1011 C   0  0  0  0  0  0  0  0  0  0  0  0
    7.6227   -4.5621   24.6783 C   0  0  0  0  0  0  0  0  0  0  0  0
    6.7794    0.1774   20.9319 C   0  0  0  0  0  0  0  0  0  0  0  0
   10.9799   -1.2644   23.1147 C   0  0  0  0  0  0  0  0  0  0  0  0
    7.1744   -2.4317   21.8834 C   0  0  0  0  0  0  0  0  0  0  0  0
   12.6841    0.9424   23.2050 C   0  0  0  0  0  0  0  0  0  0  0  0
    7.3300   -0.8124   20.1122 C   0  0  0  0  0  0  0  0  0  0  0  0
    6.2017   -7.2153   22.3381 C   0  0  0  0  0  0  0  0  0  0  0  0
    7.0908   -6.2173   22.3649 C   0  0  0  0  0  0  0  0  0  0  0  0
    6.7490   -4.8885   21.7779 C   0  0  0  0  0  0  0  0  0  0  0  0
    8.9901   -2.6206   23.8545 C   0  0  0  0  0  0  0  0  0  0  0  0
   13.2141    3.0335   24.2062 C   0  0  0  0  0  0  0  0  0  0  0  0
    8.3310   -3.9487   23.4907 C   0  0  2  0  0  0  0  0  0  0  0  0
    5.6048   -4.7839   25.9913 N   0  0  0  0  0  0  0  0  0  0  0  0
    6.6380    1.4235   20.3388 N   0  0  0  0  0  0  0  0  0  0  0  0
   10.1153   -2.3837   23.0689 N   0  0  0  0  0  0  0  0  0  0  0  0
    7.3681   -3.7282   22.3633 N   0  0  0  0  0  0  0  0  0  0  0  0
    5.9428   -4.8393   20.8485 O   0  0  0  0  0  0  0  0  0  0  0  0
    8.5440   -1.9020   24.7450 O   0  0  0  0  0  0  0  0  0  0  0  0
   13.5156    2.0192   23.2491 O   0  0  0  0  0  0  0  0  0  0  0  0
    7.6702   -0.1364   18.5630 S   0  0  0  0  0  0  0  0  0  0  0  0
    8.1017   -6.6715   27.2951 H   0  0  0  0  0  0  0  0  0  0  0  0
    9.3248   -5.6975   25.3621 H   0  0  0  0  0  0  0  0  0  0  0  0
    5.9940    0.5883   22.9159 H   0  0  0  0  0  0  0  0  0  0  0  0
    6.3454   -1.7098   23.7391 H   0  0  0  0  0  0  0  0  0  0  0  0
   12.2645   -1.9840   21.5321 H   0  0  0  0  0  0  0  0  0  0  0  0
    9.8961   -0.2847   24.7080 H   0  0  0  0  0  0  0  0  0  0  0  0
   13.7691   -0.0322   21.6142 H   0  0  0  0  0  0  0  0  0  0  0  0
   11.4040    1.6644   24.7855 H   0  0  0  0  0  0  0  0  0  0  0  0
    7.9659   -2.8779   19.9155 H   0  0  0  0  0  0  0  0  0  0  0  0
    5.7084   -6.0317   27.6305 H   0  0  0  0  0  0  0  0  0  0  0  0
    5.7280   -3.5940   24.3171 H   0  0  0  0  0  0  0  0  0  0  0  0
    7.0544    2.2375   18.4517 H   0  0  0  0  0  0  0  0  0  0  0  0
    6.4465   -8.1723   22.7869 H   0  0  0  0  0  0  0  0  0  0  0  0
    5.2270   -7.1156   21.8735 H   0  0  0  0  0  0  0  0  0  0  0  0
    8.0483   -6.3537   22.8541 H   0  0  0  0  0  0  0  0  0  0  0  0
   13.9548    3.8339   24.1355 H   0  0  0  0  0  0  0  0  0  0  0  0
   13.2227    2.6023   25.2104 H   0  0  0  0  0  0  0  0  0  0  0  0
   12.2218    3.4386   23.9943 H   0  0  0  0  0  0  0  0  0  0  0  0
    9.1061   -4.6309   23.1203 H   0  0  0  0  0  0  0  0  0  0  0  0
   10.3424   -3.0993   22.3816 H   0  0  0  0  0  0  0  0  0  0  0  0
  1  2  2  0  0  0  0
  1 10  1  0  0  0  0
  2 13  1  0  0  0  0
  3  4  2  0  0  0  0
  3 14  1  0  0  0  0
  4 16  1  0  0  0  0
  5  7  2  0  0  0  0
  5 15  1  0  0  0  0
  6  8  1  0  0  0  0
  6 15  2  0  0  0  0
  7 17  1  0  0  0  0
  8 17  2  0  0  0  0
  9 16  2  0  0  0  0
  9 18  1  0  0  0  0
 10 25  2  0  0  0  0
 11 13  2  0  0  0  0
 11 25  1  0  0  0  0
 12 26  2  0  0  0  0
 12 32  1  0  0  0  0
 13 24  1  0  0  0  0
 14 18  2  0  0  0  0
 14 26  1  0  0  0  0
 15 27  1  0  0  0  0
 16 28  1  0  0  0  0
 17 31  1  0  0  0  0
 18 32  1  0  0  0  0
 19 20  2  0  0  0  0
 20 21  1  0  0  0  0
 21 28  1  0  0  0  0
 21 29  2  0  0  0  0
 22 24  1  0  0  0  0
 22 27  1  0  0  0  0
 22 30  2  0  0  0  0
 23 31  1  0  0  0  0
 24 28  1  0  0  0  0
  1 33  1  0  0  0  0
  2 34  1  0  0  0  0
  3 35  1  0  0  0  0
  4 36  1  0  0  0  0
  5 37  1  0  0  0  0
  6 38  1  0  0  0  0
  7 39  1  0  0  0  0
  8 40  1  0  0  0  0
  9 41  1  0  0  0  0
 10 42  1  0  0  0  0
 11 43  1  0  0  0  0
 12 44  1  0  0  0  0
 19 45  1  0  0  0  0
 19 46  1  0  0  0  0
 20 47  1  0  0  0  0
 23 48  1  0  0  0  0
 23 49  1  0  0  0  0
 23 50  1  0  0  0  0
 24 51  1  0  0  0  0
 27 52  1  0  0  0  0
M  END
> <IC50 (uM)>

> <IC50 (uM) - std>

> <Average Inhibition @ 20 uM>

> <Average Inhibition @ 20 uM - std>
4.02

> <Average Inhibition @ 50 uM>
4.23

> <Average Inhibition @ 50 uM - std>
15.4

> <Trypsin IC50 (uM)>
1.5

> <Relative Solubility @ 20 uM>
0.92

> <Relative Solubility @ 100 uM>
0.87

> <Hybrid2>
-5.472166

> <docked_fragment>
x0759

> <Mpro-_dock>
5.212279

> <site>
active-covalent

$$$$
LON-WEI-b8d98729-44
  -OEChem-05192003313D

 48 51  0     1  0  0  0  0  0999 V2000
    7.4468    0.0614   18.3134 C   0  0  0  0  0  0  0  0  0  0  0  0
    8.2206   -0.4537   19.3474 C   0  0  0  0  0  0  0  0  0  0  0  0
   11.7810    0.6414   24.3624 C   0  0  0  0  0  0  0  0  0  0  0  0
   10.4447    0.3392   24.0845 C   0  0  0  0  0  0  0  0  0  0  0  0
    7.9824   -3.5799   25.9557 C   0  0  0  0  0  0  0  0  0  0  0  0
    6.6103   -4.6508   24.2801 C   0  0  0  0  0  0  0  0  0  0  0  0
    7.5095   -4.4752   26.9151 C   0  0  0  0  0  0  0  0  0  0  0  0
    6.1375   -5.5461   25.2394 C   0  0  0  0  0  0  0  0  0  0  0  0
   11.0454   -0.4617   21.8762 C   0  0  0  0  0  0  0  0  0  0  0  0
    6.0686    0.0017   18.4430 C   0  0  0  0  0  0  0  0  0  0  0  0
    6.2162   -1.0169   20.4970 C   0  0  0  0  0  0  0  0  0  0  0  0
   14.7527    0.2860   22.4219 C   0  0  0  0  0  0  0  0  0  0  0  0
    7.6013   -1.0051   20.4636 C   0  0  0  0  0  0  0  0  0  0  0  0
   12.7726    0.3920   23.3890 C   0  0  0  0  0  0  0  0  0  0  0  0
    7.5327   -3.6676   24.6382 C   0  0  0  0  0  0  0  0  0  0  0  0
   10.0839   -0.2051   22.8569 C   0  0  0  0  0  0  0  0  0  0  0  0
   12.3857   -0.1559   22.1621 C   0  0  0  0  0  0  0  0  0  0  0  0
    6.5871   -5.4583   26.5570 C   0  0  0  0  0  0  0  0  0  0  0  0
    7.2312    2.2116   24.5686 C   0  0  0  0  0  0  0  0  0  0  0  0
    7.8937    1.6556   23.5492 C   0  0  0  0  0  0  0  0  0  0  0  0
    7.6480    0.2309   23.1791 C   0  0  0  0  0  0  0  0  0  0  0  0
    7.6741   -2.7035   22.3151 C   0  0  0  0  0  0  0  0  0  0  0  0
    8.4151   -1.5731   21.6053 C   0  0  2  0  0  0  0  0  0  0  0  0
    5.4311   -0.5261   19.5119 N   0  0  0  0  0  0  0  0  0  0  0  0
   14.1311    0.6392   23.5227 N   0  0  0  0  0  0  0  0  0  0  0  0
    8.0128   -2.7596   23.6648 N   0  0  0  0  0  0  0  0  0  0  0  0
    8.7441   -0.4998   22.5987 N   0  0  0  0  0  0  0  0  0  0  0  0
    6.5264   -0.2446   23.3587 O   0  0  0  0  0  0  0  0  0  0  0  0
    6.8994   -3.4434   21.7147 O   0  0  0  0  0  0  0  0  0  0  0  0
   13.7809   -0.3559   21.1691 S   0  0  0  0  0  0  0  0  0  0  0  0
    6.0037   -6.5631   27.7410 Cl  0  0  0  0  0  0  0  0  0  0  0  0
    7.9079    0.4962   17.4340 H   0  0  0  0  0  0  0  0  0  0  0  0
    9.3043   -0.4212   19.2750 H   0  0  0  0  0  0  0  0  0  0  0  0
   12.0519    1.0655   25.3252 H   0  0  0  0  0  0  0  0  0  0  0  0
    9.6915    0.5370   24.8437 H   0  0  0  0  0  0  0  0  0  0  0  0
    8.7008   -2.8175   26.2457 H   0  0  0  0  0  0  0  0  0  0  0  0
    6.2533   -4.7281   23.2563 H   0  0  0  0  0  0  0  0  0  0  0  0
    7.8685   -4.3954   27.9379 H   0  0  0  0  0  0  0  0  0  0  0  0
    5.4188   -6.3071   24.9465 H   0  0  0  0  0  0  0  0  0  0  0  0
   10.7667   -0.8877   20.9163 H   0  0  0  0  0  0  0  0  0  0  0  0
    5.4208    0.3898   17.6638 H   0  0  0  0  0  0  0  0  0  0  0  0
    5.6773   -1.4340   21.3420 H   0  0  0  0  0  0  0  0  0  0  0  0
   15.8226    0.3930   22.3081 H   0  0  0  0  0  0  0  0  0  0  0  0
    7.3964    3.2543   24.8188 H   0  0  0  0  0  0  0  0  0  0  0  0
    6.5246    1.6573   25.1763 H   0  0  0  0  0  0  0  0  0  0  0  0
    8.5796    2.2497   22.9565 H   0  0  0  0  0  0  0  0  0  0  0  0
    9.3687   -1.9648   21.2304 H   0  0  0  0  0  0  0  0  0  0  0  0
    8.6841   -2.0665   23.9889 H   0  0  0  0  0  0  0  0  0  0  0  0
  1  2  2  0  0  0  0
  1 10  1  0  0  0  0
  2 13  1  0  0  0  0
  3  4  2  0  0  0  0
  3 14  1  0  0  0  0
  4 16  1  0  0  0  0
  5  7  2  0  0  0  0
  5 15  1  0  0  0  0
  6  8  1  0  0  0  0
  6 15  2  0  0  0  0
  7 18  1  0  0  0  0
  8 18  2  0  0  0  0
  9 16  2  0  0  0  0
  9 17  1  0  0  0  0
 10 24  2  0  0  0  0
 11 13  2  0  0  0  0
 11 24  1  0  0  0  0
 12 25  2  0  0  0  0
 12 30  1  0  0  0  0
 13 23  1  0  0  0  0
 14 17  2  0  0  0  0
 14 25  1  0  0  0  0
 15 26  1  0  0  0  0
 16 27  1  0  0  0  0
 17 30  1  0  0  0  0
 18 31  1  0  0  0  0
 19 20  2  0  0  0  0
 20 21  1  0  0  0  0
 21 27  1  0  0  0  0
 21 28  2  0  0  0  0
 22 23  1  0  0  0  0
 22 26  1  0  0  0  0
 22 29  2  0  0  0  0
 23 27  1  0  0  0  0
  1 32  1  0  0  0  0
  2 33  1  0  0  0  0
  3 34  1  0  0  0  0
  4 35  1  0  0  0  0
  5 36  1  0  0  0  0
  6 37  1  0  0  0  0
  7 38  1  0  0  0  0
  8 39  1  0  0  0  0
  9 40  1  0  0  0  0
 10 41  1  0  0  0  0
 11 42  1  0  0  0  0
 12 43  1  0  0  0  0
 19 44  1  0  0  0  0
 19 45  1  0  0  0  0
 20 46  1  0  0  0  0
 23 47  1  0  0  0  0
 26 48  1  0  0  0  0
M  END
> <IC50 (uM)>

> <IC50 (uM) - std>

> <Average Inhibition @ 20 uM>

> <Average Inhibition @ 20 uM - std>
8.95

> <Average Inhibition @ 50 uM>
0.906

> <Average Inhibition @ 50 uM - std>
25.3

> <Trypsin IC50 (uM)>
0.217

> <Relative Solubility @ 20 uM>
0.87

> <Relative Solubility @ 100 uM>
0.69

> <Hybrid2>
-5.381918

> <docked_fragment>
x1392

> <Mpro-_dock>
3.649102

> <site>
active-covalent

$$$$
LON-WEI-d1c9908a-6
  -OEChem-05192003313D

 62 65  0     1  0  0  0  0  0999 V2000
    6.8427   -4.8804   30.2690 C   0  0  0  0  0  0  0  0  0  0  0  0
    6.5298   -6.0160   21.5946 C   0  0  0  0  0  0  0  0  0  0  0  0
    8.1737   -1.8527   20.2286 C   0  0  0  0  0  0  0  0  0  0  0  0
    6.5445   -1.1032   21.8475 C   0  0  0  0  0  0  0  0  0  0  0  0
    6.3674   -3.6118   30.6010 C   0  0  0  0  0  0  0  0  0  0  0  0
    7.5560   -5.4592   22.3497 C   0  0  0  0  0  0  0  0  0  0  0  0
    7.2968   -5.1386   28.9756 C   0  0  0  0  0  0  0  0  0  0  0  0
    8.8633   -2.5283   21.2353 C   0  0  0  0  0  0  0  0  0  0  0  0
    7.2341   -1.7790   22.8543 C   0  0  0  0  0  0  0  0  0  0  0  0
    6.8001   -2.8595   28.3462 C   0  0  0  0  0  0  0  0  0  0  0  0
    5.2336   -5.8873   22.0670 C   0  0  0  0  0  0  0  0  0  0  0  0
    5.9300   -4.7256   23.9226 C   0  0  0  0  0  0  0  0  0  0  0  0
    7.0143   -1.1401   20.5347 C   0  0  0  0  0  0  0  0  0  0  0  0
    6.3461   -2.6014   29.6397 C   0  0  0  0  0  0  0  0  0  0  0  0
    7.2589   -4.8001   23.5373 C   0  0  0  0  0  0  0  0  0  0  0  0
    8.3935   -2.4915   22.5481 C   0  0  0  0  0  0  0  0  0  0  0  0
    7.2754   -4.1282   28.0142 C   0  0  0  0  0  0  0  0  0  0  0  0
   12.3470   -3.9000   25.0885 C   0  0  0  0  0  0  0  0  0  0  0  0
   11.0379   -3.6313   25.0552 C   0  0  0  0  0  0  0  0  0  0  0  0
   10.4516   -2.8846   23.9037 C   0  0  0  0  0  0  0  0  0  0  0  0
    7.7866   -3.5068   25.6270 C   0  0  0  0  0  0  0  0  0  0  0  0
    7.0159    0.6684   18.6984 C   0  0  0  0  0  0  0  0  0  0  0  0
    5.9534    1.0482   19.6817 C   0  0  0  0  0  0  0  0  0  0  0  0
    6.2775   -0.4181   19.4593 C   0  0  0  0  0  0  0  0  0  0  0  0
    5.2800   -1.2505   18.7025 C   0  0  0  0  0  0  0  0  0  0  0  0
    6.9428   -0.3282   30.5134 C   0  0  0  0  0  0  0  0  0  0  0  0
    5.8378   -1.2453   29.9952 C   0  0  0  0  0  0  0  0  0  0  0  0
    8.3526   -4.1832   24.3810 C   0  0  2  0  0  0  0  0  0  0  0  0
    4.9061   -5.2542   23.2156 N   0  0  0  0  0  0  0  0  0  0  0  0
    7.7368   -4.3903   26.7023 N   0  0  0  0  0  0  0  0  0  0  0  0
    9.1117   -3.1950   23.5966 N   0  0  0  0  0  0  0  0  0  0  0  0
   11.1556   -2.0739   23.3010 O   0  0  0  0  0  0  0  0  0  0  0  0
    7.4269   -2.3325   25.6161 O   0  0  0  0  0  0  0  0  0  0  0  0
    6.8598   -5.6671   31.0176 H   0  0  0  0  0  0  0  0  0  0  0  0
    6.7379   -6.5342   20.6654 H   0  0  0  0  0  0  0  0  0  0  0  0
    8.5478   -1.8875   19.2087 H   0  0  0  0  0  0  0  0  0  0  0  0
    5.6420   -0.5507   22.0956 H   0  0  0  0  0  0  0  0  0  0  0  0
    6.0153   -3.4205   31.6109 H   0  0  0  0  0  0  0  0  0  0  0  0
    8.5831   -5.5436   22.0053 H   0  0  0  0  0  0  0  0  0  0  0  0
    7.6649   -6.1311   28.7280 H   0  0  0  0  0  0  0  0  0  0  0  0
    9.7658   -3.0804   20.9852 H   0  0  0  0  0  0  0  0  0  0  0  0
    6.8585   -1.7430   23.8738 H   0  0  0  0  0  0  0  0  0  0  0  0
    6.7817   -2.0701   27.5980 H   0  0  0  0  0  0  0  0  0  0  0  0
    4.3980   -6.3046   21.5148 H   0  0  0  0  0  0  0  0  0  0  0  0
    5.6374   -4.2237   24.8397 H   0  0  0  0  0  0  0  0  0  0  0  0
   12.7644   -4.4633   25.9165 H   0  0  0  0  0  0  0  0  0  0  0  0
   13.0300   -3.5696   24.3136 H   0  0  0  0  0  0  0  0  0  0  0  0
   10.3871   -3.9942   25.8423 H   0  0  0  0  0  0  0  0  0  0  0  0
    6.7982    0.8023   17.6451 H   0  0  0  0  0  0  0  0  0  0  0  0
    8.0452    0.8825   18.9624 H   0  0  0  0  0  0  0  0  0  0  0  0
    6.2697    1.5185   20.6057 H   0  0  0  0  0  0  0  0  0  0  0  0
    5.0202    1.4369   19.2907 H   0  0  0  0  0  0  0  0  0  0  0  0
    4.7777   -0.6556   17.9296 H   0  0  0  0  0  0  0  0  0  0  0  0
    4.5103   -1.6490   19.3749 H   0  0  0  0  0  0  0  0  0  0  0  0
    5.7701   -2.0994   18.2097 H   0  0  0  0  0  0  0  0  0  0  0  0
    7.4418   -0.7676   31.3838 H   0  0  0  0  0  0  0  0  0  0  0  0
    6.5333    0.6421   30.8113 H   0  0  0  0  0  0  0  0  0  0  0  0
    7.7020   -0.1541   29.7433 H   0  0  0  0  0  0  0  0  0  0  0  0
    5.3588   -0.7734   29.1222 H   0  0  0  0  0  0  0  0  0  0  0  0
    5.0452   -1.3196   30.7571 H   0  0  0  0  0  0  0  0  0  0  0  0
    9.0648   -4.9549   24.6981 H   0  0  0  0  0  0  0  0  0  0  0  0
    8.0713   -5.3349   26.5238 H   0  0  0  0  0  0  0  0  0  0  0  0
  1  5  1  0  0  0  0
  1  7  2  0  0  0  0
  2  6  2  0  0  0  0
  2 11  1  0  0  0  0
  3  8  2  0  0  0  0
  3 13  1  0  0  0  0
  4  9  1  0  0  0  0
  4 13  2  0  0  0  0
  5 14  2  0  0  0  0
  6 15  1  0  0  0  0
  7 17  1  0  0  0  0
  8 16  1  0  0  0  0
  9 16  2  0  0  0  0
 10 14  1  0  0  0  0
 10 17  2  0  0  0  0
 11 29  2  0  0  0  0
 12 15  2  0  0  0  0
 12 29  1  0  0  0  0
 13 24  1  0  0  0  0
 14 27  1  0  0  0  0
 15 28  1  0  0  0  0
 16 31  1  0  0  0  0
 17 30  1  0  0  0  0
 18 19  2  0  0  0  0
 19 20  1  0  0  0  0
 20 31  1  0  0  0  0
 20 32  2  0  0  0  0
 21 28  1  0  0  0  0
 21 30  1  0  0  0  0
 21 33  2  0  0  0  0
 22 23  1  0  0  0  0
 22 24  1  0  0  0  0
 23 24  1  0  0  0  0
 24 25  1  0  0  0  0
 26 27  1  0  0  0  0
 28 31  1  0  0  0  0
  1 34  1  0  0  0  0
  2 35  1  0  0  0  0
  3 36  1  0  0  0  0
  4 37  1  0  0  0  0
  5 38  1  0  0  0  0
  6 39  1  0  0  0  0
  7 40  1  0  0  0  0
  8 41  1  0  0  0  0
  9 42  1  0  0  0  0
 10 43  1  0  0  0  0
 11 44  1  0  0  0  0
 12 45  1  0  0  0  0
 18 46  1  0  0  0  0
 18 47  1  0  0  0  0
 19 48  1  0  0  0  0
 22 49  1  0  0  0  0
 22 50  1  0  0  0  0
 23 51  1  0  0  0  0
 23 52  1  0  0  0  0
 25 53  1  0  0  0  0
 25 54  1  0  0  0  0
 25 55  1  0  0  0  0
 26 56  1  0  0  0  0
 26 57  1  0  0  0  0
 26 58  1  0  0  0  0
 27 59  1  0  0  0  0
 27 60  1  0  0  0  0
 28 61  1  0  0  0  0
 30 62  1  0  0  0  0
M  END
> <IC50 (uM)>

> <IC50 (uM) - std>

> <Average Inhibition @ 20 uM>

> <Average Inhibition @ 20 uM - std>

> <Average Inhibition @ 50 uM>

> <Average Inhibition @ 50 uM - std>
49.0

> <Trypsin IC50 (uM)>
2.56

> <Relative Solubility @ 20 uM>

> <Relative Solubility @ 100 uM>

> <Hybrid2>
-5.348599

> <docked_fragment>
x1380

> <Mpro-_dock>
4.606168

> <site>
active-covalent

$$$$
LON-WEI-b8d98729-17
  -OEChem-05192003313D

 62 64  0     1  0  0  0  0  0999 V2000
   12.4824    1.4536   24.2078 C   0  0  0  0  0  0  0  0  0  0  0  0
    4.3740    0.7910   20.9756 C   0  0  0  0  0  0  0  0  0  0  0  0
   13.3984    0.8974   23.3149 C   0  0  0  0  0  0  0  0  0  0  0  0
    5.0697   -0.1374   21.7420 C   0  0  0  0  0  0  0  0  0  0  0  0
    7.5743   -4.1229   25.4999 C   0  0  0  0  0  0  0  0  0  0  0  0
    6.5305   -5.7800   24.0852 C   0  0  0  0  0  0  0  0  0  0  0  0
   11.1363    1.0941   24.1405 C   0  0  0  0  0  0  0  0  0  0  0  0
    7.4768   -3.1844   24.4726 C   0  0  0  0  0  0  0  0  0  0  0  0
    6.4329   -4.8415   23.0579 C   0  0  0  0  0  0  0  0  0  0  0  0
   11.6221   -0.3777   22.2871 C   0  0  0  0  0  0  0  0  0  0  0  0
    5.1061    1.6327   20.1539 C   0  0  0  0  0  0  0  0  0  0  0  0
    7.0957    0.6908   20.8116 C   0  0  0  0  0  0  0  0  0  0  0  0
    7.1012   -5.4207   25.3062 C   0  0  0  0  0  0  0  0  0  0  0  0
   12.9682   -0.0182   22.3546 C   0  0  0  0  0  0  0  0  0  0  0  0
    6.4568   -0.1949   21.6643 C   0  0  0  0  0  0  0  0  0  0  0  0
    6.9061   -3.5437   23.2516 C   0  0  0  0  0  0  0  0  0  0  0  0
   10.7062    0.1785   23.1801 C   0  0  0  0  0  0  0  0  0  0  0  0
    5.9047   -1.8668   18.7333 C   0  0  0  0  0  0  0  0  0  0  0  0
    6.7123   -2.0952   19.7739 C   0  0  0  0  0  0  0  0  0  0  0  0
    6.2329   -2.8983   20.9369 C   0  0  0  0  0  0  0  0  0  0  0  0
    8.7425   -1.0776   22.2251 C   0  0  0  0  0  0  0  0  0  0  0  0
   14.5669   -1.9028   21.9316 C   0  0  0  0  0  0  0  0  0  0  0  0
    7.9964   -7.6703   26.0037 C   0  0  0  0  0  0  0  0  0  0  0  0
    5.2872   -5.8821   27.6492 C   0  0  0  0  0  0  0  0  0  0  0  0
   13.9478   -0.6125   21.4002 C   0  0  0  0  0  0  0  0  0  0  0  0
    7.2426   -1.1939   22.4847 C   0  0  2  0  0  0  0  0  0  0  0  0
    7.2055   -6.4241   26.4046 C   0  0  2  0  0  0  0  0  0  0  0  0
    6.4539    1.6064   20.0517 N   0  0  0  0  0  0  0  0  0  0  0  0
    9.3406   -0.1865   23.1125 N   0  0  0  0  0  0  0  0  0  0  0  0
    6.8041   -2.5664   22.1817 N   0  0  0  0  0  0  0  0  0  0  0  0
    5.3999   -3.7843   20.7440 O   0  0  0  0  0  0  0  0  0  0  0  0
    9.2917   -1.7070   21.3248 O   0  0  0  0  0  0  0  0  0  0  0  0
    5.8886   -6.8350   26.7897 O   0  0  0  0  0  0  0  0  0  0  0  0
   12.8174    2.1662   24.9559 H   0  0  0  0  0  0  0  0  0  0  0  0
    3.2927    0.8536   21.0199 H   0  0  0  0  0  0  0  0  0  0  0  0
   14.4446    1.1841   23.3748 H   0  0  0  0  0  0  0  0  0  0  0  0
    4.5234   -0.8115   22.3962 H   0  0  0  0  0  0  0  0  0  0  0  0
    8.0225   -3.8349   26.4473 H   0  0  0  0  0  0  0  0  0  0  0  0
    6.1599   -6.7891   23.9254 H   0  0  0  0  0  0  0  0  0  0  0  0
   10.4313    1.5340   24.8414 H   0  0  0  0  0  0  0  0  0  0  0  0
    7.8485   -2.1757   24.6348 H   0  0  0  0  0  0  0  0  0  0  0  0
    5.9873   -5.1325   22.1099 H   0  0  0  0  0  0  0  0  0  0  0  0
   11.2889   -1.0914   21.5368 H   0  0  0  0  0  0  0  0  0  0  0  0
    4.6102    2.3744   19.5365 H   0  0  0  0  0  0  0  0  0  0  0  0
    8.1765    0.6927   20.7090 H   0  0  0  0  0  0  0  0  0  0  0  0
    6.2657   -1.3022   17.8800 H   0  0  0  0  0  0  0  0  0  0  0  0
    4.8803   -2.2211   18.7014 H   0  0  0  0  0  0  0  0  0  0  0  0
    7.7351   -1.7370   19.7586 H   0  0  0  0  0  0  0  0  0  0  0  0
   15.0575   -1.7348   22.8963 H   0  0  0  0  0  0  0  0  0  0  0  0
   15.3157   -2.2897   21.2333 H   0  0  0  0  0  0  0  0  0  0  0  0
   13.8036   -2.6755   22.0729 H   0  0  0  0  0  0  0  0  0  0  0  0
    7.5718   -8.1358   25.1085 H   0  0  0  0  0  0  0  0  0  0  0  0
    8.0049   -8.4136   26.8089 H   0  0  0  0  0  0  0  0  0  0  0  0
    9.0439   -7.4198   25.8031 H   0  0  0  0  0  0  0  0  0  0  0  0
    4.2859   -6.2209   27.9262 H   0  0  0  0  0  0  0  0  0  0  0  0
    5.2290   -4.9166   27.1404 H   0  0  0  0  0  0  0  0  0  0  0  0
    5.8972   -5.7808   28.5500 H   0  0  0  0  0  0  0  0  0  0  0  0
   13.4645   -0.8179   20.4314 H   0  0  0  0  0  0  0  0  0  0  0  0
   14.7521    0.1071   21.1772 H   0  0  0  0  0  0  0  0  0  0  0  0
    7.0615   -1.0292   23.5540 H   0  0  0  0  0  0  0  0  0  0  0  0
    7.6765   -5.9996   27.3076 H   0  0  0  0  0  0  0  0  0  0  0  0
    8.7235    0.2538   23.7917 H   0  0  0  0  0  0  0  0  0  0  0  0
  1  3  1  0  0  0  0
  1  7  2  0  0  0  0
  2  4  2  0  0  0  0
  2 11  1  0  0  0  0
  3 14  2  0  0  0  0
  4 15  1  0  0  0  0
  5  8  2  0  0  0  0
  5 13  1  0  0  0  0
  6  9  1  0  0  0  0
  6 13  2  0  0  0  0
  7 17  1  0  0  0  0
  8 16  1  0  0  0  0
  9 16  2  0  0  0  0
 10 14  1  0  0  0  0
 10 17  2  0  0  0  0
 11 28  2  0  0  0  0
 12 15  2  0  0  0  0
 12 28  1  0  0  0  0
 13 27  1  0  0  0  0
 14 25  1  0  0  0  0
 15 26  1  0  0  0  0
 16 30  1  0  0  0  0
 17 29  1  0  0  0  0
 18 19  2  0  0  0  0
 19 20  1  0  0  0  0
 20 30  1  0  0  0  0
 20 31  2  0  0  0  0
 21 26  1  0  0  0  0
 21 29  1  0  0  0  0
 21 32  2  0  0  0  0
 22 25  1  0  0  0  0
 23 27  1  0  0  0  0
 24 33  1  0  0  0  0
 26 30  1  0  0  0  0
 27 33  1  0  0  0  0
  1 34  1  0  0  0  0
  2 35  1  0  0  0  0
  3 36  1  0  0  0  0
  4 37  1  0  0  0  0
  5 38  1  0  0  0  0
  6 39  1  0  0  0  0
  7 40  1  0  0  0  0
  8 41  1  0  0  0  0
  9 42  1  0  0  0  0
 10 43  1  0  0  0  0
 11 44  1  0  0  0  0
 12 45  1  0  0  0  0
 18 46  1  0  0  0  0
 18 47  1  0  0  0  0
 19 48  1  0  0  0  0
 22 49  1  0  0  0  0
 22 50  1  0  0  0  0
 22 51  1  0  0  0  0
 23 52  1  0  0  0  0
 23 53  1  0  0  0  0
 23 54  1  0  0  0  0
 24 55  1  0  0  0  0
 24 56  1  0  0  0  0
 24 57  1  0  0  0  0
 25 58  1  0  0  0  0
 25 59  1  0  0  0  0
 26 60  1  0  0  0  0
 27 61  1  0  0  0  0
 29 62  1  0  0  0  0
M  END
> <IC50 (uM)>
67.8

> <IC50 (uM) - std>
23.15

> <Average Inhibition @ 20 uM>
> 49.5

> <Average Inhibition @ 20 uM - std>
36.6

> <Average Inhibition @ 50 uM>
3.78

> <Average Inhibition @ 50 uM - std>
63.7

> <Trypsin IC50 (uM)>
0.795

> <Relative Solubility @ 20 uM>
0.92

> <Relative Solubility @ 100 uM>
0.82

> <Hybrid2>
-5.173100

> <docked_fragment>
x0831

> <Mpro-_dock>
5.067852

> <site>
active-covalent

$$$$
LON-WEI-d1c9908a-2
  -OEChem-05192003313D

 56 59  0     1  0  0  0  0  0999 V2000
    7.0827   -1.6543   17.5479 C   0  0  0  0  0  0  0  0  0  0  0  0
    8.2904   -3.1565   23.5237 C   0  0  0  0  0  0  0  0  0  0  0  0
    7.4492   -1.8169   25.3499 C   0  0  0  0  0  0  0  0  0  0  0  0
    7.5377   -0.7842   18.5324 C   0  0  0  0  0  0  0  0  0  0  0  0
    7.8130   -2.2144   22.6127 C   0  0  0  0  0  0  0  0  0  0  0  0
    6.9718   -0.8747   24.4388 C   0  0  0  0  0  0  0  0  0  0  0  0
   10.8923    1.7672   23.8110 C   0  0  0  0  0  0  0  0  0  0  0  0
   11.6699    0.0366   22.3152 C   0  0  0  0  0  0  0  0  0  0  0  0
   12.1697    1.8644   24.3627 C   0  0  0  0  0  0  0  0  0  0  0  0
   12.9474    0.1338   22.8669 C   0  0  0  0  0  0  0  0  0  0  0  0
    6.0676   -2.5366   17.8809 C   0  0  0  0  0  0  0  0  0  0  0  0
    5.9613   -1.7418   20.0338 C   0  0  0  0  0  0  0  0  0  0  0  0
    8.1085   -2.9578   24.8924 C   0  0  0  0  0  0  0  0  0  0  0  0
    6.9716   -0.8224   19.8019 C   0  0  0  0  0  0  0  0  0  0  0  0
   10.6424    0.8533   22.7873 C   0  0  0  0  0  0  0  0  0  0  0  0
    7.1536   -1.0735   23.0702 C   0  0  0  0  0  0  0  0  0  0  0  0
   13.1972    1.0477   23.8907 C   0  0  0  0  0  0  0  0  0  0  0  0
    4.5574    2.8454   21.7293 C   0  0  0  0  0  0  0  0  0  0  0  0
    5.1670    1.7103   21.3729 C   0  0  0  0  0  0  0  0  0  0  0  0
    5.5173    0.6884   22.4026 C   0  0  0  0  0  0  0  0  0  0  0  0
    8.9237   -0.0946   21.2081 C   0  0  0  0  0  0  0  0  0  0  0  0
    8.0813   -5.3808   25.7701 C   0  0  0  0  0  0  0  0  0  0  0  0
    7.6500   -4.5031   26.9031 C   0  0  0  0  0  0  0  0  0  0  0  0
    8.6185   -3.9642   25.8658 C   0  0  0  0  0  0  0  0  0  0  0  0
   10.0547   -3.7845   26.2729 C   0  0  0  0  0  0  0  0  0  0  0  0
    7.4440    0.1114   20.8943 C   0  0  2  0  0  0  0  0  0  0  0  0
    5.4931   -2.6030   19.1028 N   0  0  0  0  0  0  0  0  0  0  0  0
    9.3465    0.7550   22.2273 N   0  0  0  0  0  0  0  0  0  0  0  0
    6.6562   -0.0924   22.1214 N   0  0  0  0  0  0  0  0  0  0  0  0
    4.8053    0.5835   23.4016 O   0  0  0  0  0  0  0  0  0  0  0  0
    9.6047   -0.9130   20.5960 O   0  0  0  0  0  0  0  0  0  0  0  0
   14.7735    1.1678   24.5715 Cl  0  0  0  0  0  0  0  0  0  0  0  0
    7.5091   -1.6420   16.5514 H   0  0  0  0  0  0  0  0  0  0  0  0
    8.8028   -4.0422   23.1573 H   0  0  0  0  0  0  0  0  0  0  0  0
    7.3029   -1.6534   26.4144 H   0  0  0  0  0  0  0  0  0  0  0  0
    8.3327   -0.0803   18.3017 H   0  0  0  0  0  0  0  0  0  0  0  0
    7.9602   -2.3797   21.5483 H   0  0  0  0  0  0  0  0  0  0  0  0
    6.4594    0.0105   24.8071 H   0  0  0  0  0  0  0  0  0  0  0  0
   10.0989    2.4082   24.1866 H   0  0  0  0  0  0  0  0  0  0  0  0
   11.4862   -0.6789   21.5179 H   0  0  0  0  0  0  0  0  0  0  0  0
   12.3503    2.5810   25.1597 H   0  0  0  0  0  0  0  0  0  0  0  0
   13.7386   -0.5087   22.4895 H   0  0  0  0  0  0  0  0  0  0  0  0
    5.6780   -3.2359   17.1484 H   0  0  0  0  0  0  0  0  0  0  0  0
    5.4817   -1.8178   21.0048 H   0  0  0  0  0  0  0  0  0  0  0  0
    4.2840    3.5747   20.9740 H   0  0  0  0  0  0  0  0  0  0  0  0
    4.3225    3.0820   22.7611 H   0  0  0  0  0  0  0  0  0  0  0  0
    5.3692    1.5054   20.3280 H   0  0  0  0  0  0  0  0  0  0  0  0
    8.7486   -6.2042   25.9969 H   0  0  0  0  0  0  0  0  0  0  0  0
    7.3489   -5.6103   25.0047 H   0  0  0  0  0  0  0  0  0  0  0  0
    6.6271   -4.1443   26.8987 H   0  0  0  0  0  0  0  0  0  0  0  0
    8.0275   -4.7349   27.8924 H   0  0  0  0  0  0  0  0  0  0  0  0
   10.3600   -4.5582   26.9882 H   0  0  0  0  0  0  0  0  0  0  0  0
   10.2094   -2.8072   26.7465 H   0  0  0  0  0  0  0  0  0  0  0  0
   10.7204   -3.8473   25.4031 H   0  0  0  0  0  0  0  0  0  0  0  0
    7.2958    1.1545   20.5888 H   0  0  0  0  0  0  0  0  0  0  0  0
    8.6410    1.3781   22.6147 H   0  0  0  0  0  0  0  0  0  0  0  0
  1  4  2  0  0  0  0
  1 11  1  0  0  0  0
  2  5  2  0  0  0  0
  2 13  1  0  0  0  0
  3  6  1  0  0  0  0
  3 13  2  0  0  0  0
  4 14  1  0  0  0  0
  5 16  1  0  0  0  0
  6 16  2  0  0  0  0
  7  9  2  0  0  0  0
  7 15  1  0  0  0  0
  8 10  1  0  0  0  0
  8 15  2  0  0  0  0
  9 17  1  0  0  0  0
 10 17  2  0  0  0  0
 11 27  2  0  0  0  0
 12 14  2  0  0  0  0
 12 27  1  0  0  0  0
 13 24  1  0  0  0  0
 14 26  1  0  0  0  0
 15 28  1  0  0  0  0
 16 29  1  0  0  0  0
 17 32  1  0  0  0  0
 18 19  2  0  0  0  0
 19 20  1  0  0  0  0
 20 29  1  0  0  0  0
 20 30  2  0  0  0  0
 21 26  1  0  0  0  0
 21 28  1  0  0  0  0
 21 31  2  0  0  0  0
 22 23  1  0  0  0  0
 22 24  1  0  0  0  0
 23 24  1  0  0  0  0
 24 25  1  0  0  0  0
 26 29  1  0  0  0  0
  1 33  1  0  0  0  0
  2 34  1  0  0  0  0
  3 35  1  0  0  0  0
  4 36  1  0  0  0  0
  5 37  1  0  0  0  0
  6 38  1  0  0  0  0
  7 39  1  0  0  0  0
  8 40  1  0  0  0  0
  9 41  1  0  0  0  0
 10 42  1  0  0  0  0
 11 43  1  0  0  0  0
 12 44  1  0  0  0  0
 18 45  1  0  0  0  0
 18 46  1  0  0  0  0
 19 47  1  0  0  0  0
 22 48  1  0  0  0  0
 22 49  1  0  0  0  0
 23 50  1  0  0  0  0
 23 51  1  0  0  0  0
 25 52  1  0  0  0  0
 25 53  1  0  0  0  0
 25 54  1  0  0  0  0
 26 55  1  0  0  0  0
 28 56  1  0  0  0  0
M  END
> <IC50 (uM)>

> <IC50 (uM) - std>

> <Average Inhibition @ 20 uM>

> <Average Inhibition @ 20 uM - std>

> <Average Inhibition @ 50 uM>

> <Average Inhibition @ 50 uM - std>
9.66

> <Trypsin IC50 (uM)>
0.849

> <Relative Solubility @ 20 uM>

> <Relative Solubility @ 100 uM>

> <Hybrid2>
-5.000449

> <docked_fragment>
x0831

> <Mpro-_dock>
3.638221

> <site>
active-covalent

$$$$
LON-WEI-d1c9908a-11
  -OEChem-05192003313D

 56 59  0     1  0  0  0  0  0999 V2000
    3.9915   -6.3135   22.0084 C   0  0  0  0  0  0  0  0  0  0  0  0
   10.5902   -2.0098   23.6355 C   0  0  0  0  0  0  0  0  0  0  0  0
   11.1895   -3.9230   24.9837 C   0  0  0  0  0  0  0  0  0  0  0  0
    5.1288   -5.5376   21.8145 C   0  0  0  0  0  0  0  0  0  0  0  0
    9.4987   -2.7119   23.1244 C   0  0  0  0  0  0  0  0  0  0  0  0
   10.0979   -4.6251   24.4726 C   0  0  0  0  0  0  0  0  0  0  0  0
    5.6110   -0.1491   20.0851 C   0  0  0  0  0  0  0  0  0  0  0  0
    6.8320   -1.7982   18.8096 C   0  0  0  0  0  0  0  0  0  0  0  0
    5.5029    0.6507   18.9475 C   0  0  0  0  0  0  0  0  0  0  0  0
    6.7239   -0.9983   17.6720 C   0  0  0  0  0  0  0  0  0  0  0  0
    3.4359   -6.3444   23.2773 C   0  0  0  0  0  0  0  0  0  0  0  0
    5.0376   -4.9236   24.1104 C   0  0  0  0  0  0  0  0  0  0  0  0
   11.4357   -2.6154   24.5652 C   0  0  0  0  0  0  0  0  0  0  0  0
    5.6683   -4.8263   22.8805 C   0  0  0  0  0  0  0  0  0  0  0  0
    6.2756   -1.3736   20.0162 C   0  0  0  0  0  0  0  0  0  0  0  0
    9.2525   -4.0195   23.5429 C   0  0  0  0  0  0  0  0  0  0  0  0
    6.0593    0.2261   17.7410 C   0  0  0  0  0  0  0  0  0  0  0  0
    9.7882   -7.9741   22.9583 C   0  0  0  0  0  0  0  0  0  0  0  0
    9.4746   -6.7420   22.5452 C   0  0  0  0  0  0  0  0  0  0  0  0
    8.1436   -6.1532   22.8754 C   0  0  0  0  0  0  0  0  0  0  0  0
    7.0084   -3.4256   21.2804 C   0  0  0  0  0  0  0  0  0  0  0  0
   13.6550   -1.3786   24.1322 C   0  0  0  0  0  0  0  0  0  0  0  0
   13.9669   -2.5262   25.0410 C   0  0  0  0  0  0  0  0  0  0  0  0
   12.6019   -1.8656   25.1112 C   0  0  0  0  0  0  0  0  0  0  0  0
   12.3006   -1.0020   26.3045 C   0  0  0  0  0  0  0  0  0  0  0  0
    6.9044   -3.9727   22.7018 C   0  0  2  0  0  0  0  0  0  0  0  0
    3.9315   -5.6670   24.3371 N   0  0  0  0  0  0  0  0  0  0  0  0
    6.3849   -2.1852   21.1702 N   0  0  0  0  0  0  0  0  0  0  0  0
    8.1158   -4.7507   23.0106 N   0  0  0  0  0  0  0  0  0  0  0  0
    7.1796   -6.9060   23.0170 O   0  0  0  0  0  0  0  0  0  0  0  0
    7.5728   -4.0527   20.3879 O   0  0  0  0  0  0  0  0  0  0  0  0
    5.9127    1.3100   16.1997 Br  0  0  0  0  0  0  0  0  0  0  0  0
    3.5535   -6.8762   21.1919 H   0  0  0  0  0  0  0  0  0  0  0  0
   10.7736   -0.9915   23.3031 H   0  0  0  0  0  0  0  0  0  0  0  0
   11.8426   -4.4031   25.7077 H   0  0  0  0  0  0  0  0  0  0  0  0
    5.5875   -5.4931   20.8305 H   0  0  0  0  0  0  0  0  0  0  0  0
    8.8466   -2.2300   22.4003 H   0  0  0  0  0  0  0  0  0  0  0  0
    9.9160   -5.6436   24.8061 H   0  0  0  0  0  0  0  0  0  0  0  0
    5.1740    0.1914   21.0202 H   0  0  0  0  0  0  0  0  0  0  0  0
    7.3519   -2.7505   18.7448 H   0  0  0  0  0  0  0  0  0  0  0  0
    4.9819    1.6020   19.0176 H   0  0  0  0  0  0  0  0  0  0  0  0
    7.1629   -1.3432   16.7395 H   0  0  0  0  0  0  0  0  0  0  0  0
    2.5485   -6.9349   23.4802 H   0  0  0  0  0  0  0  0  0  0  0  0
    5.4129   -4.3910   24.9788 H   0  0  0  0  0  0  0  0  0  0  0  0
   10.7658   -8.3886   22.7356 H   0  0  0  0  0  0  0  0  0  0  0  0
    9.0953   -8.5972   23.5128 H   0  0  0  0  0  0  0  0  0  0  0  0
   10.2026   -6.1459   22.0073 H   0  0  0  0  0  0  0  0  0  0  0  0
   14.1467   -0.4329   24.3284 H   0  0  0  0  0  0  0  0  0  0  0  0
   13.5255   -1.5931   23.0775 H   0  0  0  0  0  0  0  0  0  0  0  0
   14.0480   -3.5112   24.5958 H   0  0  0  0  0  0  0  0  0  0  0  0
   14.6678   -2.3529   25.8495 H   0  0  0  0  0  0  0  0  0  0  0  0
   13.2024   -0.4821   26.6510 H   0  0  0  0  0  0  0  0  0  0  0  0
   11.9167   -1.6034   27.1378 H   0  0  0  0  0  0  0  0  0  0  0  0
   11.5466   -0.2434   26.0601 H   0  0  0  0  0  0  0  0  0  0  0  0
    6.8820   -3.1261   23.3990 H   0  0  0  0  0  0  0  0  0  0  0  0
    5.9579   -1.8198   22.0189 H   0  0  0  0  0  0  0  0  0  0  0  0
  1  4  2  0  0  0  0
  1 11  1  0  0  0  0
  2  5  2  0  0  0  0
  2 13  1  0  0  0  0
  3  6  1  0  0  0  0
  3 13  2  0  0  0  0
  4 14  1  0  0  0  0
  5 16  1  0  0  0  0
  6 16  2  0  0  0  0
  7  9  2  0  0  0  0
  7 15  1  0  0  0  0
  8 10  1  0  0  0  0
  8 15  2  0  0  0  0
  9 17  1  0  0  0  0
 10 17  2  0  0  0  0
 11 27  2  0  0  0  0
 12 14  2  0  0  0  0
 12 27  1  0  0  0  0
 13 24  1  0  0  0  0
 14 26  1  0  0  0  0
 15 28  1  0  0  0  0
 16 29  1  0  0  0  0
 17 32  1  0  0  0  0
 18 19  2  0  0  0  0
 19 20  1  0  0  0  0
 20 29  1  0  0  0  0
 20 30  2  0  0  0  0
 21 26  1  0  0  0  0
 21 28  1  0  0  0  0
 21 31  2  0  0  0  0
 22 23  1  0  0  0  0
 22 24  1  0  0  0  0
 23 24  1  0  0  0  0
 24 25  1  0  0  0  0
 26 29  1  0  0  0  0
  1 33  1  0  0  0  0
  2 34  1  0  0  0  0
  3 35  1  0  0  0  0
  4 36  1  0  0  0  0
  5 37  1  0  0  0  0
  6 38  1  0  0  0  0
  7 39  1  0  0  0  0
  8 40  1  0  0  0  0
  9 41  1  0  0  0  0
 10 42  1  0  0  0  0
 11 43  1  0  0  0  0
 12 44  1  0  0  0  0
 18 45  1  0  0  0  0
 18 46  1  0  0  0  0
 19 47  1  0  0  0  0
 22 48  1  0  0  0  0
 22 49  1  0  0  0  0
 23 50  1  0  0  0  0
 23 51  1  0  0  0  0
 25 52  1  0  0  0  0
 25 53  1  0  0  0  0
 25 54  1  0  0  0  0
 26 55  1  0  0  0  0
 28 56  1  0  0  0  0
M  END
> <IC50 (uM)>

> <IC50 (uM) - std>

> <Average Inhibition @ 20 uM>

> <Average Inhibition @ 20 uM - std>

> <Average Inhibition @ 50 uM>

> <Average Inhibition @ 50 uM - std>
42.5

> <Trypsin IC50 (uM)>
4.38

> <Relative Solubility @ 20 uM>

> <Relative Solubility @ 100 uM>

> <Hybrid2>
-4.995249

> <docked_fragment>
x0749

> <Mpro-_dock>
4.570319

> <site>
active-covalent

$$$$
LON-WEI-b8d98729-41
  -OEChem-05192003313D

 49 51  0     1  0  0  0  0  0999 V2000
    5.9933   -2.1887   29.4026 C   0  0  0  0  0  0  0  0  0  0  0  0
    6.0124   -3.1576   30.4058 C   0  0  0  0  0  0  0  0  0  0  0  0
    4.8105   -5.0808   22.9611 C   0  0  0  0  0  0  0  0  0  0  0  0
    5.7589   -4.4593   23.7659 C   0  0  0  0  0  0  0  0  0  0  0  0
    6.2972   -0.8505   21.6424 C   0  0  0  0  0  0  0  0  0  0  0  0
    7.9823   -1.5689   20.0672 C   0  0  0  0  0  0  0  0  0  0  0  0
    6.4908   -2.4879   28.1343 C   0  0  0  0  0  0  0  0  0  0  0  0
    6.9887   -1.4874   22.6728 C   0  0  0  0  0  0  0  0  0  0  0  0
    8.6739   -2.2058   21.0976 C   0  0  0  0  0  0  0  0  0  0  0  0
    6.5290   -4.4259   30.1407 C   0  0  0  0  0  0  0  0  0  0  0  0
    5.2522   -5.7198   21.8137 C   0  0  0  0  0  0  0  0  0  0  0  0
    7.4400   -5.1607   22.2368 C   0  0  0  0  0  0  0  0  0  0  0  0
    6.7939   -0.8913   20.3396 C   0  0  0  0  0  0  0  0  0  0  0  0
    7.1009   -4.4953   23.4039 C   0  0  0  0  0  0  0  0  0  0  0  0
    8.1771   -2.1651   22.4004 C   0  0  0  0  0  0  0  0  0  0  0  0
    7.0075   -3.7561   27.8692 C   0  0  0  0  0  0  0  0  0  0  0  0
    7.0266   -4.7251   28.8723 C   0  0  0  0  0  0  0  0  0  0  0  0
   12.1249   -3.4015   25.0373 C   0  0  0  0  0  0  0  0  0  0  0  0
   10.8085   -3.1775   24.9749 C   0  0  0  0  0  0  0  0  0  0  0  0
   10.2202   -2.4684   23.8010 C   0  0  0  0  0  0  0  0  0  0  0  0
    7.5443   -3.1538   25.4827 C   0  0  0  0  0  0  0  0  0  0  0  0
    8.1567   -3.8295   24.2584 C   0  0  2  0  0  0  0  0  0  0  0  0
    6.0544   -0.2103   19.2380 C   0  0  0  0  0  0  0  0  0  0  0  0
    6.5471   -5.7760   21.4294 N   0  0  0  0  0  0  0  0  0  0  0  0
    7.5029   -4.0223   26.5706 N   0  0  0  0  0  0  0  0  0  0  0  0
    8.8977   -2.8282   23.4733 N   0  0  0  0  0  0  0  0  0  0  0  0
   10.9085   -1.6436   23.1991 O   0  0  0  0  0  0  0  0  0  0  0  0
    7.1460   -1.9926   25.4466 O   0  0  0  0  0  0  0  0  0  0  0  0
    4.9101    0.4119   19.6495 F   0  0  0  0  0  0  0  0  0  0  0  0
    6.7813    0.7608   18.6100 F   0  0  0  0  0  0  0  0  0  0  0  0
    5.6681   -1.0728   18.2532 F   0  0  0  0  0  0  0  0  0  0  0  0
    7.7212   -6.4654   28.5680 Br  0  0  0  0  0  0  0  0  0  0  0  0
    5.5910   -1.2012   29.6094 H   0  0  0  0  0  0  0  0  0  0  0  0
    5.6247   -2.9243   31.3931 H   0  0  0  0  0  0  0  0  0  0  0  0
    3.7589   -5.0658   23.2237 H   0  0  0  0  0  0  0  0  0  0  0  0
    5.4434   -3.9500   24.6724 H   0  0  0  0  0  0  0  0  0  0  0  0
    5.3708   -0.3267   21.8633 H   0  0  0  0  0  0  0  0  0  0  0  0
    8.3762   -1.6064   19.0550 H   0  0  0  0  0  0  0  0  0  0  0  0
    6.4698   -1.7233   27.3617 H   0  0  0  0  0  0  0  0  0  0  0  0
    6.5925   -1.4488   23.6844 H   0  0  0  0  0  0  0  0  0  0  0  0
    9.5986   -2.7320   20.8740 H   0  0  0  0  0  0  0  0  0  0  0  0
    6.5352   -5.1677   30.9352 H   0  0  0  0  0  0  0  0  0  0  0  0
    4.5517   -6.2192   21.1524 H   0  0  0  0  0  0  0  0  0  0  0  0
    8.4713   -5.2221   21.9034 H   0  0  0  0  0  0  0  0  0  0  0  0
   12.5446   -3.9380   25.8818 H   0  0  0  0  0  0  0  0  0  0  0  0
   12.8115   -3.0601   24.2706 H   0  0  0  0  0  0  0  0  0  0  0  0
   10.1549   -3.5502   25.7551 H   0  0  0  0  0  0  0  0  0  0  0  0
    8.8879   -4.5720   24.6011 H   0  0  0  0  0  0  0  0  0  0  0  0
    7.8721   -4.9577   26.4133 H   0  0  0  0  0  0  0  0  0  0  0  0
  1  2  1  0  0  0  0
  1  7  2  0  0  0  0
  2 10  2  0  0  0  0
  3  4  2  0  0  0  0
  3 11  1  0  0  0  0
  4 14  1  0  0  0  0
  5  8  2  0  0  0  0
  5 13  1  0  0  0  0
  6  9  1  0  0  0  0
  6 13  2  0  0  0  0
  7 16  1  0  0  0  0
  8 15  1  0  0  0  0
  9 15  2  0  0  0  0
 10 17  1  0  0  0  0
 11 24  2  0  0  0  0
 12 14  2  0  0  0  0
 12 24  1  0  0  0  0
 13 23  1  0  0  0  0
 14 22  1  0  0  0  0
 15 26  1  0  0  0  0
 16 17  2  0  0  0  0
 16 25  1  0  0  0  0
 17 32  1  0  0  0  0
 18 19  2  0  0  0  0
 19 20  1  0  0  0  0
 20 26  1  0  0  0  0
 20 27  2  0  0  0  0
 21 22  1  0  0  0  0
 21 25  1  0  0  0  0
 21 28  2  0  0  0  0
 22 26  1  0  0  0  0
 23 29  1  0  0  0  0
 23 30  1  0  0  0  0
 23 31  1  0  0  0  0
  1 33  1  0  0  0  0
  2 34  1  0  0  0  0
  3 35  1  0  0  0  0
  4 36  1  0  0  0  0
  5 37  1  0  0  0  0
  6 38  1  0  0  0  0
  7 39  1  0  0  0  0
  8 40  1  0  0  0  0
  9 41  1  0  0  0  0
 10 42  1  0  0  0  0
 11 43  1  0  0  0  0
 12 44  1  0  0  0  0
 18 45  1  0  0  0  0
 18 46  1  0  0  0  0
 19 47  1  0  0  0  0
 22 48  1  0  0  0  0
 25 49  1  0  0  0  0
M  END
> <IC50 (uM)>

> <IC50 (uM) - std>

> <Average Inhibition @ 20 uM>

> <Average Inhibition @ 20 uM - std>
15.6

> <Average Inhibition @ 50 uM>
7.32

> <Average Inhibition @ 50 uM - std>
22.0

> <Trypsin IC50 (uM)>
1.11

> <Relative Solubility @ 20 uM>
0.94

> <Relative Solubility @ 100 uM>
0.83

> <Hybrid2>
-4.750962

> <docked_fragment>
x1380

> <Mpro-_dock>
4.8406

> <site>
active-covalent

$$$$
LON-WEI-b8d98729-39
  -OEChem-05192003313D

 58 60  0     1  0  0  0  0  0999 V2000
    5.3204   -1.6236   18.0321 C   0  0  0  0  0  0  0  0  0  0  0  0
    8.7235   -3.9649   24.9747 C   0  0  0  0  0  0  0  0  0  0  0  0
    5.7623   -2.6758   18.8340 C   0  0  0  0  0  0  0  0  0  0  0  0
    5.6573   -0.3096   18.3574 C   0  0  0  0  0  0  0  0  0  0  0  0
    9.0286   -3.1036   23.9266 C   0  0  0  0  0  0  0  0  0  0  0  0
   11.0621    3.1892   22.8787 C   0  0  0  0  0  0  0  0  0  0  0  0
   13.0553    2.3542   23.9588 C   0  0  0  0  0  0  0  0  0  0  0  0
   10.6103    1.8815   22.7014 C   0  0  0  0  0  0  0  0  0  0  0  0
   12.6036    1.0465   23.7816 C   0  0  0  0  0  0  0  0  0  0  0  0
    8.5278   -3.4139   26.2308 C   0  0  0  0  0  0  0  0  0  0  0  0
    8.9133   -1.2858   25.4558 C   0  0  0  0  0  0  0  0  0  0  0  0
   12.2846    3.4256   23.5074 C   0  0  0  0  0  0  0  0  0  0  0  0
    9.1273   -1.7371   24.1634 C   0  0  0  0  0  0  0  0  0  0  0  0
    6.5409   -2.4142   19.9614 C   0  0  0  0  0  0  0  0  0  0  0  0
    6.4359   -0.0480   19.4848 C   0  0  0  0  0  0  0  0  0  0  0  0
   11.3810    0.8102   23.1528 C   0  0  0  0  0  0  0  0  0  0  0  0
    6.8777   -1.1002   20.2868 C   0  0  0  0  0  0  0  0  0  0  0  0
   13.0434   -0.8389   20.8356 C   0  0  0  0  0  0  0  0  0  0  0  0
   13.0784   -1.2986   22.0904 C   0  0  0  0  0  0  0  0  0  0  0  0
   11.8113   -1.6238   22.8087 C   0  0  0  0  0  0  0  0  0  0  0  0
    8.9573   -1.2873   21.6962 C   0  0  0  0  0  0  0  0  0  0  0  0
    6.9992   -3.5625   20.8010 C   0  0  0  0  0  0  0  0  0  0  0  0
    5.9359    1.9246   20.9496 C   0  0  0  0  0  0  0  0  0  0  0  0
    6.7802    1.3702   19.8066 C   0  0  0  0  0  0  0  0  0  0  0  0
    9.4571   -0.7741   23.0443 C   0  0  2  0  0  0  0  0  0  0  0  0
   12.7676    4.8238   23.6968 C   0  0  0  0  0  0  0  0  0  0  0  0
    8.6151   -2.0919   26.4994 N   0  0  0  0  0  0  0  0  0  0  0  0
    7.6673   -0.8346   21.4307 N   0  0  0  0  0  0  0  0  0  0  0  0
   10.9107   -0.5518   22.9686 N   0  0  0  0  0  0  0  0  0  0  0  0
   11.6379   -2.7725   23.2168 O   0  0  0  0  0  0  0  0  0  0  0  0
    9.6478   -2.0141   20.9868 O   0  0  0  0  0  0  0  0  0  0  0  0
   11.9124    5.7696   23.2069 F   0  0  0  0  0  0  0  0  0  0  0  0
   12.9611    5.1628   25.0058 F   0  0  0  0  0  0  0  0  0  0  0  0
   13.9621    5.0551   23.0784 F   0  0  0  0  0  0  0  0  0  0  0  0
    4.7143   -1.8272   17.1540 H   0  0  0  0  0  0  0  0  0  0  0  0
    8.6412   -5.0337   24.8134 H   0  0  0  0  0  0  0  0  0  0  0  0
    5.4941   -3.6960   18.5723 H   0  0  0  0  0  0  0  0  0  0  0  0
    5.3083    0.5029   17.7256 H   0  0  0  0  0  0  0  0  0  0  0  0
    9.1876   -3.5057   22.9297 H   0  0  0  0  0  0  0  0  0  0  0  0
   10.4561    4.0179   22.5218 H   0  0  0  0  0  0  0  0  0  0  0  0
   14.0094    2.5292   24.4491 H   0  0  0  0  0  0  0  0  0  0  0  0
    9.6558    1.7090   22.2104 H   0  0  0  0  0  0  0  0  0  0  0  0
   13.2127    0.2189   24.1363 H   0  0  0  0  0  0  0  0  0  0  0  0
    8.2879   -4.0435   27.0814 H   0  0  0  0  0  0  0  0  0  0  0  0
    8.9768   -0.2302   25.7010 H   0  0  0  0  0  0  0  0  0  0  0  0
   13.9683   -0.6260   20.3098 H   0  0  0  0  0  0  0  0  0  0  0  0
   12.1143   -0.6579   20.3066 H   0  0  0  0  0  0  0  0  0  0  0  0
   14.0293   -1.4812   22.5774 H   0  0  0  0  0  0  0  0  0  0  0  0
    7.9673   -3.9307   20.4433 H   0  0  0  0  0  0  0  0  0  0  0  0
    7.1031   -3.2672   21.8519 H   0  0  0  0  0  0  0  0  0  0  0  0
    6.2773   -4.3875   20.7702 H   0  0  0  0  0  0  0  0  0  0  0  0
    4.8673    1.8568   20.7186 H   0  0  0  0  0  0  0  0  0  0  0  0
    6.1771    2.9764   21.1323 H   0  0  0  0  0  0  0  0  0  0  0  0
    6.1151    1.3694   21.8766 H   0  0  0  0  0  0  0  0  0  0  0  0
    7.8457    1.4532   20.0704 H   0  0  0  0  0  0  0  0  0  0  0  0
    6.6478    2.0056   18.9174 H   0  0  0  0  0  0  0  0  0  0  0  0
    8.9943    0.2015   23.2377 H   0  0  0  0  0  0  0  0  0  0  0  0
    7.2429   -0.2437   22.1425 H   0  0  0  0  0  0  0  0  0  0  0  0
  1  3  1  0  0  0  0
  1  4  2  0  0  0  0
  2  5  2  0  0  0  0
  2 10  1  0  0  0  0
  3 14  2  0  0  0  0
  4 15  1  0  0  0  0
  5 13  1  0  0  0  0
  6  8  2  0  0  0  0
  6 12  1  0  0  0  0
  7  9  1  0  0  0  0
  7 12  2  0  0  0  0
  8 16  1  0  0  0  0
  9 16  2  0  0  0  0
 10 27  2  0  0  0  0
 11 13  2  0  0  0  0
 11 27  1  0  0  0  0
 12 26  1  0  0  0  0
 13 25  1  0  0  0  0
 14 17  1  0  0  0  0
 14 22  1  0  0  0  0
 15 17  2  0  0  0  0
 15 24  1  0  0  0  0
 16 29  1  0  0  0  0
 17 28  1  0  0  0  0
 18 19  2  0  0  0  0
 19 20  1  0  0  0  0
 20 29  1  0  0  0  0
 20 30  2  0  0  0  0
 21 25  1  0  0  0  0
 21 28  1  0  0  0  0
 21 31  2  0  0  0  0
 23 24  1  0  0  0  0
 25 29  1  0  0  0  0
 26 32  1  0  0  0  0
 26 33  1  0  0  0  0
 26 34  1  0  0  0  0
  1 35  1  0  0  0  0
  2 36  1  0  0  0  0
  3 37  1  0  0  0  0
  4 38  1  0  0  0  0
  5 39  1  0  0  0  0
  6 40  1  0  0  0  0
  7 41  1  0  0  0  0
  8 42  1  0  0  0  0
  9 43  1  0  0  0  0
 10 44  1  0  0  0  0
 11 45  1  0  0  0  0
 18 46  1  0  0  0  0
 18 47  1  0  0  0  0
 19 48  1  0  0  0  0
 22 49  1  0  0  0  0
 22 50  1  0  0  0  0
 22 51  1  0  0  0  0
 23 52  1  0  0  0  0
 23 53  1  0  0  0  0
 23 54  1  0  0  0  0
 24 55  1  0  0  0  0
 24 56  1  0  0  0  0
 25 57  1  0  0  0  0
 28 58  1  0  0  0  0
M  END
> <IC50 (uM)>
97.8

> <IC50 (uM) - std>
39.5

> <Average Inhibition @ 20 uM>
> 99.0

> <Average Inhibition @ 20 uM - std>
22.3

> <Average Inhibition @ 50 uM>
0.806

> <Average Inhibition @ 50 uM - std>
38.6

> <Trypsin IC50 (uM)>
0.0151

> <Relative Solubility @ 20 uM>
0.89

> <Relative Solubility @ 100 uM>
0.79

> <Hybrid2>
-4.642575

> <docked_fragment>
x0831

> <Mpro-_dock>
4.456306

> <site>
active-covalent

$$$$
LON-WEI-d1c9908a-13
  -OEChem-05192003313D

 59 62  0     1  0  0  0  0  0999 V2000
    7.6839   -0.2176   18.0517 C   0  0  0  0  0  0  0  0  0  0  0  0
    5.0197   -5.4739   21.9660 C   0  0  0  0  0  0  0  0  0  0  0  0
   11.4361   -1.2977   24.4363 C   0  0  0  0  0  0  0  0  0  0  0  0
   11.9426   -3.3087   25.6758 C   0  0  0  0  0  0  0  0  0  0  0  0
    6.1626   -4.6833   21.9230 C   0  0  0  0  0  0  0  0  0  0  0  0
    7.8253   -0.9693   19.2181 C   0  0  0  0  0  0  0  0  0  0  0  0
   10.3937   -1.9599   23.7879 C   0  0  0  0  0  0  0  0  0  0  0  0
   10.9001   -3.9709   25.0275 C   0  0  0  0  0  0  0  0  0  0  0  0
    6.5451    0.5646   17.8598 C   0  0  0  0  0  0  0  0  0  0  0  0
    4.3665   -5.6041   23.1809 C   0  0  0  0  0  0  0  0  0  0  0  0
    5.8865   -4.2493   24.2450 C   0  0  0  0  0  0  0  0  0  0  0  0
   12.2107   -1.9721   25.3802 C   0  0  0  0  0  0  0  0  0  0  0  0
    6.6111   -4.0558   23.0799 C   0  0  0  0  0  0  0  0  0  0  0  0
    5.6889   -0.1566   20.0008 C   0  0  0  0  0  0  0  0  0  0  0  0
   10.1256   -3.2964   24.0835 C   0  0  0  0  0  0  0  0  0  0  0  0
    6.8278   -0.9388   20.1927 C   0  0  0  0  0  0  0  0  0  0  0  0
    5.5476    0.5951   18.8343 C   0  0  0  0  0  0  0  0  0  0  0  0
   10.7368   -7.1928   23.2394 C   0  0  0  0  0  0  0  0  0  0  0  0
   10.4469   -5.9329   22.8992 C   0  0  0  0  0  0  0  0  0  0  0  0
    9.0895   -5.3739   23.1678 C   0  0  0  0  0  0  0  0  0  0  0  0
    8.0617   -2.5328   21.7036 C   0  0  0  0  0  0  0  0  0  0  0  0
   14.4473   -0.7015   25.2205 C   0  0  0  0  0  0  0  0  0  0  0  0
   14.6959   -1.9155   26.0598 C   0  0  0  0  0  0  0  0  0  0  0  0
   13.3244   -1.2648   26.0728 C   0  0  0  0  0  0  0  0  0  0  0  0
    4.6064   -0.1071   21.0298 C   0  0  0  0  0  0  0  0  0  0  0  0
   12.9235   -0.4969   27.3018 C   0  0  0  0  0  0  0  0  0  0  0  0
    7.8506   -3.1888   23.0658 C   0  0  2  0  0  0  0  0  0  0  0  0
    4.7719   -5.0101   24.3256 N   0  0  0  0  0  0  0  0  0  0  0  0
    6.9902   -1.7086   21.3690 N   0  0  0  0  0  0  0  0  0  0  0  0
    9.0401   -3.9862   23.4082 N   0  0  0  0  0  0  0  0  0  0  0  0
    8.1233   -6.1371   23.1743 O   0  0  0  0  0  0  0  0  0  0  0  0
    9.0648   -2.7534   21.0302 O   0  0  0  0  0  0  0  0  0  0  0  0
    4.4572    1.3502   18.6399 F   0  0  0  0  0  0  0  0  0  0  0  0
    8.4605   -0.2413   17.2928 H   0  0  0  0  0  0  0  0  0  0  0  0
    4.6516   -5.9723   21.0765 H   0  0  0  0  0  0  0  0  0  0  0  0
   11.6370   -0.2563   24.1990 H   0  0  0  0  0  0  0  0  0  0  0  0
   12.5407   -3.8423   26.4099 H   0  0  0  0  0  0  0  0  0  0  0  0
    6.6968   -4.5617   20.9846 H   0  0  0  0  0  0  0  0  0  0  0  0
    8.7175   -1.5750   19.3561 H   0  0  0  0  0  0  0  0  0  0  0  0
    9.7966   -1.4244   23.0539 H   0  0  0  0  0  0  0  0  0  0  0  0
   10.7007   -5.0125   25.2659 H   0  0  0  0  0  0  0  0  0  0  0  0
    6.4349    1.1500   16.9517 H   0  0  0  0  0  0  0  0  0  0  0  0
    3.4706   -6.2102   23.2669 H   0  0  0  0  0  0  0  0  0  0  0  0
    6.1881   -3.7851   25.1789 H   0  0  0  0  0  0  0  0  0  0  0  0
   11.7322   -7.5871   23.0632 H   0  0  0  0  0  0  0  0  0  0  0  0
   10.0075   -7.8583   23.6877 H   0  0  0  0  0  0  0  0  0  0  0  0
   11.2102   -5.2956   22.4680 H   0  0  0  0  0  0  0  0  0  0  0  0
   14.9146    0.2271   25.5273 H   0  0  0  0  0  0  0  0  0  0  0  0
   14.4028   -0.8337   24.1455 H   0  0  0  0  0  0  0  0  0  0  0  0
   14.8195   -2.8629   25.5477 H   0  0  0  0  0  0  0  0  0  0  0  0
   15.3297   -1.8043   26.9320 H   0  0  0  0  0  0  0  0  0  0  0  0
    4.8006    0.6995   21.7457 H   0  0  0  0  0  0  0  0  0  0  0  0
    3.6275    0.0642   20.5661 H   0  0  0  0  0  0  0  0  0  0  0  0
    4.5391   -1.0542   21.5788 H   0  0  0  0  0  0  0  0  0  0  0  0
   13.7912   -0.0039   27.7574 H   0  0  0  0  0  0  0  0  0  0  0  0
   12.4801   -1.1619   28.0532 H   0  0  0  0  0  0  0  0  0  0  0  0
   12.1851    0.2770   27.0579 H   0  0  0  0  0  0  0  0  0  0  0  0
    7.7668   -2.3988   23.8223 H   0  0  0  0  0  0  0  0  0  0  0  0
    6.2357   -1.6534   22.0500 H   0  0  0  0  0  0  0  0  0  0  0  0
  1  6  2  0  0  0  0
  1  9  1  0  0  0  0
  2  5  2  0  0  0  0
  2 10  1  0  0  0  0
  3  7  2  0  0  0  0
  3 12  1  0  0  0  0
  4  8  1  0  0  0  0
  4 12  2  0  0  0  0
  5 13  1  0  0  0  0
  6 16  1  0  0  0  0
  7 15  1  0  0  0  0
  8 15  2  0  0  0  0
  9 17  2  0  0  0  0
 10 28  2  0  0  0  0
 11 13  2  0  0  0  0
 11 28  1  0  0  0  0
 12 24  1  0  0  0  0
 13 27  1  0  0  0  0
 14 16  2  0  0  0  0
 14 17  1  0  0  0  0
 14 25  1  0  0  0  0
 15 30  1  0  0  0  0
 16 29  1  0  0  0  0
 17 33  1  0  0  0  0
 18 19  2  0  0  0  0
 19 20  1  0  0  0  0
 20 30  1  0  0  0  0
 20 31  2  0  0  0  0
 21 27  1  0  0  0  0
 21 29  1  0  0  0  0
 21 32  2  0  0  0  0
 22 23  1  0  0  0  0
 22 24  1  0  0  0  0
 23 24  1  0  0  0  0
 24 26  1  0  0  0  0
 27 30  1  0  0  0  0
  1 34  1  0  0  0  0
  2 35  1  0  0  0  0
  3 36  1  0  0  0  0
  4 37  1  0  0  0  0
  5 38  1  0  0  0  0
  6 39  1  0  0  0  0
  7 40  1  0  0  0  0
  8 41  1  0  0  0  0
  9 42  1  0  0  0  0
 10 43  1  0  0  0  0
 11 44  1  0  0  0  0
 18 45  1  0  0  0  0
 18 46  1  0  0  0  0
 19 47  1  0  0  0  0
 22 48  1  0  0  0  0
 22 49  1  0  0  0  0
 23 50  1  0  0  0  0
 23 51  1  0  0  0  0
 25 52  1  0  0  0  0
 25 53  1  0  0  0  0
 25 54  1  0  0  0  0
 26 55  1  0  0  0  0
 26 56  1  0  0  0  0
 26 57  1  0  0  0  0
 27 58  1  0  0  0  0
 29 59  1  0  0  0  0
M  END
> <IC50 (uM)>

> <IC50 (uM) - std>

> <Average Inhibition @ 20 uM>

> <Average Inhibition @ 20 uM - std>

> <Average Inhibition @ 50 uM>

> <Average Inhibition @ 50 uM - std>
19.6

> <Trypsin IC50 (uM)>
1.02

> <Relative Solubility @ 20 uM>

> <Relative Solubility @ 100 uM>

> <Hybrid2>
-4.542414

> <docked_fragment>
x0749

> <Mpro-_dock>
4.466914

> <site>
active-covalent

$$$$
LON-WEI-d1c9908a-9
  -OEChem-05192003313D

 61 63  0     1  0  0  0  0  0999 V2000
    6.3986   -2.1589   29.3483 C   0  0  0  0  0  0  0  0  0  0  0  0
    6.4265   -5.9138   21.4694 C   0  0  0  0  0  0  0  0  0  0  0  0
    7.4400   -5.2356   22.1373 C   0  0  0  0  0  0  0  0  0  0  0  0
    6.1304   -0.9413   21.5085 C   0  0  0  0  0  0  0  0  0  0  0  0
    7.7499   -1.6311   19.8536 C   0  0  0  0  0  0  0  0  0  0  0  0
    6.8048   -2.4507   28.0461 C   0  0  0  0  0  0  0  0  0  0  0  0
    6.8997   -1.5353   22.5089 C   0  0  0  0  0  0  0  0  0  0  0  0
    8.5192   -2.2251   20.8541 C   0  0  0  0  0  0  0  0  0  0  0  0
    6.5603   -3.1073   30.3583 C   0  0  0  0  0  0  0  0  0  0  0  0
    5.1540   -5.8807   22.0167 C   0  0  0  0  0  0  0  0  0  0  0  0
    5.8491   -4.5823   23.7800 C   0  0  0  0  0  0  0  0  0  0  0  0
    6.5555   -0.9892   20.1808 C   0  0  0  0  0  0  0  0  0  0  0  0
    7.1542   -4.5547   23.3155 C   0  0  0  0  0  0  0  0  0  0  0  0
    7.5341   -4.6392   28.7640 C   0  0  0  0  0  0  0  0  0  0  0  0
    8.0941   -2.1772   22.1818 C   0  0  0  0  0  0  0  0  0  0  0  0
    7.3725   -3.6908   27.7540 C   0  0  0  0  0  0  0  0  0  0  0  0
    7.1280   -4.3475   30.0661 C   0  0  0  0  0  0  0  0  0  0  0  0
   12.2282   -3.2504   24.5885 C   0  0  0  0  0  0  0  0  0  0  0  0
   10.9033   -3.0735   24.6056 C   0  0  0  0  0  0  0  0  0  0  0  0
   10.2209   -2.3853   23.4707 C   0  0  0  0  0  0  0  0  0  0  0  0
    7.6833   -3.1302   25.3177 C   0  0  0  0  0  0  0  0  0  0  0  0
    8.1396   -5.9749   28.4763 C   0  0  0  0  0  0  0  0  0  0  0  0
    5.5588    1.1756   19.3647 C   0  0  0  0  0  0  0  0  0  0  0  0
    4.3074   -0.9848   19.0438 C   0  0  0  0  0  0  0  0  0  0  0  0
    6.3093   -0.4727   17.6612 C   0  0  0  0  0  0  0  0  0  0  0  0
    8.2345   -3.8069   24.0652 C   0  0  2  0  0  0  0  0  0  0  0  0
    5.7074   -0.3343   19.0780 C   0  0  0  0  0  0  0  0  0  0  0  0
    4.8381   -5.2302   23.1589 N   0  0  0  0  0  0  0  0  0  0  0  0
    7.7779   -3.9673   26.4267 N   0  0  0  0  0  0  0  0  0  0  0  0
    8.8639   -2.7713   23.1822 N   0  0  0  0  0  0  0  0  0  0  0  0
   10.8471   -1.5476   22.8210 O   0  0  0  0  0  0  0  0  0  0  0  0
    7.2176   -1.9943   25.2849 O   0  0  0  0  0  0  0  0  0  0  0  0
    7.2788   -5.2517   31.0442 F   0  0  0  0  0  0  0  0  0  0  0  0
    5.9565   -1.1934   29.5759 H   0  0  0  0  0  0  0  0  0  0  0  0
    6.6262   -6.4511   20.5494 H   0  0  0  0  0  0  0  0  0  0  0  0
    8.4485   -5.2429   21.7328 H   0  0  0  0  0  0  0  0  0  0  0  0
    5.2000   -0.4452   21.7722 H   0  0  0  0  0  0  0  0  0  0  0  0
    8.0883   -1.6738   18.8217 H   0  0  0  0  0  0  0  0  0  0  0  0
    6.6735   -1.7033   27.2677 H   0  0  0  0  0  0  0  0  0  0  0  0
    6.5589   -1.4916   23.5404 H   0  0  0  0  0  0  0  0  0  0  0  0
    9.4479   -2.7237   20.5879 H   0  0  0  0  0  0  0  0  0  0  0  0
    6.2442   -2.8803   31.3722 H   0  0  0  0  0  0  0  0  0  0  0  0
    4.3291   -6.3943   21.5340 H   0  0  0  0  0  0  0  0  0  0  0  0
    5.5661   -4.0692   24.6939 H   0  0  0  0  0  0  0  0  0  0  0  0
   12.7165   -3.7720   25.4050 H   0  0  0  0  0  0  0  0  0  0  0  0
   12.8550   -2.8844   23.7829 H   0  0  0  0  0  0  0  0  0  0  0  0
   10.3112   -3.4696   25.4225 H   0  0  0  0  0  0  0  0  0  0  0  0
    9.2265   -5.9349   28.6096 H   0  0  0  0  0  0  0  0  0  0  0  0
    7.7330   -6.7452   29.1427 H   0  0  0  0  0  0  0  0  0  0  0  0
    7.9239   -6.2939   27.4494 H   0  0  0  0  0  0  0  0  0  0  0  0
    4.9570    1.6674   18.5915 H   0  0  0  0  0  0  0  0  0  0  0  0
    5.0668    1.3691   20.3242 H   0  0  0  0  0  0  0  0  0  0  0  0
    6.5371    1.6702   19.3910 H   0  0  0  0  0  0  0  0  0  0  0  0
    3.6662   -0.5482   18.2703 H   0  0  0  0  0  0  0  0  0  0  0  0
    4.3755   -2.0588   18.8344 H   0  0  0  0  0  0  0  0  0  0  0  0
    3.7929   -0.8642   20.0044 H   0  0  0  0  0  0  0  0  0  0  0  0
    5.6699    0.0089   16.9115 H   0  0  0  0  0  0  0  0  0  0  0  0
    7.2960    0.0003   17.5938 H   0  0  0  0  0  0  0  0  0  0  0  0
    6.4135   -1.5238   17.3679 H   0  0  0  0  0  0  0  0  0  0  0  0
    9.0318   -4.4976   24.3661 H   0  0  0  0  0  0  0  0  0  0  0  0
    8.1864   -4.8852   26.2634 H   0  0  0  0  0  0  0  0  0  0  0  0
  1  6  2  0  0  0  0
  1  9  1  0  0  0  0
  2  3  2  0  0  0  0
  2 10  1  0  0  0  0
  3 13  1  0  0  0  0
  4  7  2  0  0  0  0
  4 12  1  0  0  0  0
  5  8  1  0  0  0  0
  5 12  2  0  0  0  0
  6 16  1  0  0  0  0
  7 15  1  0  0  0  0
  8 15  2  0  0  0  0
  9 17  2  0  0  0  0
 10 28  2  0  0  0  0
 11 13  2  0  0  0  0
 11 28  1  0  0  0  0
 12 27  1  0  0  0  0
 13 26  1  0  0  0  0
 14 16  2  0  0  0  0
 14 17  1  0  0  0  0
 14 22  1  0  0  0  0
 15 30  1  0  0  0  0
 16 29  1  0  0  0  0
 17 33  1  0  0  0  0
 18 19  2  0  0  0  0
 19 20  1  0  0  0  0
 20 30  1  0  0  0  0
 20 31  2  0  0  0  0
 21 26  1  0  0  0  0
 21 29  1  0  0  0  0
 21 32  2  0  0  0  0
 23 27  1  0  0  0  0
 24 27  1  0  0  0  0
 25 27  1  0  0  0  0
 26 30  1  0  0  0  0
  1 34  1  0  0  0  0
  2 35  1  0  0  0  0
  3 36  1  0  0  0  0
  4 37  1  0  0  0  0
  5 38  1  0  0  0  0
  6 39  1  0  0  0  0
  7 40  1  0  0  0  0
  8 41  1  0  0  0  0
  9 42  1  0  0  0  0
 10 43  1  0  0  0  0
 11 44  1  0  0  0  0
 18 45  1  0  0  0  0
 18 46  1  0  0  0  0
 19 47  1  0  0  0  0
 22 48  1  0  0  0  0
 22 49  1  0  0  0  0
 22 50  1  0  0  0  0
 23 51  1  0  0  0  0
 23 52  1  0  0  0  0
 23 53  1  0  0  0  0
 24 54  1  0  0  0  0
 24 55  1  0  0  0  0
 24 56  1  0  0  0  0
 25 57  1  0  0  0  0
 25 58  1  0  0  0  0
 25 59  1  0  0  0  0
 26 60  1  0  0  0  0
 29 61  1  0  0  0  0
M  END
> <IC50 (uM)>

> <IC50 (uM) - std>

> <Average Inhibition @ 20 uM>

> <Average Inhibition @ 20 uM - std>

> <Average Inhibition @ 50 uM>

> <Average Inhibition @ 50 uM - std>
-20.7

> <Trypsin IC50 (uM)>
9.17

> <Relative Solubility @ 20 uM>

> <Relative Solubility @ 100 uM>

> <Hybrid2>
-4.508196

> <docked_fragment>
x1380

> <Mpro-_dock>
4.109283

> <site>
active-covalent

$$$$
LON-WEI-b8d98729-40
  -OEChem-05192003313D

 57 59  0     1  0  0  0  0  0999 V2000
    5.4427    0.5244   19.3478 C   0  0  0  0  0  0  0  0  0  0  0  0
    5.9247   -0.3123   20.3482 C   0  0  0  0  0  0  0  0  0  0  0  0
   12.2033   -0.6489   22.2307 C   0  0  0  0  0  0  0  0  0  0  0  0
    7.3808   -4.9208   22.5086 C   0  0  0  0  0  0  0  0  0  0  0  0
    6.9659   -2.9483   23.8405 C   0  0  0  0  0  0  0  0  0  0  0  0
   13.5319   -0.3296   22.5106 C   0  0  0  0  0  0  0  0  0  0  0  0
    7.2252   -5.7188   23.6419 C   0  0  0  0  0  0  0  0  0  0  0  0
    6.8102   -3.7463   24.9739 C   0  0  0  0  0  0  0  0  0  0  0  0
   12.7964    1.3924   24.0373 C   0  0  0  0  0  0  0  0  0  0  0  0
    6.3649    1.2335   18.5952 C   0  0  0  0  0  0  0  0  0  0  0  0
    8.1342    0.3379   19.7551 C   0  0  0  0  0  0  0  0  0  0  0  0
    7.2949   -0.4130   20.5623 C   0  0  0  0  0  0  0  0  0  0  0  0
   11.4678    1.0731   23.7573 C   0  0  0  0  0  0  0  0  0  0  0  0
    7.2512   -3.5355   22.6079 C   0  0  0  0  0  0  0  0  0  0  0  0
   11.1712    0.0525   22.8540 C   0  0  0  0  0  0  0  0  0  0  0  0
   13.8285    0.6910   23.4139 C   0  0  0  0  0  0  0  0  0  0  0  0
    6.9399   -5.1316   24.8746 C   0  0  0  0  0  0  0  0  0  0  0  0
    7.2537   -2.4399   17.8089 C   0  0  0  0  0  0  0  0  0  0  0  0
    7.8257   -2.5497   19.0122 C   0  0  0  0  0  0  0  0  0  0  0  0
    7.0850   -3.1821   20.1430 C   0  0  0  0  0  0  0  0  0  0  0  0
    9.3762   -1.2699   21.6812 C   0  0  0  0  0  0  0  0  0  0  0  0
   10.3830    1.8414   24.4398 C   0  0  0  0  0  0  0  0  0  0  0  0
   16.1302    0.2448   23.0154 C   0  0  0  0  0  0  0  0  0  0  0  0
    8.0641   -5.4768   27.3505 C   0  0  0  0  0  0  0  0  0  0  0  0
    7.8508   -1.3149   21.6421 C   0  0  2  0  0  0  0  0  0  0  0  0
    7.7030    1.1616   18.7737 N   0  0  0  0  0  0  0  0  0  0  0  0
    9.8298   -0.2851   22.5552 N   0  0  0  0  0  0  0  0  0  0  0  0
    7.4131   -2.7043   21.4276 N   0  0  0  0  0  0  0  0  0  0  0  0
    6.2637   -4.0653   19.8952 O   0  0  0  0  0  0  0  0  0  0  0  0
   10.0613   -2.0247   20.9961 O   0  0  0  0  0  0  0  0  0  0  0  0
   15.1251    1.0021   23.6875 O   0  0  0  0  0  0  0  0  0  0  0  0
    6.7412   -6.1514   26.3223 S   0  0  0  0  0  0  0  0  0  0  0  0
    4.3787    0.6184   19.1630 H   0  0  0  0  0  0  0  0  0  0  0  0
    5.2262   -0.8817   20.9553 H   0  0  0  0  0  0  0  0  0  0  0  0
   11.9844   -1.4458   21.5240 H   0  0  0  0  0  0  0  0  0  0  0  0
    7.6034   -5.3889   21.5529 H   0  0  0  0  0  0  0  0  0  0  0  0
    6.8626   -1.8697   23.9296 H   0  0  0  0  0  0  0  0  0  0  0  0
   14.3315   -0.8800   22.0222 H   0  0  0  0  0  0  0  0  0  0  0  0
    7.3301   -6.7966   23.5449 H   0  0  0  0  0  0  0  0  0  0  0  0
    6.5879   -3.2706   25.9259 H   0  0  0  0  0  0  0  0  0  0  0  0
   13.0309    2.1878   24.7406 H   0  0  0  0  0  0  0  0  0  0  0  0
    6.0394    1.9000   17.8032 H   0  0  0  0  0  0  0  0  0  0  0  0
    9.2125    0.3003   19.8754 H   0  0  0  0  0  0  0  0  0  0  0  0
    7.8049   -2.0005   16.9842 H   0  0  0  0  0  0  0  0  0  0  0  0
    6.2396   -2.7704   17.6129 H   0  0  0  0  0  0  0  0  0  0  0  0
    8.8477   -2.2215   19.1616 H   0  0  0  0  0  0  0  0  0  0  0  0
   10.1062    2.7179   23.8430 H   0  0  0  0  0  0  0  0  0  0  0  0
    9.4905    1.2210   24.5857 H   0  0  0  0  0  0  0  0  0  0  0  0
   10.7028    2.1803   25.4327 H   0  0  0  0  0  0  0  0  0  0  0  0
   17.1184    0.5947   23.3238 H   0  0  0  0  0  0  0  0  0  0  0  0
   16.0123    0.3591   21.9349 H   0  0  0  0  0  0  0  0  0  0  0  0
   16.0196   -0.8088   23.2826 H   0  0  0  0  0  0  0  0  0  0  0  0
    8.0926   -5.9994   28.3097 H   0  0  0  0  0  0  0  0  0  0  0  0
    7.8892   -4.4130   27.5293 H   0  0  0  0  0  0  0  0  0  0  0  0
    9.0257   -5.6013   26.8468 H   0  0  0  0  0  0  0  0  0  0  0  0
    7.4691   -1.0075   22.6235 H   0  0  0  0  0  0  0  0  0  0  0  0
    9.1128    0.2549   23.0350 H   0  0  0  0  0  0  0  0  0  0  0  0
  1  2  2  0  0  0  0
  1 10  1  0  0  0  0
  2 12  1  0  0  0  0
  3  6  2  0  0  0  0
  3 15  1  0  0  0  0
  4  7  2  0  0  0  0
  4 14  1  0  0  0  0
  5  8  1  0  0  0  0
  5 14  2  0  0  0  0
  6 16  1  0  0  0  0
  7 17  1  0  0  0  0
  8 17  2  0  0  0  0
  9 13  1  0  0  0  0
  9 16  2  0  0  0  0
 10 26  2  0  0  0  0
 11 12  2  0  0  0  0
 11 26  1  0  0  0  0
 12 25  1  0  0  0  0
 13 15  2  0  0  0  0
 13 22  1  0  0  0  0
 14 28  1  0  0  0  0
 15 27  1  0  0  0  0
 16 31  1  0  0  0  0
 17 32  1  0  0  0  0
 18 19  2  0  0  0  0
 19 20  1  0  0  0  0
 20 28  1  0  0  0  0
 20 29  2  0  0  0  0
 21 25  1  0  0  0  0
 21 27  1  0  0  0  0
 21 30  2  0  0  0  0
 23 31  1  0  0  0  0
 24 32  1  0  0  0  0
 25 28  1  0  0  0  0
  1 33  1  0  0  0  0
  2 34  1  0  0  0  0
  3 35  1  0  0  0  0
  4 36  1  0  0  0  0
  5 37  1  0  0  0  0
  6 38  1  0  0  0  0
  7 39  1  0  0  0  0
  8 40  1  0  0  0  0
  9 41  1  0  0  0  0
 10 42  1  0  0  0  0
 11 43  1  0  0  0  0
 18 44  1  0  0  0  0
 18 45  1  0  0  0  0
 19 46  1  0  0  0  0
 22 47  1  0  0  0  0
 22 48  1  0  0  0  0
 22 49  1  0  0  0  0
 23 50  1  0  0  0  0
 23 51  1  0  0  0  0
 23 52  1  0  0  0  0
 24 53  1  0  0  0  0
 24 54  1  0  0  0  0
 24 55  1  0  0  0  0
 25 56  1  0  0  0  0
 27 57  1  0  0  0  0
M  END
> <IC50 (uM)>

> <IC50 (uM) - std>

> <Average Inhibition @ 20 uM>

> <Average Inhibition @ 20 uM - std>
8.27

> <Average Inhibition @ 50 uM>
5.86

> <Average Inhibition @ 50 uM - std>
22.2

> <Trypsin IC50 (uM)>
0.594

> <Relative Solubility @ 20 uM>
0.95

> <Relative Solubility @ 100 uM>
0.84

> <Hybrid2>
-4.433858

> <docked_fragment>
x0831

> <Mpro-_dock>
4.098318

> <site>
active-covalent

$$$$
LON-WEI-b8d98729-2
  -OEChem-05192003313D

 59 61  0     1  0  0  0  0  0999 V2000
    4.9529   -2.2764   18.5066 C   0  0  0  0  0  0  0  0  0  0  0  0
    8.9394   -4.1065   24.5363 C   0  0  0  0  0  0  0  0  0  0  0  0
    5.0646   -3.1100   19.6193 C   0  0  0  0  0  0  0  0  0  0  0  0
    5.7033   -1.1027   18.4363 C   0  0  0  0  0  0  0  0  0  0  0  0
    9.1662   -3.1231   23.5799 C   0  0  0  0  0  0  0  0  0  0  0  0
   12.6588    1.0975   23.7106 C   0  0  0  0  0  0  0  0  0  0  0  0
   10.5899    2.0052   22.8546 C   0  0  0  0  0  0  0  0  0  0  0  0
   13.0994    2.3861   24.0123 C   0  0  0  0  0  0  0  0  0  0  0  0
   11.0304    3.2938   23.1563 C   0  0  0  0  0  0  0  0  0  0  0  0
    8.8120   -3.7092   25.8575 C   0  0  0  0  0  0  0  0  0  0  0  0
    9.1154   -1.4974   25.3151 C   0  0  0  0  0  0  0  0  0  0  0  0
    9.2573   -1.7911   23.9685 C   0  0  0  0  0  0  0  0  0  0  0  0
    5.9267   -2.7699   20.6618 C   0  0  0  0  0  0  0  0  0  0  0  0
    6.5653   -0.7625   19.4788 C   0  0  0  0  0  0  0  0  0  0  0  0
   11.4041    0.9070   23.1317 C   0  0  0  0  0  0  0  0  0  0  0  0
    6.6770   -1.5961   20.5916 C   0  0  0  0  0  0  0  0  0  0  0  0
   12.2852    3.4843   23.7352 C   0  0  0  0  0  0  0  0  0  0  0  0
   14.2175   -1.6922   21.8681 C   0  0  0  0  0  0  0  0  0  0  0  0
   13.0670   -1.0251   21.7323 C   0  0  0  0  0  0  0  0  0  0  0  0
   11.8515   -1.4603   22.4809 C   0  0  0  0  0  0  0  0  0  0  0  0
    8.9298   -1.0631   21.5850 C   0  0  0  0  0  0  0  0  0  0  0  0
    6.0246   -3.6832   21.8408 C   0  0  0  0  0  0  0  0  0  0  0  0
    6.7752    1.6192   20.2338 C   0  0  0  0  0  0  0  0  0  0  0  0
   12.8111    5.8569   22.4674 C   0  0  0  0  0  0  0  0  0  0  0  0
    7.3560    0.5013   19.3738 C   0  0  0  0  0  0  0  0  0  0  0  0
    9.5027   -0.6978   22.9521 C   0  0  2  0  0  0  0  0  0  0  0  0
    8.8944   -2.4254   26.2731 N   0  0  0  0  0  0  0  0  0  0  0  0
    7.5514   -1.2507   21.6493 N   0  0  0  0  0  0  0  0  0  0  0  0
   10.9452   -0.4350   22.8176 N   0  0  0  0  0  0  0  0  0  0  0  0
   11.7216   -2.6521   22.7615 O   0  0  0  0  0  0  0  0  0  0  0  0
    9.6469   -1.1741   20.5942 O   0  0  0  0  0  0  0  0  0  0  0  0
   12.8482    5.1304   24.1207 S   0  0  0  0  0  0  0  0  0  0  0  0
    4.2818   -2.5413   17.6946 H   0  0  0  0  0  0  0  0  0  0  0  0
    8.8646   -5.1511   24.2563 H   0  0  0  0  0  0  0  0  0  0  0  0
    4.4753   -4.0221   19.6649 H   0  0  0  0  0  0  0  0  0  0  0  0
    5.6092   -0.4605   17.5646 H   0  0  0  0  0  0  0  0  0  0  0  0
    9.2704   -3.4034   22.5353 H   0  0  0  0  0  0  0  0  0  0  0  0
   13.3017    0.2488   23.9305 H   0  0  0  0  0  0  0  0  0  0  0  0
    9.6102    1.8685   22.4037 H   0  0  0  0  0  0  0  0  0  0  0  0
   14.0803    2.5148   24.4630 H   0  0  0  0  0  0  0  0  0  0  0  0
   10.3817    4.1373   22.9332 H   0  0  0  0  0  0  0  0  0  0  0  0
    8.6346   -4.4382   26.6414 H   0  0  0  0  0  0  0  0  0  0  0  0
    9.1769   -0.4760   25.6778 H   0  0  0  0  0  0  0  0  0  0  0  0
   15.1042   -1.3578   21.3397 H   0  0  0  0  0  0  0  0  0  0  0  0
   14.3094   -2.5756   22.4902 H   0  0  0  0  0  0  0  0  0  0  0  0
   13.0221   -0.1368   21.1130 H   0  0  0  0  0  0  0  0  0  0  0  0
    6.8108   -4.4290   21.6779 H   0  0  0  0  0  0  0  0  0  0  0  0
    6.2558   -3.1244   22.7556 H   0  0  0  0  0  0  0  0  0  0  0  0
    5.0764   -4.2058   22.0158 H   0  0  0  0  0  0  0  0  0  0  0  0
    5.7333    1.8226   19.9642 H   0  0  0  0  0  0  0  0  0  0  0  0
    7.3462    2.5435   20.1018 H   0  0  0  0  0  0  0  0  0  0  0  0
    6.8015    1.3529   21.2959 H   0  0  0  0  0  0  0  0  0  0  0  0
   13.1363    6.8991   22.5120 H   0  0  0  0  0  0  0  0  0  0  0  0
   11.7949    5.8174   22.0675 H   0  0  0  0  0  0  0  0  0  0  0  0
   13.4784    5.3022   21.8033 H   0  0  0  0  0  0  0  0  0  0  0  0
    8.4011    0.3226   19.6697 H   0  0  0  0  0  0  0  0  0  0  0  0
    7.4010    0.8366   18.3261 H   0  0  0  0  0  0  0  0  0  0  0  0
    9.0370    0.2379   23.2850 H   0  0  0  0  0  0  0  0  0  0  0  0
    7.1227   -1.1247   22.5639 H   0  0  0  0  0  0  0  0  0  0  0  0
  1  3  1  0  0  0  0
  1  4  2  0  0  0  0
  2  5  2  0  0  0  0
  2 10  1  0  0  0  0
  3 13  2  0  0  0  0
  4 14  1  0  0  0  0
  5 12  1  0  0  0  0
  6  8  2  0  0  0  0
  6 15  1  0  0  0  0
  7  9  1  0  0  0  0
  7 15  2  0  0  0  0
  8 17  1  0  0  0  0
  9 17  2  0  0  0  0
 10 27  2  0  0  0  0
 11 12  2  0  0  0  0
 11 27  1  0  0  0  0
 12 26  1  0  0  0  0
 13 16  1  0  0  0  0
 13 22  1  0  0  0  0
 14 16  2  0  0  0  0
 14 25  1  0  0  0  0
 15 29  1  0  0  0  0
 16 28  1  0  0  0  0
 17 32  1  0  0  0  0
 18 19  2  0  0  0  0
 19 20  1  0  0  0  0
 20 29  1  0  0  0  0
 20 30  2  0  0  0  0
 21 26  1  0  0  0  0
 21 28  1  0  0  0  0
 21 31  2  0  0  0  0
 23 25  1  0  0  0  0
 24 32  1  0  0  0  0
 26 29  1  0  0  0  0
  1 33  1  0  0  0  0
  2 34  1  0  0  0  0
  3 35  1  0  0  0  0
  4 36  1  0  0  0  0
  5 37  1  0  0  0  0
  6 38  1  0  0  0  0
  7 39  1  0  0  0  0
  8 40  1  0  0  0  0
  9 41  1  0  0  0  0
 10 42  1  0  0  0  0
 11 43  1  0  0  0  0
 18 44  1  0  0  0  0
 18 45  1  0  0  0  0
 19 46  1  0  0  0  0
 22 47  1  0  0  0  0
 22 48  1  0  0  0  0
 22 49  1  0  0  0  0
 23 50  1  0  0  0  0
 23 51  1  0  0  0  0
 23 52  1  0  0  0  0
 24 53  1  0  0  0  0
 24 54  1  0  0  0  0
 24 55  1  0  0  0  0
 25 56  1  0  0  0  0
 25 57  1  0  0  0  0
 26 58  1  0  0  0  0
 28 59  1  0  0  0  0
M  END
> <IC50 (uM)>

> <IC50 (uM) - std>

> <Average Inhibition @ 20 uM>

> <Average Inhibition @ 20 uM - std>
11.1

> <Average Inhibition @ 50 uM>
1.29

> <Average Inhibition @ 50 uM - std>
24.5

> <Trypsin IC50 (uM)>
1.47

> <Relative Solubility @ 20 uM>
0.85

> <Relative Solubility @ 100 uM>
0.67

> <Hybrid2>
-4.300403

> <docked_fragment>
x0831

> <Mpro-_dock>
5.996135

> <site>
active-covalent

$$$$
LON-WEI-b8d98729-11
  -OEChem-05192003313D

 57 59  0     1  0  0  0  0  0999 V2000
    7.2394   -1.7160   17.4680 C   0  0  0  0  0  0  0  0  0  0  0  0
    7.6347   -0.8589   18.4890 C   0  0  0  0  0  0  0  0  0  0  0  0
    7.8703   -2.4009   22.5299 C   0  0  0  0  0  0  0  0  0  0  0  0
    8.3638   -3.3512   23.4237 C   0  0  0  0  0  0  0  0  0  0  0  0
   10.7549    1.6623   23.9235 C   0  0  0  0  0  0  0  0  0  0  0  0
   11.6382    0.0108   22.3972 C   0  0  0  0  0  0  0  0  0  0  0  0
   12.0137    1.7937   24.5098 C   0  0  0  0  0  0  0  0  0  0  0  0
   12.8970    0.1423   22.9835 C   0  0  0  0  0  0  0  0  0  0  0  0
    6.9317   -1.1538   24.3740 C   0  0  0  0  0  0  0  0  0  0  0  0
    6.2535   -2.6481   17.7490 C   0  0  0  0  0  0  0  0  0  0  0  0
    6.0633   -1.9245   19.9212 C   0  0  0  0  0  0  0  0  0  0  0  0
    7.0404   -0.9587   19.7420 C   0  0  0  0  0  0  0  0  0  0  0  0
    7.4251   -2.1042   25.2679 C   0  0  0  0  0  0  0  0  0  0  0  0
   10.5671    0.7708   22.8672 C   0  0  0  0  0  0  0  0  0  0  0  0
    7.1543   -1.3022   23.0050 C   0  0  0  0  0  0  0  0  0  0  0  0
    8.1412   -3.2029   24.7927 C   0  0  0  0  0  0  0  0  0  0  0  0
   13.0848    1.0337   24.0398 C   0  0  0  0  0  0  0  0  0  0  0  0
    4.4330    2.5487   21.7158 C   0  0  0  0  0  0  0  0  0  0  0  0
    5.0968    1.4504   21.3414 C   0  0  0  0  0  0  0  0  0  0  0  0
    5.4638    0.4124   22.3489 C   0  0  0  0  0  0  0  0  0  0  0  0
    8.9270   -0.1965   21.2179 C   0  0  0  0  0  0  0  0  0  0  0  0
    7.1713   -1.9212   26.7289 C   0  0  0  0  0  0  0  0  0  0  0  0
    9.9748   -4.0294   26.2470 C   0  0  0  0  0  0  0  0  0  0  0  0
    7.8431   -5.3203   26.0528 C   0  0  0  0  0  0  0  0  0  0  0  0
    7.4480   -0.0405   20.8732 C   0  0  2  0  0  0  0  0  0  0  0  0
    5.6531   -2.7749   18.9536 N   0  0  0  0  0  0  0  0  0  0  0  0
    9.2901    0.6378   22.2722 N   0  0  0  0  0  0  0  0  0  0  0  0
    6.6401   -0.3132   22.0735 N   0  0  0  0  0  0  0  0  0  0  0  0
    8.6486   -4.1746   25.6829 N   0  0  0  0  0  0  0  0  0  0  0  0
    4.7330    0.2485   23.3262 O   0  0  0  0  0  0  0  0  0  0  0  0
    9.6553   -0.9679   20.5992 O   0  0  0  0  0  0  0  0  0  0  0  0
   14.6381    1.1960   24.7633 Cl  0  0  0  0  0  0  0  0  0  0  0  0
    7.6886   -1.6563   16.4833 H   0  0  0  0  0  0  0  0  0  0  0  0
    8.4056   -0.1170   18.2993 H   0  0  0  0  0  0  0  0  0  0  0  0
    8.0505   -2.5267   21.4653 H   0  0  0  0  0  0  0  0  0  0  0  0
    8.9217   -4.2028   23.0423 H   0  0  0  0  0  0  0  0  0  0  0  0
    9.9272    2.2591   24.2978 H   0  0  0  0  0  0  0  0  0  0  0  0
   11.5031   -0.6868   21.5747 H   0  0  0  0  0  0  0  0  0  0  0  0
   12.1457    2.4922   25.3320 H   0  0  0  0  0  0  0  0  0  0  0  0
   13.7227   -0.4562   22.6073 H   0  0  0  0  0  0  0  0  0  0  0  0
    6.3737   -0.2971   24.7457 H   0  0  0  0  0  0  0  0  0  0  0  0
    5.9104   -3.3398   16.9866 H   0  0  0  0  0  0  0  0  0  0  0  0
    5.5641   -2.0494   20.8771 H   0  0  0  0  0  0  0  0  0  0  0  0
    4.1482    3.2892   20.9758 H   0  0  0  0  0  0  0  0  0  0  0  0
    4.1640    2.7440   22.7480 H   0  0  0  0  0  0  0  0  0  0  0  0
    5.3322    1.2858   20.2963 H   0  0  0  0  0  0  0  0  0  0  0  0
    6.2324   -2.4089   27.0146 H   0  0  0  0  0  0  0  0  0  0  0  0
    7.9843   -2.3484   27.3283 H   0  0  0  0  0  0  0  0  0  0  0  0
    7.1068   -0.8577   26.9891 H   0  0  0  0  0  0  0  0  0  0  0  0
   10.1866   -4.8804   26.9110 H   0  0  0  0  0  0  0  0  0  0  0  0
   10.7173   -4.0037   25.4359 H   0  0  0  0  0  0  0  0  0  0  0  0
   10.0279   -3.0934   26.8225 H   0  0  0  0  0  0  0  0  0  0  0  0
    8.4083   -5.9573   26.7490 H   0  0  0  0  0  0  0  0  0  0  0  0
    6.9182   -4.9765   26.5391 H   0  0  0  0  0  0  0  0  0  0  0  0
    7.5904   -5.8973   25.1509 H   0  0  0  0  0  0  0  0  0  0  0  0
    7.2647    1.0046   20.5951 H   0  0  0  0  0  0  0  0  0  0  0  0
    8.5507    1.2199   22.6599 H   0  0  0  0  0  0  0  0  0  0  0  0
  1  2  2  0  0  0  0
  1 10  1  0  0  0  0
  2 12  1  0  0  0  0
  3  4  2  0  0  0  0
  3 15  1  0  0  0  0
  4 16  1  0  0  0  0
  5  7  2  0  0  0  0
  5 14  1  0  0  0  0
  6  8  1  0  0  0  0
  6 14  2  0  0  0  0
  7 17  1  0  0  0  0
  8 17  2  0  0  0  0
  9 13  1  0  0  0  0
  9 15  2  0  0  0  0
 10 26  2  0  0  0  0
 11 12  2  0  0  0  0
 11 26  1  0  0  0  0
 12 25  1  0  0  0  0
 13 16  2  0  0  0  0
 13 22  1  0  0  0  0
 14 27  1  0  0  0  0
 15 28  1  0  0  0  0
 16 29  1  0  0  0  0
 17 32  1  0  0  0  0
 18 19  2  0  0  0  0
 19 20  1  0  0  0  0
 20 28  1  0  0  0  0
 20 30  2  0  0  0  0
 21 25  1  0  0  0  0
 21 27  1  0  0  0  0
 21 31  2  0  0  0  0
 23 29  1  0  0  0  0
 24 29  1  0  0  0  0
 25 28  1  0  0  0  0
  1 33  1  0  0  0  0
  2 34  1  0  0  0  0
  3 35  1  0  0  0  0
  4 36  1  0  0  0  0
  5 37  1  0  0  0  0
  6 38  1  0  0  0  0
  7 39  1  0  0  0  0
  8 40  1  0  0  0  0
  9 41  1  0  0  0  0
 10 42  1  0  0  0  0
 11 43  1  0  0  0  0
 18 44  1  0  0  0  0
 18 45  1  0  0  0  0
 19 46  1  0  0  0  0
 22 47  1  0  0  0  0
 22 48  1  0  0  0  0
 22 49  1  0  0  0  0
 23 50  1  0  0  0  0
 23 51  1  0  0  0  0
 23 52  1  0  0  0  0
 24 53  1  0  0  0  0
 24 54  1  0  0  0  0
 24 55  1  0  0  0  0
 25 56  1  0  0  0  0
 27 57  1  0  0  0  0
M  END
> <IC50 (uM)>

> <IC50 (uM) - std>

> <Average Inhibition @ 20 uM>

> <Average Inhibition @ 20 uM - std>
4.26

> <Average Inhibition @ 50 uM>
4.03

> <Average Inhibition @ 50 uM - std>
12.1

> <Trypsin IC50 (uM)>
0.809

> <Relative Solubility @ 20 uM>
0.88

> <Relative Solubility @ 100 uM>
0.78

> <Hybrid2>
-4.042912

> <docked_fragment>
x0831

> <Mpro-_dock>
3.743911

> <site>
active-covalent

$$$$
LON-WEI-b8d98729-15
  -OEChem-05192003313D

 60 62  0     1  0  0  0  0  0999 V2000
    6.1739   -2.6545   29.3774 C   0  0  0  0  0  0  0  0  0  0  0  0
    5.4481   -6.3223   21.4770 C   0  0  0  0  0  0  0  0  0  0  0  0
    6.2807   -3.6343   30.3644 C   0  0  0  0  0  0  0  0  0  0  0  0
    6.5575   -5.7619   22.1002 C   0  0  0  0  0  0  0  0  0  0  0  0
    6.4849   -2.9620   28.0529 C   0  0  0  0  0  0  0  0  0  0  0  0
    7.0098   -5.2290   28.7024 C   0  0  0  0  0  0  0  0  0  0  0  0
    8.0928   -1.8067   21.2668 C   0  0  0  0  0  0  0  0  0  0  0  0
    4.2118   -6.1542   22.0795 C   0  0  0  0  0  0  0  0  0  0  0  0
    5.1201   -4.9485   23.8115 C   0  0  0  0  0  0  0  0  0  0  0  0
    6.6987   -4.9215   30.0269 C   0  0  0  0  0  0  0  0  0  0  0  0
    6.3989   -5.0603   23.2902 C   0  0  0  0  0  0  0  0  0  0  0  0
    6.9029   -4.2492   27.7154 C   0  0  0  0  0  0  0  0  0  0  0  0
    7.0211   -1.4260   20.5034 C   0  0  0  0  0  0  0  0  0  0  0  0
    7.5630   -2.7899   22.1201 C   0  0  0  0  0  0  0  0  0  0  0  0
   10.9068   -3.3877   25.4599 C   0  0  0  0  0  0  0  0  0  0  0  0
   10.3397   -4.0236   24.4299 C   0  0  0  0  0  0  0  0  0  0  0  0
    9.6983   -3.2487   23.3274 C   0  0  0  0  0  0  0  0  0  0  0  0
    7.1665   -3.7126   25.2682 C   0  0  0  0  0  0  0  0  0  0  0  0
    5.5157   -6.7523   31.2659 C   0  0  0  0  0  0  0  0  0  0  0  0
    8.1717    0.3026   19.0773 C   0  0  0  0  0  0  0  0  0  0  0  0
    5.7802    0.6451   19.7842 C   0  0  0  0  0  0  0  0  0  0  0  0
    6.3489   -1.0328   18.0399 C   0  0  0  0  0  0  0  0  0  0  0  0
    6.8128   -5.9686   31.0825 C   0  0  0  0  0  0  0  0  0  0  0  0
    7.5858   -4.4383   23.9923 C   0  0  2  0  0  0  0  0  0  0  0  0
    6.8313   -0.4066   19.3680 C   0  0  0  0  0  0  0  0  0  0  0  0
    4.0185   -5.4793   23.2349 N   0  0  0  0  0  0  0  0  0  0  0  0
    6.2621   -3.0028   21.9026 N   0  0  0  0  0  0  0  0  0  0  0  0
    7.2177   -4.5610   26.3714 N   0  0  0  0  0  0  0  0  0  0  0  0
    8.2885   -3.4677   23.0788 N   0  0  0  0  0  0  0  0  0  0  0  0
   10.3922   -2.4831   22.6577 O   0  0  0  0  0  0  0  0  0  0  0  0
    6.8261   -2.5326   25.2566 O   0  0  0  0  0  0  0  0  0  0  0  0
    5.9226   -2.1328   20.8735 O   0  0  0  0  0  0  0  0  0  0  0  0
    5.8480   -1.6522   29.6401 H   0  0  0  0  0  0  0  0  0  0  0  0
    5.5479   -6.8731   20.5487 H   0  0  0  0  0  0  0  0  0  0  0  0
    6.0369   -3.3850   31.3935 H   0  0  0  0  0  0  0  0  0  0  0  0
    7.5407   -5.8765   21.6519 H   0  0  0  0  0  0  0  0  0  0  0  0
    6.3981   -2.1904   27.2919 H   0  0  0  0  0  0  0  0  0  0  0  0
    7.3363   -6.2334   28.4418 H   0  0  0  0  0  0  0  0  0  0  0  0
    9.1030   -1.4284   21.2115 H   0  0  0  0  0  0  0  0  0  0  0  0
    3.3157   -6.5725   21.6331 H   0  0  0  0  0  0  0  0  0  0  0  0
    4.9346   -4.4126   24.7372 H   0  0  0  0  0  0  0  0  0  0  0  0
   11.3922   -3.9550   26.2471 H   0  0  0  0  0  0  0  0  0  0  0  0
   10.9004   -2.3073   25.5533 H   0  0  0  0  0  0  0  0  0  0  0  0
   10.3827   -5.1047   24.3666 H   0  0  0  0  0  0  0  0  0  0  0  0
    4.6833   -6.0830   31.5083 H   0  0  0  0  0  0  0  0  0  0  0  0
    5.6136   -7.4794   32.0781 H   0  0  0  0  0  0  0  0  0  0  0  0
    5.2537   -7.2972   30.3526 H   0  0  0  0  0  0  0  0  0  0  0  0
    8.0637    1.0362   18.2699 H   0  0  0  0  0  0  0  0  0  0  0  0
    8.5533    0.8423   19.9509 H   0  0  0  0  0  0  0  0  0  0  0  0
    8.9410   -0.4172   18.7735 H   0  0  0  0  0  0  0  0  0  0  0  0
    5.6117    1.3945   19.0031 H   0  0  0  0  0  0  0  0  0  0  0  0
    4.8115    0.1754   19.9914 H   0  0  0  0  0  0  0  0  0  0  0  0
    6.0928    1.1783   20.6898 H   0  0  0  0  0  0  0  0  0  0  0  0
    6.2288   -0.2679   17.2632 H   0  0  0  0  0  0  0  0  0  0  0  0
    7.0649   -1.7697   17.6574 H   0  0  0  0  0  0  0  0  0  0  0  0
    5.3780   -1.5283   18.1565 H   0  0  0  0  0  0  0  0  0  0  0  0
    7.6265   -6.6713   30.8404 H   0  0  0  0  0  0  0  0  0  0  0  0
    7.0978   -5.5143   32.0452 H   0  0  0  0  0  0  0  0  0  0  0  0
    8.3156   -5.2132   24.2575 H   0  0  0  0  0  0  0  0  0  0  0  0
    7.5164   -5.5169   26.1898 H   0  0  0  0  0  0  0  0  0  0  0  0
  1  3  1  0  0  0  0
  1  5  2  0  0  0  0
  2  4  2  0  0  0  0
  2  8  1  0  0  0  0
  3 10  2  0  0  0  0
  4 11  1  0  0  0  0
  5 12  1  0  0  0  0
  6 10  1  0  0  0  0
  6 12  2  0  0  0  0
  7 13  2  0  0  0  0
  7 14  1  0  0  0  0
  8 26  2  0  0  0  0
  9 11  2  0  0  0  0
  9 26  1  0  0  0  0
 10 23  1  0  0  0  0
 11 24  1  0  0  0  0
 12 28  1  0  0  0  0
 13 25  1  0  0  0  0
 13 32  1  0  0  0  0
 14 27  2  0  0  0  0
 14 29  1  0  0  0  0
 15 16  2  0  0  0  0
 16 17  1  0  0  0  0
 17 29  1  0  0  0  0
 17 30  2  0  0  0  0
 18 24  1  0  0  0  0
 18 28  1  0  0  0  0
 18 31  2  0  0  0  0
 19 23  1  0  0  0  0
 20 25  1  0  0  0  0
 21 25  1  0  0  0  0
 22 25  1  0  0  0  0
 24 29  1  0  0  0  0
 27 32  1  0  0  0  0
  1 33  1  0  0  0  0
  2 34  1  0  0  0  0
  3 35  1  0  0  0  0
  4 36  1  0  0  0  0
  5 37  1  0  0  0  0
  6 38  1  0  0  0  0
  7 39  1  0  0  0  0
  8 40  1  0  0  0  0
  9 41  1  0  0  0  0
 15 42  1  0  0  0  0
 15 43  1  0  0  0  0
 16 44  1  0  0  0  0
 19 45  1  0  0  0  0
 19 46  1  0  0  0  0
 19 47  1  0  0  0  0
 20 48  1  0  0  0  0
 20 49  1  0  0  0  0
 20 50  1  0  0  0  0
 21 51  1  0  0  0  0
 21 52  1  0  0  0  0
 21 53  1  0  0  0  0
 22 54  1  0  0  0  0
 22 55  1  0  0  0  0
 22 56  1  0  0  0  0
 23 57  1  0  0  0  0
 23 58  1  0  0  0  0
 24 59  1  0  0  0  0
 28 60  1  0  0  0  0
M  END
> <IC50 (uM)>

> <IC50 (uM) - std>

> <Average Inhibition @ 20 uM>

> <Average Inhibition @ 20 uM - std>
15.6

> <Average Inhibition @ 50 uM>
1.8

> <Average Inhibition @ 50 uM - std>
43.1

> <Trypsin IC50 (uM)>
0.132

> <Relative Solubility @ 20 uM>
0.87

> <Relative Solubility @ 100 uM>
0.76

> <Hybrid2>
-4.035255

> <docked_fragment>
x1380

> <Mpro-_dock>
6.772664

> <site>
active-covalent

$$$$
LON-WEI-b8d98729-13
  -OEChem-05192003313D

 57 59  0     1  0  0  0  0  0999 V2000
    5.8472   -4.2949   27.3553 C   0  0  0  0  0  0  0  0  0  0  0  0
    6.5648   -5.3806   27.8571 C   0  0  0  0  0  0  0  0  0  0  0  0
    6.9543   -0.7283   19.3224 C   0  0  0  0  0  0  0  0  0  0  0  0
    7.6882   -0.6738   20.5021 C   0  0  0  0  0  0  0  0  0  0  0  0
    6.3386   -3.5784   26.2640 C   0  0  0  0  0  0  0  0  0  0  0  0
   10.5928    1.0729   23.9819 C   0  0  0  0  0  0  0  0  0  0  0  0
   11.9672    1.2886   24.0820 C   0  0  0  0  0  0  0  0  0  0  0  0
    7.7739   -5.7498   27.2677 C   0  0  0  0  0  0  0  0  0  0  0  0
   10.9946   -0.8125   22.5257 C   0  0  0  0  0  0  0  0  0  0  0  0
    6.0018   -1.7267   19.1967 C   0  0  0  0  0  0  0  0  0  0  0  0
    6.4758   -2.5652   21.2824 C   0  0  0  0  0  0  0  0  0  0  0  0
    7.4506   -1.6062   21.5058 C   0  0  0  0  0  0  0  0  0  0  0  0
   12.3691   -0.5969   22.6257 C   0  0  0  0  0  0  0  0  0  0  0  0
   10.1065    0.0223   23.2038 C   0  0  0  0  0  0  0  0  0  0  0  0
   12.8554    0.4537   23.4039 C   0  0  0  0  0  0  0  0  0  0  0  0
    7.5477   -3.9477   25.6746 C   0  0  0  0  0  0  0  0  0  0  0  0
    8.2654   -5.0334   26.1764 C   0  0  0  0  0  0  0  0  0  0  0  0
    7.7959    3.3126   23.3634 C   0  0  0  0  0  0  0  0  0  0  0  0
    8.2798    2.2029   22.7964 C   0  0  0  0  0  0  0  0  0  0  0  0
    7.7570    0.8635   23.1965 C   0  0  0  0  0  0  0  0  0  0  0  0
    7.4025   -2.0982   23.9703 C   0  0  0  0  0  0  0  0  0  0  0  0
   13.2979   -1.5055   21.8880 C   0  0  0  0  0  0  0  0  0  0  0  0
   15.0095    0.0502   24.5688 C   0  0  0  0  0  0  0  0  0  0  0  0
   14.9196    1.5542   22.5742 C   0  0  0  0  0  0  0  0  0  0  0  0
    8.2317   -1.5733   22.8009 C   0  0  2  0  0  0  0  0  0  0  0  0
    5.7427   -2.6498   20.1497 N   0  0  0  0  0  0  0  0  0  0  0  0
    8.0137   -3.1969   24.5693 N   0  0  0  0  0  0  0  0  0  0  0  0
    8.6749   -0.2013   23.0995 N   0  0  0  0  0  0  0  0  0  0  0  0
   14.2436    0.6868   23.5170 N   0  0  0  0  0  0  0  0  0  0  0  0
    6.5862    0.7690   23.5660 O   0  0  0  0  0  0  0  0  0  0  0  0
    6.3341   -1.5816   24.2863 O   0  0  0  0  0  0  0  0  0  0  0  0
    9.9174   -5.5772   25.4158 Br  0  0  0  0  0  0  0  0  0  0  0  0
    4.9058   -4.0075   27.8145 H   0  0  0  0  0  0  0  0  0  0  0  0
    6.1817   -5.9383   28.7067 H   0  0  0  0  0  0  0  0  0  0  0  0
    7.1223   -0.0117   18.5266 H   0  0  0  0  0  0  0  0  0  0  0  0
    8.4423    0.0979   20.6305 H   0  0  0  0  0  0  0  0  0  0  0  0
    5.7691   -2.7344   25.8829 H   0  0  0  0  0  0  0  0  0  0  0  0
    9.9102    1.7296   24.5153 H   0  0  0  0  0  0  0  0  0  0  0  0
   12.3349    2.1095   24.6924 H   0  0  0  0  0  0  0  0  0  0  0  0
    8.3186   -6.5988   27.6728 H   0  0  0  0  0  0  0  0  0  0  0  0
   10.6165   -1.6325   21.9189 H   0  0  0  0  0  0  0  0  0  0  0  0
    5.4033   -1.8120   18.2957 H   0  0  0  0  0  0  0  0  0  0  0  0
    6.2462   -3.3188   22.0294 H   0  0  0  0  0  0  0  0  0  0  0  0
    8.1628    4.2851   23.0523 H   0  0  0  0  0  0  0  0  0  0  0  0
    7.0413    3.2884   24.1418 H   0  0  0  0  0  0  0  0  0  0  0  0
    9.0223    2.2722   22.0099 H   0  0  0  0  0  0  0  0  0  0  0  0
   13.4952   -1.1124   20.8842 H   0  0  0  0  0  0  0  0  0  0  0  0
   14.2528   -1.6097   22.4172 H   0  0  0  0  0  0  0  0  0  0  0  0
   12.8736   -2.5125   21.7927 H   0  0  0  0  0  0  0  0  0  0  0  0
   16.0638    0.3541   24.4906 H   0  0  0  0  0  0  0  0  0  0  0  0
   14.6117    0.3552   25.5479 H   0  0  0  0  0  0  0  0  0  0  0  0
   14.9345   -1.0425   24.4667 H   0  0  0  0  0  0  0  0  0  0  0  0
   15.9888    1.6087   22.8268 H   0  0  0  0  0  0  0  0  0  0  0  0
   14.8033    1.1514   21.5572 H   0  0  0  0  0  0  0  0  0  0  0  0
   14.4797    2.5613   22.6222 H   0  0  0  0  0  0  0  0  0  0  0  0
    9.1353   -2.1889   22.7120 H   0  0  0  0  0  0  0  0  0  0  0  0
    8.8990   -3.4947   24.1648 H   0  0  0  0  0  0  0  0  0  0  0  0
  1  2  1  0  0  0  0
  1  5  2  0  0  0  0
  2  8  2  0  0  0  0
  3  4  2  0  0  0  0
  3 10  1  0  0  0  0
  4 12  1  0  0  0  0
  5 16  1  0  0  0  0
  6  7  2  0  0  0  0
  6 14  1  0  0  0  0
  7 15  1  0  0  0  0
  8 17  1  0  0  0  0
  9 13  1  0  0  0  0
  9 14  2  0  0  0  0
 10 26  2  0  0  0  0
 11 12  2  0  0  0  0
 11 26  1  0  0  0  0
 12 25  1  0  0  0  0
 13 15  2  0  0  0  0
 13 22  1  0  0  0  0
 14 28  1  0  0  0  0
 15 29  1  0  0  0  0
 16 17  2  0  0  0  0
 16 27  1  0  0  0  0
 17 32  1  0  0  0  0
 18 19  2  0  0  0  0
 19 20  1  0  0  0  0
 20 28  1  0  0  0  0
 20 30  2  0  0  0  0
 21 25  1  0  0  0  0
 21 27  1  0  0  0  0
 21 31  2  0  0  0  0
 23 29  1  0  0  0  0
 24 29  1  0  0  0  0
 25 28  1  0  0  0  0
  1 33  1  0  0  0  0
  2 34  1  0  0  0  0
  3 35  1  0  0  0  0
  4 36  1  0  0  0  0
  5 37  1  0  0  0  0
  6 38  1  0  0  0  0
  7 39  1  0  0  0  0
  8 40  1  0  0  0  0
  9 41  1  0  0  0  0
 10 42  1  0  0  0  0
 11 43  1  0  0  0  0
 18 44  1  0  0  0  0
 18 45  1  0  0  0  0
 19 46  1  0  0  0  0
 22 47  1  0  0  0  0
 22 48  1  0  0  0  0
 22 49  1  0  0  0  0
 23 50  1  0  0  0  0
 23 51  1  0  0  0  0
 23 52  1  0  0  0  0
 24 53  1  0  0  0  0
 24 54  1  0  0  0  0
 24 55  1  0  0  0  0
 25 56  1  0  0  0  0
 27 57  1  0  0  0  0
M  END
> <IC50 (uM)>

> <IC50 (uM) - std>

> <Average Inhibition @ 20 uM>

> <Average Inhibition @ 20 uM - std>
2.84

> <Average Inhibition @ 50 uM>
3.7

> <Average Inhibition @ 50 uM - std>
8.13

> <Trypsin IC50 (uM)>
2.86

> <Relative Solubility @ 20 uM>
0.86

> <Relative Solubility @ 100 uM>
0.79

> <Hybrid2>
-3.970939

> <docked_fragment>
x1392

> <Mpro-_dock>
4.018184

> <site>
active-covalent

$$$$
LON-WEI-d1c9908a-8
  -OEChem-05192003313D

 65 68  0     1  0  0  0  0  0999 V2000
    5.0653   -3.2682   18.7822 C   0  0  0  0  0  0  0  0  0  0  0  0
    9.0708   -4.3276   24.9815 C   0  0  0  0  0  0  0  0  0  0  0  0
   12.9489    2.2613   23.8505 C   0  0  0  0  0  0  0  0  0  0  0  0
   10.8505    2.9894   22.8998 C   0  0  0  0  0  0  0  0  0  0  0  0
    5.2027   -3.9844   19.9712 C   0  0  0  0  0  0  0  0  0  0  0  0
    5.7645   -2.0747   18.6020 C   0  0  0  0  0  0  0  0  0  0  0  0
    9.2636   -3.4324   23.9353 C   0  0  0  0  0  0  0  0  0  0  0  0
   12.5678    0.9314   23.6732 C   0  0  0  0  0  0  0  0  0  0  0  0
   10.4694    1.6594   22.7224 C   0  0  0  0  0  0  0  0  0  0  0  0
    8.9137   -3.8102   26.2572 C   0  0  0  0  0  0  0  0  0  0  0  0
    9.1257   -1.6501   25.5041 C   0  0  0  0  0  0  0  0  0  0  0  0
   12.0902    3.2904   23.4638 C   0  0  0  0  0  0  0  0  0  0  0  0
    9.2930   -2.0663   24.1931 C   0  0  0  0  0  0  0  0  0  0  0  0
    6.0393   -3.5071   20.9801 C   0  0  0  0  0  0  0  0  0  0  0  0
    6.6011   -1.5974   19.6109 C   0  0  0  0  0  0  0  0  0  0  0  0
   11.3281    0.6304   23.1092 C   0  0  0  0  0  0  0  0  0  0  0  0
    6.7385   -2.3136   20.8000 C   0  0  0  0  0  0  0  0  0  0  0  0
   14.2637   -1.9520   22.1186 C   0  0  0  0  0  0  0  0  0  0  0  0
   13.0866   -1.3528   21.9127 C   0  0  0  0  0  0  0  0  0  0  0  0
   11.8842   -1.7667   22.6938 C   0  0  0  0  0  0  0  0  0  0  0  0
    8.9565   -1.5877   21.7485 C   0  0  0  0  0  0  0  0  0  0  0  0
   12.7935    5.1833   25.0654 C   0  0  0  0  0  0  0  0  0  0  0  0
   11.5385    5.6331   24.3852 C   0  0  0  0  0  0  0  0  0  0  0  0
   12.4973    4.7113   23.6533 C   0  0  0  0  0  0  0  0  0  0  0  0
    6.1659   -4.2967   22.2428 C   0  0  0  0  0  0  0  0  0  0  0  0
   13.3137    5.2939   22.5332 C   0  0  0  0  0  0  0  0  0  0  0  0
    6.7001    0.8531   20.1320 C   0  0  0  0  0  0  0  0  0  0  0  0
    7.3370   -0.3160   19.3876 C   0  0  0  0  0  0  0  0  0  0  0  0
    9.5001   -1.0668   23.0766 C   0  0  2  0  0  0  0  0  0  0  0  0
    8.9363   -2.4898   26.5465 N   0  0  0  0  0  0  0  0  0  0  0  0
    7.5870   -1.8290   21.8236 N   0  0  0  0  0  0  0  0  0  0  0  0
   10.9310   -0.7547   22.9246 N   0  0  0  0  0  0  0  0  0  0  0  0
   11.8037   -2.9304   23.0882 O   0  0  0  0  0  0  0  0  0  0  0  0
    9.6871   -1.7623   20.7769 O   0  0  0  0  0  0  0  0  0  0  0  0
    4.4141   -3.6399   17.9963 H   0  0  0  0  0  0  0  0  0  0  0  0
    9.0441   -5.3967   24.8040 H   0  0  0  0  0  0  0  0  0  0  0  0
   13.9169    2.4856   24.2909 H   0  0  0  0  0  0  0  0  0  0  0  0
   10.1749    3.7845   22.5954 H   0  0  0  0  0  0  0  0  0  0  0  0
    4.6533   -4.9129   20.1021 H   0  0  0  0  0  0  0  0  0  0  0  0
    5.6508   -1.5248   17.6715 H   0  0  0  0  0  0  0  0  0  0  0  0
    9.3897   -3.8077   22.9234 H   0  0  0  0  0  0  0  0  0  0  0  0
   13.2449    0.1375   23.9784 H   0  0  0  0  0  0  0  0  0  0  0  0
    9.5008    1.4370   22.2819 H   0  0  0  0  0  0  0  0  0  0  0  0
    8.7609   -4.4670   27.1073 H   0  0  0  0  0  0  0  0  0  0  0  0
    9.1393   -0.5967   25.7661 H   0  0  0  0  0  0  0  0  0  0  0  0
   15.1399   -1.6315   21.5648 H   0  0  0  0  0  0  0  0  0  0  0  0
   14.3881   -2.7662   22.8240 H   0  0  0  0  0  0  0  0  0  0  0  0
   13.0089   -0.5315   21.2098 H   0  0  0  0  0  0  0  0  0  0  0  0
   13.5773    5.9172   25.2125 H   0  0  0  0  0  0  0  0  0  0  0  0
   12.6974    4.4771   25.8823 H   0  0  0  0  0  0  0  0  0  0  0  0
   10.5995    5.2296   24.7464 H   0  0  0  0  0  0  0  0  0  0  0  0
   11.4777    6.6695   24.0735 H   0  0  0  0  0  0  0  0  0  0  0  0
    6.9852   -5.0192   22.1571 H   0  0  0  0  0  0  0  0  0  0  0  0
    6.3638   -3.6422   23.1001 H   0  0  0  0  0  0  0  0  0  0  0  0
    5.2397   -4.8412   22.4628 H   0  0  0  0  0  0  0  0  0  0  0  0
   13.5761    6.3387   22.7405 H   0  0  0  0  0  0  0  0  0  0  0  0
   12.7587    5.2667   21.5873 H   0  0  0  0  0  0  0  0  0  0  0  0
   14.2461    4.7329   22.3937 H   0  0  0  0  0  0  0  0  0  0  0  0
    5.6529    0.9832   19.8385 H   0  0  0  0  0  0  0  0  0  0  0  0
    7.2315    1.7847   19.9138 H   0  0  0  0  0  0  0  0  0  0  0  0
    6.7280    0.6924   21.2151 H   0  0  0  0  0  0  0  0  0  0  0  0
    8.3861   -0.4188   19.7049 H   0  0  0  0  0  0  0  0  0  0  0  0
    7.3772   -0.0821   18.3126 H   0  0  0  0  0  0  0  0  0  0  0  0
    8.9910   -0.1248   23.3146 H   0  0  0  0  0  0  0  0  0  0  0  0
    7.1447   -1.6341   22.7194 H   0  0  0  0  0  0  0  0  0  0  0  0
  1  5  1  0  0  0  0
  1  6  2  0  0  0  0
  2  7  2  0  0  0  0
  2 10  1  0  0  0  0
  3  8  2  0  0  0  0
  3 12  1  0  0  0  0
  4  9  1  0  0  0  0
  4 12  2  0  0  0  0
  5 14  2  0  0  0  0
  6 15  1  0  0  0  0
  7 13  1  0  0  0  0
  8 16  1  0  0  0  0
  9 16  2  0  0  0  0
 10 30  2  0  0  0  0
 11 13  2  0  0  0  0
 11 30  1  0  0  0  0
 12 24  1  0  0  0  0
 13 29  1  0  0  0  0
 14 17  1  0  0  0  0
 14 25  1  0  0  0  0
 15 17  2  0  0  0  0
 15 28  1  0  0  0  0
 16 32  1  0  0  0  0
 17 31  1  0  0  0  0
 18 19  2  0  0  0  0
 19 20  1  0  0  0  0
 20 32  1  0  0  0  0
 20 33  2  0  0  0  0
 21 29  1  0  0  0  0
 21 31  1  0  0  0  0
 21 34  2  0  0  0  0
 22 23  1  0  0  0  0
 22 24  1  0  0  0  0
 23 24  1  0  0  0  0
 24 26  1  0  0  0  0
 27 28  1  0  0  0  0
 29 32  1  0  0  0  0
  1 35  1  0  0  0  0
  2 36  1  0  0  0  0
  3 37  1  0  0  0  0
  4 38  1  0  0  0  0
  5 39  1  0  0  0  0
  6 40  1  0  0  0  0
  7 41  1  0  0  0  0
  8 42  1  0  0  0  0
  9 43  1  0  0  0  0
 10 44  1  0  0  0  0
 11 45  1  0  0  0  0
 18 46  1  0  0  0  0
 18 47  1  0  0  0  0
 19 48  1  0  0  0  0
 22 49  1  0  0  0  0
 22 50  1  0  0  0  0
 23 51  1  0  0  0  0
 23 52  1  0  0  0  0
 25 53  1  0  0  0  0
 25 54  1  0  0  0  0
 25 55  1  0  0  0  0
 26 56  1  0  0  0  0
 26 57  1  0  0  0  0
 26 58  1  0  0  0  0
 27 59  1  0  0  0  0
 27 60  1  0  0  0  0
 27 61  1  0  0  0  0
 28 62  1  0  0  0  0
 28 63  1  0  0  0  0
 29 64  1  0  0  0  0
 31 65  1  0  0  0  0
M  END
> <IC50 (uM)>

> <IC50 (uM) - std>

> <Average Inhibition @ 20 uM>

> <Average Inhibition @ 20 uM - std>

> <Average Inhibition @ 50 uM>

> <Average Inhibition @ 50 uM - std>
8.55

> <Trypsin IC50 (uM)>
0.383

> <Relative Solubility @ 20 uM>

> <Relative Solubility @ 100 uM>

> <Hybrid2>
-3.686610

> <docked_fragment>
x0831

> <Mpro-_dock>
4.341524

> <site>
active-covalent

$$$$
LON-WEI-b8d98729-18
  -OEChem-05192003313D

 63 65  0     1  0  0  0  0  0999 V2000
   12.9187    1.1048   23.6048 C   0  0  0  0  0  0  0  0  0  0  0  0
    6.4356   -3.8533   25.9532 C   0  0  0  0  0  0  0  0  0  0  0  0
   11.8607    0.9139   24.4935 C   0  0  0  0  0  0  0  0  0  0  0  0
   13.0827    0.2431   22.5202 C   0  0  0  0  0  0  0  0  0  0  0  0
    6.8320   -3.2997   24.7409 C   0  0  0  0  0  0  0  0  0  0  0  0
    5.9732   -1.7121   20.1639 C   0  0  0  0  0  0  0  0  0  0  0  0
    6.0438   -0.6941   19.2193 C   0  0  0  0  0  0  0  0  0  0  0  0
    7.0138   -5.0520   26.3387 C   0  0  0  0  0  0  0  0  0  0  0  0
    8.2992   -5.1466   24.4368 C   0  0  0  0  0  0  0  0  0  0  0  0
    8.3484   -1.6921   20.2864 C   0  0  0  0  0  0  0  0  0  0  0  0
    7.7811   -3.9524   23.9622 C   0  0  0  0  0  0  0  0  0  0  0  0
   10.9668   -0.1388   24.2978 C   0  0  0  0  0  0  0  0  0  0  0  0
   12.1887   -0.8096   22.3245 C   0  0  0  0  0  0  0  0  0  0  0  0
    7.1429   -2.2261   20.7124 C   0  0  0  0  0  0  0  0  0  0  0  0
   11.1308   -1.0006   23.2133 C   0  0  0  0  0  0  0  0  0  0  0  0
    7.2984   -0.2285   18.8603 C   0  0  0  0  0  0  0  0  0  0  0  0
    5.5685   -6.4059   22.7626 C   0  0  0  0  0  0  0  0  0  0  0  0
    6.4577   -5.6151   22.1536 C   0  0  0  0  0  0  0  0  0  0  0  0
    6.0665   -4.2455   21.7081 C   0  0  0  0  0  0  0  0  0  0  0  0
    8.8488   -1.9891   22.8117 C   0  0  0  0  0  0  0  0  0  0  0  0
    9.8434   -0.3177   25.2671 C   0  0  0  0  0  0  0  0  0  0  0  0
   11.9305   -1.0797   19.8452 C   0  0  0  0  0  0  0  0  0  0  0  0
    8.1702    0.4175   16.5852 C   0  0  0  0  0  0  0  0  0  0  0  0
    8.0598    2.1351   18.4271 C   0  0  0  0  0  0  0  0  0  0  0  0
   12.3909   -1.7154   21.1531 C   0  0  0  0  0  0  0  0  0  0  0  0
    8.2337   -3.3757   22.6389 C   0  0  2  0  0  0  0  0  0  0  0  0
    7.4116    0.8631   17.8492 C   0  0  0  0  0  0  0  0  0  0  0  0
    7.9386   -5.7153   25.6091 N   0  0  0  0  0  0  0  0  0  0  0  0
    8.4566   -0.7030   19.3712 N   0  0  0  0  0  0  0  0  0  0  0  0
   10.2242   -2.0689   23.0148 N   0  0  0  0  0  0  0  0  0  0  0  0
    7.1018   -3.2894   21.7013 N   0  0  0  0  0  0  0  0  0  0  0  0
    4.8949   -4.0353   21.3930 O   0  0  0  0  0  0  0  0  0  0  0  0
    8.1630   -0.9709   22.7778 O   0  0  0  0  0  0  0  0  0  0  0  0
   13.6147    1.9247   23.7569 H   0  0  0  0  0  0  0  0  0  0  0  0
    5.6975   -3.3619   26.5768 H   0  0  0  0  0  0  0  0  0  0  0  0
   11.7419    1.5905   25.3357 H   0  0  0  0  0  0  0  0  0  0  0  0
   13.9100    0.4011   21.8333 H   0  0  0  0  0  0  0  0  0  0  0  0
    6.3967   -2.3602   24.4115 H   0  0  0  0  0  0  0  0  0  0  0  0
    5.0025   -2.0965   20.4655 H   0  0  0  0  0  0  0  0  0  0  0  0
    5.1386   -0.2847   18.7836 H   0  0  0  0  0  0  0  0  0  0  0  0
    6.7380   -5.5250   27.2755 H   0  0  0  0  0  0  0  0  0  0  0  0
    9.0429   -5.7010   23.8728 H   0  0  0  0  0  0  0  0  0  0  0  0
    9.2949   -2.0527   20.6779 H   0  0  0  0  0  0  0  0  0  0  0  0
    5.8644   -7.3919   23.1053 H   0  0  0  0  0  0  0  0  0  0  0  0
    4.5398   -6.1063   22.9296 H   0  0  0  0  0  0  0  0  0  0  0  0
    7.4810   -5.9469   22.0208 H   0  0  0  0  0  0  0  0  0  0  0  0
    8.9648    0.2482   24.9374 H   0  0  0  0  0  0  0  0  0  0  0  0
    9.5653   -1.3744   25.3594 H   0  0  0  0  0  0  0  0  0  0  0  0
   10.1269    0.0273   26.2688 H   0  0  0  0  0  0  0  0  0  0  0  0
   10.8757   -0.7895   19.8984 H   0  0  0  0  0  0  0  0  0  0  0  0
   12.0476   -1.7813   19.0133 H   0  0  0  0  0  0  0  0  0  0  0  0
   12.5149   -0.1820   19.6167 H   0  0  0  0  0  0  0  0  0  0  0  0
    9.1913    0.0971   16.8194 H   0  0  0  0  0  0  0  0  0  0  0  0
    8.2365    1.2283   15.8516 H   0  0  0  0  0  0  0  0  0  0  0  0
    7.6572   -0.4251   16.1081 H   0  0  0  0  0  0  0  0  0  0  0  0
    9.0710    1.9185   18.7894 H   0  0  0  0  0  0  0  0  0  0  0  0
    7.4806    2.5328   19.2676 H   0  0  0  0  0  0  0  0  0  0  0  0
    8.1374    2.9264   17.6735 H   0  0  0  0  0  0  0  0  0  0  0  0
   13.4522   -1.9945   21.0660 H   0  0  0  0  0  0  0  0  0  0  0  0
   11.8501   -2.6620   21.3057 H   0  0  0  0  0  0  0  0  0  0  0  0
    8.9817   -4.0322   22.1776 H   0  0  0  0  0  0  0  0  0  0  0  0
    6.4028    1.1639   17.5085 H   0  0  0  0  0  0  0  0  0  0  0  0
   10.6241   -3.0049   23.0214 H   0  0  0  0  0  0  0  0  0  0  0  0
  1  3  1  0  0  0  0
  1  4  2  0  0  0  0
  2  5  2  0  0  0  0
  2  8  1  0  0  0  0
  3 12  2  0  0  0  0
  4 13  1  0  0  0  0
  5 11  1  0  0  0  0
  6  7  2  0  0  0  0
  6 14  1  0  0  0  0
  7 16  1  0  0  0  0
  8 28  2  0  0  0  0
  9 11  2  0  0  0  0
  9 28  1  0  0  0  0
 10 14  2  0  0  0  0
 10 29  1  0  0  0  0
 11 26  1  0  0  0  0
 12 15  1  0  0  0  0
 12 21  1  0  0  0  0
 13 15  2  0  0  0  0
 13 25  1  0  0  0  0
 14 31  1  0  0  0  0
 15 30  1  0  0  0  0
 16 27  1  0  0  0  0
 16 29  2  0  0  0  0
 17 18  2  0  0  0  0
 18 19  1  0  0  0  0
 19 31  1  0  0  0  0
 19 32  2  0  0  0  0
 20 26  1  0  0  0  0
 20 30  1  0  0  0  0
 20 33  2  0  0  0  0
 22 25  1  0  0  0  0
 23 27  1  0  0  0  0
 24 27  1  0  0  0  0
 26 31  1  0  0  0  0
  1 34  1  0  0  0  0
  2 35  1  0  0  0  0
  3 36  1  0  0  0  0
  4 37  1  0  0  0  0
  5 38  1  0  0  0  0
  6 39  1  0  0  0  0
  7 40  1  0  0  0  0
  8 41  1  0  0  0  0
  9 42  1  0  0  0  0
 10 43  1  0  0  0  0
 17 44  1  0  0  0  0
 17 45  1  0  0  0  0
 18 46  1  0  0  0  0
 21 47  1  0  0  0  0
 21 48  1  0  0  0  0
 21 49  1  0  0  0  0
 22 50  1  0  0  0  0
 22 51  1  0  0  0  0
 22 52  1  0  0  0  0
 23 53  1  0  0  0  0
 23 54  1  0  0  0  0
 23 55  1  0  0  0  0
 24 56  1  0  0  0  0
 24 57  1  0  0  0  0
 24 58  1  0  0  0  0
 25 59  1  0  0  0  0
 25 60  1  0  0  0  0
 26 61  1  0  0  0  0
 27 62  1  0  0  0  0
 30 63  1  0  0  0  0
M  END
> <IC50 (uM)>

> <IC50 (uM) - std>

> <Average Inhibition @ 20 uM>

> <Average Inhibition @ 20 uM - std>
5.61

> <Average Inhibition @ 50 uM>
2.53

> <Average Inhibition @ 50 uM - std>
12.5

> <Trypsin IC50 (uM)>
1.87

> <Relative Solubility @ 20 uM>
1.0

> <Relative Solubility @ 100 uM>
0.95

> <Hybrid2>
-3.682618

> <docked_fragment>
x1392

> <Mpro-_dock>
5.247264

> <site>
active-covalent

$$$$
LON-WEI-b8d98729-48
  -OEChem-05192003313D

 57 60  0     1  0  0  0  0  0999 V2000
    5.4037   -2.7813   18.6466 C   0  0  0  0  0  0  0  0  0  0  0  0
    9.7523   -4.1446   24.5482 C   0  0  0  0  0  0  0  0  0  0  0  0
    5.7158   -3.6590   19.6847 C   0  0  0  0  0  0  0  0  0  0  0  0
    5.8578   -1.4630   18.6876 C   0  0  0  0  0  0  0  0  0  0  0  0
    9.7355   -3.0562   23.6832 C   0  0  0  0  0  0  0  0  0  0  0  0
   10.3284    3.2357   24.9517 C   0  0  0  0  0  0  0  0  0  0  0  0
   10.1703    1.9119   24.5312 C   0  0  0  0  0  0  0  0  0  0  0  0
   12.0653    2.1214   23.0332 C   0  0  0  0  0  0  0  0  0  0  0  0
    9.5451   -3.9045   25.8970 C   0  0  0  0  0  0  0  0  0  0  0  0
    9.3181   -1.6446   25.5512 C   0  0  0  0  0  0  0  0  0  0  0  0
   12.6801    5.7566   24.0371 C   0  0  0  0  0  0  0  0  0  0  0  0
    9.5149   -1.7788   24.1863 C   0  0  0  0  0  0  0  0  0  0  0  0
    6.4819   -3.2185   20.7639 C   0  0  0  0  0  0  0  0  0  0  0  0
    6.6239   -1.0225   19.7668 C   0  0  0  0  0  0  0  0  0  0  0  0
   11.3679    4.0231   24.4109 C   0  0  0  0  0  0  0  0  0  0  0  0
   11.0286    1.3640   23.5843 C   0  0  0  0  0  0  0  0  0  0  0  0
    6.9360   -1.9003   20.8050 C   0  0  0  0  0  0  0  0  0  0  0  0
   12.2183    3.4503   23.4602 C   0  0  0  0  0  0  0  0  0  0  0  0
   14.3860   -0.7821   22.5693 C   0  0  0  0  0  0  0  0  0  0  0  0
   13.2941   -0.5123   23.2919 C   0  0  0  0  0  0  0  0  0  0  0  0
   11.9372   -0.8026   22.7427 C   0  0  0  0  0  0  0  0  0  0  0  0
    9.0085   -0.9434   21.8704 C   0  0  0  0  0  0  0  0  0  0  0  0
    6.7997   -4.1824   21.8610 C   0  0  0  0  0  0  0  0  0  0  0  0
    6.2758    1.2674   20.7270 C   0  0  0  0  0  0  0  0  0  0  0  0
    7.0958    0.3954   19.7815 C   0  0  0  0  0  0  0  0  0  0  0  0
    9.4900   -0.5744   23.2713 C   0  0  2  0  0  0  0  0  0  0  0  0
    9.3277   -2.6781   26.4227 N   0  0  0  0  0  0  0  0  0  0  0  0
   11.6452    5.3441   24.7309 N   0  0  0  0  0  0  0  0  0  0  0  0
    7.7129   -1.4531   21.9000 N   0  0  0  0  0  0  0  0  0  0  0  0
   10.8540    0.0402   23.1773 N   0  0  0  0  0  0  0  0  0  0  0  0
   11.7988   -1.7536   21.9729 O   0  0  0  0  0  0  0  0  0  0  0  0
    9.7243   -0.7970   20.8832 O   0  0  0  0  0  0  0  0  0  0  0  0
   13.3868    4.6202   22.9716 S   0  0  0  0  0  0  0  0  0  0  0  0
    4.8074   -3.1242   17.8060 H   0  0  0  0  0  0  0  0  0  0  0  0
    9.9221   -5.1494   24.1783 H   0  0  0  0  0  0  0  0  0  0  0  0
    5.3568   -4.6841   19.6436 H   0  0  0  0  0  0  0  0  0  0  0  0
    5.6096   -0.7874   17.8733 H   0  0  0  0  0  0  0  0  0  0  0  0
    9.8947   -3.2125   22.6198 H   0  0  0  0  0  0  0  0  0  0  0  0
    9.6528    3.6533   25.6929 H   0  0  0  0  0  0  0  0  0  0  0  0
    9.3649    1.3173   24.9562 H   0  0  0  0  0  0  0  0  0  0  0  0
   12.7380    1.6959   22.2936 H   0  0  0  0  0  0  0  0  0  0  0  0
    9.5492   -4.7200   26.6127 H   0  0  0  0  0  0  0  0  0  0  0  0
    9.1413   -0.6726   26.0014 H   0  0  0  0  0  0  0  0  0  0  0  0
   13.0696    6.7610   24.1306 H   0  0  0  0  0  0  0  0  0  0  0  0
   15.3709   -0.5909   22.9824 H   0  0  0  0  0  0  0  0  0  0  0  0
   14.3350   -1.1865   21.5644 H   0  0  0  0  0  0  0  0  0  0  0  0
   13.3897   -0.1237   24.2991 H   0  0  0  0  0  0  0  0  0  0  0  0
    7.7374   -4.7066   21.6448 H   0  0  0  0  0  0  0  0  0  0  0  0
    6.9003   -3.6667   22.8235 H   0  0  0  0  0  0  0  0  0  0  0  0
    6.0016   -4.9255   21.9778 H   0  0  0  0  0  0  0  0  0  0  0  0
    5.2132    1.2440   20.4621 H   0  0  0  0  0  0  0  0  0  0  0  0
    6.6134    2.3075   20.6827 H   0  0  0  0  0  0  0  0  0  0  0  0
    6.3715    0.9234   21.7624 H   0  0  0  0  0  0  0  0  0  0  0  0
    8.1559    0.4412   20.0748 H   0  0  0  0  0  0  0  0  0  0  0  0
    7.0533    0.8216   18.7674 H   0  0  0  0  0  0  0  0  0  0  0  0
    8.8205    0.1938   23.6774 H   0  0  0  0  0  0  0  0  0  0  0  0
    7.2734   -1.5108   22.8163 H   0  0  0  0  0  0  0  0  0  0  0  0
  1  3  1  0  0  0  0
  1  4  2  0  0  0  0
  2  5  2  0  0  0  0
  2  9  1  0  0  0  0
  3 13  2  0  0  0  0
  4 14  1  0  0  0  0
  5 12  1  0  0  0  0
  6  7  2  0  0  0  0
  6 15  1  0  0  0  0
  7 16  1  0  0  0  0
  8 16  2  0  0  0  0
  8 18  1  0  0  0  0
  9 27  2  0  0  0  0
 10 12  2  0  0  0  0
 10 27  1  0  0  0  0
 11 28  2  0  0  0  0
 11 33  1  0  0  0  0
 12 26  1  0  0  0  0
 13 17  1  0  0  0  0
 13 23  1  0  0  0  0
 14 17  2  0  0  0  0
 14 25  1  0  0  0  0
 15 18  2  0  0  0  0
 15 28  1  0  0  0  0
 16 30  1  0  0  0  0
 17 29  1  0  0  0  0
 18 33  1  0  0  0  0
 19 20  2  0  0  0  0
 20 21  1  0  0  0  0
 21 30  1  0  0  0  0
 21 31  2  0  0  0  0
 22 26  1  0  0  0  0
 22 29  1  0  0  0  0
 22 32  2  0  0  0  0
 24 25  1  0  0  0  0
 26 30  1  0  0  0  0
  1 34  1  0  0  0  0
  2 35  1  0  0  0  0
  3 36  1  0  0  0  0
  4 37  1  0  0  0  0
  5 38  1  0  0  0  0
  6 39  1  0  0  0  0
  7 40  1  0  0  0  0
  8 41  1  0  0  0  0
  9 42  1  0  0  0  0
 10 43  1  0  0  0  0
 11 44  1  0  0  0  0
 19 45  1  0  0  0  0
 19 46  1  0  0  0  0
 20 47  1  0  0  0  0
 23 48  1  0  0  0  0
 23 49  1  0  0  0  0
 23 50  1  0  0  0  0
 24 51  1  0  0  0  0
 24 52  1  0  0  0  0
 24 53  1  0  0  0  0
 25 54  1  0  0  0  0
 25 55  1  0  0  0  0
 26 56  1  0  0  0  0
 29 57  1  0  0  0  0
M  END
> <IC50 (uM)>

> <IC50 (uM) - std>

> <Average Inhibition @ 20 uM>

> <Average Inhibition @ 20 uM - std>
7.67

> <Average Inhibition @ 50 uM>
3.72

> <Average Inhibition @ 50 uM - std>
10.7

> <Trypsin IC50 (uM)>
1.22

> <Relative Solubility @ 20 uM>
0.97

> <Relative Solubility @ 100 uM>
0.97

> <Hybrid2>
-3.652820

> <docked_fragment>
x0831

> <Mpro-_dock>
4.31251

> <site>
active-covalent

$$$$
LON-WEI-b8d98729-8
  -OEChem-05192003313D

 63 65  0     1  0  0  0  0  0999 V2000
    5.4146    0.6709   18.6310 C   0  0  0  0  0  0  0  0  0  0  0  0
    5.7003   -0.0874   19.7609 C   0  0  0  0  0  0  0  0  0  0  0  0
    6.1276   -5.1912   23.7028 C   0  0  0  0  0  0  0  0  0  0  0  0
    5.7307   -3.0620   24.7732 C   0  0  0  0  0  0  0  0  0  0  0  0
    6.4848   -4.5331   22.5260 C   0  0  0  0  0  0  0  0  0  0  0  0
    6.0879   -2.4038   23.5964 C   0  0  0  0  0  0  0  0  0  0  0  0
   11.6584   -0.6847   22.4483 C   0  0  0  0  0  0  0  0  0  0  0  0
   12.9671   -0.4365   22.8621 C   0  0  0  0  0  0  0  0  0  0  0  0
   12.2079    1.4888   24.1087 C   0  0  0  0  0  0  0  0  0  0  0  0
    6.4775    1.2251   17.9361 C   0  0  0  0  0  0  0  0  0  0  0  0
    8.0125    0.3302   19.3926 C   0  0  0  0  0  0  0  0  0  0  0  0
    5.7505   -4.4557   24.8264 C   0  0  0  0  0  0  0  0  0  0  0  0
    7.0215   -0.2658   20.1558 C   0  0  0  0  0  0  0  0  0  0  0  0
   10.8991    1.2406   23.6948 C   0  0  0  0  0  0  0  0  0  0  0  0
    6.4650   -3.1394   22.4728 C   0  0  0  0  0  0  0  0  0  0  0  0
   10.6244    0.1540   22.8646 C   0  0  0  0  0  0  0  0  0  0  0  0
   13.2418    0.6501   23.6924 C   0  0  0  0  0  0  0  0  0  0  0  0
    7.1315   -2.5671   17.6294 C   0  0  0  0  0  0  0  0  0  0  0  0
    7.5450   -2.5895   18.9004 C   0  0  0  0  0  0  0  0  0  0  0  0
    6.6235   -3.0406   19.9842 C   0  0  0  0  0  0  0  0  0  0  0  0
    8.8733   -1.1497   21.6075 C   0  0  0  0  0  0  0  0  0  0  0  0
    9.8118    2.1558   24.1563 C   0  0  0  0  0  0  0  0  0  0  0  0
    3.9565   -4.8128   26.5593 C   0  0  0  0  0  0  0  0  0  0  0  0
   15.5272   -0.0054   23.6343 C   0  0  0  0  0  0  0  0  0  0  0  0
    7.4940   -5.5384   27.0131 C   0  0  0  0  0  0  0  0  0  0  0  0
    7.3651   -1.0856   21.3799 C   0  0  2  0  0  0  0  0  0  0  0  0
    5.3686   -5.1595   26.0846 C   0  0  2  0  0  0  0  0  0  0  0  0
    7.7737    1.0738   18.2890 N   0  0  0  0  0  0  0  0  0  0  0  0
    9.3037   -0.1133   22.4322 N   0  0  0  0  0  0  0  0  0  0  0  0
    6.8372   -2.4537   21.2475 N   0  0  0  0  0  0  0  0  0  0  0  0
    5.7639   -3.8820   19.7211 O   0  0  0  0  0  0  0  0  0  0  0  0
    9.5667   -2.0222   21.0914 O   0  0  0  0  0  0  0  0  0  0  0  0
   14.5189    0.8919   24.0967 O   0  0  0  0  0  0  0  0  0  0  0  0
    6.2897   -4.7991   27.1204 O   0  0  0  0  0  0  0  0  0  0  0  0
    4.3923    0.8231   18.3044 H   0  0  0  0  0  0  0  0  0  0  0  0
    4.8880   -0.5352   20.3269 H   0  0  0  0  0  0  0  0  0  0  0  0
    6.1438   -6.2775   23.7346 H   0  0  0  0  0  0  0  0  0  0  0  0
    5.4375   -2.4810   25.6437 H   0  0  0  0  0  0  0  0  0  0  0  0
    6.7774   -5.1164   21.6565 H   0  0  0  0  0  0  0  0  0  0  0  0
    6.0680   -1.3173   23.5656 H   0  0  0  0  0  0  0  0  0  0  0  0
   11.4566   -1.5341   21.8003 H   0  0  0  0  0  0  0  0  0  0  0  0
   13.7682   -1.0937   22.5348 H   0  0  0  0  0  0  0  0  0  0  0  0
   12.4253    2.3354   24.7555 H   0  0  0  0  0  0  0  0  0  0  0  0
    6.3073    1.8252   17.0483 H   0  0  0  0  0  0  0  0  0  0  0  0
    9.0616    0.2259   19.6517 H   0  0  0  0  0  0  0  0  0  0  0  0
    7.8126   -2.2605   16.8425 H   0  0  0  0  0  0  0  0  0  0  0  0
    6.1230   -2.8407   17.3394 H   0  0  0  0  0  0  0  0  0  0  0  0
    8.5668   -2.3238   19.1457 H   0  0  0  0  0  0  0  0  0  0  0  0
    9.6847    2.9815   23.4470 H   0  0  0  0  0  0  0  0  0  0  0  0
    8.8579    1.6224   24.2474 H   0  0  0  0  0  0  0  0  0  0  0  0
   10.0398    2.5744   25.1441 H   0  0  0  0  0  0  0  0  0  0  0  0
    3.8361   -3.7317   26.6819 H   0  0  0  0  0  0  0  0  0  0  0  0
    3.7270   -5.2969   27.5152 H   0  0  0  0  0  0  0  0  0  0  0  0
    3.2063   -5.1686   25.8446 H   0  0  0  0  0  0  0  0  0  0  0  0
   16.4984    0.3014   24.0301 H   0  0  0  0  0  0  0  0  0  0  0  0
   15.5485    0.0010   22.5416 H   0  0  0  0  0  0  0  0  0  0  0  0
   15.2947   -1.0133   23.9863 H   0  0  0  0  0  0  0  0  0  0  0  0
    8.1761   -5.2434   27.8141 H   0  0  0  0  0  0  0  0  0  0  0  0
    7.9537   -5.3483   26.0400 H   0  0  0  0  0  0  0  0  0  0  0  0
    7.2668   -6.6032   27.1047 H   0  0  0  0  0  0  0  0  0  0  0  0
    6.8979   -0.6475   22.2704 H   0  0  0  0  0  0  0  0  0  0  0  0
    5.4311   -6.2560   25.9791 H   0  0  0  0  0  0  0  0  0  0  0  0
    8.5844    0.5266   22.7625 H   0  0  0  0  0  0  0  0  0  0  0  0
  1  2  2  0  0  0  0
  1 10  1  0  0  0  0
  2 13  1  0  0  0  0
  3  5  2  0  0  0  0
  3 12  1  0  0  0  0
  4  6  1  0  0  0  0
  4 12  2  0  0  0  0
  5 15  1  0  0  0  0
  6 15  2  0  0  0  0
  7  8  2  0  0  0  0
  7 16  1  0  0  0  0
  8 17  1  0  0  0  0
  9 14  1  0  0  0  0
  9 17  2  0  0  0  0
 10 28  2  0  0  0  0
 11 13  2  0  0  0  0
 11 28  1  0  0  0  0
 12 27  1  0  0  0  0
 13 26  1  0  0  0  0
 14 16  2  0  0  0  0
 14 22  1  0  0  0  0
 15 30  1  0  0  0  0
 16 29  1  0  0  0  0
 17 33  1  0  0  0  0
 18 19  2  0  0  0  0
 19 20  1  0  0  0  0
 20 30  1  0  0  0  0
 20 31  2  0  0  0  0
 21 26  1  0  0  0  0
 21 29  1  0  0  0  0
 21 32  2  0  0  0  0
 23 27  1  0  0  0  0
 24 33  1  0  0  0  0
 25 34  1  0  0  0  0
 26 30  1  0  0  0  0
 27 34  1  0  0  0  0
  1 35  1  0  0  0  0
  2 36  1  0  0  0  0
  3 37  1  0  0  0  0
  4 38  1  0  0  0  0
  5 39  1  0  0  0  0
  6 40  1  0  0  0  0
  7 41  1  0  0  0  0
  8 42  1  0  0  0  0
  9 43  1  0  0  0  0
 10 44  1  0  0  0  0
 11 45  1  0  0  0  0
 18 46  1  0  0  0  0
 18 47  1  0  0  0  0
 19 48  1  0  0  0  0
 22 49  1  0  0  0  0
 22 50  1  0  0  0  0
 22 51  1  0  0  0  0
 23 52  1  0  0  0  0
 23 53  1  0  0  0  0
 23 54  1  0  0  0  0
 24 55  1  0  0  0  0
 24 56  1  0  0  0  0
 24 57  1  0  0  0  0
 25 58  1  0  0  0  0
 25 59  1  0  0  0  0
 25 60  1  0  0  0  0
 26 61  1  0  0  0  0
 27 62  1  0  0  0  0
 29 63  1  0  0  0  0
M  END
> <IC50 (uM)>

> <IC50 (uM) - std>

> <Average Inhibition @ 20 uM>

> <Average Inhibition @ 20 uM - std>
2.91

> <Average Inhibition @ 50 uM>
0.123

> <Average Inhibition @ 50 uM - std>
6.9

> <Trypsin IC50 (uM)>
0.785

> <Relative Solubility @ 20 uM>
0.99

> <Relative Solubility @ 100 uM>
0.97

> <Hybrid2>
-3.603661

> <docked_fragment>
x1418

> <Mpro-_dock>
4.655709

> <site>
active-covalent

$$$$
LON-WEI-b8d98729-16
  -OEChem-05192003313D

 63 65  0     1  0  0  0  0  0999 V2000
    6.9486   -4.4930   29.9930 C   0  0  0  0  0  0  0  0  0  0  0  0
    6.8847   -5.9465   21.3607 C   0  0  0  0  0  0  0  0  0  0  0  0
    6.3616   -3.2590   30.2729 C   0  0  0  0  0  0  0  0  0  0  0  0
    7.8466   -5.2787   22.1104 C   0  0  0  0  0  0  0  0  0  0  0  0
    7.4454   -4.7555   28.7163 C   0  0  0  0  0  0  0  0  0  0  0  0
    7.2048   -1.6245   22.4800 C   0  0  0  0  0  0  0  0  0  0  0  0
    6.4773   -1.0454   21.4403 C   0  0  0  0  0  0  0  0  0  0  0  0
    6.7682   -2.5500   27.9994 C   0  0  0  0  0  0  0  0  0  0  0  0
    8.9189   -2.2869   20.9115 C   0  0  0  0  0  0  0  0  0  0  0  0
    5.5742   -5.9129   21.8094 C   0  0  0  0  0  0  0  0  0  0  0  0
    6.1370   -4.6333   23.6326 C   0  0  0  0  0  0  0  0  0  0  0  0
    6.2714   -2.2875   29.2761 C   0  0  0  0  0  0  0  0  0  0  0  0
    7.4739   -4.6072   23.2695 C   0  0  0  0  0  0  0  0  0  0  0  0
    8.1913   -1.7078   19.8718 C   0  0  0  0  0  0  0  0  0  0  0  0
    7.3552   -3.7840   27.7195 C   0  0  0  0  0  0  0  0  0  0  0  0
    8.4257   -2.2453   22.2155 C   0  0  0  0  0  0  0  0  0  0  0  0
    6.9705   -1.0871   20.1362 C   0  0  0  0  0  0  0  0  0  0  0  0
   12.4395   -3.2235   24.8613 C   0  0  0  0  0  0  0  0  0  0  0  0
   11.1131   -3.0689   24.7996 C   0  0  0  0  0  0  0  0  0  0  0  0
   10.4857   -2.4147   23.6140 C   0  0  0  0  0  0  0  0  0  0  0  0
    7.8534   -3.2030   25.3194 C   0  0  0  0  0  0  0  0  0  0  0  0
    8.7424   -1.7678   18.4842 C   0  0  0  0  0  0  0  0  0  0  0  0
    6.6578    0.0568   30.0772 C   0  0  0  0  0  0  0  0  0  0  0  0
    6.4243    0.8955   18.7466 C   0  0  0  0  0  0  0  0  0  0  0  0
    5.2489   -1.2762   18.3584 C   0  0  0  0  0  0  0  0  0  0  0  0
    5.6439   -0.9684   29.5758 C   0  0  0  0  0  0  0  0  0  0  0  0
    8.4964   -3.8707   24.1065 C   0  0  2  0  0  0  0  0  0  0  0  0
    5.1741   -5.2712   22.9300 N   0  0  0  0  0  0  0  0  0  0  0  0
    7.8600   -4.0503   26.4246 N   0  0  0  0  0  0  0  0  0  0  0  0
    9.1826   -2.8487   23.2987 N   0  0  0  0  0  0  0  0  0  0  0  0
    6.2205   -0.4952   19.0963 N   0  0  0  0  0  0  0  0  0  0  0  0
   11.1288   -1.5679   22.9931 O   0  0  0  0  0  0  0  0  0  0  0  0
    7.3957   -2.0648   25.2616 O   0  0  0  0  0  0  0  0  0  0  0  0
    7.0192   -5.2494   30.7693 H   0  0  0  0  0  0  0  0  0  0  0  0
    7.1522   -6.4764   20.4537 H   0  0  0  0  0  0  0  0  0  0  0  0
    5.9769   -3.0641   31.2702 H   0  0  0  0  0  0  0  0  0  0  0  0
    8.8830   -5.2867   21.7841 H   0  0  0  0  0  0  0  0  0  0  0  0
    7.9007   -5.7207   28.5094 H   0  0  0  0  0  0  0  0  0  0  0  0
    6.8108   -1.5855   23.4924 H   0  0  0  0  0  0  0  0  0  0  0  0
    5.5277   -0.5632   21.6583 H   0  0  0  0  0  0  0  0  0  0  0  0
    6.6960   -1.7910   27.2234 H   0  0  0  0  0  0  0  0  0  0  0  0
    9.8712   -2.7703   20.7041 H   0  0  0  0  0  0  0  0  0  0  0  0
    4.7867   -6.4186   21.2603 H   0  0  0  0  0  0  0  0  0  0  0  0
    5.7868   -4.1272   24.5269 H   0  0  0  0  0  0  0  0  0  0  0  0
   12.8887   -3.7206   25.7148 H   0  0  0  0  0  0  0  0  0  0  0  0
   13.1054   -2.8627   24.0853 H   0  0  0  0  0  0  0  0  0  0  0  0
   10.4818   -3.4589   25.5895 H   0  0  0  0  0  0  0  0  0  0  0  0
    8.3944   -2.6747   17.9769 H   0  0  0  0  0  0  0  0  0  0  0  0
    8.4303   -0.8961   17.8965 H   0  0  0  0  0  0  0  0  0  0  0  0
    9.8392   -1.7709   18.4940 H   0  0  0  0  0  0  0  0  0  0  0  0
    7.1770   -0.3084   30.9698 H   0  0  0  0  0  0  0  0  0  0  0  0
    6.1624    0.9982   30.3345 H   0  0  0  0  0  0  0  0  0  0  0  0
    7.4128    0.2687   29.3125 H   0  0  0  0  0  0  0  0  0  0  0  0
    5.7522    1.1685   17.9197 H   0  0  0  0  0  0  0  0  0  0  0  0
    6.2071    1.5286   19.6196 H   0  0  0  0  0  0  0  0  0  0  0  0
    7.4685    1.0460   18.4353 H   0  0  0  0  0  0  0  0  0  0  0  0
    4.7718   -0.6431   17.5958 H   0  0  0  0  0  0  0  0  0  0  0  0
    5.7540   -2.1220   17.8689 H   0  0  0  0  0  0  0  0  0  0  0  0
    4.4831   -1.6570   19.0501 H   0  0  0  0  0  0  0  0  0  0  0  0
    5.1418   -0.5692   28.6798 H   0  0  0  0  0  0  0  0  0  0  0  0
    4.8471   -1.0841   30.3284 H   0  0  0  0  0  0  0  0  0  0  0  0
    9.2659   -4.5676   24.4611 H   0  0  0  0  0  0  0  0  0  0  0  0
    8.2764   -4.9685   26.2846 H   0  0  0  0  0  0  0  0  0  0  0  0
  1  3  1  0  0  0  0
  1  5  2  0  0  0  0
  2  4  2  0  0  0  0
  2 10  1  0  0  0  0
  3 12  2  0  0  0  0
  4 13  1  0  0  0  0
  5 15  1  0  0  0  0
  6  7  2  0  0  0  0
  6 16  1  0  0  0  0
  7 17  1  0  0  0  0
  8 12  1  0  0  0  0
  8 15  2  0  0  0  0
  9 14  1  0  0  0  0
  9 16  2  0  0  0  0
 10 28  2  0  0  0  0
 11 13  2  0  0  0  0
 11 28  1  0  0  0  0
 12 26  1  0  0  0  0
 13 27  1  0  0  0  0
 14 17  2  0  0  0  0
 14 22  1  0  0  0  0
 15 29  1  0  0  0  0
 16 30  1  0  0  0  0
 17 31  1  0  0  0  0
 18 19  2  0  0  0  0
 19 20  1  0  0  0  0
 20 30  1  0  0  0  0
 20 32  2  0  0  0  0
 21 27  1  0  0  0  0
 21 29  1  0  0  0  0
 21 33  2  0  0  0  0
 23 26  1  0  0  0  0
 24 31  1  0  0  0  0
 25 31  1  0  0  0  0
 27 30  1  0  0  0  0
  1 34  1  0  0  0  0
  2 35  1  0  0  0  0
  3 36  1  0  0  0  0
  4 37  1  0  0  0  0
  5 38  1  0  0  0  0
  6 39  1  0  0  0  0
  7 40  1  0  0  0  0
  8 41  1  0  0  0  0
  9 42  1  0  0  0  0
 10 43  1  0  0  0  0
 11 44  1  0  0  0  0
 18 45  1  0  0  0  0
 18 46  1  0  0  0  0
 19 47  1  0  0  0  0
 22 48  1  0  0  0  0
 22 49  1  0  0  0  0
 22 50  1  0  0  0  0
 23 51  1  0  0  0  0
 23 52  1  0  0  0  0
 23 53  1  0  0  0  0
 24 54  1  0  0  0  0
 24 55  1  0  0  0  0
 24 56  1  0  0  0  0
 25 57  1  0  0  0  0
 25 58  1  0  0  0  0
 25 59  1  0  0  0  0
 26 60  1  0  0  0  0
 26 61  1  0  0  0  0
 27 62  1  0  0  0  0
 29 63  1  0  0  0  0
M  END
> <IC50 (uM)>

> <IC50 (uM) - std>

> <Average Inhibition @ 20 uM>

> <Average Inhibition @ 20 uM - std>
7.05

> <Average Inhibition @ 50 uM>
2.96

> <Average Inhibition @ 50 uM - std>
11.7

> <Trypsin IC50 (uM)>
1.09

> <Relative Solubility @ 20 uM>
0.85

> <Relative Solubility @ 100 uM>
0.68

> <Hybrid2>
-3.552167

> <docked_fragment>
x1380

> <Mpro-_dock>
4.49022

> <site>
active-covalent

$$$$
LON-WEI-b8d98729-37
  -OEChem-05192003313D

 56 58  0     1  0  0  0  0  0999 V2000
    6.8600   -5.6829   21.1436 C   0  0  0  0  0  0  0  0  0  0  0  0
    7.7304   -4.9516   21.9442 C   0  0  0  0  0  0  0  0  0  0  0  0
    5.8269   -0.8918   21.5646 C   0  0  0  0  0  0  0  0  0  0  0  0
    7.6084   -1.2157   19.9650 C   0  0  0  0  0  0  0  0  0  0  0  0
    6.6251   -1.4453   22.5657 C   0  0  0  0  0  0  0  0  0  0  0  0
    8.4066   -1.7692   20.9661 C   0  0  0  0  0  0  0  0  0  0  0  0
    6.3308   -2.7997   27.9848 C   0  0  0  0  0  0  0  0  0  0  0  0
    5.7978   -2.6766   29.2678 C   0  0  0  0  0  0  0  0  0  0  0  0
    6.7405   -4.8195   29.8650 C   0  0  0  0  0  0  0  0  0  0  0  0
    5.5575   -5.8497   21.5858 C   0  0  0  0  0  0  0  0  0  0  0  0
    5.9569   -4.6405   23.4980 C   0  0  0  0  0  0  0  0  0  0  0  0
    6.3185   -0.7771   20.2643 C   0  0  0  0  0  0  0  0  0  0  0  0
    7.2781   -4.4172   23.1455 C   0  0  0  0  0  0  0  0  0  0  0  0
    7.2735   -4.9425   28.5819 C   0  0  0  0  0  0  0  0  0  0  0  0
    7.9149   -1.8840   22.2664 C   0  0  0  0  0  0  0  0  0  0  0  0
    7.0686   -3.9327   27.6417 C   0  0  0  0  0  0  0  0  0  0  0  0
    6.0027   -3.6864   30.2080 C   0  0  0  0  0  0  0  0  0  0  0  0
   11.9114   -3.0602   24.6277 C   0  0  0  0  0  0  0  0  0  0  0  0
   10.6941   -2.5360   24.8020 C   0  0  0  0  0  0  0  0  0  0  0  0
    9.9840   -1.8857   23.6617 C   0  0  0  0  0  0  0  0  0  0  0  0
    7.4804   -3.1243   25.2916 C   0  0  0  0  0  0  0  0  0  0  0  0
    8.0594   -6.1673   28.2426 C   0  0  0  0  0  0  0  0  0  0  0  0
    4.7398   -2.3816   31.7436 C   0  0  0  0  0  0  0  0  0  0  0  0
    8.2001   -3.6165   24.0385 C   0  0  2  0  0  0  0  0  0  0  0  0
    5.4650   -0.1853   19.1940 C   0  0  0  0  0  0  0  0  0  0  0  0
    5.0818   -5.3456   22.7464 N   0  0  0  0  0  0  0  0  0  0  0  0
    7.5994   -4.0398   26.3343 N   0  0  0  0  0  0  0  0  0  0  0  0
    8.7466   -2.4602   23.3088 N   0  0  0  0  0  0  0  0  0  0  0  0
   10.5109   -0.9215   23.1060 O   0  0  0  0  0  0  0  0  0  0  0  0
    6.8799   -2.0532   25.3115 O   0  0  0  0  0  0  0  0  0  0  0  0
    5.4831   -3.5660   31.4603 O   0  0  0  0  0  0  0  0  0  0  0  0
    4.2289    0.1998   19.6297 F   0  0  0  0  0  0  0  0  0  0  0  0
    6.0036    0.9309   18.6197 F   0  0  0  0  0  0  0  0  0  0  0  0
    5.2365   -1.0524   18.1650 F   0  0  0  0  0  0  0  0  0  0  0  0
    7.1906   -6.1085   20.2031 H   0  0  0  0  0  0  0  0  0  0  0  0
    8.7582   -4.8033   21.6244 H   0  0  0  0  0  0  0  0  0  0  0  0
    4.8223   -0.5546   21.8062 H   0  0  0  0  0  0  0  0  0  0  0  0
    7.9992   -1.1308   18.9544 H   0  0  0  0  0  0  0  0  0  0  0  0
    6.2319   -1.5295   23.5757 H   0  0  0  0  0  0  0  0  0  0  0  0
    9.4099   -2.1089   20.7217 H   0  0  0  0  0  0  0  0  0  0  0  0
    6.1637   -2.0065   27.2601 H   0  0  0  0  0  0  0  0  0  0  0  0
    5.2244   -1.7914   29.5291 H   0  0  0  0  0  0  0  0  0  0  0  0
    6.8981   -5.6052   30.6000 H   0  0  0  0  0  0  0  0  0  0  0  0
    4.8398   -6.4123   20.9977 H   0  0  0  0  0  0  0  0  0  0  0  0
    5.5473   -4.2481   24.4236 H   0  0  0  0  0  0  0  0  0  0  0  0
   12.4136   -3.5525   25.4539 H   0  0  0  0  0  0  0  0  0  0  0  0
   12.4372   -3.0114   23.6805 H   0  0  0  0  0  0  0  0  0  0  0  0
   10.1966   -2.6208   25.7611 H   0  0  0  0  0  0  0  0  0  0  0  0
    7.3974   -6.9441   27.8434 H   0  0  0  0  0  0  0  0  0  0  0  0
    8.8317   -5.9475   27.4956 H   0  0  0  0  0  0  0  0  0  0  0  0
    8.5732   -6.5650   29.1263 H   0  0  0  0  0  0  0  0  0  0  0  0
    4.3822   -2.4131   32.7757 H   0  0  0  0  0  0  0  0  0  0  0  0
    3.8937   -2.3080   31.0557 H   0  0  0  0  0  0  0  0  0  0  0  0
    5.3903   -1.5137   31.6121 H   0  0  0  0  0  0  0  0  0  0  0  0
    9.0539   -4.2320   24.3476 H   0  0  0  0  0  0  0  0  0  0  0  0
    8.1300   -4.8846   26.1324 H   0  0  0  0  0  0  0  0  0  0  0  0
  1  2  2  0  0  0  0
  1 10  1  0  0  0  0
  2 13  1  0  0  0  0
  3  5  2  0  0  0  0
  3 12  1  0  0  0  0
  4  6  1  0  0  0  0
  4 12  2  0  0  0  0
  5 15  1  0  0  0  0
  6 15  2  0  0  0  0
  7  8  2  0  0  0  0
  7 16  1  0  0  0  0
  8 17  1  0  0  0  0
  9 14  1  0  0  0  0
  9 17  2  0  0  0  0
 10 26  2  0  0  0  0
 11 13  2  0  0  0  0
 11 26  1  0  0  0  0
 12 25  1  0  0  0  0
 13 24  1  0  0  0  0
 14 16  2  0  0  0  0
 14 22  1  0  0  0  0
 15 28  1  0  0  0  0
 16 27  1  0  0  0  0
 17 31  1  0  0  0  0
 18 19  2  0  0  0  0
 19 20  1  0  0  0  0
 20 28  1  0  0  0  0
 20 29  2  0  0  0  0
 21 24  1  0  0  0  0
 21 27  1  0  0  0  0
 21 30  2  0  0  0  0
 23 31  1  0  0  0  0
 24 28  1  0  0  0  0
 25 32  1  0  0  0  0
 25 33  1  0  0  0  0
 25 34  1  0  0  0  0
  1 35  1  0  0  0  0
  2 36  1  0  0  0  0
  3 37  1  0  0  0  0
  4 38  1  0  0  0  0
  5 39  1  0  0  0  0
  6 40  1  0  0  0  0
  7 41  1  0  0  0  0
  8 42  1  0  0  0  0
  9 43  1  0  0  0  0
 10 44  1  0  0  0  0
 11 45  1  0  0  0  0
 18 46  1  0  0  0  0
 18 47  1  0  0  0  0
 19 48  1  0  0  0  0
 22 49  1  0  0  0  0
 22 50  1  0  0  0  0
 22 51  1  0  0  0  0
 23 52  1  0  0  0  0
 23 53  1  0  0  0  0
 23 54  1  0  0  0  0
 24 55  1  0  0  0  0
 27 56  1  0  0  0  0
M  END
> <IC50 (uM)>

> <IC50 (uM) - std>

> <Average Inhibition @ 20 uM>

> <Average Inhibition @ 20 uM - std>
7.06

> <Average Inhibition @ 50 uM>
1.62

> <Average Inhibition @ 50 uM - std>
25.4

> <Trypsin IC50 (uM)>
0.233

> <Relative Solubility @ 20 uM>
0.95

> <Relative Solubility @ 100 uM>
0.62

> <Hybrid2>
-3.529982

> <docked_fragment>
x1380

> <Mpro-_dock>
6.219213

> <site>
active-covalent

$$$$
LON-WEI-b8d98729-38
  -OEChem-05192003313D

 54 57  0     1  0  0  0  0  0999 V2000
   13.6610   -2.8444   26.6144 C   0  0  0  0  0  0  0  0  0  0  0  0
    6.2860   -2.5759   26.0821 C   0  0  0  0  0  0  0  0  0  0  0  0
   14.0257   -1.7060   25.8957 C   0  0  0  0  0  0  0  0  0  0  0  0
    7.3842   -2.9480   25.3148 C   0  0  0  0  0  0  0  0  0  0  0  0
    5.8273   -2.0458   21.3513 C   0  0  0  0  0  0  0  0  0  0  0  0
   12.5109   -3.5517   26.2640 C   0  0  0  0  0  0  0  0  0  0  0  0
    6.3786   -3.1279   22.0436 C   0  0  0  0  0  0  0  0  0  0  0  0
   12.0901   -1.9819   24.4763 C   0  0  0  0  0  0  0  0  0  0  0  0
    8.2600   -3.1960   20.5157 C   0  0  0  0  0  0  0  0  0  0  0  0
    5.1919   -3.4257   26.1036 C   0  0  0  0  0  0  0  0  0  0  0  0
    6.2132   -4.9217   24.6904 C   0  0  0  0  0  0  0  0  0  0  0  0
    6.9363   -0.2472   18.4777 C   0  0  0  0  0  0  0  0  0  0  0  0
   13.2403   -1.2747   24.8267 C   0  0  0  0  0  0  0  0  0  0  0  0
    7.3551   -4.1418   24.6025 C   0  0  0  0  0  0  0  0  0  0  0  0
    6.4948   -1.5231   20.2225 C   0  0  0  0  0  0  0  0  0  0  0  0
   11.7255   -3.1204   25.1950 C   0  0  0  0  0  0  0  0  0  0  0  0
    7.5792   -3.6940   21.6295 C   0  0  0  0  0  0  0  0  0  0  0  0
    7.7006   -2.1088   19.8252 C   0  0  0  0  0  0  0  0  0  0  0  0
    8.6447   -7.0918   19.5293 C   0  0  0  0  0  0  0  0  0  0  0  0
    7.9694   -6.2427   20.3104 C   0  0  0  0  0  0  0  0  0  0  0  0
    8.3595   -6.0619   21.7396 C   0  0  0  0  0  0  0  0  0  0  0  0
    9.6664   -3.5525   23.8095 C   0  0  0  0  0  0  0  0  0  0  0  0
   13.0227    1.2162   24.6405 C   0  0  0  0  0  0  0  0  0  0  0  0
   13.6307   -0.0576   24.0587 C   0  0  0  0  0  0  0  0  0  0  0  0
    8.5339   -4.5750   23.7591 C   0  0  2  0  0  0  0  0  0  0  0  0
    5.1270   -4.5932   25.4251 N   0  0  0  0  0  0  0  0  0  0  0  0
    6.0704   -0.4582   19.4412 N   0  0  0  0  0  0  0  0  0  0  0  0
   10.5591   -3.8385   24.8394 N   0  0  0  0  0  0  0  0  0  0  0  0
    8.1133   -4.7743   22.3342 N   0  0  0  0  0  0  0  0  0  0  0  0
    8.8922   -7.0000   22.3332 O   0  0  0  0  0  0  0  0  0  0  0  0
    9.7213   -2.6120   23.0217 O   0  0  0  0  0  0  0  0  0  0  0  0
    8.2964   -1.2837   18.4334 S   0  0  0  0  0  0  0  0  0  0  0  0
   14.2727   -3.1805   27.4465 H   0  0  0  0  0  0  0  0  0  0  0  0
    6.2865   -1.6499   26.6457 H   0  0  0  0  0  0  0  0  0  0  0  0
   14.9229   -1.1614   26.1766 H   0  0  0  0  0  0  0  0  0  0  0  0
    8.2574   -2.3024   25.2779 H   0  0  0  0  0  0  0  0  0  0  0  0
    4.8893   -1.6106   21.6842 H   0  0  0  0  0  0  0  0  0  0  0  0
   12.2362   -4.4374   26.8312 H   0  0  0  0  0  0  0  0  0  0  0  0
    5.8532   -3.5204   22.9112 H   0  0  0  0  0  0  0  0  0  0  0  0
   11.4788   -1.6432   23.6427 H   0  0  0  0  0  0  0  0  0  0  0  0
    9.1988   -3.6357   20.1901 H   0  0  0  0  0  0  0  0  0  0  0  0
    4.3103   -3.1803   26.6866 H   0  0  0  0  0  0  0  0  0  0  0  0
    6.1327   -5.8637   24.1568 H   0  0  0  0  0  0  0  0  0  0  0  0
    6.8018    0.5393   17.7480 H   0  0  0  0  0  0  0  0  0  0  0  0
    8.3719   -7.2022   18.4850 H   0  0  0  0  0  0  0  0  0  0  0  0
    9.4673   -7.6947   19.8977 H   0  0  0  0  0  0  0  0  0  0  0  0
    7.1636   -5.6465   19.8982 H   0  0  0  0  0  0  0  0  0  0  0  0
   11.9303    1.1476   24.6796 H   0  0  0  0  0  0  0  0  0  0  0  0
   13.2862    2.0854   24.0298 H   0  0  0  0  0  0  0  0  0  0  0  0
   13.3848    1.3946   25.6586 H   0  0  0  0  0  0  0  0  0  0  0  0
   14.7275    0.0461   24.0342 H   0  0  0  0  0  0  0  0  0  0  0  0
   13.3240   -0.1536   23.0046 H   0  0  0  0  0  0  0  0  0  0  0  0
    8.9194   -5.5379   24.1163 H   0  0  0  0  0  0  0  0  0  0  0  0
   10.3480   -4.6600   25.4021 H   0  0  0  0  0  0  0  0  0  0  0  0
  1  3  1  0  0  0  0
  1  6  2  0  0  0  0
  2  4  2  0  0  0  0
  2 10  1  0  0  0  0
  3 13  2  0  0  0  0
  4 14  1  0  0  0  0
  5  7  2  0  0  0  0
  5 15  1  0  0  0  0
  6 16  1  0  0  0  0
  7 17  1  0  0  0  0
  8 13  1  0  0  0  0
  8 16  2  0  0  0  0
  9 17  2  0  0  0  0
  9 18  1  0  0  0  0
 10 26  2  0  0  0  0
 11 14  2  0  0  0  0
 11 26  1  0  0  0  0
 12 27  2  0  0  0  0
 12 32  1  0  0  0  0
 13 24  1  0  0  0  0
 14 25  1  0  0  0  0
 15 18  2  0  0  0  0
 15 27  1  0  0  0  0
 16 28  1  0  0  0  0
 17 29  1  0  0  0  0
 18 32  1  0  0  0  0
 19 20  2  0  0  0  0
 20 21  1  0  0  0  0
 21 29  1  0  0  0  0
 21 30  2  0  0  0  0
 22 25  1  0  0  0  0
 22 28  1  0  0  0  0
 22 31  2  0  0  0  0
 23 24  1  0  0  0  0
 25 29  1  0  0  0  0
  1 33  1  0  0  0  0
  2 34  1  0  0  0  0
  3 35  1  0  0  0  0
  4 36  1  0  0  0  0
  5 37  1  0  0  0  0
  6 38  1  0  0  0  0
  7 39  1  0  0  0  0
  8 40  1  0  0  0  0
  9 41  1  0  0  0  0
 10 42  1  0  0  0  0
 11 43  1  0  0  0  0
 12 44  1  0  0  0  0
 19 45  1  0  0  0  0
 19 46  1  0  0  0  0
 20 47  1  0  0  0  0
 23 48  1  0  0  0  0
 23 49  1  0  0  0  0
 23 50  1  0  0  0  0
 24 51  1  0  0  0  0
 24 52  1  0  0  0  0
 25 53  1  0  0  0  0
 28 54  1  0  0  0  0
M  END
> <IC50 (uM)>
63.3

> <IC50 (uM) - std>
11.25

> <Average Inhibition @ 20 uM>
> 49.5

> <Average Inhibition @ 20 uM - std>
33.9

> <Average Inhibition @ 50 uM>
0.707

> <Average Inhibition @ 50 uM - std>
59.3

> <Trypsin IC50 (uM)>
0.47

> <Relative Solubility @ 20 uM>
0.8

> <Relative Solubility @ 100 uM>
0.63

> <Hybrid2>
-3.529699

> <docked_fragment>
x0749

> <Mpro-_dock>
4.281746

> <site>
active-covalent

$$$$
LON-WEI-b8d98729-26
  -OEChem-05192003313D

 61 63  0     1  0  0  0  0  0999 V2000
    6.5536   -5.8667   21.3470 C   0  0  0  0  0  0  0  0  0  0  0  0
    7.5369   -5.3363   22.1746 C   0  0  0  0  0  0  0  0  0  0  0  0
    5.9462   -3.2852   28.0400 C   0  0  0  0  0  0  0  0  0  0  0  0
    6.9682   -2.2034   22.5372 C   0  0  0  0  0  0  0  0  0  0  0  0
    5.4104   -3.0658   29.3090 C   0  0  0  0  0  0  0  0  0  0  0  0
    6.3572   -1.4887   21.5129 C   0  0  0  0  0  0  0  0  0  0  0  0
    6.9026   -4.7295   30.2269 C   0  0  0  0  0  0  0  0  0  0  0  0
    5.2343   -5.7605   21.7569 C   0  0  0  0  0  0  0  0  0  0  0  0
    5.8289   -4.6694   23.6893 C   0  0  0  0  0  0  0  0  0  0  0  0
    9.0657   -1.8182   21.4844 C   0  0  0  0  0  0  0  0  0  0  0  0
    7.1760   -4.7247   23.3700 C   0  0  0  0  0  0  0  0  0  0  0  0
    7.4384   -4.9490   28.9579 C   0  0  0  0  0  0  0  0  0  0  0  0
    8.3478   -2.3759   22.5301 C   0  0  0  0  0  0  0  0  0  0  0  0
    6.9602   -4.2269   27.8644 C   0  0  0  0  0  0  0  0  0  0  0  0
    5.8885   -3.7879   30.4024 C   0  0  0  0  0  0  0  0  0  0  0  0
    7.1642   -0.9706   20.5129 C   0  0  0  0  0  0  0  0  0  0  0  0
   10.7087   -3.1607   26.3751 C   0  0  0  0  0  0  0  0  0  0  0  0
   10.8665   -3.6036   25.1237 C   0  0  0  0  0  0  0  0  0  0  0  0
   10.3359   -2.8147   23.9733 C   0  0  0  0  0  0  0  0  0  0  0  0
    7.5896   -3.5117   25.5324 C   0  0  0  0  0  0  0  0  0  0  0  0
    8.5236   -5.9640   28.7997 C   0  0  0  0  0  0  0  0  0  0  0  0
    5.8360    1.0791   19.8894 C   0  0  0  0  0  0  0  0  0  0  0  0
    5.5642   -1.0497   18.5667 C   0  0  0  0  0  0  0  0  0  0  0  0
    4.3323   -2.5958   31.7488 C   0  0  0  0  0  0  0  0  0  0  0  0
    8.2220   -4.1375   24.2918 C   0  0  2  0  0  0  0  0  0  0  0  0
    6.5422   -0.1983   19.3978 C   0  0  0  0  0  0  0  0  0  0  0  0
    4.8452   -5.1735   22.9108 N   0  0  0  0  0  0  0  0  0  0  0  0
    8.5075   -1.1175   20.4720 N   0  0  0  0  0  0  0  0  0  0  0  0
    7.4894   -4.4364   26.5688 N   0  0  0  0  0  0  0  0  0  0  0  0
    9.0151   -3.1172   23.5861 N   0  0  0  0  0  0  0  0  0  0  0  0
   11.0656   -1.9789   23.4392 O   0  0  0  0  0  0  0  0  0  0  0  0
    7.2249   -2.3391   25.5483 O   0  0  0  0  0  0  0  0  0  0  0  0
    5.3660   -3.5732   31.6408 O   0  0  0  0  0  0  0  0  0  0  0  0
    6.8116   -6.3478   20.4104 H   0  0  0  0  0  0  0  0  0  0  0  0
    8.5807   -5.4040   21.8803 H   0  0  0  0  0  0  0  0  0  0  0  0
    5.5647   -2.7171   27.1951 H   0  0  0  0  0  0  0  0  0  0  0  0
    6.3603   -2.6207   23.3356 H   0  0  0  0  0  0  0  0  0  0  0  0
    4.6209   -2.3306   29.4394 H   0  0  0  0  0  0  0  0  0  0  0  0
    5.2816   -1.3474   21.5068 H   0  0  0  0  0  0  0  0  0  0  0  0
    7.2729   -5.2912   31.0812 H   0  0  0  0  0  0  0  0  0  0  0  0
    4.4301   -6.1587   21.1469 H   0  0  0  0  0  0  0  0  0  0  0  0
    5.4871   -4.2044   24.6088 H   0  0  0  0  0  0  0  0  0  0  0  0
   10.1452   -1.9196   21.4239 H   0  0  0  0  0  0  0  0  0  0  0  0
   11.1166   -3.7263   27.2063 H   0  0  0  0  0  0  0  0  0  0  0  0
   10.1751   -2.2455   26.6069 H   0  0  0  0  0  0  0  0  0  0  0  0
   11.4209   -4.5154   24.9343 H   0  0  0  0  0  0  0  0  0  0  0  0
    8.0932   -6.9492   28.5874 H   0  0  0  0  0  0  0  0  0  0  0  0
    9.2014   -5.6941   27.9809 H   0  0  0  0  0  0  0  0  0  0  0  0
    9.1330   -6.0364   29.7088 H   0  0  0  0  0  0  0  0  0  0  0  0
    5.0344    0.8489   20.5996 H   0  0  0  0  0  0  0  0  0  0  0  0
    5.3927    1.6367   19.0573 H   0  0  0  0  0  0  0  0  0  0  0  0
    6.5492    1.7404   20.3940 H   0  0  0  0  0  0  0  0  0  0  0  0
    4.7512   -1.4247   19.1983 H   0  0  0  0  0  0  0  0  0  0  0  0
    6.0669   -1.9140   18.1192 H   0  0  0  0  0  0  0  0  0  0  0  0
    5.1148   -0.4693   17.7535 H   0  0  0  0  0  0  0  0  0  0  0  0
    4.0050   -2.5238   32.7889 H   0  0  0  0  0  0  0  0  0  0  0  0
    3.4923   -2.8805   31.1102 H   0  0  0  0  0  0  0  0  0  0  0  0
    4.7226   -1.6283   31.4243 H   0  0  0  0  0  0  0  0  0  0  0  0
    8.9210   -4.9187   24.6150 H   0  0  0  0  0  0  0  0  0  0  0  0
    7.3258    0.1392   18.6934 H   0  0  0  0  0  0  0  0  0  0  0  0
    7.8374   -5.3723   26.3714 H   0  0  0  0  0  0  0  0  0  0  0  0
  1  2  2  0  0  0  0
  1  8  1  0  0  0  0
  2 11  1  0  0  0  0
  3  5  2  0  0  0  0
  3 14  1  0  0  0  0
  4  6  2  0  0  0  0
  4 13  1  0  0  0  0
  5 15  1  0  0  0  0
  6 16  1  0  0  0  0
  7 12  1  0  0  0  0
  7 15  2  0  0  0  0
  8 27  2  0  0  0  0
  9 11  2  0  0  0  0
  9 27  1  0  0  0  0
 10 13  2  0  0  0  0
 10 28  1  0  0  0  0
 11 25  1  0  0  0  0
 12 14  2  0  0  0  0
 12 21  1  0  0  0  0
 13 30  1  0  0  0  0
 14 29  1  0  0  0  0
 15 33  1  0  0  0  0
 16 26  1  0  0  0  0
 16 28  2  0  0  0  0
 17 18  2  0  0  0  0
 18 19  1  0  0  0  0
 19 30  1  0  0  0  0
 19 31  2  0  0  0  0
 20 25  1  0  0  0  0
 20 29  1  0  0  0  0
 20 32  2  0  0  0  0
 22 26  1  0  0  0  0
 23 26  1  0  0  0  0
 24 33  1  0  0  0  0
 25 30  1  0  0  0  0
  1 34  1  0  0  0  0
  2 35  1  0  0  0  0
  3 36  1  0  0  0  0
  4 37  1  0  0  0  0
  5 38  1  0  0  0  0
  6 39  1  0  0  0  0
  7 40  1  0  0  0  0
  8 41  1  0  0  0  0
  9 42  1  0  0  0  0
 10 43  1  0  0  0  0
 17 44  1  0  0  0  0
 17 45  1  0  0  0  0
 18 46  1  0  0  0  0
 21 47  1  0  0  0  0
 21 48  1  0  0  0  0
 21 49  1  0  0  0  0
 22 50  1  0  0  0  0
 22 51  1  0  0  0  0
 22 52  1  0  0  0  0
 23 53  1  0  0  0  0
 23 54  1  0  0  0  0
 23 55  1  0  0  0  0
 24 56  1  0  0  0  0
 24 57  1  0  0  0  0
 24 58  1  0  0  0  0
 25 59  1  0  0  0  0
 26 60  1  0  0  0  0
 29 61  1  0  0  0  0
M  END
> <IC50 (uM)>

> <IC50 (uM) - std>

> <Average Inhibition @ 20 uM>

> <Average Inhibition @ 20 uM - std>
6.56

> <Average Inhibition @ 50 uM>
2.76

> <Average Inhibition @ 50 uM - std>
10.4

> <Trypsin IC50 (uM)>
1.07

> <Relative Solubility @ 20 uM>
0.98

> <Relative Solubility @ 100 uM>
0.93

> <Hybrid2>
-3.504733

> <docked_fragment>
x1380

> <Mpro-_dock>
4.724122

> <site>
active-covalent

$$$$
LON-WEI-b8d98729-14
  -OEChem-05192003313D

 57 59  0     1  0  0  0  0  0999 V2000
    7.1435   -1.7737   17.4421 C   0  0  0  0  0  0  0  0  0  0  0  0
    7.5360   -0.9157   18.4634 C   0  0  0  0  0  0  0  0  0  0  0  0
    6.8276   -1.2102   24.3476 C   0  0  0  0  0  0  0  0  0  0  0  0
    7.3227   -2.1580   25.2432 C   0  0  0  0  0  0  0  0  0  0  0  0
   10.6457    1.6121   23.9009 C   0  0  0  0  0  0  0  0  0  0  0  0
   11.5339   -0.0377   22.3756 C   0  0  0  0  0  0  0  0  0  0  0  0
   11.9037    1.7460   24.4885 C   0  0  0  0  0  0  0  0  0  0  0  0
   12.7918    0.0963   22.9631 C   0  0  0  0  0  0  0  0  0  0  0  0
    7.7716   -2.4572   22.5061 C   0  0  0  0  0  0  0  0  0  0  0  0
    6.1592   -2.7078   17.7222 C   0  0  0  0  0  0  0  0  0  0  0  0
    5.9654   -1.9845   19.8941 C   0  0  0  0  0  0  0  0  0  0  0  0
    6.9407   -1.0166   19.7159 C   0  0  0  0  0  0  0  0  0  0  0  0
    8.2667   -3.4050   23.4017 C   0  0  0  0  0  0  0  0  0  0  0  0
   10.4608    0.7202   22.8445 C   0  0  0  0  0  0  0  0  0  0  0  0
    7.0520   -1.3598   22.9790 C   0  0  0  0  0  0  0  0  0  0  0  0
    8.0422   -3.2554   24.7703 C   0  0  0  0  0  0  0  0  0  0  0  0
   12.9767    0.9882   24.0196 C   0  0  0  0  0  0  0  0  0  0  0  0
    4.3242    2.4854   21.6869 C   0  0  0  0  0  0  0  0  0  0  0  0
    4.9906    1.3885   21.3132 C   0  0  0  0  0  0  0  0  0  0  0  0
    5.3587    0.3513   22.3211 C   0  0  0  0  0  0  0  0  0  0  0  0
    8.8242   -0.2506   21.1936 C   0  0  0  0  0  0  0  0  0  0  0  0
    9.0350   -4.5702   22.8681 C   0  0  0  0  0  0  0  0  0  0  0  0
    7.7298   -5.3492   26.0659 C   0  0  0  0  0  0  0  0  0  0  0  0
    9.8584   -4.0535   26.2618 C   0  0  0  0  0  0  0  0  0  0  0  0
    7.3453   -0.0976   20.8474 C   0  0  2  0  0  0  0  0  0  0  0  0
    5.5579   -2.8358   18.9262 N   0  0  0  0  0  0  0  0  0  0  0  0
    9.1846    0.5845   22.2482 N   0  0  0  0  0  0  0  0  0  0  0  0
    6.5367   -0.3719   22.0469 N   0  0  0  0  0  0  0  0  0  0  0  0
    8.5355   -4.2052   25.6916 N   0  0  0  0  0  0  0  0  0  0  0  0
    4.6272    0.1859   23.2977 O   0  0  0  0  0  0  0  0  0  0  0  0
    9.5548   -1.0205   20.5756 O   0  0  0  0  0  0  0  0  0  0  0  0
   14.6811    1.1699   24.8157 Br  0  0  0  0  0  0  0  0  0  0  0  0
    7.5936   -1.7130   16.4578 H   0  0  0  0  0  0  0  0  0  0  0  0
    8.3056   -0.1723   18.2744 H   0  0  0  0  0  0  0  0  0  0  0  0
    6.2678   -0.3594   24.7276 H   0  0  0  0  0  0  0  0  0  0  0  0
    7.1406   -2.0319   26.3075 H   0  0  0  0  0  0  0  0  0  0  0  0
    9.8164    2.2072   24.2743 H   0  0  0  0  0  0  0  0  0  0  0  0
   11.4008   -0.7355   21.5530 H   0  0  0  0  0  0  0  0  0  0  0  0
   12.0315    2.4453   25.3106 H   0  0  0  0  0  0  0  0  0  0  0  0
   13.6178   -0.5013   22.5864 H   0  0  0  0  0  0  0  0  0  0  0  0
    7.9468   -2.5751   21.4389 H   0  0  0  0  0  0  0  0  0  0  0  0
    5.8183   -3.4002   16.9594 H   0  0  0  0  0  0  0  0  0  0  0  0
    5.4655   -2.1103   20.8496 H   0  0  0  0  0  0  0  0  0  0  0  0
    4.0385    3.2254   20.9466 H   0  0  0  0  0  0  0  0  0  0  0  0
    4.0537    2.6803   22.7188 H   0  0  0  0  0  0  0  0  0  0  0  0
    5.2273    1.2243   20.2684 H   0  0  0  0  0  0  0  0  0  0  0  0
   10.1029   -4.3292   22.8180 H   0  0  0  0  0  0  0  0  0  0  0  0
    8.9049   -5.4544   23.5037 H   0  0  0  0  0  0  0  0  0  0  0  0
    8.6903   -4.8448   21.8637 H   0  0  0  0  0  0  0  0  0  0  0  0
    8.2832   -5.9677   26.7878 H   0  0  0  0  0  0  0  0  0  0  0  0
    6.7915   -5.0026   26.5237 H   0  0  0  0  0  0  0  0  0  0  0  0
    7.5022   -5.9461   25.1704 H   0  0  0  0  0  0  0  0  0  0  0  0
   10.0589   -4.8869   26.9512 H   0  0  0  0  0  0  0  0  0  0  0  0
   10.6074   -4.0560   25.4562 H   0  0  0  0  0  0  0  0  0  0  0  0
    9.9139   -3.1020   26.8110 H   0  0  0  0  0  0  0  0  0  0  0  0
    7.1601    0.9472   20.5691 H   0  0  0  0  0  0  0  0  0  0  0  0
    8.4436    1.1652   22.6352 H   0  0  0  0  0  0  0  0  0  0  0  0
  1  2  2  0  0  0  0
  1 10  1  0  0  0  0
  2 12  1  0  0  0  0
  3  4  2  0  0  0  0
  3 15  1  0  0  0  0
  4 16  1  0  0  0  0
  5  7  2  0  0  0  0
  5 14  1  0  0  0  0
  6  8  1  0  0  0  0
  6 14  2  0  0  0  0
  7 17  1  0  0  0  0
  8 17  2  0  0  0  0
  9 13  1  0  0  0  0
  9 15  2  0  0  0  0
 10 26  2  0  0  0  0
 11 12  2  0  0  0  0
 11 26  1  0  0  0  0
 12 25  1  0  0  0  0
 13 16  2  0  0  0  0
 13 22  1  0  0  0  0
 14 27  1  0  0  0  0
 15 28  1  0  0  0  0
 16 29  1  0  0  0  0
 17 32  1  0  0  0  0
 18 19  2  0  0  0  0
 19 20  1  0  0  0  0
 20 28  1  0  0  0  0
 20 30  2  0  0  0  0
 21 25  1  0  0  0  0
 21 27  1  0  0  0  0
 21 31  2  0  0  0  0
 23 29  1  0  0  0  0
 24 29  1  0  0  0  0
 25 28  1  0  0  0  0
  1 33  1  0  0  0  0
  2 34  1  0  0  0  0
  3 35  1  0  0  0  0
  4 36  1  0  0  0  0
  5 37  1  0  0  0  0
  6 38  1  0  0  0  0
  7 39  1  0  0  0  0
  8 40  1  0  0  0  0
  9 41  1  0  0  0  0
 10 42  1  0  0  0  0
 11 43  1  0  0  0  0
 18 44  1  0  0  0  0
 18 45  1  0  0  0  0
 19 46  1  0  0  0  0
 22 47  1  0  0  0  0
 22 48  1  0  0  0  0
 22 49  1  0  0  0  0
 23 50  1  0  0  0  0
 23 51  1  0  0  0  0
 23 52  1  0  0  0  0
 24 53  1  0  0  0  0
 24 54  1  0  0  0  0
 24 55  1  0  0  0  0
 25 56  1  0  0  0  0
 27 57  1  0  0  0  0
M  END
> <IC50 (uM)>

> <IC50 (uM) - std>

> <Average Inhibition @ 20 uM>

> <Average Inhibition @ 20 uM - std>
3.45

> <Average Inhibition @ 50 uM>
3.38

> <Average Inhibition @ 50 uM - std>
3.43

> <Trypsin IC50 (uM)>
1.03

> <Relative Solubility @ 20 uM>
0.84

> <Relative Solubility @ 100 uM>
0.74

> <Hybrid2>
-3.499897

> <docked_fragment>
x0831

> <Mpro-_dock>
4.639638

> <site>
active-covalent

$$$$
LON-WEI-b8d98729-42
  -OEChem-05192003313D

 66 68  0     1  0  0  0  0  0999 V2000
    6.2373   -0.1156   18.1028 C   0  0  0  0  0  0  0  0  0  0  0  0
    5.6881   -5.9822   22.6722 C   0  0  0  0  0  0  0  0  0  0  0  0
    5.4504   -1.1810   18.5399 C   0  0  0  0  0  0  0  0  0  0  0  0
    7.3294    0.3028   18.8630 C   0  0  0  0  0  0  0  0  0  0  0  0
    6.7233   -5.0679   22.5125 C   0  0  0  0  0  0  0  0  0  0  0  0
   10.6745   -1.7349   23.9508 C   0  0  0  0  0  0  0  0  0  0  0  0
   11.6580   -0.9079   24.4932 C   0  0  0  0  0  0  0  0  0  0  0  0
   11.4800   -3.5742   25.2943 C   0  0  0  0  0  0  0  0  0  0  0  0
    5.1130   -6.0981   23.9275 C   0  0  0  0  0  0  0  0  0  0  0  0
    6.5055   -4.4987   24.8114 C   0  0  0  0  0  0  0  0  0  0  0  0
    7.1460   -4.3081   23.5976 C   0  0  0  0  0  0  0  0  0  0  0  0
    5.7554   -1.8281   19.7374 C   0  0  0  0  0  0  0  0  0  0  0  0
    7.6345   -0.3442   20.0605 C   0  0  0  0  0  0  0  0  0  0  0  0
   12.4637   -2.7472   25.8367 C   0  0  0  0  0  0  0  0  0  0  0  0
   10.5854   -3.0680   24.3514 C   0  0  0  0  0  0  0  0  0  0  0  0
   12.5527   -1.4140   25.4361 C   0  0  0  0  0  0  0  0  0  0  0  0
    6.8475   -1.4097   20.4977 C   0  0  0  0  0  0  0  0  0  0  0  0
   11.6248   -6.9171   23.7414 C   0  0  0  0  0  0  0  0  0  0  0  0
   11.1686   -5.7288   23.3330 C   0  0  0  0  0  0  0  0  0  0  0  0
    9.7674   -5.3151   23.6376 C   0  0  0  0  0  0  0  0  0  0  0  0
    8.3350   -2.7311   22.0428 C   0  0  0  0  0  0  0  0  0  0  0  0
    4.8936   -2.9663   20.1794 C   0  0  0  0  0  0  0  0  0  0  0  0
   13.4096   -3.3155   26.8441 C   0  0  0  0  0  0  0  0  0  0  0  0
    8.3977    0.9647   22.0582 C   0  0  0  0  0  0  0  0  0  0  0  0
   13.2723    0.2073   27.1721 C   0  0  0  0  0  0  0  0  0  0  0  0
   14.8416   -0.4587   25.3439 C   0  0  0  0  0  0  0  0  0  0  0  0
    8.8110    0.1272   20.8522 C   0  0  0  0  0  0  0  0  0  0  0  0
    8.2691   -3.3046   23.4561 C   0  0  2  0  0  0  0  0  0  0  0  0
    5.4964   -5.3773   25.0050 N   0  0  0  0  0  0  0  0  0  0  0  0
    7.1569   -2.0657   21.7128 N   0  0  0  0  0  0  0  0  0  0  0  0
    9.5612   -3.9289   23.7856 N   0  0  0  0  0  0  0  0  0  0  0  0
   13.5417   -0.5621   25.9748 N   0  0  0  0  0  0  0  0  0  0  0  0
    8.9024   -6.1842   23.7493 O   0  0  0  0  0  0  0  0  0  0  0  0
    9.3249   -2.8812   21.3316 O   0  0  0  0  0  0  0  0  0  0  0  0
    6.0000    0.3882   17.1702 H   0  0  0  0  0  0  0  0  0  0  0  0
    5.3420   -6.5850   21.8403 H   0  0  0  0  0  0  0  0  0  0  0  0
    4.6013   -1.4992   17.9406 H   0  0  0  0  0  0  0  0  0  0  0  0
    7.9364    1.1337   18.5131 H   0  0  0  0  0  0  0  0  0  0  0  0
    7.1944   -4.9541   21.5399 H   0  0  0  0  0  0  0  0  0  0  0  0
    9.9824   -1.3293   23.2171 H   0  0  0  0  0  0  0  0  0  0  0  0
   11.7172    0.1298   24.1746 H   0  0  0  0  0  0  0  0  0  0  0  0
   11.4113   -4.6136   25.6078 H   0  0  0  0  0  0  0  0  0  0  0  0
    4.3023   -6.7974   24.1038 H   0  0  0  0  0  0  0  0  0  0  0  0
    6.7919   -3.9344   25.6934 H   0  0  0  0  0  0  0  0  0  0  0  0
   12.6513   -7.2034   23.5376 H   0  0  0  0  0  0  0  0  0  0  0  0
   11.0034   -7.6288   24.2735 H   0  0  0  0  0  0  0  0  0  0  0  0
   11.8279   -5.0398   22.8179 H   0  0  0  0  0  0  0  0  0  0  0  0
    5.2811   -3.9113   19.7824 H   0  0  0  0  0  0  0  0  0  0  0  0
    4.8585   -3.0339   21.2734 H   0  0  0  0  0  0  0  0  0  0  0  0
    3.8609   -2.8378   19.8333 H   0  0  0  0  0  0  0  0  0  0  0  0
   14.2928   -3.7289   26.3439 H   0  0  0  0  0  0  0  0  0  0  0  0
   13.7374   -2.5483   27.5560 H   0  0  0  0  0  0  0  0  0  0  0  0
   12.9333   -4.1119   27.4289 H   0  0  0  0  0  0  0  0  0  0  0  0
    7.8003    1.8298   21.7508 H   0  0  0  0  0  0  0  0  0  0  0  0
    9.2792    1.3337   22.5918 H   0  0  0  0  0  0  0  0  0  0  0  0
    7.7984    0.3750   22.7602 H   0  0  0  0  0  0  0  0  0  0  0  0
   14.1587    0.8046   27.4320 H   0  0  0  0  0  0  0  0  0  0  0  0
   12.4185    0.8772   26.9929 H   0  0  0  0  0  0  0  0  0  0  0  0
   13.0348   -0.4758   28.0010 H   0  0  0  0  0  0  0  0  0  0  0  0
   15.4677    0.2491   25.9069 H   0  0  0  0  0  0  0  0  0  0  0  0
   15.3239   -1.4473   25.3341 H   0  0  0  0  0  0  0  0  0  0  0  0
   14.7203   -0.0997   24.3113 H   0  0  0  0  0  0  0  0  0  0  0  0
    9.4082   -0.7315   21.1954 H   0  0  0  0  0  0  0  0  0  0  0  0
    9.4867    0.7186   20.2152 H   0  0  0  0  0  0  0  0  0  0  0  0
    8.1255   -2.4761   24.1606 H   0  0  0  0  0  0  0  0  0  0  0  0
    6.4340   -2.0495   22.4291 H   0  0  0  0  0  0  0  0  0  0  0  0
  1  3  1  0  0  0  0
  1  4  2  0  0  0  0
  2  5  2  0  0  0  0
  2  9  1  0  0  0  0
  3 12  2  0  0  0  0
  4 13  1  0  0  0  0
  5 11  1  0  0  0  0
  6  7  2  0  0  0  0
  6 15  1  0  0  0  0
  7 16  1  0  0  0  0
  8 14  1  0  0  0  0
  8 15  2  0  0  0  0
  9 29  2  0  0  0  0
 10 11  2  0  0  0  0
 10 29  1  0  0  0  0
 11 28  1  0  0  0  0
 12 17  1  0  0  0  0
 12 22  1  0  0  0  0
 13 17  2  0  0  0  0
 13 27  1  0  0  0  0
 14 16  2  0  0  0  0
 14 23  1  0  0  0  0
 15 31  1  0  0  0  0
 16 32  1  0  0  0  0
 17 30  1  0  0  0  0
 18 19  2  0  0  0  0
 19 20  1  0  0  0  0
 20 31  1  0  0  0  0
 20 33  2  0  0  0  0
 21 28  1  0  0  0  0
 21 30  1  0  0  0  0
 21 34  2  0  0  0  0
 24 27  1  0  0  0  0
 25 32  1  0  0  0  0
 26 32  1  0  0  0  0
 28 31  1  0  0  0  0
  1 35  1  0  0  0  0
  2 36  1  0  0  0  0
  3 37  1  0  0  0  0
  4 38  1  0  0  0  0
  5 39  1  0  0  0  0
  6 40  1  0  0  0  0
  7 41  1  0  0  0  0
  8 42  1  0  0  0  0
  9 43  1  0  0  0  0
 10 44  1  0  0  0  0
 18 45  1  0  0  0  0
 18 46  1  0  0  0  0
 19 47  1  0  0  0  0
 22 48  1  0  0  0  0
 22 49  1  0  0  0  0
 22 50  1  0  0  0  0
 23 51  1  0  0  0  0
 23 52  1  0  0  0  0
 23 53  1  0  0  0  0
 24 54  1  0  0  0  0
 24 55  1  0  0  0  0
 24 56  1  0  0  0  0
 25 57  1  0  0  0  0
 25 58  1  0  0  0  0
 25 59  1  0  0  0  0
 26 60  1  0  0  0  0
 26 61  1  0  0  0  0
 26 62  1  0  0  0  0
 27 63  1  0  0  0  0
 27 64  1  0  0  0  0
 28 65  1  0  0  0  0
 30 66  1  0  0  0  0
M  END
> <IC50 (uM)>

> <IC50 (uM) - std>

> <Average Inhibition @ 20 uM>

> <Average Inhibition @ 20 uM - std>
6.4

> <Average Inhibition @ 50 uM>
1.5

> <Average Inhibition @ 50 uM - std>
13.2

> <Trypsin IC50 (uM)>
0.141

> <Relative Solubility @ 20 uM>
0.9

> <Relative Solubility @ 100 uM>
0.77

> <Hybrid2>
-3.483134

> <docked_fragment>
x0749

> <Mpro-_dock>
4.593122

> <site>
active-covalent

$$$$
LON-WEI-b8d98729-24
  -OEChem-05192003313D

 50 52  0     1  0  0  0  0  0999 V2000
    7.3300   -0.8053   18.4678 C   0  0  0  0  0  0  0  0  0  0  0  0
    7.8154   -1.2511   19.6921 C   0  0  0  0  0  0  0  0  0  0  0  0
    7.2320   -4.5258   24.1135 C   0  0  0  0  0  0  0  0  0  0  0  0
    7.8805   -2.3376   24.9061 C   0  0  0  0  0  0  0  0  0  0  0  0
   11.8140    0.9767   23.0548 C   0  0  0  0  0  0  0  0  0  0  0  0
   12.1371   -1.3209   22.3812 C   0  0  0  0  0  0  0  0  0  0  0  0
    7.5916   -5.0777   25.3430 C   0  0  0  0  0  0  0  0  0  0  0  0
    8.2401   -2.8895   26.1356 C   0  0  0  0  0  0  0  0  0  0  0  0
   13.1954    1.1419   23.1538 C   0  0  0  0  0  0  0  0  0  0  0  0
   13.5186   -1.1556   22.4802 C   0  0  0  0  0  0  0  0  0  0  0  0
    6.2124    0.0137   18.4725 C   0  0  0  0  0  0  0  0  0  0  0  0
    6.0667   -0.0477   20.7645 C   0  0  0  0  0  0  0  0  0  0  0  0
    7.1773   -0.8697   20.8671 C   0  0  0  0  0  0  0  0  0  0  0  0
   11.2848   -0.2548   22.6685 C   0  0  0  0  0  0  0  0  0  0  0  0
    7.3764   -3.1557   23.8950 C   0  0  0  0  0  0  0  0  0  0  0  0
    8.0957   -4.2596   26.3540 C   0  0  0  0  0  0  0  0  0  0  0  0
   14.0478    0.0758   22.8665 C   0  0  0  0  0  0  0  0  0  0  0  0
    4.2937   -4.9234   22.0077 C   0  0  0  0  0  0  0  0  0  0  0  0
    4.9301   -3.8981   22.5828 C   0  0  0  0  0  0  0  0  0  0  0  0
    5.9745   -3.1427   21.8305 C   0  0  0  0  0  0  0  0  0  0  0  0
    9.1896   -1.5724   22.1995 C   0  0  0  0  0  0  0  0  0  0  0  0
    6.9624   -5.6564   28.4223 C   0  0  0  0  0  0  0  0  0  0  0  0
    7.6812   -1.3373   22.2147 C   0  0  2  0  0  0  0  0  0  0  0  0
    5.5659    0.4053   19.5933 N   0  0  0  0  0  0  0  0  0  0  0  0
    9.8833   -0.4223   22.5675 N   0  0  0  0  0  0  0  0  0  0  0  0
    7.0018   -2.5809   22.6147 N   0  0  0  0  0  0  0  0  0  0  0  0
    5.8737   -3.0483   20.6070 O   0  0  0  0  0  0  0  0  0  0  0  0
    9.6698   -2.6573   21.8822 O   0  0  0  0  0  0  0  0  0  0  0  0
    8.5551   -4.9649   27.9247 S   0  0  0  0  0  0  0  0  0  0  0  0
   15.7525    0.2799   22.9888 Cl  0  0  0  0  0  0  0  0  0  0  0  0
    7.8114   -1.0897   17.5391 H   0  0  0  0  0  0  0  0  0  0  0  0
    8.6905   -1.8946   19.7210 H   0  0  0  0  0  0  0  0  0  0  0  0
    6.8405   -5.1727   23.3324 H   0  0  0  0  0  0  0  0  0  0  0  0
    7.9973   -1.2685   24.7469 H   0  0  0  0  0  0  0  0  0  0  0  0
   11.1590    1.8140   23.2812 H   0  0  0  0  0  0  0  0  0  0  0  0
   11.7355   -2.2848   22.0792 H   0  0  0  0  0  0  0  0  0  0  0  0
    7.4720   -6.1476   25.4946 H   0  0  0  0  0  0  0  0  0  0  0  0
    8.6310   -2.2359   26.9116 H   0  0  0  0  0  0  0  0  0  0  0  0
   13.5940    2.1070   23.4558 H   0  0  0  0  0  0  0  0  0  0  0  0
   14.1710   -1.9949   22.2535 H   0  0  0  0  0  0  0  0  0  0  0  0
    5.7947    0.3876   17.5435 H   0  0  0  0  0  0  0  0  0  0  0  0
    5.5277    0.2827   21.6471 H   0  0  0  0  0  0  0  0  0  0  0  0
    3.5189   -5.4545   22.5507 H   0  0  0  0  0  0  0  0  0  0  0  0
    4.5230   -5.2628   21.0036 H   0  0  0  0  0  0  0  0  0  0  0  0
    4.6589   -3.5805   23.5830 H   0  0  0  0  0  0  0  0  0  0  0  0
    7.0568   -6.1446   29.3954 H   0  0  0  0  0  0  0  0  0  0  0  0
    6.6306   -6.3918   27.6853 H   0  0  0  0  0  0  0  0  0  0  0  0
    6.2177   -4.8598   28.4928 H   0  0  0  0  0  0  0  0  0  0  0  0
    7.4544   -0.5878   22.9829 H   0  0  0  0  0  0  0  0  0  0  0  0
    9.3160    0.3930   22.7899 H   0  0  0  0  0  0  0  0  0  0  0  0
  1  2  2  0  0  0  0
  1 11  1  0  0  0  0
  2 13  1  0  0  0  0
  3  7  2  0  0  0  0
  3 15  1  0  0  0  0
  4  8  1  0  0  0  0
  4 15  2  0  0  0  0
  5  9  2  0  0  0  0
  5 14  1  0  0  0  0
  6 10  1  0  0  0  0
  6 14  2  0  0  0  0
  7 16  1  0  0  0  0
  8 16  2  0  0  0  0
  9 17  1  0  0  0  0
 10 17  2  0  0  0  0
 11 24  2  0  0  0  0
 12 13  2  0  0  0  0
 12 24  1  0  0  0  0
 13 23  1  0  0  0  0
 14 25  1  0  0  0  0
 15 26  1  0  0  0  0
 16 29  1  0  0  0  0
 17 30  1  0  0  0  0
 18 19  2  0  0  0  0
 19 20  1  0  0  0  0
 20 26  1  0  0  0  0
 20 27  2  0  0  0  0
 21 23  1  0  0  0  0
 21 25  1  0  0  0  0
 21 28  2  0  0  0  0
 22 29  1  0  0  0  0
 23 26  1  0  0  0  0
  1 31  1  0  0  0  0
  2 32  1  0  0  0  0
  3 33  1  0  0  0  0
  4 34  1  0  0  0  0
  5 35  1  0  0  0  0
  6 36  1  0  0  0  0
  7 37  1  0  0  0  0
  8 38  1  0  0  0  0
  9 39  1  0  0  0  0
 10 40  1  0  0  0  0
 11 41  1  0  0  0  0
 12 42  1  0  0  0  0
 18 43  1  0  0  0  0
 18 44  1  0  0  0  0
 19 45  1  0  0  0  0
 22 46  1  0  0  0  0
 22 47  1  0  0  0  0
 22 48  1  0  0  0  0
 23 49  1  0  0  0  0
 25 50  1  0  0  0  0
M  END
> <IC50 (uM)>

> <IC50 (uM) - std>

> <Average Inhibition @ 20 uM>

> <Average Inhibition @ 20 uM - std>
16.9

> <Average Inhibition @ 50 uM>
2.12

> <Average Inhibition @ 50 uM - std>
32.3

> <Trypsin IC50 (uM)>
1.06

> <Relative Solubility @ 20 uM>
0.81

> <Relative Solubility @ 100 uM>
0.64

> <Hybrid2>
-3.232907

> <docked_fragment>
x0770

> <Mpro-_dock>
4.875348

> <site>
active-covalent

$$$$
LON-WEI-d1c9908a-4
  -OEChem-05192003313D

 63 66  0     1  0  0  0  0  0999 V2000
    7.0904   -0.2345   18.9189 C   0  0  0  0  0  0  0  0  0  0  0  0
    5.5764   -5.6591   25.0386 C   0  0  0  0  0  0  0  0  0  0  0  0
    7.4083   -4.3252   25.8763 C   0  0  0  0  0  0  0  0  0  0  0  0
    7.6264   -0.8553   20.0416 C   0  0  0  0  0  0  0  0  0  0  0  0
    5.7363   -5.0863   23.7769 C   0  0  0  0  0  0  0  0  0  0  0  0
    7.5683   -3.7524   24.6146 C   0  0  0  0  0  0  0  0  0  0  0  0
   11.6281   -0.9064   22.2360 C   0  0  0  0  0  0  0  0  0  0  0  0
   12.9532   -0.5277   22.4512 C   0  0  0  0  0  0  0  0  0  0  0  0
   12.3072    0.5651   24.5068 C   0  0  0  0  0  0  0  0  0  0  0  0
    5.7124   -0.2331   18.7743 C   0  0  0  0  0  0  0  0  0  0  0  0
    5.4158   -1.3914   20.7361 C   0  0  0  0  0  0  0  0  0  0  0  0
    6.4124   -5.2785   26.0883 C   0  0  0  0  0  0  0  0  0  0  0  0
    6.7800   -1.4473   20.9724 C   0  0  0  0  0  0  0  0  0  0  0  0
   10.9820    0.1865   24.2916 C   0  0  0  0  0  0  0  0  0  0  0  0
    6.7322   -4.1330   23.5648 C   0  0  0  0  0  0  0  0  0  0  0  0
   10.6425   -0.5492   23.1562 C   0  0  0  0  0  0  0  0  0  0  0  0
   13.2927    0.2080   23.5865 C   0  0  0  0  0  0  0  0  0  0  0  0
    6.0625   -6.5516   20.4074 C   0  0  0  0  0  0  0  0  0  0  0  0
    6.8194   -5.7186   21.1286 C   0  0  0  0  0  0  0  0  0  0  0  0
    6.5788   -4.2466   21.0766 C   0  0  0  0  0  0  0  0  0  0  0  0
    8.8571   -2.0733   22.2420 C   0  0  0  0  0  0  0  0  0  0  0  0
    4.9059   -5.7093   28.1346 C   0  0  0  0  0  0  0  0  0  0  0  0
    6.1034   -4.9585   28.6268 C   0  0  0  0  0  0  0  0  0  0  0  0
    6.2416   -5.8903   27.4363 C   0  0  0  0  0  0  0  0  0  0  0  0
    9.9475    0.5832   25.2941 C   0  0  0  0  0  0  0  0  0  0  0  0
    6.9707   -7.1890   27.6424 C   0  0  0  0  0  0  0  0  0  0  0  0
   14.8631    1.3278   24.9778 C   0  0  0  0  0  0  0  0  0  0  0  0
    7.3320   -2.1299   22.2045 C   0  0  2  0  0  0  0  0  0  0  0  0
    4.8583   -0.7976   19.6571 N   0  0  0  0  0  0  0  0  0  0  0  0
    9.3035   -0.9411   22.9190 N   0  0  0  0  0  0  0  0  0  0  0  0
    6.8988   -3.5363   22.2509 N   0  0  0  0  0  0  0  0  0  0  0  0
    6.1182   -3.7561   20.0454 O   0  0  0  0  0  0  0  0  0  0  0  0
    9.5476   -2.9404   21.7133 O   0  0  0  0  0  0  0  0  0  0  0  0
   14.5860    0.5769   23.7967 O   0  0  0  0  0  0  0  0  0  0  0  0
    7.7310    0.2337   18.1803 H   0  0  0  0  0  0  0  0  0  0  0  0
    4.7975   -6.4010   25.1936 H   0  0  0  0  0  0  0  0  0  0  0  0
    8.0645   -4.0225   26.6882 H   0  0  0  0  0  0  0  0  0  0  0  0
    8.7036   -0.8727   20.1831 H   0  0  0  0  0  0  0  0  0  0  0  0
    5.0790   -5.3904   22.9661 H   0  0  0  0  0  0  0  0  0  0  0  0
    8.3478   -3.0104   24.4613 H   0  0  0  0  0  0  0  0  0  0  0  0
   11.3752   -1.4788   21.3468 H   0  0  0  0  0  0  0  0  0  0  0  0
   13.7165   -0.8093   21.7309 H   0  0  0  0  0  0  0  0  0  0  0  0
   12.5750    1.1391   25.3906 H   0  0  0  0  0  0  0  0  0  0  0  0
    5.2452    0.2378   17.9156 H   0  0  0  0  0  0  0  0  0  0  0  0
    4.7063   -1.8358   21.4272 H   0  0  0  0  0  0  0  0  0  0  0  0
    6.2263   -7.6225   20.4666 H   0  0  0  0  0  0  0  0  0  0  0  0
    5.2781   -6.2015   19.7454 H   0  0  0  0  0  0  0  0  0  0  0  0
    7.5825   -6.1110   21.7907 H   0  0  0  0  0  0  0  0  0  0  0  0
    4.5300   -6.5176   28.7511 H   0  0  0  0  0  0  0  0  0  0  0  0
    4.1282   -5.1436   27.6343 H   0  0  0  0  0  0  0  0  0  0  0  0
    6.1290   -3.8881   28.4577 H   0  0  0  0  0  0  0  0  0  0  0  0
    6.5344   -5.2617   29.5740 H   0  0  0  0  0  0  0  0  0  0  0  0
    9.5193    1.5573   25.0319 H   0  0  0  0  0  0  0  0  0  0  0  0
    9.1374   -0.1546   25.3398 H   0  0  0  0  0  0  0  0  0  0  0  0
   10.3773    0.6491   26.3011 H   0  0  0  0  0  0  0  0  0  0  0  0
    6.7997   -7.5794   28.6533 H   0  0  0  0  0  0  0  0  0  0  0  0
    8.0517   -7.0579   27.5098 H   0  0  0  0  0  0  0  0  0  0  0  0
    6.6321   -7.9476   26.9259 H   0  0  0  0  0  0  0  0  0  0  0  0
   15.9307    1.5565   25.0230 H   0  0  0  0  0  0  0  0  0  0  0  0
   14.5659    0.7497   25.8564 H   0  0  0  0  0  0  0  0  0  0  0  0
   14.2941    2.2601   24.9480 H   0  0  0  0  0  0  0  0  0  0  0  0
    6.9442   -1.6459   23.1093 H   0  0  0  0  0  0  0  0  0  0  0  0
    8.5826   -0.3233   23.2859 H   0  0  0  0  0  0  0  0  0  0  0  0
  1  4  2  0  0  0  0
  1 10  1  0  0  0  0
  2  5  2  0  0  0  0
  2 12  1  0  0  0  0
  3  6  1  0  0  0  0
  3 12  2  0  0  0  0
  4 13  1  0  0  0  0
  5 15  1  0  0  0  0
  6 15  2  0  0  0  0
  7  8  2  0  0  0  0
  7 16  1  0  0  0  0
  8 17  1  0  0  0  0
  9 14  1  0  0  0  0
  9 17  2  0  0  0  0
 10 29  2  0  0  0  0
 11 13  2  0  0  0  0
 11 29  1  0  0  0  0
 12 24  1  0  0  0  0
 13 28  1  0  0  0  0
 14 16  2  0  0  0  0
 14 25  1  0  0  0  0
 15 31  1  0  0  0  0
 16 30  1  0  0  0  0
 17 34  1  0  0  0  0
 18 19  2  0  0  0  0
 19 20  1  0  0  0  0
 20 31  1  0  0  0  0
 20 32  2  0  0  0  0
 21 28  1  0  0  0  0
 21 30  1  0  0  0  0
 21 33  2  0  0  0  0
 22 23  1  0  0  0  0
 22 24  1  0  0  0  0
 23 24  1  0  0  0  0
 24 26  1  0  0  0  0
 27 34  1  0  0  0  0
 28 31  1  0  0  0  0
  1 35  1  0  0  0  0
  2 36  1  0  0  0  0
  3 37  1  0  0  0  0
  4 38  1  0  0  0  0
  5 39  1  0  0  0  0
  6 40  1  0  0  0  0
  7 41  1  0  0  0  0
  8 42  1  0  0  0  0
  9 43  1  0  0  0  0
 10 44  1  0  0  0  0
 11 45  1  0  0  0  0
 18 46  1  0  0  0  0
 18 47  1  0  0  0  0
 19 48  1  0  0  0  0
 22 49  1  0  0  0  0
 22 50  1  0  0  0  0
 23 51  1  0  0  0  0
 23 52  1  0  0  0  0
 25 53  1  0  0  0  0
 25 54  1  0  0  0  0
 25 55  1  0  0  0  0
 26 56  1  0  0  0  0
 26 57  1  0  0  0  0
 26 58  1  0  0  0  0
 27 59  1  0  0  0  0
 27 60  1  0  0  0  0
 27 61  1  0  0  0  0
 28 62  1  0  0  0  0
 30 63  1  0  0  0  0
M  END
> <IC50 (uM)>

> <IC50 (uM) - std>

> <Average Inhibition @ 20 uM>

> <Average Inhibition @ 20 uM - std>

> <Average Inhibition @ 50 uM>

> <Average Inhibition @ 50 uM - std>
1.72

> <Trypsin IC50 (uM)>
1.59

> <Relative Solubility @ 20 uM>

> <Relative Solubility @ 100 uM>

> <Hybrid2>
-3.195148

> <docked_fragment>
x0759

> <Mpro-_dock>
5.904019

> <site>
active-covalent

$$$$
LON-WEI-8f408cad-10
  -OEChem-05192003313D

 61 63  0     1  0  0  0  0  0999 V2000
    4.2015   -4.5545   23.0859 C   0  0  0  0  0  0  0  0  0  0  0  0
    5.3237   -3.8963   22.5952 C   0  0  0  0  0  0  0  0  0  0  0  0
    9.3078   -0.5372   23.7972 C   0  0  0  0  0  0  0  0  0  0  0  0
   10.4106    0.2935   23.9950 C   0  0  0  0  0  0  0  0  0  0  0  0
    6.2925    0.7451   19.0868 C   0  0  0  0  0  0  0  0  0  0  0  0
    6.2784   -1.5868   18.4551 C   0  0  0  0  0  0  0  0  0  0  0  0
    6.1351    1.1084   17.7494 C   0  0  0  0  0  0  0  0  0  0  0  0
    6.1209   -1.2235   17.1176 C   0  0  0  0  0  0  0  0  0  0  0  0
   10.7847   -2.4234   23.4841 C   0  0  0  0  0  0  0  0  0  0  0  0
    3.6940   -4.1474   24.3092 C   0  0  0  0  0  0  0  0  0  0  0  0
    5.3126   -2.5340   24.5447 C   0  0  0  0  0  0  0  0  0  0  0  0
    5.8960   -2.8656   23.3325 C   0  0  0  0  0  0  0  0  0  0  0  0
   11.8876   -1.5926   23.6819 C   0  0  0  0  0  0  0  0  0  0  0  0
    6.3642   -0.6026   19.4397 C   0  0  0  0  0  0  0  0  0  0  0  0
    9.4948   -1.8958   23.5418 C   0  0  0  0  0  0  0  0  0  0  0  0
   11.7005   -0.2341   23.9373 C   0  0  0  0  0  0  0  0  0  0  0  0
    6.0492    0.1241   16.7647 C   0  0  0  0  0  0  0  0  0  0  0  0
    9.8989   -5.6923   24.8120 C   0  0  0  0  0  0  0  0  0  0  0  0
    9.3300   -4.4830   24.7815 C   0  0  0  0  0  0  0  0  0  0  0  0
    8.3814   -4.1245   23.6865 C   0  0  0  0  0  0  0  0  0  0  0  0
    7.1625   -2.1018   21.3001 C   0  0  0  0  0  0  0  0  0  0  0  0
   13.2582   -2.1839   23.6136 C   0  0  0  0  0  0  0  0  0  0  0  0
   13.3359    0.8288   25.4722 C   0  0  0  0  0  0  0  0  0  0  0  0
   13.4287    1.2914   23.0174 C   0  0  0  0  0  0  0  0  0  0  0  0
    5.8298    1.8739   15.1692 C   0  0  0  0  0  0  0  0  0  0  0  0
    7.1167   -2.1297   22.8258 C   0  0  2  0  0  0  0  0  0  0  0  0
    4.2225   -3.1506   25.0539 N   0  0  0  0  0  0  0  0  0  0  0  0
    6.5239   -0.9713   20.7966 N   0  0  0  0  0  0  0  0  0  0  0  0
    8.3458   -2.7602   23.3352 N   0  0  0  0  0  0  0  0  0  0  0  0
   12.8052    0.6218   24.1405 N   0  0  0  0  0  0  0  0  0  0  0  0
    7.6983   -5.0136   23.1776 O   0  0  0  0  0  0  0  0  0  0  0  0
    7.6989   -2.9985   20.6547 O   0  0  0  0  0  0  0  0  0  0  0  0
    5.8956    0.4785   15.4596 O   0  0  0  0  0  0  0  0  0  0  0  0
    3.7385   -5.3605   22.5282 H   0  0  0  0  0  0  0  0  0  0  0  0
    5.7449   -4.1927   21.6384 H   0  0  0  0  0  0  0  0  0  0  0  0
    8.3072   -0.1150   23.8450 H   0  0  0  0  0  0  0  0  0  0  0  0
   10.2528    1.3504   24.1947 H   0  0  0  0  0  0  0  0  0  0  0  0
    6.3581    1.5205   19.8459 H   0  0  0  0  0  0  0  0  0  0  0  0
    6.3331   -2.6401   18.7184 H   0  0  0  0  0  0  0  0  0  0  0  0
    6.0798    2.1598   17.4807 H   0  0  0  0  0  0  0  0  0  0  0  0
    6.0548   -1.9949   16.3551 H   0  0  0  0  0  0  0  0  0  0  0  0
   10.9318   -3.4828   23.2855 H   0  0  0  0  0  0  0  0  0  0  0  0
    2.8203   -4.6293   24.7354 H   0  0  0  0  0  0  0  0  0  0  0  0
    5.7150   -1.7383   25.1638 H   0  0  0  0  0  0  0  0  0  0  0  0
   10.5697   -5.9560   25.6229 H   0  0  0  0  0  0  0  0  0  0  0  0
    9.7240   -6.4385   24.0448 H   0  0  0  0  0  0  0  0  0  0  0  0
    9.5190   -3.7717   25.5772 H   0  0  0  0  0  0  0  0  0  0  0  0
   13.6399   -2.1387   22.5873 H   0  0  0  0  0  0  0  0  0  0  0  0
   13.9538   -1.6470   24.2699 H   0  0  0  0  0  0  0  0  0  0  0  0
   13.2540   -3.2310   23.9401 H   0  0  0  0  0  0  0  0  0  0  0  0
   14.1880    1.5228   25.4241 H   0  0  0  0  0  0  0  0  0  0  0  0
   12.5527    1.2541   26.1169 H   0  0  0  0  0  0  0  0  0  0  0  0
   13.6700   -0.1336   25.8873 H   0  0  0  0  0  0  0  0  0  0  0  0
   14.2654    1.9088   23.3764 H   0  0  0  0  0  0  0  0  0  0  0  0
   13.8053    0.5413   22.3065 H   0  0  0  0  0  0  0  0  0  0  0  0
   12.6887    1.9327   22.5162 H   0  0  0  0  0  0  0  0  0  0  0  0
    5.7067    2.0174   14.0929 H   0  0  0  0  0  0  0  0  0  0  0  0
    6.7466    2.3616   15.5101 H   0  0  0  0  0  0  0  0  0  0  0  0
    4.9734    2.3059   15.6923 H   0  0  0  0  0  0  0  0  0  0  0  0
    7.1125   -1.0956   23.1919 H   0  0  0  0  0  0  0  0  0  0  0  0
    6.1256   -0.3360   21.4849 H   0  0  0  0  0  0  0  0  0  0  0  0
  1  2  2  0  0  0  0
  1 10  1  0  0  0  0
  2 12  1  0  0  0  0
  3  4  2  0  0  0  0
  3 15  1  0  0  0  0
  4 16  1  0  0  0  0
  5  7  2  0  0  0  0
  5 14  1  0  0  0  0
  6  8  1  0  0  0  0
  6 14  2  0  0  0  0
  7 17  1  0  0  0  0
  8 17  2  0  0  0  0
  9 13  1  0  0  0  0
  9 15  2  0  0  0  0
 10 27  2  0  0  0  0
 11 12  2  0  0  0  0
 11 27  1  0  0  0  0
 12 26  1  0  0  0  0
 13 16  2  0  0  0  0
 13 22  1  0  0  0  0
 14 28  1  0  0  0  0
 15 29  1  0  0  0  0
 16 30  1  0  0  0  0
 17 33  1  0  0  0  0
 18 19  2  0  0  0  0
 19 20  1  0  0  0  0
 20 29  1  0  0  0  0
 20 31  2  0  0  0  0
 21 26  1  0  0  0  0
 21 28  1  0  0  0  0
 21 32  2  0  0  0  0
 23 30  1  0  0  0  0
 24 30  1  0  0  0  0
 25 33  1  0  0  0  0
 26 29  1  0  0  0  0
  1 34  1  0  0  0  0
  2 35  1  0  0  0  0
  3 36  1  0  0  0  0
  4 37  1  0  0  0  0
  5 38  1  0  0  0  0
  6 39  1  0  0  0  0
  7 40  1  0  0  0  0
  8 41  1  0  0  0  0
  9 42  1  0  0  0  0
 10 43  1  0  0  0  0
 11 44  1  0  0  0  0
 18 45  1  0  0  0  0
 18 46  1  0  0  0  0
 19 47  1  0  0  0  0
 22 48  1  0  0  0  0
 22 49  1  0  0  0  0
 22 50  1  0  0  0  0
 23 51  1  0  0  0  0
 23 52  1  0  0  0  0
 23 53  1  0  0  0  0
 24 54  1  0  0  0  0
 24 55  1  0  0  0  0
 24 56  1  0  0  0  0
 25 57  1  0  0  0  0
 25 58  1  0  0  0  0
 25 59  1  0  0  0  0
 26 60  1  0  0  0  0
 28 61  1  0  0  0  0
M  END
> <IC50 (uM)>

> <IC50 (uM) - std>

> <Average Inhibition @ 20 uM>

> <Average Inhibition @ 20 uM - std>
2.56

> <Average Inhibition @ 50 uM>
1.02

> <Average Inhibition @ 50 uM - std>
7.05

> <Trypsin IC50 (uM)>
2.55

> <Relative Solubility @ 20 uM>
0.88

> <Relative Solubility @ 100 uM>
0.77

> <Hybrid2>
-3.120221

> <docked_fragment>
x1418

> <Mpro-_dock>
5.022598

> <site>
active-covalent

$$$$
LON-WEI-d1c9908a-5
  -OEChem-05192003313D

 60 63  0     1  0  0  0  0  0999 V2000
    8.7246   -1.6041   19.7088 C   0  0  0  0  0  0  0  0  0  0  0  0
    5.2696   -5.8265   25.7597 C   0  0  0  0  0  0  0  0  0  0  0  0
    7.0697   -4.7250   26.9360 C   0  0  0  0  0  0  0  0  0  0  0  0
    8.9044   -2.2390   20.9327 C   0  0  0  0  0  0  0  0  0  0  0  0
    5.7790   -5.3635   24.5466 C   0  0  0  0  0  0  0  0  0  0  0  0
    7.5791   -4.2620   25.7229 C   0  0  0  0  0  0  0  0  0  0  0  0
   11.6489   -0.4759   25.5824 C   0  0  0  0  0  0  0  0  0  0  0  0
   12.3428   -2.6023   24.6691 C   0  0  0  0  0  0  0  0  0  0  0  0
   12.9336   -0.2731   26.0862 C   0  0  0  0  0  0  0  0  0  0  0  0
   13.6276   -2.3994   25.1728 C   0  0  0  0  0  0  0  0  0  0  0  0
    7.5776   -0.8469   19.5334 C   0  0  0  0  0  0  0  0  0  0  0  0
    6.8333   -1.3196   21.6548 C   0  0  0  0  0  0  0  0  0  0  0  0
    5.9149   -5.5073   26.9545 C   0  0  0  0  0  0  0  0  0  0  0  0
    7.9453   -2.0992   21.9296 C   0  0  0  0  0  0  0  0  0  0  0  0
   11.3534   -1.6406   24.8739 C   0  0  0  0  0  0  0  0  0  0  0  0
    6.9338   -4.5812   24.5281 C   0  0  0  0  0  0  0  0  0  0  0  0
   13.9230   -1.2348   25.8814 C   0  0  0  0  0  0  0  0  0  0  0  0
    6.5739   -7.0689   21.3738 C   0  0  0  0  0  0  0  0  0  0  0  0
    7.2828   -6.3121   22.2175 C   0  0  0  0  0  0  0  0  0  0  0  0
    7.2917   -4.8269   22.0706 C   0  0  0  0  0  0  0  0  0  0  0  0
    9.5847   -2.9414   23.6388 C   0  0  0  0  0  0  0  0  0  0  0  0
    3.9630   -5.5840   28.6358 C   0  0  0  0  0  0  0  0  0  0  0  0
    5.1325   -4.9870   29.3542 C   0  0  0  0  0  0  0  0  0  0  0  0
    5.3707   -6.0018   28.2505 C   0  0  0  0  0  0  0  0  0  0  0  0
    5.8279   -7.3776   28.6488 C   0  0  0  0  0  0  0  0  0  0  0  0
   16.1396   -2.0607   26.1272 C   0  0  0  0  0  0  0  0  0  0  0  0
    8.1120   -2.7766   23.2720 C   0  0  2  0  0  0  0  0  0  0  0  0
    6.6239   -0.6877   20.4782 N   0  0  0  0  0  0  0  0  0  0  0  0
   10.0500   -1.8465   24.3627 N   0  0  0  0  0  0  0  0  0  0  0  0
    7.4643   -4.0989   23.2648 N   0  0  0  0  0  0  0  0  0  0  0  0
    7.1409   -4.3399   20.9498 O   0  0  0  0  0  0  0  0  0  0  0  0
   10.2268   -3.9316   23.2990 O   0  0  0  0  0  0  0  0  0  0  0  0
   15.1767   -1.0369   26.3730 O   0  0  0  0  0  0  0  0  0  0  0  0
    9.4592   -1.6988   18.9173 H   0  0  0  0  0  0  0  0  0  0  0  0
    4.3693   -6.4354   25.7635 H   0  0  0  0  0  0  0  0  0  0  0  0
    7.5793   -4.4712   27.8618 H   0  0  0  0  0  0  0  0  0  0  0  0
    9.7940   -2.8399   21.1007 H   0  0  0  0  0  0  0  0  0  0  0  0
    5.2678   -5.6184   23.6216 H   0  0  0  0  0  0  0  0  0  0  0  0
    8.4796   -3.6531   25.7209 H   0  0  0  0  0  0  0  0  0  0  0  0
   10.8857    0.2803   25.7479 H   0  0  0  0  0  0  0  0  0  0  0  0
   12.1239   -3.5137   24.1185 H   0  0  0  0  0  0  0  0  0  0  0  0
   13.1577    0.6362   26.6374 H   0  0  0  0  0  0  0  0  0  0  0  0
   14.3940   -3.1523   25.0101 H   0  0  0  0  0  0  0  0  0  0  0  0
    7.3907   -0.3321   18.5967 H   0  0  0  0  0  0  0  0  0  0  0  0
    6.0516   -1.1739   22.3940 H   0  0  0  0  0  0  0  0  0  0  0  0
    6.5521   -8.1464   21.4991 H   0  0  0  0  0  0  0  0  0  0  0  0
    6.0111   -6.6501   20.5470 H   0  0  0  0  0  0  0  0  0  0  0  0
    7.8185   -6.7696   23.0411 H   0  0  0  0  0  0  0  0  0  0  0  0
    3.3442   -6.2884   29.1794 H   0  0  0  0  0  0  0  0  0  0  0  0
    3.4063   -4.9431   27.9616 H   0  0  0  0  0  0  0  0  0  0  0  0
    5.3601   -3.9446   29.1630 H   0  0  0  0  0  0  0  0  0  0  0  0
    5.3016   -5.2900   30.3810 H   0  0  0  0  0  0  0  0  0  0  0  0
    5.3892   -7.6747   29.6094 H   0  0  0  0  0  0  0  0  0  0  0  0
    6.9196   -7.4146   28.7507 H   0  0  0  0  0  0  0  0  0  0  0  0
    5.5334   -8.1220   27.8986 H   0  0  0  0  0  0  0  0  0  0  0  0
   17.0961   -1.7768   26.5727 H   0  0  0  0  0  0  0  0  0  0  0  0
   16.2551   -2.2023   25.0497 H   0  0  0  0  0  0  0  0  0  0  0  0
   15.7915   -2.9922   26.5799 H   0  0  0  0  0  0  0  0  0  0  0  0
    7.6230   -2.1854   24.0560 H   0  0  0  0  0  0  0  0  0  0  0  0
    9.3736   -1.1082   24.5455 H   0  0  0  0  0  0  0  0  0  0  0  0
  1  4  2  0  0  0  0
  1 11  1  0  0  0  0
  2  5  2  0  0  0  0
  2 13  1  0  0  0  0
  3  6  1  0  0  0  0
  3 13  2  0  0  0  0
  4 14  1  0  0  0  0
  5 16  1  0  0  0  0
  6 16  2  0  0  0  0
  7  9  2  0  0  0  0
  7 15  1  0  0  0  0
  8 10  1  0  0  0  0
  8 15  2  0  0  0  0
  9 17  1  0  0  0  0
 10 17  2  0  0  0  0
 11 28  2  0  0  0  0
 12 14  2  0  0  0  0
 12 28  1  0  0  0  0
 13 24  1  0  0  0  0
 14 27  1  0  0  0  0
 15 29  1  0  0  0  0
 16 30  1  0  0  0  0
 17 33  1  0  0  0  0
 18 19  2  0  0  0  0
 19 20  1  0  0  0  0
 20 30  1  0  0  0  0
 20 31  2  0  0  0  0
 21 27  1  0  0  0  0
 21 29  1  0  0  0  0
 21 32  2  0  0  0  0
 22 23  1  0  0  0  0
 22 24  1  0  0  0  0
 23 24  1  0  0  0  0
 24 25  1  0  0  0  0
 26 33  1  0  0  0  0
 27 30  1  0  0  0  0
  1 34  1  0  0  0  0
  2 35  1  0  0  0  0
  3 36  1  0  0  0  0
  4 37  1  0  0  0  0
  5 38  1  0  0  0  0
  6 39  1  0  0  0  0
  7 40  1  0  0  0  0
  8 41  1  0  0  0  0
  9 42  1  0  0  0  0
 10 43  1  0  0  0  0
 11 44  1  0  0  0  0
 12 45  1  0  0  0  0
 18 46  1  0  0  0  0
 18 47  1  0  0  0  0
 19 48  1  0  0  0  0
 22 49  1  0  0  0  0
 22 50  1  0  0  0  0
 23 51  1  0  0  0  0
 23 52  1  0  0  0  0
 25 53  1  0  0  0  0
 25 54  1  0  0  0  0
 25 55  1  0  0  0  0
 26 56  1  0  0  0  0
 26 57  1  0  0  0  0
 26 58  1  0  0  0  0
 27 59  1  0  0  0  0
 29 60  1  0  0  0  0
M  END
> <IC50 (uM)>

> <IC50 (uM) - std>

> <Average Inhibition @ 20 uM>

> <Average Inhibition @ 20 uM - std>

> <Average Inhibition @ 50 uM>

> <Average Inhibition @ 50 uM - std>
39.3

> <Trypsin IC50 (uM)>
2.57

> <Relative Solubility @ 20 uM>

> <Relative Solubility @ 100 uM>

> <Hybrid2>
-2.965664

> <docked_fragment>
x0749

> <Mpro-_dock>
5.590662

> <site>
active-covalent

$$$$
LON-WEI-d1c9908a-10
  -OEChem-05192003313D

 67 69  0     1  0  0  0  0  0999 V2000
    5.3363   -2.4071   18.3526 C   0  0  0  0  0  0  0  0  0  0  0  0
    9.5142   -2.6491   25.9503 C   0  0  0  0  0  0  0  0  0  0  0  0
    5.7137   -3.3260   19.3317 C   0  0  0  0  0  0  0  0  0  0  0  0
    5.7407   -1.0759   18.4524 C   0  0  0  0  0  0  0  0  0  0  0  0
    9.4170   -1.4841   25.1976 C   0  0  0  0  0  0  0  0  0  0  0  0
   10.2407    3.4645   24.8199 C   0  0  0  0  0  0  0  0  0  0  0  0
   12.0723    3.8272   23.2868 C   0  0  0  0  0  0  0  0  0  0  0  0
   10.1032    2.1595   24.3470 C   0  0  0  0  0  0  0  0  0  0  0  0
   11.9349    2.5221   22.8139 C   0  0  0  0  0  0  0  0  0  0  0  0
    9.7701   -3.8347   25.2804 C   0  0  0  0  0  0  0  0  0  0  0  0
    9.8296   -2.7746   23.2430 C   0  0  0  0  0  0  0  0  0  0  0  0
   11.2252    4.2984   24.2897 C   0  0  0  0  0  0  0  0  0  0  0  0
    9.5763   -1.5395   23.8174 C   0  0  0  0  0  0  0  0  0  0  0  0
    6.4956   -2.9137   20.4107 C   0  0  0  0  0  0  0  0  0  0  0  0
    6.5226   -0.6636   19.5315 C   0  0  0  0  0  0  0  0  0  0  0  0
   10.9503    1.6883   23.3440 C   0  0  0  0  0  0  0  0  0  0  0  0
    6.9000   -1.5825   20.5107 C   0  0  0  0  0  0  0  0  0  0  0  0
   14.3530   -0.2689   22.1153 C   0  0  0  0  0  0  0  0  0  0  0  0
   13.2753   -0.0804   22.8834 C   0  0  0  0  0  0  0  0  0  0  0  0
   11.9133   -0.3928   22.3594 C   0  0  0  0  0  0  0  0  0  0  0  0
    8.9666   -0.6022   21.5663 C   0  0  0  0  0  0  0  0  0  0  0  0
    6.8840   -3.9215   21.4438 C   0  0  0  0  0  0  0  0  0  0  0  0
    6.1172    1.5560   20.6250 C   0  0  0  0  0  0  0  0  0  0  0  0
   11.6883    5.7114   26.3231 C   0  0  0  0  0  0  0  0  0  0  0  0
   10.0640    6.5157   24.5764 C   0  0  0  0  0  0  0  0  0  0  0  0
   12.5089    6.5346   24.1253 C   0  0  0  0  0  0  0  0  0  0  0  0
    6.9402    0.7692   19.6100 C   0  0  0  0  0  0  0  0  0  0  0  0
    9.4770   -0.2898   22.9707 C   0  0  2  0  0  0  0  0  0  0  0  0
   11.3766    5.7370   24.8111 C   0  0  0  0  0  0  0  0  0  0  0  0
    9.9308   -3.9278   23.9413 N   0  0  0  0  0  0  0  0  0  0  0  0
    7.6929   -1.1640   21.6055 N   0  0  0  0  0  0  0  0  0  0  0  0
   10.8133    0.3830   22.8710 N   0  0  0  0  0  0  0  0  0  0  0  0
   11.7858   -1.3060   21.5433 O   0  0  0  0  0  0  0  0  0  0  0  0
    9.6453   -0.3748   20.5683 O   0  0  0  0  0  0  0  0  0  0  0  0
    4.7276   -2.7281   17.5121 H   0  0  0  0  0  0  0  0  0  0  0  0
    9.3938   -2.6298   27.0275 H   0  0  0  0  0  0  0  0  0  0  0  0
    5.3931   -4.3609   19.2451 H   0  0  0  0  0  0  0  0  0  0  0  0
    5.4416   -0.3681   17.6838 H   0  0  0  0  0  0  0  0  0  0  0  0
    9.2172   -0.5386   25.6944 H   0  0  0  0  0  0  0  0  0  0  0  0
    9.5748    3.8240   25.6000 H   0  0  0  0  0  0  0  0  0  0  0  0
   12.8417    4.4703   22.8675 H   0  0  0  0  0  0  0  0  0  0  0  0
    9.3327    1.5182   24.7677 H   0  0  0  0  0  0  0  0  0  0  0  0
   12.5998    2.1655   22.0312 H   0  0  0  0  0  0  0  0  0  0  0  0
    9.8547   -4.7709   25.8222 H   0  0  0  0  0  0  0  0  0  0  0  0
    9.9630   -2.8798   22.1707 H   0  0  0  0  0  0  0  0  0  0  0  0
   15.3427   -0.0623   22.5090 H   0  0  0  0  0  0  0  0  0  0  0  0
   14.2853   -0.6205   21.0917 H   0  0  0  0  0  0  0  0  0  0  0  0
   13.3882    0.2570   23.9072 H   0  0  0  0  0  0  0  0  0  0  0  0
    7.8338   -4.3956   21.1723 H   0  0  0  0  0  0  0  0  0  0  0  0
    6.9946   -3.4544   22.4298 H   0  0  0  0  0  0  0  0  0  0  0  0
    6.1188   -4.7009   21.5429 H   0  0  0  0  0  0  0  0  0  0  0  0
    5.0486    1.5045   20.3902 H   0  0  0  0  0  0  0  0  0  0  0  0
    6.4133    2.6096   20.6279 H   0  0  0  0  0  0  0  0  0  0  0  0
    6.2582    1.1612   21.6369 H   0  0  0  0  0  0  0  0  0  0  0  0
   11.8012    6.7268   26.7207 H   0  0  0  0  0  0  0  0  0  0  0  0
   10.8939    5.2277   26.9022 H   0  0  0  0  0  0  0  0  0  0  0  0
   12.6194    5.1686   26.5247 H   0  0  0  0  0  0  0  0  0  0  0  0
   10.1257    7.5494   24.9336 H   0  0  0  0  0  0  0  0  0  0  0  0
    9.8160    6.5599   23.5094 H   0  0  0  0  0  0  0  0  0  0  0  0
    9.2241    6.0381   25.0946 H   0  0  0  0  0  0  0  0  0  0  0  0
   12.5770    7.5516   24.5300 H   0  0  0  0  0  0  0  0  0  0  0  0
   13.4859    6.0615   24.2784 H   0  0  0  0  0  0  0  0  0  0  0  0
   12.3400    6.6284   23.0461 H   0  0  0  0  0  0  0  0  0  0  0  0
    8.0063    0.8414   19.8745 H   0  0  0  0  0  0  0  0  0  0  0  0
    6.8500    1.2470   18.6223 H   0  0  0  0  0  0  0  0  0  0  0  0
    8.7916    0.4284   23.4374 H   0  0  0  0  0  0  0  0  0  0  0  0
    7.2847   -1.2880   22.5296 H   0  0  0  0  0  0  0  0  0  0  0  0
  1  3  1  0  0  0  0
  1  4  2  0  0  0  0
  2  5  2  0  0  0  0
  2 10  1  0  0  0  0
  3 14  2  0  0  0  0
  4 15  1  0  0  0  0
  5 13  1  0  0  0  0
  6  8  2  0  0  0  0
  6 12  1  0  0  0  0
  7  9  1  0  0  0  0
  7 12  2  0  0  0  0
  8 16  1  0  0  0  0
  9 16  2  0  0  0  0
 10 30  2  0  0  0  0
 11 13  2  0  0  0  0
 11 30  1  0  0  0  0
 12 29  1  0  0  0  0
 13 28  1  0  0  0  0
 14 17  1  0  0  0  0
 14 22  1  0  0  0  0
 15 17  2  0  0  0  0
 15 27  1  0  0  0  0
 16 32  1  0  0  0  0
 17 31  1  0  0  0  0
 18 19  2  0  0  0  0
 19 20  1  0  0  0  0
 20 32  1  0  0  0  0
 20 33  2  0  0  0  0
 21 28  1  0  0  0  0
 21 31  1  0  0  0  0
 21 34  2  0  0  0  0
 23 27  1  0  0  0  0
 24 29  1  0  0  0  0
 25 29  1  0  0  0  0
 26 29  1  0  0  0  0
 28 32  1  0  0  0  0
  1 35  1  0  0  0  0
  2 36  1  0  0  0  0
  3 37  1  0  0  0  0
  4 38  1  0  0  0  0
  5 39  1  0  0  0  0
  6 40  1  0  0  0  0
  7 41  1  0  0  0  0
  8 42  1  0  0  0  0
  9 43  1  0  0  0  0
 10 44  1  0  0  0  0
 11 45  1  0  0  0  0
 18 46  1  0  0  0  0
 18 47  1  0  0  0  0
 19 48  1  0  0  0  0
 22 49  1  0  0  0  0
 22 50  1  0  0  0  0
 22 51  1  0  0  0  0
 23 52  1  0  0  0  0
 23 53  1  0  0  0  0
 23 54  1  0  0  0  0
 24 55  1  0  0  0  0
 24 56  1  0  0  0  0
 24 57  1  0  0  0  0
 25 58  1  0  0  0  0
 25 59  1  0  0  0  0
 25 60  1  0  0  0  0
 26 61  1  0  0  0  0
 26 62  1  0  0  0  0
 26 63  1  0  0  0  0
 27 64  1  0  0  0  0
 27 65  1  0  0  0  0
 28 66  1  0  0  0  0
 31 67  1  0  0  0  0
M  END
> <IC50 (uM)>

> <IC50 (uM) - std>

> <Average Inhibition @ 20 uM>

> <Average Inhibition @ 20 uM - std>

> <Average Inhibition @ 50 uM>

> <Average Inhibition @ 50 uM - std>
10.2

> <Trypsin IC50 (uM)>
0.324

> <Relative Solubility @ 20 uM>

> <Relative Solubility @ 100 uM>

> <Hybrid2>
-2.927537

> <docked_fragment>
x0692

> <Mpro-_dock>
5.107371

> <site>
active-covalent

$$$$
LON-WEI-b8d98729-27
  -OEChem-05192003313D

 53 55  0     1  0  0  0  0  0999 V2000
    7.0828   -1.2731   20.3529 C   0  0  0  0  0  0  0  0  0  0  0  0
    7.7086   -1.7585   21.4957 C   0  0  0  0  0  0  0  0  0  0  0  0
    6.4353   -5.2500   26.9672 C   0  0  0  0  0  0  0  0  0  0  0  0
    5.4497   -6.9988   25.6229 C   0  0  0  0  0  0  0  0  0  0  0  0
    7.1162   -4.7727   25.8473 C   0  0  0  0  0  0  0  0  0  0  0  0
    6.1305   -6.5215   24.5029 C   0  0  0  0  0  0  0  0  0  0  0  0
   11.1868   -1.2133   26.0378 C   0  0  0  0  0  0  0  0  0  0  0  0
   12.1115   -2.2374   24.0546 C   0  0  0  0  0  0  0  0  0  0  0  0
   12.4560   -0.7580   26.3946 C   0  0  0  0  0  0  0  0  0  0  0  0
   13.3808   -1.7820   24.4114 C   0  0  0  0  0  0  0  0  0  0  0  0
    5.9814   -1.9638   19.8736 C   0  0  0  0  0  0  0  0  0  0  0  0
    6.1133   -3.5212   21.5574 C   0  0  0  0  0  0  0  0  0  0  0  0
    5.6021   -6.3631   26.8550 C   0  0  0  0  0  0  0  0  0  0  0  0
    7.2209   -2.9036   22.1155 C   0  0  0  0  0  0  0  0  0  0  0  0
   11.0145   -1.9530   24.8678 C   0  0  0  0  0  0  0  0  0  0  0  0
    6.9637   -5.4085   24.6151 C   0  0  0  0  0  0  0  0  0  0  0  0
   13.5530   -1.0423   25.5814 C   0  0  0  0  0  0  0  0  0  0  0  0
    8.2637   -8.1878   21.9973 C   0  0  0  0  0  0  0  0  0  0  0  0
    8.4488   -7.1564   22.8273 C   0  0  0  0  0  0  0  0  0  0  0  0
    8.0695   -5.7752   22.4081 C   0  0  0  0  0  0  0  0  0  0  0  0
    9.3765   -3.1601   23.3826 C   0  0  0  0  0  0  0  0  0  0  0  0
   14.8962    0.1523   27.1385 C   0  0  0  0  0  0  0  0  0  0  0  0
    7.8791   -3.4564   23.3604 C   0  0  2  0  0  0  0  0  0  0  0  0
    4.8742   -6.8733   28.0526 C   0  0  0  0  0  0  0  0  0  0  0  0
    5.4787   -3.0794   20.4484 N   0  0  0  0  0  0  0  0  0  0  0  0
    9.7269   -2.4150   24.5058 N   0  0  0  0  0  0  0  0  0  0  0  0
    7.6724   -4.9115   23.4485 N   0  0  0  0  0  0  0  0  0  0  0  0
    8.1139   -5.4840   21.2126 O   0  0  0  0  0  0  0  0  0  0  0  0
   10.1236   -3.5469   22.4879 O   0  0  0  0  0  0  0  0  0  0  0  0
   14.7916   -0.5981   25.9295 O   0  0  0  0  0  0  0  0  0  0  0  0
    5.1176   -6.1547   29.1885 F   0  0  0  0  0  0  0  0  0  0  0  0
    3.5157   -6.8659   27.9109 F   0  0  0  0  0  0  0  0  0  0  0  0
    5.2035   -8.1623   28.3575 F   0  0  0  0  0  0  0  0  0  0  0  0
    7.4454   -0.3820   19.8533 H   0  0  0  0  0  0  0  0  0  0  0  0
    8.5747   -1.2385   21.8959 H   0  0  0  0  0  0  0  0  0  0  0  0
    6.5617   -4.7498   27.9238 H   0  0  0  0  0  0  0  0  0  0  0  0
    4.8031   -7.8671   25.5266 H   0  0  0  0  0  0  0  0  0  0  0  0
    7.7626   -3.9043   25.9462 H   0  0  0  0  0  0  0  0  0  0  0  0
    6.0053   -7.0252   23.5477 H   0  0  0  0  0  0  0  0  0  0  0  0
   10.3389   -0.9858   26.6790 H   0  0  0  0  0  0  0  0  0  0  0  0
   11.9893   -2.8130   23.1406 H   0  0  0  0  0  0  0  0  0  0  0  0
   12.5838   -0.1822   27.3072 H   0  0  0  0  0  0  0  0  0  0  0  0
   14.2316   -2.0068   23.7738 H   0  0  0  0  0  0  0  0  0  0  0  0
    5.4583   -1.6259   18.9850 H   0  0  0  0  0  0  0  0  0  0  0  0
    5.6879   -4.4180   21.9971 H   0  0  0  0  0  0  0  0  0  0  0  0
    8.5194   -9.1931   22.3155 H   0  0  0  0  0  0  0  0  0  0  0  0
    7.8669   -8.0662   20.9954 H   0  0  0  0  0  0  0  0  0  0  0  0
    8.8329   -7.3237   23.8269 H   0  0  0  0  0  0  0  0  0  0  0  0
   15.9369    0.4450   27.2976 H   0  0  0  0  0  0  0  0  0  0  0  0
   14.5450   -0.4547   27.9767 H   0  0  0  0  0  0  0  0  0  0  0  0
   14.2767    1.0485   27.0553 H   0  0  0  0  0  0  0  0  0  0  0  0
    7.4243   -3.0142   24.2553 H   0  0  0  0  0  0  0  0  0  0  0  0
    8.9682   -2.1747   25.1404 H   0  0  0  0  0  0  0  0  0  0  0  0
  1  2  2  0  0  0  0
  1 11  1  0  0  0  0
  2 14  1  0  0  0  0
  3  5  2  0  0  0  0
  3 13  1  0  0  0  0
  4  6  1  0  0  0  0
  4 13  2  0  0  0  0
  5 16  1  0  0  0  0
  6 16  2  0  0  0  0
  7  9  2  0  0  0  0
  7 15  1  0  0  0  0
  8 10  1  0  0  0  0
  8 15  2  0  0  0  0
  9 17  1  0  0  0  0
 10 17  2  0  0  0  0
 11 25  2  0  0  0  0
 12 14  2  0  0  0  0
 12 25  1  0  0  0  0
 13 24  1  0  0  0  0
 14 23  1  0  0  0  0
 15 26  1  0  0  0  0
 16 27  1  0  0  0  0
 17 30  1  0  0  0  0
 18 19  2  0  0  0  0
 19 20  1  0  0  0  0
 20 27  1  0  0  0  0
 20 28  2  0  0  0  0
 21 23  1  0  0  0  0
 21 26  1  0  0  0  0
 21 29  2  0  0  0  0
 22 30  1  0  0  0  0
 23 27  1  0  0  0  0
 24 31  1  0  0  0  0
 24 32  1  0  0  0  0
 24 33  1  0  0  0  0
  1 34  1  0  0  0  0
  2 35  1  0  0  0  0
  3 36  1  0  0  0  0
  4 37  1  0  0  0  0
  5 38  1  0  0  0  0
  6 39  1  0  0  0  0
  7 40  1  0  0  0  0
  8 41  1  0  0  0  0
  9 42  1  0  0  0  0
 10 43  1  0  0  0  0
 11 44  1  0  0  0  0
 12 45  1  0  0  0  0
 18 46  1  0  0  0  0
 18 47  1  0  0  0  0
 19 48  1  0  0  0  0
 22 49  1  0  0  0  0
 22 50  1  0  0  0  0
 22 51  1  0  0  0  0
 23 52  1  0  0  0  0
 26 53  1  0  0  0  0
M  END
> <IC50 (uM)>
46.4

> <IC50 (uM) - std>
8.95

> <Average Inhibition @ 20 uM>
> 49.5

> <Average Inhibition @ 20 uM - std>
40.3

> <Average Inhibition @ 50 uM>
3.05

> <Average Inhibition @ 50 uM - std>
60.7

> <Trypsin IC50 (uM)>
0.291

> <Relative Solubility @ 20 uM>
0.84

> <Relative Solubility @ 100 uM>
0.75

> <Hybrid2>
-2.920132

> <docked_fragment>
x0749

> <Mpro-_dock>
5.354342

> <site>
active-covalent

$$$$
LON-WEI-b8d98729-30
  -OEChem-05192003313D

 64 66  0     1  0  0  0  0  0999 V2000
    7.3064   -0.3214   19.1110 C   0  0  0  0  0  0  0  0  0  0  0  0
    7.8563   -0.8193   20.2871 C   0  0  0  0  0  0  0  0  0  0  0  0
    6.0683   -4.7240   24.4073 C   0  0  0  0  0  0  0  0  0  0  0  0
    5.9202   -5.1787   25.7176 C   0  0  0  0  0  0  0  0  0  0  0  0
   11.8549   -0.5609   22.4725 C   0  0  0  0  0  0  0  0  0  0  0  0
   13.1697   -0.1301   22.6495 C   0  0  0  0  0  0  0  0  0  0  0  0
    7.8642   -3.2708   25.1146 C   0  0  0  0  0  0  0  0  0  0  0  0
   12.4932    1.1358   24.5930 C   0  0  0  0  0  0  0  0  0  0  0  0
    5.9290   -0.3686   18.9683 C   0  0  0  0  0  0  0  0  0  0  0  0
    5.6590   -1.3430   21.0313 C   0  0  0  0  0  0  0  0  0  0  0  0
    7.0238   -1.3417   21.2706 C   0  0  0  0  0  0  0  0  0  0  0  0
    7.7160   -3.7255   26.4249 C   0  0  0  0  0  0  0  0  0  0  0  0
   11.1784    0.7051   24.4159 C   0  0  0  0  0  0  0  0  0  0  0  0
    7.0403   -3.7701   24.1058 C   0  0  0  0  0  0  0  0  0  0  0  0
    6.7440   -4.6795   26.7264 C   0  0  0  0  0  0  0  0  0  0  0  0
   10.8592   -0.1432   23.3557 C   0  0  0  0  0  0  0  0  0  0  0  0
   13.4889    0.7182   23.7098 C   0  0  0  0  0  0  0  0  0  0  0  0
    6.4365   -6.4931   21.1923 C   0  0  0  0  0  0  0  0  0  0  0  0
    7.1711   -5.5766   21.8307 C   0  0  0  0  0  0  0  0  0  0  0  0
    6.8934   -4.1228   21.6396 C   0  0  0  0  0  0  0  0  0  0  0  0
    9.1143   -1.7918   22.5917 C   0  0  0  0  0  0  0  0  0  0  0  0
    8.6111   -3.1731   27.4862 C   0  0  0  0  0  0  0  0  0  0  0  0
   10.1327    1.1687   25.3774 C   0  0  0  0  0  0  0  0  0  0  0  0
    7.3206   -6.3077   28.5087 C   0  0  0  0  0  0  0  0  0  0  0  0
    5.6798   -4.4766   28.9595 C   0  0  0  0  0  0  0  0  0  0  0  0
   15.0284    2.0042   24.9872 C   0  0  0  0  0  0  0  0  0  0  0  0
    7.5911   -1.8903   22.5612 C   0  0  2  0  0  0  0  0  0  0  0  0
    5.0882   -0.8684   19.9015 N   0  0  0  0  0  0  0  0  0  0  0  0
    9.5310   -0.5896   23.1579 N   0  0  0  0  0  0  0  0  0  0  0  0
    7.1936   -3.2965   22.7411 N   0  0  0  0  0  0  0  0  0  0  0  0
    6.5800   -5.1516   28.0472 N   0  0  0  0  0  0  0  0  0  0  0  0
    6.4220   -3.7439   20.5671 O   0  0  0  0  0  0  0  0  0  0  0  0
    9.8273   -2.6873   22.1469 O   0  0  0  0  0  0  0  0  0  0  0  0
   14.7721    1.1380   23.8828 O   0  0  0  0  0  0  0  0  0  0  0  0
    7.9360    0.0908   18.3308 H   0  0  0  0  0  0  0  0  0  0  0  0
    8.9334   -0.7959   20.4285 H   0  0  0  0  0  0  0  0  0  0  0  0
    5.4209   -5.1206   23.6293 H   0  0  0  0  0  0  0  0  0  0  0  0
    5.1602   -5.9233   25.9408 H   0  0  0  0  0  0  0  0  0  0  0  0
   11.6179   -1.2212   21.6418 H   0  0  0  0  0  0  0  0  0  0  0  0
   13.9409   -0.4593   21.9585 H   0  0  0  0  0  0  0  0  0  0  0  0
    8.6229   -2.5272   24.8805 H   0  0  0  0  0  0  0  0  0  0  0  0
   12.7452    1.7975   25.4183 H   0  0  0  0  0  0  0  0  0  0  0  0
    5.4513    0.0068   18.0694 H   0  0  0  0  0  0  0  0  0  0  0  0
    4.9600   -1.7378   21.7621 H   0  0  0  0  0  0  0  0  0  0  0  0
    6.6273   -7.5490   21.3526 H   0  0  0  0  0  0  0  0  0  0  0  0
    5.6445   -6.2273   20.5009 H   0  0  0  0  0  0  0  0  0  0  0  0
    7.9430   -5.8851   22.5262 H   0  0  0  0  0  0  0  0  0  0  0  0
    8.1585   -2.2835   27.9387 H   0  0  0  0  0  0  0  0  0  0  0  0
    8.7931   -3.9131   28.2749 H   0  0  0  0  0  0  0  0  0  0  0  0
    9.5896   -2.8973   27.0744 H   0  0  0  0  0  0  0  0  0  0  0  0
    9.6804    2.1024   25.0244 H   0  0  0  0  0  0  0  0  0  0  0  0
    9.3415    0.4182   25.4935 H   0  0  0  0  0  0  0  0  0  0  0  0
   10.5592    1.3405   26.3732 H   0  0  0  0  0  0  0  0  0  0  0  0
    7.0583   -6.5177   29.5561 H   0  0  0  0  0  0  0  0  0  0  0  0
    7.0671   -7.1781   27.8857 H   0  0  0  0  0  0  0  0  0  0  0  0
    8.3994   -6.1055   28.4346 H   0  0  0  0  0  0  0  0  0  0  0  0
    5.6895   -4.9903   29.9322 H   0  0  0  0  0  0  0  0  0  0  0  0
    6.0058   -3.4344   29.0921 H   0  0  0  0  0  0  0  0  0  0  0  0
    4.6602   -4.4922   28.5469 H   0  0  0  0  0  0  0  0  0  0  0  0
   16.0898    2.2631   25.0095 H   0  0  0  0  0  0  0  0  0  0  0  0
   14.7447    1.5045   25.9168 H   0  0  0  0  0  0  0  0  0  0  0  0
   14.4360    2.9147   24.8698 H   0  0  0  0  0  0  0  0  0  0  0  0
    7.1900   -1.3328   23.4165 H   0  0  0  0  0  0  0  0  0  0  0  0
    8.7941    0.0417   23.4654 H   0  0  0  0  0  0  0  0  0  0  0  0
  1  2  2  0  0  0  0
  1  9  1  0  0  0  0
  2 11  1  0  0  0  0
  3  4  2  0  0  0  0
  3 14  1  0  0  0  0
  4 15  1  0  0  0  0
  5  6  2  0  0  0  0
  5 16  1  0  0  0  0
  6 17  1  0  0  0  0
  7 12  1  0  0  0  0
  7 14  2  0  0  0  0
  8 13  1  0  0  0  0
  8 17  2  0  0  0  0
  9 28  2  0  0  0  0
 10 11  2  0  0  0  0
 10 28  1  0  0  0  0
 11 27  1  0  0  0  0
 12 15  2  0  0  0  0
 12 22  1  0  0  0  0
 13 16  2  0  0  0  0
 13 23  1  0  0  0  0
 14 30  1  0  0  0  0
 15 31  1  0  0  0  0
 16 29  1  0  0  0  0
 17 34  1  0  0  0  0
 18 19  2  0  0  0  0
 19 20  1  0  0  0  0
 20 30  1  0  0  0  0
 20 32  2  0  0  0  0
 21 27  1  0  0  0  0
 21 29  1  0  0  0  0
 21 33  2  0  0  0  0
 24 31  1  0  0  0  0
 25 31  1  0  0  0  0
 26 34  1  0  0  0  0
 27 30  1  0  0  0  0
  1 35  1  0  0  0  0
  2 36  1  0  0  0  0
  3 37  1  0  0  0  0
  4 38  1  0  0  0  0
  5 39  1  0  0  0  0
  6 40  1  0  0  0  0
  7 41  1  0  0  0  0
  8 42  1  0  0  0  0
  9 43  1  0  0  0  0
 10 44  1  0  0  0  0
 18 45  1  0  0  0  0
 18 46  1  0  0  0  0
 19 47  1  0  0  0  0
 22 48  1  0  0  0  0
 22 49  1  0  0  0  0
 22 50  1  0  0  0  0
 23 51  1  0  0  0  0
 23 52  1  0  0  0  0
 23 53  1  0  0  0  0
 24 54  1  0  0  0  0
 24 55  1  0  0  0  0
 24 56  1  0  0  0  0
 25 57  1  0  0  0  0
 25 58  1  0  0  0  0
 25 59  1  0  0  0  0
 26 60  1  0  0  0  0
 26 61  1  0  0  0  0
 26 62  1  0  0  0  0
 27 63  1  0  0  0  0
 29 64  1  0  0  0  0
M  END
> <IC50 (uM)>

> <IC50 (uM) - std>

> <Average Inhibition @ 20 uM>

> <Average Inhibition @ 20 uM - std>
2.51

> <Average Inhibition @ 50 uM>
1.12

> <Average Inhibition @ 50 uM - std>
7.01

> <Trypsin IC50 (uM)>
0.146

> <Relative Solubility @ 20 uM>
0.87

> <Relative Solubility @ 100 uM>
0.83

> <Hybrid2>
-2.911081

> <docked_fragment>
x1392

> <Mpro-_dock>
5.438154

> <site>
active-covalent

$$$$
ALE-UNK-fca05062-1
  -OEChem-05192003313D

 94 97  0     1  0  0  0  0  0999 V2000
   13.7108   -0.2498   21.7110 C   0  0  0  0  0  0  0  0  0  0  0  0
    4.3394    2.1015   19.1364 C   0  0  0  0  0  0  0  0  0  0  0  0
   12.6661   -1.1571   21.8867 C   0  0  0  0  0  0  0  0  0  0  0  0
   13.8293    0.8504   22.5604 C   0  0  0  0  0  0  0  0  0  0  0  0
    5.1179    3.1234   19.6797 C   0  0  0  0  0  0  0  0  0  0  0  0
    3.8695    1.0731   19.9534 C   0  0  0  0  0  0  0  0  0  0  0  0
    7.9323   -6.9051   24.3700 C   0  0  0  0  0  0  0  0  0  0  0  0
   11.7398   -0.9643   22.9116 C   0  0  0  0  0  0  0  0  0  0  0  0
   12.9031    1.0432   23.5853 C   0  0  0  0  0  0  0  0  0  0  0  0
    5.4266    3.1170   21.0400 C   0  0  0  0  0  0  0  0  0  0  0  0
    4.1782    1.0667   21.3136 C   0  0  0  0  0  0  0  0  0  0  0  0
    7.2308   -6.7764   23.1714 C   0  0  0  0  0  0  0  0  0  0  0  0
    8.5699   -5.7968   24.9275 C   0  0  0  0  0  0  0  0  0  0  0  0
   11.8583    0.1359   23.7610 C   0  0  0  0  0  0  0  0  0  0  0  0
    4.9567    2.0886   21.8570 C   0  0  0  0  0  0  0  0  0  0  0  0
    7.1668   -5.5393   22.5301 C   0  0  0  0  0  0  0  0  0  0  0  0
    8.5060   -4.5597   24.2862 C   0  0  0  0  0  0  0  0  0  0  0  0
    7.8045   -4.4310   23.0875 C   0  0  0  0  0  0  0  0  0  0  0  0
   12.8479    5.2126   23.3831 C   0  0  0  0  0  0  0  0  0  0  0  0
    7.0722   -0.9089   22.6581 C   0  0  0  0  0  0  0  0  0  0  0  0
    9.9331    3.3438   23.2210 C   0  0  0  0  0  0  0  0  0  0  0  0
   12.8546    4.6438   20.5674 C   0  0  0  0  0  0  0  0  0  0  0  0
   13.9483    5.5173   21.1421 C   0  0  0  0  0  0  0  0  0  0  0  0
   11.5455    5.0140   21.2404 C   0  0  0  0  0  0  0  0  0  0  0  0
    6.4106   -5.4218   21.2478 C   0  0  0  0  0  0  0  0  0  0  0  0
    9.1954   -3.3852   24.8989 C   0  0  0  0  0  0  0  0  0  0  0  0
    8.0268    5.6449   23.8490 C   0  0  0  0  0  0  0  0  0  0  0  0
    9.8518    7.2437   23.2164 C   0  0  0  0  0  0  0  0  0  0  0  0
   10.8555    0.3454   24.8709 C   0  0  0  0  0  0  0  0  0  0  0  0
    5.2909    2.0809   23.3307 C   0  0  0  0  0  0  0  0  0  0  0  0
    6.6692   -2.3614   22.7977 C   0  0  0  0  0  0  0  0  0  0  0  0
    8.4663    0.9692   25.4102 C   0  0  0  0  0  0  0  0  0  0  0  0
   10.4074    4.7798   23.4343 C   0  0  2  0  0  0  0  0  0  0  0  0
    9.3263    5.8140   23.0548 C   0  0  0  0  0  0  0  0  0  0  0  0
    9.6442    1.1922   24.4395 C   0  0  1  0  0  0  0  0  0  0  0  0
    6.5961    1.3275   23.6417 C   0  0  1  0  0  0  0  0  0  0  0  0
    7.1897    1.7318   25.0086 C   0  0  1  0  0  0  0  0  0  0  0  0
   13.9650    5.4320   22.5886 N   0  0  0  0  0  0  0  0  0  0  0  0
   11.6510    4.9577   22.6987 N   0  0  0  0  0  0  0  0  0  0  0  0
    6.3978   -0.1045   23.5608 N   0  0  0  0  0  0  0  0  0  0  0  0
   10.0005    2.5934   24.3849 N   0  0  0  0  0  0  0  0  0  0  0  0
   12.9429    5.2340   24.6136 O   0  0  0  0  0  0  0  0  0  0  0  0
    7.8993   -0.5255   21.8354 O   0  0  0  0  0  0  0  0  0  0  0  0
    9.5712    2.9151   22.1271 O   0  0  0  0  0  0  0  0  0  0  0  0
    6.1838    1.5420   26.0065 O   0  0  0  0  0  0  0  0  0  0  0  0
    7.7425   -3.2119   22.4546 O   0  0  0  0  0  0  0  0  0  0  0  0
   14.4327   -0.4008   20.9137 H   0  0  0  0  0  0  0  0  0  0  0  0
    4.0981    2.1073   18.0775 H   0  0  0  0  0  0  0  0  0  0  0  0
   12.5742   -2.0144   21.2261 H   0  0  0  0  0  0  0  0  0  0  0  0
   14.6432    1.5564   22.4246 H   0  0  0  0  0  0  0  0  0  0  0  0
    5.4830    3.9248   19.0440 H   0  0  0  0  0  0  0  0  0  0  0  0
    3.2625    0.2779   19.5309 H   0  0  0  0  0  0  0  0  0  0  0  0
    7.9819   -7.8683   24.8694 H   0  0  0  0  0  0  0  0  0  0  0  0
   10.9289   -1.6763   23.0409 H   0  0  0  0  0  0  0  0  0  0  0  0
   13.0032    1.9032   24.2421 H   0  0  0  0  0  0  0  0  0  0  0  0
    6.0339    3.9173   21.4546 H   0  0  0  0  0  0  0  0  0  0  0  0
    3.8078    0.2614   21.9424 H   0  0  0  0  0  0  0  0  0  0  0  0
    6.7374   -7.6456   22.7449 H   0  0  0  0  0  0  0  0  0  0  0  0
    9.1142   -5.9071   25.8615 H   0  0  0  0  0  0  0  0  0  0  0  0
   12.7790    4.7944   19.4852 H   0  0  0  0  0  0  0  0  0  0  0  0
   13.0826    3.5840   20.7344 H   0  0  0  0  0  0  0  0  0  0  0  0
   14.9319    5.2095   20.7747 H   0  0  0  0  0  0  0  0  0  0  0  0
   13.7961    6.5695   20.8787 H   0  0  0  0  0  0  0  0  0  0  0  0
   11.2410    6.0306   20.9714 H   0  0  0  0  0  0  0  0  0  0  0  0
   10.7617    4.3215   20.9187 H   0  0  0  0  0  0  0  0  0  0  0  0
    5.3638   -5.1641   21.4462 H   0  0  0  0  0  0  0  0  0  0  0  0
    6.8443   -4.6491   20.6010 H   0  0  0  0  0  0  0  0  0  0  0  0
    6.4381   -6.3625   20.6837 H   0  0  0  0  0  0  0  0  0  0  0  0
   10.2253   -3.3142   24.5302 H   0  0  0  0  0  0  0  0  0  0  0  0
    8.6734   -2.4503   24.6604 H   0  0  0  0  0  0  0  0  0  0  0  0
    9.2205   -3.4665   25.9928 H   0  0  0  0  0  0  0  0  0  0  0  0
    8.1992    5.7657   24.9229 H   0  0  0  0  0  0  0  0  0  0  0  0
    7.2656    6.3690   23.5409 H   0  0  0  0  0  0  0  0  0  0  0  0
    7.6118    4.6427   23.6953 H   0  0  0  0  0  0  0  0  0  0  0  0
   10.1210    7.4437   24.2588 H   0  0  0  0  0  0  0  0  0  0  0  0
   10.7488    7.3966   22.6066 H   0  0  0  0  0  0  0  0  0  0  0  0
    9.1075    7.9852   22.9078 H   0  0  0  0  0  0  0  0  0  0  0  0
   11.3532    0.8089   25.7332 H   0  0  0  0  0  0  0  0  0  0  0  0
   10.5206   -0.6425   25.2138 H   0  0  0  0  0  0  0  0  0  0  0  0
    5.3699    3.1233   23.6659 H   0  0  0  0  0  0  0  0  0  0  0  0
    4.4497    1.6478   23.8865 H   0  0  0  0  0  0  0  0  0  0  0  0
    6.3875   -2.5596   23.8363 H   0  0  0  0  0  0  0  0  0  0  0  0
    5.8156   -2.5785   22.1481 H   0  0  0  0  0  0  0  0  0  0  0  0
    8.7720    1.2636   26.4209 H   0  0  0  0  0  0  0  0  0  0  0  0
    8.2483   -0.1058   25.4323 H   0  0  0  0  0  0  0  0  0  0  0  0
   10.6671    4.8899   24.4948 H   0  0  0  0  0  0  0  0  0  0  0  0
    9.0765    5.6802   21.9940 H   0  0  0  0  0  0  0  0  0  0  0  0
    9.3391    0.9107   23.4250 H   0  0  0  0  0  0  0  0  0  0  0  0
    7.3451    1.5520   22.8713 H   0  0  0  0  0  0  0  0  0  0  0  0
    7.3996    2.8073   24.9866 H   0  0  0  0  0  0  0  0  0  0  0  0
   14.8600    5.5408   23.0557 H   0  0  0  0  0  0  0  0  0  0  0  0
    5.7346   -0.5381   24.1943 H   0  0  0  0  0  0  0  0  0  0  0  0
   10.3361    3.0250   25.2397 H   0  0  0  0  0  0  0  0  0  0  0  0
    6.5507    1.8908   26.8322 H   0  0  0  0  0  0  0  0  0  0  0  0
  1  3  1  0  0  0  0
  1  4  2  0  0  0  0
  2  5  1  0  0  0  0
  2  6  2  0  0  0  0
  3  8  2  0  0  0  0
  4  9  1  0  0  0  0
  5 10  2  0  0  0  0
  6 11  1  0  0  0  0
  7 12  2  0  0  0  0
  7 13  1  0  0  0  0
  8 14  1  0  0  0  0
  9 14  2  0  0  0  0
 10 15  1  0  0  0  0
 11 15  2  0  0  0  0
 12 16  1  0  0  0  0
 13 17  2  0  0  0  0
 14 29  1  0  0  0  0
 15 30  1  0  0  0  0
 16 18  2  0  0  0  0
 16 25  1  0  0  0  0
 17 18  1  0  0  0  0
 17 26  1  0  0  0  0
 18 46  1  0  0  0  0
 19 38  1  0  0  0  0
 19 39  1  0  0  0  0
 19 42  2  0  0  0  0
 20 31  1  0  0  0  0
 20 40  1  0  0  0  0
 20 43  2  0  0  0  0
 21 33  1  0  0  0  0
 21 41  1  0  0  0  0
 21 44  2  0  0  0  0
 22 23  1  0  0  0  0
 22 24  1  0  0  0  0
 23 38  1  0  0  0  0
 24 39  1  0  0  0  0
 27 34  1  0  0  0  0
 28 34  1  0  0  0  0
 29 35  1  0  0  0  0
 30 36  1  0  0  0  0
 31 46  1  0  0  0  0
 32 35  1  0  0  0  0
 32 37  1  0  0  0  0
 33 34  1  0  0  0  0
 33 39  1  0  0  0  0
 35 41  1  0  0  0  0
 36 37  1  0  0  0  0
 36 40  1  0  0  0  0
 37 45  1  0  0  0  0
  1 47  1  0  0  0  0
  2 48  1  0  0  0  0
  3 49  1  0  0  0  0
  4 50  1  0  0  0  0
  5 51  1  0  0  0  0
  6 52  1  0  0  0  0
  7 53  1  0  0  0  0
  8 54  1  0  0  0  0
  9 55  1  0  0  0  0
 10 56  1  0  0  0  0
 11 57  1  0  0  0  0
 12 58  1  0  0  0  0
 13 59  1  0  0  0  0
 22 60  1  0  0  0  0
 22 61  1  0  0  0  0
 23 62  1  0  0  0  0
 23 63  1  0  0  0  0
 24 64  1  0  0  0  0
 24 65  1  0  0  0  0
 25 66  1  0  0  0  0
 25 67  1  0  0  0  0
 25 68  1  0  0  0  0
 26 69  1  0  0  0  0
 26 70  1  0  0  0  0
 26 71  1  0  0  0  0
 27 72  1  0  0  0  0
 27 73  1  0  0  0  0
 27 74  1  0  0  0  0
 28 75  1  0  0  0  0
 28 76  1  0  0  0  0
 28 77  1  0  0  0  0
 29 78  1  0  0  0  0
 29 79  1  0  0  0  0
 30 80  1  0  0  0  0
 30 81  1  0  0  0  0
 31 82  1  0  0  0  0
 31 83  1  0  0  0  0
 32 84  1  0  0  0  0
 32 85  1  0  0  0  0
 33 86  1  0  0  0  0
 34 87  1  0  0  0  0
 35 88  1  0  0  0  0
 36 89  1  0  0  0  0
 37 90  1  0  0  0  0
 38 91  1  0  0  0  0
 40 92  1  0  0  0  0
 41 93  1  0  0  0  0
 45 94  1  0  0  0  0
M  END
> <IC50 (uM)>

> <IC50 (uM) - std>

> <Average Inhibition @ 20 uM>

> <Average Inhibition @ 20 uM - std>
7.22

> <Average Inhibition @ 50 uM>
1.3

> <Average Inhibition @ 50 uM - std>
13.0

> <Trypsin IC50 (uM)>
1.35

> <Relative Solubility @ 20 uM>
0.83

> <Relative Solubility @ 100 uM>
0.53

> <Hybrid2>
-2.535317

> <docked_fragment>
x0104

> <Mpro-_dock>
14.471954

> <site>
active-noncovalent

$$$$
LON-WEI-b8d98729-45
  -OEChem-05192003313D

 65 67  0     1  0  0  0  0  0999 V2000
    5.0385   -3.0948   18.9772 C   0  0  0  0  0  0  0  0  0  0  0  0
    8.9688   -2.2912   26.6678 C   0  0  0  0  0  0  0  0  0  0  0  0
    5.1945   -3.7972   20.1721 C   0  0  0  0  0  0  0  0  0  0  0  0
    5.7220   -1.8951   18.7790 C   0  0  0  0  0  0  0  0  0  0  0  0
    9.1371   -1.3577   25.6512 C   0  0  0  0  0  0  0  0  0  0  0  0
   12.8990    2.5784   23.9209 C   0  0  0  0  0  0  0  0  0  0  0  0
   10.7842    3.2717   22.9806 C   0  0  0  0  0  0  0  0  0  0  0  0
   12.5322    1.2422   23.7607 C   0  0  0  0  0  0  0  0  0  0  0  0
   10.4174    1.9355   22.8204 C   0  0  0  0  0  0  0  0  0  0  0  0
    8.9685   -3.6331   26.3226 C   0  0  0  0  0  0  0  0  0  0  0  0
    9.2828   -3.1529   24.0981 C   0  0  0  0  0  0  0  0  0  0  0  0
   12.0250    3.5932   23.5309 C   0  0  0  0  0  0  0  0  0  0  0  0
    9.2976   -1.7885   24.3390 C   0  0  0  0  0  0  0  0  0  0  0  0
    6.0340   -3.2999   21.1689 C   0  0  0  0  0  0  0  0  0  0  0  0
    6.5614   -1.3978   19.7758 C   0  0  0  0  0  0  0  0  0  0  0  0
   11.2914    0.9207   23.2105 C   0  0  0  0  0  0  0  0  0  0  0  0
    6.7175   -2.1002   20.9708 C   0  0  0  0  0  0  0  0  0  0  0  0
   14.2488   -1.6369   22.2205 C   0  0  0  0  0  0  0  0  0  0  0  0
   13.0630   -1.0536   22.0188 C   0  0  0  0  0  0  0  0  0  0  0  0
   11.8722   -1.4737   22.8144 C   0  0  0  0  0  0  0  0  0  0  0  0
    8.9347   -1.3387   21.8927 C   0  0  0  0  0  0  0  0  0  0  0  0
    6.1806   -4.0751   22.4383 C   0  0  0  0  0  0  0  0  0  0  0  0
    6.6358    1.0589   20.2714 C   0  0  0  0  0  0  0  0  0  0  0  0
   11.4361    5.8119   24.5698 C   0  0  0  0  0  0  0  0  0  0  0  0
   13.6968    5.3399   21.7569 C   0  0  0  0  0  0  0  0  0  0  0  0
    7.2802   -0.1102   19.5333 C   0  0  0  0  0  0  0  0  0  0  0  0
    9.4834   -0.7980   23.2108 C   0  0  2  0  0  0  0  0  0  0  0  0
   12.4172    5.0218   23.7022 C   0  0  2  0  0  0  0  0  0  0  0  0
    9.1217   -4.0897   25.0594 N   0  0  0  0  0  0  0  0  0  0  0  0
    7.5689   -1.5953   21.9821 N   0  0  0  0  0  0  0  0  0  0  0  0
   10.9092   -0.4707   23.0433 N   0  0  0  0  0  0  0  0  0  0  0  0
   11.8089   -2.6342   23.2211 O   0  0  0  0  0  0  0  0  0  0  0  0
    9.6590   -1.5146   20.9166 O   0  0  0  0  0  0  0  0  0  0  0  0
   12.4801    5.6473   22.4154 O   0  0  0  0  0  0  0  0  0  0  0  0
    4.3850   -3.4820   18.2008 H   0  0  0  0  0  0  0  0  0  0  0  0
    8.8422   -1.9784   27.6980 H   0  0  0  0  0  0  0  0  0  0  0  0
    4.6572   -4.7308   20.3171 H   0  0  0  0  0  0  0  0  0  0  0  0
    5.5938   -1.3559   17.8440 H   0  0  0  0  0  0  0  0  0  0  0  0
    9.1420   -0.2978   25.8905 H   0  0  0  0  0  0  0  0  0  0  0  0
   13.8668    2.8197   24.3526 H   0  0  0  0  0  0  0  0  0  0  0  0
   10.0967    4.0559   22.6747 H   0  0  0  0  0  0  0  0  0  0  0  0
   13.2214    0.4595   24.0678 H   0  0  0  0  0  0  0  0  0  0  0  0
    9.4475    1.6962   22.3915 H   0  0  0  0  0  0  0  0  0  0  0  0
    8.8405   -4.4005   27.0790 H   0  0  0  0  0  0  0  0  0  0  0  0
    9.4034   -3.5484   23.0942 H   0  0  0  0  0  0  0  0  0  0  0  0
   15.1164   -1.3118   21.6560 H   0  0  0  0  0  0  0  0  0  0  0  0
   14.3888   -2.4423   22.9330 H   0  0  0  0  0  0  0  0  0  0  0  0
   12.9696   -0.2405   21.3084 H   0  0  0  0  0  0  0  0  0  0  0  0
    7.0077   -4.7888   22.3528 H   0  0  0  0  0  0  0  0  0  0  0  0
    6.3781   -3.4097   23.2872 H   0  0  0  0  0  0  0  0  0  0  0  0
    5.2629   -4.6283   22.6718 H   0  0  0  0  0  0  0  0  0  0  0  0
    5.5847    1.1737   19.9857 H   0  0  0  0  0  0  0  0  0  0  0  0
    7.1544    1.9944   20.0392 H   0  0  0  0  0  0  0  0  0  0  0  0
    6.6749    0.9095   21.3557 H   0  0  0  0  0  0  0  0  0  0  0  0
   10.4180    5.7466   24.1730 H   0  0  0  0  0  0  0  0  0  0  0  0
   11.7174    6.8694   24.6280 H   0  0  0  0  0  0  0  0  0  0  0  0
   11.4345    5.4353   25.5986 H   0  0  0  0  0  0  0  0  0  0  0  0
   13.7171    5.8293   20.7801 H   0  0  0  0  0  0  0  0  0  0  0  0
   13.7831    4.2572   21.6358 H   0  0  0  0  0  0  0  0  0  0  0  0
   14.5304    5.7045   22.3619 H   0  0  0  0  0  0  0  0  0  0  0  0
    8.3331   -0.1974   19.8425 H   0  0  0  0  0  0  0  0  0  0  0  0
    7.3085    0.1133   18.4557 H   0  0  0  0  0  0  0  0  0  0  0  0
    8.9652    0.1403   23.4437 H   0  0  0  0  0  0  0  0  0  0  0  0
   13.4215    5.1232   24.1479 H   0  0  0  0  0  0  0  0  0  0  0  0
    7.1320   -1.3965   22.8797 H   0  0  0  0  0  0  0  0  0  0  0  0
  1  3  1  0  0  0  0
  1  4  2  0  0  0  0
  2  5  2  0  0  0  0
  2 10  1  0  0  0  0
  3 14  2  0  0  0  0
  4 15  1  0  0  0  0
  5 13  1  0  0  0  0
  6  8  2  0  0  0  0
  6 12  1  0  0  0  0
  7  9  1  0  0  0  0
  7 12  2  0  0  0  0
  8 16  1  0  0  0  0
  9 16  2  0  0  0  0
 10 29  2  0  0  0  0
 11 13  2  0  0  0  0
 11 29  1  0  0  0  0
 12 28  1  0  0  0  0
 13 27  1  0  0  0  0
 14 17  1  0  0  0  0
 14 22  1  0  0  0  0
 15 17  2  0  0  0  0
 15 26  1  0  0  0  0
 16 31  1  0  0  0  0
 17 30  1  0  0  0  0
 18 19  2  0  0  0  0
 19 20  1  0  0  0  0
 20 31  1  0  0  0  0
 20 32  2  0  0  0  0
 21 27  1  0  0  0  0
 21 30  1  0  0  0  0
 21 33  2  0  0  0  0
 23 26  1  0  0  0  0
 24 28  1  0  0  0  0
 25 34  1  0  0  0  0
 27 31  1  0  0  0  0
 28 34  1  0  0  0  0
  1 35  1  0  0  0  0
  2 36  1  0  0  0  0
  3 37  1  0  0  0  0
  4 38  1  0  0  0  0
  5 39  1  0  0  0  0
  6 40  1  0  0  0  0
  7 41  1  0  0  0  0
  8 42  1  0  0  0  0
  9 43  1  0  0  0  0
 10 44  1  0  0  0  0
 11 45  1  0  0  0  0
 18 46  1  0  0  0  0
 18 47  1  0  0  0  0
 19 48  1  0  0  0  0
 22 49  1  0  0  0  0
 22 50  1  0  0  0  0
 22 51  1  0  0  0  0
 23 52  1  0  0  0  0
 23 53  1  0  0  0  0
 23 54  1  0  0  0  0
 24 55  1  0  0  0  0
 24 56  1  0  0  0  0
 24 57  1  0  0  0  0
 25 58  1  0  0  0  0
 25 59  1  0  0  0  0
 25 60  1  0  0  0  0
 26 61  1  0  0  0  0
 26 62  1  0  0  0  0
 27 63  1  0  0  0  0
 28 64  1  0  0  0  0
 30 65  1  0  0  0  0
M  END
> <IC50 (uM)>

> <IC50 (uM) - std>

> <Average Inhibition @ 20 uM>

> <Average Inhibition @ 20 uM - std>
5.9

> <Average Inhibition @ 50 uM>
6.3

> <Average Inhibition @ 50 uM - std>
3.94

> <Trypsin IC50 (uM)>
2.24

> <Relative Solubility @ 20 uM>
0.96

> <Relative Solubility @ 100 uM>
0.87

> <Hybrid2>
-2.493143

> <docked_fragment>
x0692

> <Mpro-_dock>
5.108878

> <site>
active-covalent

$$$$
LON-WEI-d1c9908a-7
  -OEChem-05192003313D

 62 64  0     1  0  0  0  0  0999 V2000
    5.5731   -6.3412   23.0709 C   0  0  0  0  0  0  0  0  0  0  0  0
    6.6146   -5.4526   22.8287 C   0  0  0  0  0  0  0  0  0  0  0  0
   11.7943   -1.4459   24.4224 C   0  0  0  0  0  0  0  0  0  0  0  0
   12.5820   -3.2954   25.7624 C   0  0  0  0  0  0  0  0  0  0  0  0
   10.7418   -2.2328   23.9549 C   0  0  0  0  0  0  0  0  0  0  0  0
   11.5295   -4.0824   25.2950 C   0  0  0  0  0  0  0  0  0  0  0  0
    5.4656   -1.2271   20.5673 C   0  0  0  0  0  0  0  0  0  0  0  0
    7.5804   -1.8913   19.6062 C   0  0  0  0  0  0  0  0  0  0  0  0
    5.1117   -0.6144   19.3652 C   0  0  0  0  0  0  0  0  0  0  0  0
    7.2265   -1.2787   18.4041 C   0  0  0  0  0  0  0  0  0  0  0  0
    5.0605   -6.4048   24.3566 C   0  0  0  0  0  0  0  0  0  0  0  0
    6.5236   -4.8041   25.1150 C   0  0  0  0  0  0  0  0  0  0  0  0
   12.7145   -1.9772   25.3261 C   0  0  0  0  0  0  0  0  0  0  0  0
    7.1049   -4.6657   23.8650 C   0  0  0  0  0  0  0  0  0  0  0  0
    6.7000   -1.8655   20.6878 C   0  0  0  0  0  0  0  0  0  0  0  0
   10.6093   -3.5510   24.3912 C   0  0  0  0  0  0  0  0  0  0  0  0
    5.9921   -0.6402   18.2836 C   0  0  0  0  0  0  0  0  0  0  0  0
   11.3080   -7.5708   23.8291 C   0  0  0  0  0  0  0  0  0  0  0  0
   10.9716   -6.3433   23.4202 C   0  0  0  0  0  0  0  0  0  0  0  0
    9.6419   -5.7684   23.7788 C   0  0  0  0  0  0  0  0  0  0  0  0
    8.2407   -3.1635   22.2002 C   0  0  0  0  0  0  0  0  0  0  0  0
   13.3125    0.1294   26.5713 C   0  0  0  0  0  0  0  0  0  0  0  0
   14.7454   -0.6472   24.6530 C   0  0  0  0  0  0  0  0  0  0  0  0
   14.8081   -1.8393   26.8339 C   0  0  0  0  0  0  0  0  0  0  0  0
    4.3701    0.5922   17.0564 C   0  0  0  0  0  0  0  0  0  0  0  0
    8.2366   -3.6889   23.6336 C   0  0  2  0  0  0  0  0  0  0  0  0
   13.8747   -1.1096   25.8414 C   0  0  0  0  0  0  0  0  0  0  0  0
    5.5105   -5.6565   25.3886 N   0  0  0  0  0  0  0  0  0  0  0  0
    7.0592   -2.4871   21.9073 N   0  0  0  0  0  0  0  0  0  0  0  0
    9.5565   -4.3383   23.9240 N   0  0  0  0  0  0  0  0  0  0  0  0
    8.6934   -6.5326   23.9592 O   0  0  0  0  0  0  0  0  0  0  0  0
    9.1905   -3.3558   21.4458 O   0  0  0  0  0  0  0  0  0  0  0  0
    5.6468   -0.0424   17.1106 O   0  0  0  0  0  0  0  0  0  0  0  0
    5.1749   -6.9643   22.2782 H   0  0  0  0  0  0  0  0  0  0  0  0
    7.0376   -5.3798   21.8304 H   0  0  0  0  0  0  0  0  0  0  0  0
   11.8911   -0.4205   24.0754 H   0  0  0  0  0  0  0  0  0  0  0  0
   13.2948   -3.7177   26.4659 H   0  0  0  0  0  0  0  0  0  0  0  0
   10.0303   -1.8082   23.2511 H   0  0  0  0  0  0  0  0  0  0  0  0
   11.4363   -5.1088   25.6407 H   0  0  0  0  0  0  0  0  0  0  0  0
    4.7717   -1.2010   21.4037 H   0  0  0  0  0  0  0  0  0  0  0  0
    8.5450   -2.3858   19.6886 H   0  0  0  0  0  0  0  0  0  0  0  0
    4.1488   -0.1187   19.2774 H   0  0  0  0  0  0  0  0  0  0  0  0
    7.9166   -1.3020   17.5651 H   0  0  0  0  0  0  0  0  0  0  0  0
    4.2477   -7.0823   24.5968 H   0  0  0  0  0  0  0  0  0  0  0  0
    6.8641   -4.2166   25.9621 H   0  0  0  0  0  0  0  0  0  0  0  0
   12.2849   -7.9751   23.5855 H   0  0  0  0  0  0  0  0  0  0  0  0
   10.6347   -8.2001   24.4006 H   0  0  0  0  0  0  0  0  0  0  0  0
   11.6807   -5.7407   22.8646 H   0  0  0  0  0  0  0  0  0  0  0  0
   14.1209    0.7662   26.9493 H   0  0  0  0  0  0  0  0  0  0  0  0
   12.6948    0.7524   25.9151 H   0  0  0  0  0  0  0  0  0  0  0  0
   12.6916   -0.1643   27.4260 H   0  0  0  0  0  0  0  0  0  0  0  0
   15.5874   -0.0240   24.9736 H   0  0  0  0  0  0  0  0  0  0  0  0
   15.1679   -1.5042   24.1154 H   0  0  0  0  0  0  0  0  0  0  0  0
   14.1566   -0.0617   23.9370 H   0  0  0  0  0  0  0  0  0  0  0  0
   15.6176   -1.1810   27.1718 H   0  0  0  0  0  0  0  0  0  0  0  0
   14.2673   -2.1693   27.7286 H   0  0  0  0  0  0  0  0  0  0  0  0
   15.2777   -2.7173   26.3752 H   0  0  0  0  0  0  0  0  0  0  0  0
    4.2210    1.0285   16.0657 H   0  0  0  0  0  0  0  0  0  0  0  0
    4.3166    1.3711   17.8211 H   0  0  0  0  0  0  0  0  0  0  0  0
    3.5942   -0.1538   17.2440 H   0  0  0  0  0  0  0  0  0  0  0  0
    8.1433   -2.8352   24.3160 H   0  0  0  0  0  0  0  0  0  0  0  0
    6.3739   -2.4335   22.6580 H   0  0  0  0  0  0  0  0  0  0  0  0
  1  2  2  0  0  0  0
  1 11  1  0  0  0  0
  2 14  1  0  0  0  0
  3  5  2  0  0  0  0
  3 13  1  0  0  0  0
  4  6  1  0  0  0  0
  4 13  2  0  0  0  0
  5 16  1  0  0  0  0
  6 16  2  0  0  0  0
  7  9  2  0  0  0  0
  7 15  1  0  0  0  0
  8 10  1  0  0  0  0
  8 15  2  0  0  0  0
  9 17  1  0  0  0  0
 10 17  2  0  0  0  0
 11 28  2  0  0  0  0
 12 14  2  0  0  0  0
 12 28  1  0  0  0  0
 13 27  1  0  0  0  0
 14 26  1  0  0  0  0
 15 29  1  0  0  0  0
 16 30  1  0  0  0  0
 17 33  1  0  0  0  0
 18 19  2  0  0  0  0
 19 20  1  0  0  0  0
 20 30  1  0  0  0  0
 20 31  2  0  0  0  0
 21 26  1  0  0  0  0
 21 29  1  0  0  0  0
 21 32  2  0  0  0  0
 22 27  1  0  0  0  0
 23 27  1  0  0  0  0
 24 27  1  0  0  0  0
 25 33  1  0  0  0  0
 26 30  1  0  0  0  0
  1 34  1  0  0  0  0
  2 35  1  0  0  0  0
  3 36  1  0  0  0  0
  4 37  1  0  0  0  0
  5 38  1  0  0  0  0
  6 39  1  0  0  0  0
  7 40  1  0  0  0  0
  8 41  1  0  0  0  0
  9 42  1  0  0  0  0
 10 43  1  0  0  0  0
 11 44  1  0  0  0  0
 12 45  1  0  0  0  0
 18 46  1  0  0  0  0
 18 47  1  0  0  0  0
 19 48  1  0  0  0  0
 22 49  1  0  0  0  0
 22 50  1  0  0  0  0
 22 51  1  0  0  0  0
 23 52  1  0  0  0  0
 23 53  1  0  0  0  0
 23 54  1  0  0  0  0
 24 55  1  0  0  0  0
 24 56  1  0  0  0  0
 24 57  1  0  0  0  0
 25 58  1  0  0  0  0
 25 59  1  0  0  0  0
 25 60  1  0  0  0  0
 26 61  1  0  0  0  0
 29 62  1  0  0  0  0
M  END
> <IC50 (uM)>

> <IC50 (uM) - std>

> <Average Inhibition @ 20 uM>

> <Average Inhibition @ 20 uM - std>

> <Average Inhibition @ 50 uM>

> <Average Inhibition @ 50 uM - std>
28.7

> <Trypsin IC50 (uM)>
1.17

> <Relative Solubility @ 20 uM>

> <Relative Solubility @ 100 uM>

> <Hybrid2>
-2.073396

> <docked_fragment>
x0749

> <Mpro-_dock>
6.361499

> <site>
active-covalent

$$$$
LON-WEI-d1c9908a-3
  -OEChem-05192003313D

 65 67  0     1  0  0  0  0  0999 V2000
    5.0152   -5.8786   24.8926 C   0  0  0  0  0  0  0  0  0  0  0  0
    6.1054   -5.0185   24.8231 C   0  0  0  0  0  0  0  0  0  0  0  0
   10.6040   -1.4546   25.7515 C   0  0  0  0  0  0  0  0  0  0  0  0
   12.2381   -3.0884   25.0461 C   0  0  0  0  0  0  0  0  0  0  0  0
    9.5904   -2.2187   25.1733 C   0  0  0  0  0  0  0  0  0  0  0  0
   11.2244   -3.8525   24.4679 C   0  0  0  0  0  0  0  0  0  0  0  0
    7.7564   -1.5030   19.5322 C   0  0  0  0  0  0  0  0  0  0  0  0
    7.7034   -0.7723   18.3453 C   0  0  0  0  0  0  0  0  0  0  0  0
    6.2512    0.8424   19.4042 C   0  0  0  0  0  0  0  0  0  0  0  0
    4.3083   -6.1252   23.7268 C   0  0  0  0  0  0  0  0  0  0  0  0
    5.6797   -4.7508   22.4986 C   0  0  0  0  0  0  0  0  0  0  0  0
   11.9279   -1.8894   25.6878 C   0  0  0  0  0  0  0  0  0  0  0  0
    6.4507   -4.4396   23.6070 C   0  0  0  0  0  0  0  0  0  0  0  0
    6.3041    0.1116   20.5911 C   0  0  0  0  0  0  0  0  0  0  0  0
    9.9006   -3.4177   24.5316 C   0  0  0  0  0  0  0  0  0  0  0  0
    7.0567   -1.0611   20.6551 C   0  0  0  0  0  0  0  0  0  0  0  0
    6.9509    0.4004   18.2813 C   0  0  0  0  0  0  0  0  0  0  0  0
   10.3477   -7.5065   24.5379 C   0  0  0  0  0  0  0  0  0  0  0  0
    9.7514   -6.3533   24.8566 C   0  0  0  0  0  0  0  0  0  0  0  0
    8.9446   -5.6167   23.8399 C   0  0  0  0  0  0  0  0  0  0  0  0
    7.8222   -3.0010   22.0683 C   0  0  0  0  0  0  0  0  0  0  0  0
    5.5444    0.6088   21.7779 C   0  0  0  0  0  0  0  0  0  0  0  0
   12.7794   -0.8909   27.8381 C   0  0  0  0  0  0  0  0  0  0  0  0
   13.0809    0.3505   25.6692 C   0  0  0  0  0  0  0  0  0  0  0  0
   14.4557   -1.6595   26.1705 C   0  0  0  0  0  0  0  0  0  0  0  0
    7.6393    0.6052   16.0141 C   0  0  0  0  0  0  0  0  0  0  0  0
    7.6316   -3.5003   23.4983 C   0  0  2  0  0  0  0  0  0  0  0  0
   13.0452   -1.0469   26.3251 C   0  0  0  0  0  0  0  0  0  0  0  0
    4.6135   -5.5816   22.5272 N   0  0  0  0  0  0  0  0  0  0  0  0
    7.1214   -1.8176   21.8493 N   0  0  0  0  0  0  0  0  0  0  0  0
    8.8869   -4.1823   23.9535 N   0  0  0  0  0  0  0  0  0  0  0  0
    8.3488   -6.2594   22.9751 O   0  0  0  0  0  0  0  0  0  0  0  0
    8.5091   -3.6159   21.2569 O   0  0  0  0  0  0  0  0  0  0  0  0
    6.8998    1.1139   17.1232 O   0  0  0  0  0  0  0  0  0  0  0  0
    4.7279   -6.3415   25.8298 H   0  0  0  0  0  0  0  0  0  0  0  0
    6.6798   -4.8055   25.7206 H   0  0  0  0  0  0  0  0  0  0  0  0
   10.3535   -0.5205   26.2475 H   0  0  0  0  0  0  0  0  0  0  0  0
   13.2669   -3.4343   24.9911 H   0  0  0  0  0  0  0  0  0  0  0  0
    8.5621   -1.8704   25.2293 H   0  0  0  0  0  0  0  0  0  0  0  0
   11.4775   -4.7848   23.9693 H   0  0  0  0  0  0  0  0  0  0  0  0
    8.3454   -2.4162   19.5698 H   0  0  0  0  0  0  0  0  0  0  0  0
    8.2510   -1.1214   17.4741 H   0  0  0  0  0  0  0  0  0  0  0  0
    5.6651    1.7567   19.3510 H   0  0  0  0  0  0  0  0  0  0  0  0
    3.4496   -6.7885   23.7285 H   0  0  0  0  0  0  0  0  0  0  0  0
    5.9010   -4.3294   21.5229 H   0  0  0  0  0  0  0  0  0  0  0  0
   10.9138   -8.0499   25.2872 H   0  0  0  0  0  0  0  0  0  0  0  0
   10.2978   -7.9331   23.5422 H   0  0  0  0  0  0  0  0  0  0  0  0
    9.8126   -5.9698   25.8685 H   0  0  0  0  0  0  0  0  0  0  0  0
    4.5310    0.1919   21.7811 H   0  0  0  0  0  0  0  0  0  0  0  0
    6.0424    0.3262   22.7132 H   0  0  0  0  0  0  0  0  0  0  0  0
    5.4730    1.7033   21.7715 H   0  0  0  0  0  0  0  0  0  0  0  0
   13.5632   -0.2930   28.3176 H   0  0  0  0  0  0  0  0  0  0  0  0
   11.8260   -0.3913   28.0423 H   0  0  0  0  0  0  0  0  0  0  0  0
   12.7525   -1.8672   28.3365 H   0  0  0  0  0  0  0  0  0  0  0  0
   13.8646    0.9877   26.0933 H   0  0  0  0  0  0  0  0  0  0  0  0
   13.2757    0.2770   24.5928 H   0  0  0  0  0  0  0  0  0  0  0  0
   12.1256    0.8723   25.8004 H   0  0  0  0  0  0  0  0  0  0  0  0
   15.2162   -1.0238   26.6399 H   0  0  0  0  0  0  0  0  0  0  0  0
   14.5222   -2.6450   26.6461 H   0  0  0  0  0  0  0  0  0  0  0  0
   14.7345   -1.7695   25.1160 H   0  0  0  0  0  0  0  0  0  0  0  0
    7.5123    1.2689   15.1554 H   0  0  0  0  0  0  0  0  0  0  0  0
    7.2842   -0.3987   15.7680 H   0  0  0  0  0  0  0  0  0  0  0  0
    8.6972    0.5596   16.2832 H   0  0  0  0  0  0  0  0  0  0  0  0
    7.4843   -2.6322   24.1524 H   0  0  0  0  0  0  0  0  0  0  0  0
    6.5942   -1.4545   22.6406 H   0  0  0  0  0  0  0  0  0  0  0  0
  1  2  2  0  0  0  0
  1 10  1  0  0  0  0
  2 13  1  0  0  0  0
  3  5  2  0  0  0  0
  3 12  1  0  0  0  0
  4  6  1  0  0  0  0
  4 12  2  0  0  0  0
  5 15  1  0  0  0  0
  6 15  2  0  0  0  0
  7  8  2  0  0  0  0
  7 16  1  0  0  0  0
  8 17  1  0  0  0  0
  9 14  1  0  0  0  0
  9 17  2  0  0  0  0
 10 29  2  0  0  0  0
 11 13  2  0  0  0  0
 11 29  1  0  0  0  0
 12 28  1  0  0  0  0
 13 27  1  0  0  0  0
 14 16  2  0  0  0  0
 14 22  1  0  0  0  0
 15 31  1  0  0  0  0
 16 30  1  0  0  0  0
 17 34  1  0  0  0  0
 18 19  2  0  0  0  0
 19 20  1  0  0  0  0
 20 31  1  0  0  0  0
 20 32  2  0  0  0  0
 21 27  1  0  0  0  0
 21 30  1  0  0  0  0
 21 33  2  0  0  0  0
 23 28  1  0  0  0  0
 24 28  1  0  0  0  0
 25 28  1  0  0  0  0
 26 34  1  0  0  0  0
 27 31  1  0  0  0  0
  1 35  1  0  0  0  0
  2 36  1  0  0  0  0
  3 37  1  0  0  0  0
  4 38  1  0  0  0  0
  5 39  1  0  0  0  0
  6 40  1  0  0  0  0
  7 41  1  0  0  0  0
  8 42  1  0  0  0  0
  9 43  1  0  0  0  0
 10 44  1  0  0  0  0
 11 45  1  0  0  0  0
 18 46  1  0  0  0  0
 18 47  1  0  0  0  0
 19 48  1  0  0  0  0
 22 49  1  0  0  0  0
 22 50  1  0  0  0  0
 22 51  1  0  0  0  0
 23 52  1  0  0  0  0
 23 53  1  0  0  0  0
 23 54  1  0  0  0  0
 24 55  1  0  0  0  0
 24 56  1  0  0  0  0
 24 57  1  0  0  0  0
 25 58  1  0  0  0  0
 25 59  1  0  0  0  0
 25 60  1  0  0  0  0
 26 61  1  0  0  0  0
 26 62  1  0  0  0  0
 26 63  1  0  0  0  0
 27 64  1  0  0  0  0
 30 65  1  0  0  0  0
M  END
> <IC50 (uM)>

> <IC50 (uM) - std>

> <Average Inhibition @ 20 uM>

> <Average Inhibition @ 20 uM - std>

> <Average Inhibition @ 50 uM>

> <Average Inhibition @ 50 uM - std>
46.5

> <Trypsin IC50 (uM)>
0.249

> <Relative Solubility @ 20 uM>

> <Relative Solubility @ 100 uM>

> <Hybrid2>
-2.043368

> <docked_fragment>
x0749

> <Mpro-_dock>
6.493489

> <site>
active-covalent

$$$$
ALE-UNK-fca05062-2
  -OEChem-05192003313D

 98101  0     1  0  0  0  0  0999 V2000
    7.1012   -2.9438   26.8820 C   0  0  0  0  0  0  0  0  0  0  0  0
    7.7348    0.4934   17.8716 C   0  0  0  0  0  0  0  0  0  0  0  0
    6.0467   -2.0700   27.1468 C   0  0  0  0  0  0  0  0  0  0  0  0
    8.3598   -2.4391   26.5552 C   0  0  0  0  0  0  0  0  0  0  0  0
    8.2116    1.6490   18.4903 C   0  0  0  0  0  0  0  0  0  0  0  0
    6.5512   -0.0972   18.3142 C   0  0  0  0  0  0  0  0  0  0  0  0
    6.2507   -0.6916   27.0846 C   0  0  0  0  0  0  0  0  0  0  0  0
    8.5639   -1.0607   26.4930 C   0  0  0  0  0  0  0  0  0  0  0  0
    7.5048    2.2140   19.5519 C   0  0  0  0  0  0  0  0  0  0  0  0
    5.8444    0.4678   19.3758 C   0  0  0  0  0  0  0  0  0  0  0  0
    4.9648   -5.0641   24.4965 C   0  0  0  0  0  0  0  0  0  0  0  0
   14.2645    2.6142   20.7685 C   0  0  0  0  0  0  0  0  0  0  0  0
    3.3796   -5.8065   23.1751 C   0  0  0  0  0  0  0  0  0  0  0  0
    7.5094   -0.1869   26.7578 C   0  0  0  0  0  0  0  0  0  0  0  0
    6.3212    1.6234   19.9946 C   0  0  0  0  0  0  0  0  0  0  0  0
   13.2845    3.2391   21.5109 C   0  0  0  0  0  0  0  0  0  0  0  0
    5.1615   -4.2065   23.4345 C   0  0  0  0  0  0  0  0  0  0  0  0
   13.2140    1.2661   22.4660 C   0  0  0  0  0  0  0  0  0  0  0  0
    9.1469    3.3350   24.1522 C   0  0  0  0  0  0  0  0  0  0  0  0
   12.0396    5.4987   23.5744 C   0  0  0  0  0  0  0  0  0  0  0  0
    6.2621   -0.7642   22.8958 C   0  0  0  0  0  0  0  0  0  0  0  0
   11.7200   -0.7413   22.7692 C   0  0  0  0  0  0  0  0  0  0  0  0
   12.3746    0.6555   24.7631 C   0  0  0  0  0  0  0  0  0  0  0  0
    9.1636    7.2028   24.5376 C   0  0  0  0  0  0  0  0  0  0  0  0
    8.4178    5.9753   22.4823 C   0  0  0  0  0  0  0  0  0  0  0  0
   14.2874    6.1514   22.6799 C   0  0  0  0  0  0  0  0  0  0  0  0
    7.7310    1.3057   26.6901 C   0  0  0  0  0  0  0  0  0  0  0  0
    5.5551    2.2348   21.1448 C   0  0  0  0  0  0  0  0  0  0  0  0
   12.8326    4.6614   21.3461 C   0  0  0  0  0  0  0  0  0  0  0  0
    6.1662   -3.1053   23.2624 C   0  0  0  0  0  0  0  0  0  0  0  0
    5.9536    2.0983   25.0775 C   0  0  0  0  0  0  0  0  0  0  0  0
   12.8210    0.1621   23.3685 C   0  0  0  0  0  0  0  0  0  0  0  0
    9.7688    4.7279   24.2274 C   0  0  2  0  0  0  0  0  0  0  0  0
    8.7328    5.8439   23.9756 C   0  0  0  0  0  0  0  0  0  0  0  0
    7.4674    1.8934   25.2917 C   0  0  1  0  0  0  0  0  0  0  0  0
    5.9918    1.6815   22.5127 C   0  0  1  0  0  0  0  0  0  0  0  0
    5.5998    2.6220   23.6728 C   0  0  1  0  0  0  0  0  0  0  0  0
    3.9432   -5.9820   24.3497 N   0  0  0  0  0  0  0  0  0  0  0  0
   12.6806    2.4675   22.4845 N   0  0  0  0  0  0  0  0  0  0  0  0
    8.1787    3.1423   25.1257 N   0  0  0  0  0  0  0  0  0  0  0  0
   10.8798    4.7707   23.3107 N   0  0  0  0  0  0  0  0  0  0  0  0
    5.4682    0.3477   22.7213 N   0  0  0  0  0  0  0  0  0  0  0  0
   13.0209    5.4398   22.5678 N   0  0  0  0  0  0  0  0  0  0  0  0
    9.5041    2.4868   23.3372 O   0  0  0  0  0  0  0  0  0  0  0  0
   12.1788    6.1503   24.6140 O   0  0  0  0  0  0  0  0  0  0  0  0
    7.4886   -0.7778   22.8985 O   0  0  0  0  0  0  0  0  0  0  0  0
    4.1940    2.8685   23.5929 O   0  0  0  0  0  0  0  0  0  0  0  0
    5.4737   -1.8670   23.0681 O   0  0  0  0  0  0  0  0  0  0  0  0
   14.4472    0.9951   21.3038 S   0  0  0  0  0  0  0  0  0  0  0  0
    4.0282   -4.5557   22.1955 S   0  0  0  0  0  0  0  0  0  0  0  0
    6.9424   -4.0171   26.9317 H   0  0  0  0  0  0  0  0  0  0  0  0
    8.2845    0.0543   17.0441 H   0  0  0  0  0  0  0  0  0  0  0  0
    5.0668   -2.4628   27.4023 H   0  0  0  0  0  0  0  0  0  0  0  0
    9.1813   -3.1191   26.3500 H   0  0  0  0  0  0  0  0  0  0  0  0
    9.1326    2.1095   18.1450 H   0  0  0  0  0  0  0  0  0  0  0  0
    6.1791   -0.9963   17.8320 H   0  0  0  0  0  0  0  0  0  0  0  0
    5.4232   -0.0183   27.2923 H   0  0  0  0  0  0  0  0  0  0  0  0
    9.5479   -0.6765   26.2375 H   0  0  0  0  0  0  0  0  0  0  0  0
    7.8840    3.1143   20.0281 H   0  0  0  0  0  0  0  0  0  0  0  0
    4.9232    0.0007   19.7141 H   0  0  0  0  0  0  0  0  0  0  0  0
    5.5424   -5.0639   25.4114 H   0  0  0  0  0  0  0  0  0  0  0  0
   14.8646    3.0152   19.9639 H   0  0  0  0  0  0  0  0  0  0  0  0
    2.5514   -6.4146   22.8380 H   0  0  0  0  0  0  0  0  0  0  0  0
   10.8127   -0.1702   22.5440 H   0  0  0  0  0  0  0  0  0  0  0  0
   11.4414   -1.5522   23.4510 H   0  0  0  0  0  0  0  0  0  0  0  0
   12.0697   -1.1943   21.8348 H   0  0  0  0  0  0  0  0  0  0  0  0
   11.5177    1.3319   24.6684 H   0  0  0  0  0  0  0  0  0  0  0  0
   13.1742    1.1978   25.2793 H   0  0  0  0  0  0  0  0  0  0  0  0
   12.0718   -0.1793   25.4046 H   0  0  0  0  0  0  0  0  0  0  0  0
   10.0962    7.5448   24.0784 H   0  0  0  0  0  0  0  0  0  0  0  0
    8.4000    7.9703   24.3741 H   0  0  0  0  0  0  0  0  0  0  0  0
    9.3371    7.1331   25.6171 H   0  0  0  0  0  0  0  0  0  0  0  0
    9.3150    6.2511   21.9183 H   0  0  0  0  0  0  0  0  0  0  0  0
    8.0516    5.0246   22.0798 H   0  0  0  0  0  0  0  0  0  0  0  0
    7.6509    6.7345   22.2963 H   0  0  0  0  0  0  0  0  0  0  0  0
   15.0301    5.5042   23.1695 H   0  0  0  0  0  0  0  0  0  0  0  0
   14.6443    6.4247   21.6760 H   0  0  0  0  0  0  0  0  0  0  0  0
   14.1439    7.0628   23.2788 H   0  0  0  0  0  0  0  0  0  0  0  0
    8.7545    1.5402   27.0121 H   0  0  0  0  0  0  0  0  0  0  0  0
    7.0693    1.7787   27.4277 H   0  0  0  0  0  0  0  0  0  0  0  0
    5.7067    3.3217   21.1135 H   0  0  0  0  0  0  0  0  0  0  0  0
    4.4813    2.0750   20.9851 H   0  0  0  0  0  0  0  0  0  0  0  0
   13.3919    5.1536   20.5431 H   0  0  0  0  0  0  0  0  0  0  0  0
   11.7716    4.7083   21.0795 H   0  0  0  0  0  0  0  0  0  0  0  0
    6.8092   -3.0202   24.1450 H   0  0  0  0  0  0  0  0  0  0  0  0
    6.8079   -3.2978   22.3959 H   0  0  0  0  0  0  0  0  0  0  0  0
    5.5727    2.7897   25.8381 H   0  0  0  0  0  0  0  0  0  0  0  0
    5.4585    1.1318   25.2336 H   0  0  0  0  0  0  0  0  0  0  0  0
   13.6848   -0.5108   23.5565 H   0  0  0  0  0  0  0  0  0  0  0  0
   10.2010    4.8451   25.2293 H   0  0  0  0  0  0  0  0  0  0  0  0
    7.7971    5.5677   24.4794 H   0  0  0  0  0  0  0  0  0  0  0  0
    7.8552    1.2121   24.5255 H   0  0  0  0  0  0  0  0  0  0  0  0
    7.0827    1.5618   22.5318 H   0  0  0  0  0  0  0  0  0  0  0  0
    6.0896    3.5890   23.5105 H   0  0  0  0  0  0  0  0  0  0  0  0
    7.9650    3.8927   25.7744 H   0  0  0  0  0  0  0  0  0  0  0  0
   10.8158    4.2517   22.4407 H   0  0  0  0  0  0  0  0  0  0  0  0
    4.4620    0.2255   22.7400 H   0  0  0  0  0  0  0  0  0  0  0  0
    3.9953    3.5316   24.2704 H   0  0  0  0  0  0  0  0  0  0  0  0
  1  3  1  0  0  0  0
  1  4  2  0  0  0  0
  2  5  1  0  0  0  0
  2  6  2  0  0  0  0
  3  7  2  0  0  0  0
  4  8  1  0  0  0  0
  5  9  2  0  0  0  0
  6 10  1  0  0  0  0
  7 14  1  0  0  0  0
  8 14  2  0  0  0  0
  9 15  1  0  0  0  0
 10 15  2  0  0  0  0
 11 17  2  0  0  0  0
 11 38  1  0  0  0  0
 12 16  2  0  0  0  0
 12 49  1  0  0  0  0
 13 38  2  0  0  0  0
 13 50  1  0  0  0  0
 14 27  1  0  0  0  0
 15 28  1  0  0  0  0
 16 29  1  0  0  0  0
 16 39  1  0  0  0  0
 17 30  1  0  0  0  0
 17 50  1  0  0  0  0
 18 32  1  0  0  0  0
 18 39  2  0  0  0  0
 18 49  1  0  0  0  0
 19 33  1  0  0  0  0
 19 40  1  0  0  0  0
 19 44  2  0  0  0  0
 20 41  1  0  0  0  0
 20 43  1  0  0  0  0
 20 45  2  0  0  0  0
 21 42  1  0  0  0  0
 21 46  2  0  0  0  0
 21 48  1  0  0  0  0
 22 32  1  0  0  0  0
 23 32  1  0  0  0  0
 24 34  1  0  0  0  0
 25 34  1  0  0  0  0
 26 43  1  0  0  0  0
 27 35  1  0  0  0  0
 28 36  1  0  0  0  0
 29 43  1  0  0  0  0
 30 48  1  0  0  0  0
 31 35  1  0  0  0  0
 31 37  1  0  0  0  0
 33 34  1  0  0  0  0
 33 41  1  0  0  0  0
 35 40  1  0  0  0  0
 36 37  1  0  0  0  0
 36 42  1  0  0  0  0
 37 47  1  0  0  0  0
  1 51  1  0  0  0  0
  2 52  1  0  0  0  0
  3 53  1  0  0  0  0
  4 54  1  0  0  0  0
  5 55  1  0  0  0  0
  6 56  1  0  0  0  0
  7 57  1  0  0  0  0
  8 58  1  0  0  0  0
  9 59  1  0  0  0  0
 10 60  1  0  0  0  0
 11 61  1  0  0  0  0
 12 62  1  0  0  0  0
 13 63  1  0  0  0  0
 22 64  1  0  0  0  0
 22 65  1  0  0  0  0
 22 66  1  0  0  0  0
 23 67  1  0  0  0  0
 23 68  1  0  0  0  0
 23 69  1  0  0  0  0
 24 70  1  0  0  0  0
 24 71  1  0  0  0  0
 24 72  1  0  0  0  0
 25 73  1  0  0  0  0
 25 74  1  0  0  0  0
 25 75  1  0  0  0  0
 26 76  1  0  0  0  0
 26 77  1  0  0  0  0
 26 78  1  0  0  0  0
 27 79  1  0  0  0  0
 27 80  1  0  0  0  0
 28 81  1  0  0  0  0
 28 82  1  0  0  0  0
 29 83  1  0  0  0  0
 29 84  1  0  0  0  0
 30 85  1  0  0  0  0
 30 86  1  0  0  0  0
 31 87  1  0  0  0  0
 31 88  1  0  0  0  0
 32 89  1  0  0  0  0
 33 90  1  0  0  0  0
 34 91  1  0  0  0  0
 35 92  1  0  0  0  0
 36 93  1  0  0  0  0
 37 94  1  0  0  0  0
 40 95  1  0  0  0  0
 41 96  1  0  0  0  0
 42 97  1  0  0  0  0
 47 98  1  0  0  0  0
M  END
> <IC50 (uM)>

> <IC50 (uM) - std>

> <Average Inhibition @ 20 uM>

> <Average Inhibition @ 20 uM - std>
2.31

> <Average Inhibition @ 50 uM>
0.138

> <Average Inhibition @ 50 uM - std>
6.72

> <Trypsin IC50 (uM)>
0.179

> <Relative Solubility @ 20 uM>
0.82

> <Relative Solubility @ 100 uM>
0.32

> <Hybrid2>
0.619766

> <docked_fragment>
x0104

> <Mpro-_dock>
20.843678

> <site>
active-noncovalent

$$$$
