DAN-LON-a5f-7
 OpenBabel03242009303D

 43 44  0  0  1  0  0  0  0  0999 V2000
   13.4158   -0.7347   22.0643 C   0  0  0  0  0  0  0  0  0  0  0  0
   12.2041   -1.3680   21.7878 C   0  0  0  0  0  0  0  0  0  0  0  0
   13.5948   -0.0709   23.2779 C   0  0  0  0  0  0  0  0  0  0  0  0
   11.3504   -0.6735   23.9386 C   0  0  0  0  0  0  0  0  0  0  0  0
   11.1714   -1.3373   22.7250 C   0  0  0  0  0  0  0  0  0  0  0  0
   12.5621   -0.0402   24.2151 C   0  0  0  0  0  0  0  0  0  0  0  0
    6.9676   -5.3845   25.8283 C   0  0  0  0  0  0  0  0  0  0  0  0
    7.0851   -3.2086   24.6746 C   0  0  0  0  0  0  0  0  0  0  0  0
    7.7847   -2.7302   23.4043 C   0  0  0  0  0  0  0  0  0  0  0  0
    9.8497   -3.7539   24.0977 C   0  0  0  0  0  0  0  0  0  0  0  0
    9.2201   -4.2745   25.4021 C   0  0  1  0  0  0  0  0  0  0  0  0
    8.9315   -3.9340   27.8728 C   0  0  0  0  0  0  0  0  0  0  0  0
   11.1166   -3.3669   26.7740 C   0  0  0  0  0  0  0  0  0  0  0  0
    9.8671   -2.0182   22.4262 C   0  0  0  0  0  0  0  0  0  0  0  0
    5.4720   -5.1957   25.7727 C   0  0  0  0  0  0  0  0  0  0  0  0
    9.6013   -3.4080   26.6077 C   0  0  0  0  0  0  0  0  0  0  0  0
    7.7506   -4.3670   25.2752 N   0  0  0  0  0  0  0  0  0  0  0  0
    9.2164   -2.5109   23.6396 N   0  0  0  0  0  0  0  0  0  0  0  0
    7.4266   -6.4004   26.3573 O   0  0  0  0  0  0  0  0  0  0  0  0
   12.7832    0.7799   25.7118 Cl  0  0  0  0  0  0  0  0  0  0  0  0
    5.1146   -3.7369   26.6900 Cl  0  0  0  0  0  0  0  0  0  0  0  0
   14.2196   -0.7587   21.3342 H   0  0  0  0  0  0  0  0  0  0  0  0
   12.0734   -1.8827   20.8395 H   0  0  0  0  0  0  0  0  0  0  0  0
   14.5445    0.4186   23.4797 H   0  0  0  0  0  0  0  0  0  0  0  0
   10.5424   -0.6529   24.6663 H   0  0  0  0  0  0  0  0  0  0  0  0
    7.0764   -2.4131   25.4296 H   0  0  0  0  0  0  0  0  0  0  0  0
    6.0393   -3.4430   24.4487 H   0  0  0  0  0  0  0  0  0  0  0  0
    7.6258   -3.4617   22.6007 H   0  0  0  0  0  0  0  0  0  0  0  0
    7.3127   -1.7923   23.0874 H   0  0  0  0  0  0  0  0  0  0  0  0
   10.9206   -3.5843   24.2675 H   0  0  0  0  0  0  0  0  0  0  0  0
    9.7701   -4.5322   23.3261 H   0  0  0  0  0  0  0  0  0  0  0  0
    9.6318   -5.2723   25.5792 H   0  0  0  0  0  0  0  0  0  0  0  0
    9.2581   -4.9537   28.1043 H   0  0  0  0  0  0  0  0  0  0  0  0
    7.8421   -3.9444   27.7625 H   0  0  0  0  0  0  0  0  0  0  0  0
    9.1751   -3.2976   28.7302 H   0  0  0  0  0  0  0  0  0  0  0  0
   11.5258   -4.3650   26.9641 H   0  0  0  0  0  0  0  0  0  0  0  0
   11.3942   -2.7214   27.6141 H   0  0  0  0  0  0  0  0  0  0  0  0
   11.5976   -2.9697   25.8738 H   0  0  0  0  0  0  0  0  0  0  0  0
    9.1763   -1.3281   21.9295 H   0  0  0  0  0  0  0  0  0  0  0  0
   10.0136   -2.8709   21.7550 H   0  0  0  0  0  0  0  0  0  0  0  0
    4.9929   -6.0520   26.2331 H   0  0  0  0  0  0  0  0  0  0  0  0
    5.1728   -5.0686   24.7389 H   0  0  0  0  0  0  0  0  0  0  0  0
    9.2431   -2.3903   26.4207 H   0  0  0  0  0  0  0  0  0  0  0  0
  1  2  2  0  0  0  0
  1  3  1  0  0  0  0
  1 22  1  0  0  0  0
  2  5  1  0  0  0  0
  2 23  1  0  0  0  0
  3  6  2  0  0  0  0
  3 24  1  0  0  0  0
  4  5  2  0  0  0  0
  4  6  1  0  0  0  0
  4 25  1  0  0  0  0
  5 14  1  0  0  0  0
  6 20  1  0  0  0  0
  7 15  1  0  0  0  0
  7 17  1  0  0  0  0
  7 19  2  0  0  0  0
  8  9  1  0  0  0  0
  8 17  1  0  0  0  0
  8 26  1  0  0  0  0
  8 27  1  0  0  0  0
  9 18  1  0  0  0  0
  9 28  1  0  0  0  0
  9 29  1  0  0  0  0
 10 11  1  0  0  0  0
 10 18  1  0  0  0  0
 10 30  1  0  0  0  0
 10 31  1  0  0  0  0
 11 16  1  0  0  0  0
 11 17  1  0  0  0  0
 11 32  1  1  0  0  0
 12 16  1  0  0  0  0
 12 33  1  0  0  0  0
 12 34  1  0  0  0  0
 12 35  1  0  0  0  0
 13 16  1  0  0  0  0
 13 36  1  0  0  0  0
 13 37  1  0  0  0  0
 13 38  1  0  0  0  0
 14 18  1  0  0  0  0
 14 39  1  0  0  0  0
 14 40  1  0  0  0  0
 15 21  1  0  0  0  0
 15 41  1  0  0  0  0
 15 42  1  0  0  0  0
 16 43  1  0  0  0  0
M  END
>  <Chemgauss4 Score>
-4.78647089004517

>  <Number of Confs>
60

$$$$
