MAT-POS-983b399a-2_2
  -OEChem-12272114573D

 44 48  0     1  0  0  0  0  0999 V2000
    3.3432    2.6279   20.4411 C   0  0  0  0  0  0  0  0  0  0  0  0
    3.8960    1.9291   21.5050 C   0  0  0  0  0  0  0  0  0  0  0  0
    3.7865    2.4205   19.1660 C   0  0  0  0  0  0  0  0  0  0  0  0
    4.8973    1.0233   21.2988 C   0  0  0  0  0  0  0  0  0  0  0  0
   12.0765    0.0316   24.1541 C   0  0  0  0  0  0  0  0  0  0  0  0
   12.9132   -0.6032   23.2569 C   0  0  0  0  0  0  0  0  0  0  0  0
   10.9991   -1.4331   22.0443 C   0  0  0  0  0  0  0  0  0  0  0  0
    5.3278    1.2339   17.6066 C   0  0  0  0  0  0  0  0  0  0  0  0
    6.8438   -0.2892   18.3752 C   0  0  0  0  0  0  0  0  0  0  0  0
    4.8226    1.4906   18.9054 C   0  0  0  0  0  0  0  0  0  0  0  0
    5.3982    0.7733   19.9948 C   0  0  0  0  0  0  0  0  0  0  0  0
   10.1406   -0.7765   22.9250 C   0  0  0  0  0  0  0  0  0  0  0  0
    6.4440   -0.1472   19.6979 C   0  0  0  0  0  0  0  0  0  0  0  0
   10.7040   -0.0625   23.9898 C   0  0  0  0  0  0  0  0  0  0  0  0
   12.3683   -1.3298   22.2234 C   0  0  0  0  0  0  0  0  0  0  0  0
    8.0140   -2.1541   22.4331 C   0  0  0  0  0  0  0  0  0  0  0  0
    7.8721   -0.1194   23.8831 C   0  0  0  0  0  0  0  0  0  0  0  0
    6.9866   -1.9366   21.3580 C   0  0  0  0  0  0  0  0  0  0  0  0
    8.2490    0.0169   21.4271 C   0  0  0  0  0  0  0  0  0  0  0  0
    8.6609    1.0133   24.4995 C   0  0  0  0  0  0  0  0  0  0  0  0
    8.6238   -0.7606   22.6929 C   0  0  3  0  0  0  0  0  0  0  0  0
    6.3062    0.3769   17.3421 N   0  0  0  0  0  0  0  0  0  0  0  0
    7.2292   -0.6897   20.7790 N   0  0  1  0  0  0  0  0  0  0  0  0
    9.9479    0.5589   24.9534 O   0  0  0  0  0  0  0  0  0  0  0  0
   13.4289   -2.1391   21.1090 Cl  0  0  0  0  0  0  0  0  0  0  0  0
    2.5434    3.3513   20.6369 H   0  0  0  0  0  0  0  0  0  0  0  0
    3.5178    2.1138   22.5169 H   0  0  0  0  0  0  0  0  0  0  0  0
    3.3410    2.9744   18.3364 H   0  0  0  0  0  0  0  0  0  0  0  0
    5.3113    0.4888   22.1570 H   0  0  0  0  0  0  0  0  0  0  0  0
   12.5016    0.5964   24.9773 H   0  0  0  0  0  0  0  0  0  0  0  0
   13.9917   -0.5169   23.3795 H   0  0  0  0  0  0  0  0  0  0  0  0
   10.6184   -2.0172   21.2233 H   0  0  0  0  0  0  0  0  0  0  0  0
    4.9138    1.7514   16.7477 H   0  0  0  0  0  0  0  0  0  0  0  0
    7.6447   -0.9761   18.1049 H   0  0  0  0  0  0  0  0  0  0  0  0
    7.5122   -2.5241   23.3393 H   0  0  0  0  0  0  0  0  0  0  0  0
    8.7590   -2.9064   22.1421 H   0  0  0  0  0  0  0  0  0  0  0  0
    7.6392   -0.8782   24.6507 H   0  0  0  0  0  0  0  0  0  0  0  0
    6.8990    0.2679   23.5277 H   0  0  0  0  0  0  0  0  0  0  0  0
    7.0396   -2.7509   20.5913 H   0  0  0  0  0  0  0  0  0  0  0  0
    5.9566   -2.0156   21.7931 H   0  0  0  0  0  0  0  0  0  0  0  0
    7.8805    1.0371   21.6910 H   0  0  0  0  0  0  0  0  0  0  0  0
    9.1366    0.1876   20.7695 H   0  0  0  0  0  0  0  0  0  0  0  0
    8.8457    1.7853   23.7513 H   0  0  0  0  0  0  0  0  0  0  0  0
    8.1398    1.4823   25.3357 H   0  0  0  0  0  0  0  0  0  0  0  0
  1  2  1  0  0  0  0
  1  3  2  0  0  0  0
  2  4  2  0  0  0  0
  3 10  1  0  0  0  0
  4 11  1  0  0  0  0
  5  6  1  0  0  0  0
  5 14  2  0  0  0  0
  6 15  2  0  0  0  0
  7 12  2  0  0  0  0
  7 15  1  0  0  0  0
  8 10  2  0  0  0  0
  8 22  1  0  0  0  0
  9 13  1  0  0  0  0
  9 22  2  0  0  0  0
 10 11  1  0  0  0  0
 11 13  2  0  0  0  0
 12 14  1  0  0  0  0
 12 21  1  0  0  0  0
 13 23  1  6  0  0  0
 14 24  1  0  0  0  0
 15 25  1  0  0  0  0
 16 18  1  0  0  0  0
 16 21  1  0  0  0  0
 17 20  1  0  0  0  0
 17 21  1  0  0  0  0
 18 23  1  0  0  0  0
 19 21  1  0  0  0  0
 19 23  1  0  0  0  0
 20 24  1  0  0  0  0
  1 26  1  0  0  0  0
  2 27  1  0  0  0  0
  3 28  1  0  0  0  0
  4 29  1  0  0  0  0
  5 30  1  0  0  0  0
  6 31  1  0  0  0  0
  7 32  1  0  0  0  0
  8 33  1  0  0  0  0
  9 34  1  0  0  0  0
 16 35  1  0  0  0  0
 16 36  1  0  0  0  0
 17 37  1  0  0  0  0
 17 38  1  0  0  0  0
 18 39  1  0  0  0  0
 18 40  1  0  0  0  0
 19 41  1  0  0  0  0
 19 42  1  0  0  0  0
 20 43  1  0  0  0  0
 20 44  1  0  0  0  0
M  END
> <compound>
MAT-POS-983b399a-2

> <compound_smiles>
c1ccc2c(c1)cncc2N3CCC4(C3)CCOc5c4cc(cc5)Cl

> <enantiomer_smiles>
c1ccc2c(c1)cncc2[N@]3CCC4(C3)CCOc5c4cc(cc5)Cl

> <scaffold>
chromane-5spiro-isoquinoline

> <clash_score>
0

> <docking_score>
-9.114801406860352

> <overlap_score>
0.9471916556358337

> <MMFF_internal_energy>
130.9861973662427

> <docked_smiles>
c1ccc2c(c1)cncc2N3CC[C@@]4(C3)CCOc5c4cc(cc5)Cl

$$$$
MAT-POS-983b399a-2_1
  -OEChem-12272114573D

 44 48  0     1  0  0  0  0  0999 V2000
    3.3432    2.6279   20.4411 C   0  0  0  0  0  0  0  0  0  0  0  0
    3.8960    1.9291   21.5050 C   0  0  0  0  0  0  0  0  0  0  0  0
    3.7865    2.4205   19.1660 C   0  0  0  0  0  0  0  0  0  0  0  0
    4.8973    1.0233   21.2988 C   0  0  0  0  0  0  0  0  0  0  0  0
   12.0765    0.0316   24.1541 C   0  0  0  0  0  0  0  0  0  0  0  0
   12.9132   -0.6032   23.2569 C   0  0  0  0  0  0  0  0  0  0  0  0
   10.9991   -1.4331   22.0443 C   0  0  0  0  0  0  0  0  0  0  0  0
    5.3278    1.2339   17.6066 C   0  0  0  0  0  0  0  0  0  0  0  0
    6.8438   -0.2892   18.3752 C   0  0  0  0  0  0  0  0  0  0  0  0
    4.8226    1.4906   18.9054 C   0  0  0  0  0  0  0  0  0  0  0  0
    5.3982    0.7733   19.9948 C   0  0  0  0  0  0  0  0  0  0  0  0
   10.1406   -0.7765   22.9250 C   0  0  0  0  0  0  0  0  0  0  0  0
    6.4440   -0.1472   19.6979 C   0  0  0  0  0  0  0  0  0  0  0  0
   10.7040   -0.0625   23.9898 C   0  0  0  0  0  0  0  0  0  0  0  0
   12.3683   -1.3298   22.2234 C   0  0  0  0  0  0  0  0  0  0  0  0
    8.0140   -2.1541   22.4331 C   0  0  0  0  0  0  0  0  0  0  0  0
    7.8721   -0.1194   23.8831 C   0  0  0  0  0  0  0  0  0  0  0  0
    6.9866   -1.9366   21.3580 C   0  0  0  0  0  0  0  0  0  0  0  0
    8.2490    0.0169   21.4271 C   0  0  0  0  0  0  0  0  0  0  0  0
    8.6609    1.0133   24.4995 C   0  0  0  0  0  0  0  0  0  0  0  0
    8.6238   -0.7606   22.6929 C   0  0  3  0  0  0  0  0  0  0  0  0
    6.3062    0.3769   17.3421 N   0  0  0  0  0  0  0  0  0  0  0  0
    7.2292   -0.6897   20.7790 N   0  0  2  0  0  0  0  0  0  0  0  0
    9.9479    0.5589   24.9534 O   0  0  0  0  0  0  0  0  0  0  0  0
   13.4290   -2.1390   21.1091 Cl  0  0  0  0  0  0  0  0  0  0  0  0
    2.5434    3.3513   20.6369 H   0  0  0  0  0  0  0  0  0  0  0  0
    3.5178    2.1138   22.5169 H   0  0  0  0  0  0  0  0  0  0  0  0
    3.3410    2.9744   18.3364 H   0  0  0  0  0  0  0  0  0  0  0  0
    5.3113    0.4888   22.1570 H   0  0  0  0  0  0  0  0  0  0  0  0
   12.5016    0.5957   24.9778 H   0  0  0  0  0  0  0  0  0  0  0  0
   13.9917   -0.5169   23.3795 H   0  0  0  0  0  0  0  0  0  0  0  0
   10.6184   -2.0173   21.2233 H   0  0  0  0  0  0  0  0  0  0  0  0
    4.9138    1.7514   16.7477 H   0  0  0  0  0  0  0  0  0  0  0  0
    7.6447   -0.9761   18.1049 H   0  0  0  0  0  0  0  0  0  0  0  0
    7.5127   -2.5249   23.3391 H   0  0  0  0  0  0  0  0  0  0  0  0
    8.7591   -2.9059   22.1411 H   0  0  0  0  0  0  0  0  0  0  0  0
    7.6397   -0.8783   24.6509 H   0  0  0  0  0  0  0  0  0  0  0  0
    6.8985    0.2675   23.5282 H   0  0  0  0  0  0  0  0  0  0  0  0
    7.0400   -2.7509   20.5913 H   0  0  0  0  0  0  0  0  0  0  0  0
    5.9566   -2.0159   21.7928 H   0  0  0  0  0  0  0  0  0  0  0  0
    7.8809    1.0374   21.6903 H   0  0  0  0  0  0  0  0  0  0  0  0
    9.1367    0.1868   20.7694 H   0  0  0  0  0  0  0  0  0  0  0  0
    8.8459    1.7850   23.7508 H   0  0  0  0  0  0  0  0  0  0  0  0
    8.1397    1.4832   25.3352 H   0  0  0  0  0  0  0  0  0  0  0  0
  1  2  1  0  0  0  0
  1  3  2  0  0  0  0
  2  4  2  0  0  0  0
  3 10  1  0  0  0  0
  4 11  1  0  0  0  0
  5  6  1  0  0  0  0
  5 14  2  0  0  0  0
  6 15  2  0  0  0  0
  7 12  2  0  0  0  0
  7 15  1  0  0  0  0
  8 10  2  0  0  0  0
  8 22  1  0  0  0  0
  9 13  1  0  0  0  0
  9 22  2  0  0  0  0
 10 11  1  0  0  0  0
 11 13  2  0  0  0  0
 12 14  1  0  0  0  0
 12 21  1  0  0  0  0
 13 23  1  1  0  0  0
 14 24  1  0  0  0  0
 15 25  1  0  0  0  0
 16 18  1  0  0  0  0
 16 21  1  0  0  0  0
 17 20  1  0  0  0  0
 17 21  1  0  0  0  0
 18 23  1  0  0  0  0
 19 21  1  0  0  0  0
 19 23  1  0  0  0  0
 20 24  1  0  0  0  0
  1 26  1  0  0  0  0
  2 27  1  0  0  0  0
  3 28  1  0  0  0  0
  4 29  1  0  0  0  0
  5 30  1  0  0  0  0
  6 31  1  0  0  0  0
  7 32  1  0  0  0  0
  8 33  1  0  0  0  0
  9 34  1  0  0  0  0
 16 35  1  0  0  0  0
 16 36  1  0  0  0  0
 17 37  1  0  0  0  0
 17 38  1  0  0  0  0
 18 39  1  0  0  0  0
 18 40  1  0  0  0  0
 19 41  1  0  0  0  0
 19 42  1  0  0  0  0
 20 43  1  0  0  0  0
 20 44  1  0  0  0  0
M  END
> <compound>
MAT-POS-983b399a-2

> <compound_smiles>
c1ccc2c(c1)cncc2N3CCC4(C3)CCOc5c4cc(cc5)Cl

> <enantiomer_smiles>
c1ccc2c(c1)cncc2[N@@]3CCC4(C3)CCOc5c4cc(cc5)Cl

> <scaffold>
chromane-5spiro-isoquinoline

> <clash_score>
0

> <docking_score>
-9.114825248718262

> <overlap_score>
0.9471918344497681

> <MMFF_internal_energy>
130.9685699463828

> <docked_smiles>
c1ccc2c(c1)cncc2N3CC[C@@]4(C3)CCOc5c4cc(cc5)Cl

$$$$
EDJ-MED-159244ea-2_2
  -OEChem-12272114573D

 44 48  0     1  0  0  0  0  0999 V2000
    3.3432    2.6279   20.4411 C   0  0  0  0  0  0  0  0  0  0  0  0
    3.8960    1.9291   21.5050 C   0  0  0  0  0  0  0  0  0  0  0  0
    3.7865    2.4205   19.1660 C   0  0  0  0  0  0  0  0  0  0  0  0
    4.8973    1.0233   21.2988 C   0  0  0  0  0  0  0  0  0  0  0  0
   12.0765    0.0316   24.1541 C   0  0  0  0  0  0  0  0  0  0  0  0
   12.9132   -0.6032   23.2569 C   0  0  0  0  0  0  0  0  0  0  0  0
   10.9991   -1.4331   22.0443 C   0  0  0  0  0  0  0  0  0  0  0  0
    5.3278    1.2339   17.6066 C   0  0  0  0  0  0  0  0  0  0  0  0
    6.8438   -0.2892   18.3752 C   0  0  0  0  0  0  0  0  0  0  0  0
    4.8226    1.4906   18.9054 C   0  0  0  0  0  0  0  0  0  0  0  0
    5.3982    0.7733   19.9948 C   0  0  0  0  0  0  0  0  0  0  0  0
   10.1406   -0.7765   22.9250 C   0  0  0  0  0  0  0  0  0  0  0  0
    6.4440   -0.1472   19.6979 C   0  0  0  0  0  0  0  0  0  0  0  0
   10.7040   -0.0625   23.9898 C   0  0  0  0  0  0  0  0  0  0  0  0
   12.3683   -1.3298   22.2234 C   0  0  0  0  0  0  0  0  0  0  0  0
    8.0140   -2.1541   22.4331 C   0  0  0  0  0  0  0  0  0  0  0  0
    7.8721   -0.1194   23.8831 C   0  0  0  0  0  0  0  0  0  0  0  0
    6.9866   -1.9366   21.3580 C   0  0  0  0  0  0  0  0  0  0  0  0
    8.2490    0.0169   21.4271 C   0  0  0  0  0  0  0  0  0  0  0  0
    8.6609    1.0133   24.4995 C   0  0  0  0  0  0  0  0  0  0  0  0
    8.6238   -0.7606   22.6929 C   0  0  1  0  0  0  0  0  0  0  0  0
    6.3062    0.3769   17.3421 N   0  0  0  0  0  0  0  0  0  0  0  0
    7.2292   -0.6897   20.7790 N   0  0  1  0  0  0  0  0  0  0  0  0
    9.9479    0.5589   24.9534 O   0  0  0  0  0  0  0  0  0  0  0  0
   13.4289   -2.1390   21.1090 Cl  0  0  0  0  0  0  0  0  0  0  0  0
    2.5434    3.3513   20.6369 H   0  0  0  0  0  0  0  0  0  0  0  0
    3.5178    2.1138   22.5169 H   0  0  0  0  0  0  0  0  0  0  0  0
    3.3410    2.9744   18.3364 H   0  0  0  0  0  0  0  0  0  0  0  0
    5.3113    0.4888   22.1570 H   0  0  0  0  0  0  0  0  0  0  0  0
   12.5016    0.5961   24.9776 H   0  0  0  0  0  0  0  0  0  0  0  0
   13.9917   -0.5170   23.3795 H   0  0  0  0  0  0  0  0  0  0  0  0
   10.6184   -2.0172   21.2233 H   0  0  0  0  0  0  0  0  0  0  0  0
    4.9138    1.7514   16.7477 H   0  0  0  0  0  0  0  0  0  0  0  0
    7.6447   -0.9761   18.1049 H   0  0  0  0  0  0  0  0  0  0  0  0
    7.5122   -2.5247   23.3390 H   0  0  0  0  0  0  0  0  0  0  0  0
    8.7589   -2.9062   22.1413 H   0  0  0  0  0  0  0  0  0  0  0  0
    7.6392   -0.8781   24.6510 H   0  0  0  0  0  0  0  0  0  0  0  0
    6.8989    0.2679   23.5275 H   0  0  0  0  0  0  0  0  0  0  0  0
    7.0399   -2.7512   20.5916 H   0  0  0  0  0  0  0  0  0  0  0  0
    5.9565   -2.0156   21.7928 H   0  0  0  0  0  0  0  0  0  0  0  0
    7.8804    1.0371   21.6908 H   0  0  0  0  0  0  0  0  0  0  0  0
    9.1365    0.1874   20.7693 H   0  0  0  0  0  0  0  0  0  0  0  0
    8.8464    1.7850   23.7510 H   0  0  0  0  0  0  0  0  0  0  0  0
    8.1398    1.4831   25.3354 H   0  0  0  0  0  0  0  0  0  0  0  0
  1  2  1  0  0  0  0
  1  3  2  0  0  0  0
  2  4  2  0  0  0  0
  3 10  1  0  0  0  0
  4 11  1  0  0  0  0
  5  6  1  0  0  0  0
  5 14  2  0  0  0  0
  6 15  2  0  0  0  0
  7 12  2  0  0  0  0
  7 15  1  0  0  0  0
  8 10  2  0  0  0  0
  8 22  1  0  0  0  0
  9 13  1  0  0  0  0
  9 22  2  0  0  0  0
 10 11  1  0  0  0  0
 11 13  2  0  0  0  0
 12 14  1  0  0  0  0
 12 21  1  6  0  0  0
 13 23  1  6  0  0  0
 14 24  1  0  0  0  0
 15 25  1  0  0  0  0
 16 18  1  0  0  0  0
 16 21  1  1  0  0  0
 17 20  1  0  0  0  0
 17 21  1  6  0  0  0
 18 23  1  0  0  0  0
 19 21  1  1  0  0  0
 19 23  1  0  0  0  0
 20 24  1  0  0  0  0
  1 26  1  0  0  0  0
  2 27  1  0  0  0  0
  3 28  1  0  0  0  0
  4 29  1  0  0  0  0
  5 30  1  0  0  0  0
  6 31  1  0  0  0  0
  7 32  1  0  0  0  0
  8 33  1  0  0  0  0
  9 34  1  0  0  0  0
 16 35  1  0  0  0  0
 16 36  1  0  0  0  0
 17 37  1  0  0  0  0
 17 38  1  0  0  0  0
 18 39  1  0  0  0  0
 18 40  1  0  0  0  0
 19 41  1  0  0  0  0
 19 42  1  0  0  0  0
 20 43  1  0  0  0  0
 20 44  1  0  0  0  0
M  END
> <compound>
EDJ-MED-159244ea-2

> <compound_smiles>
c1ccc2c(c1)cncc2N3CC[C@@]4(C3)CCOc5c4cc(cc5)Cl

> <enantiomer_smiles>
c1ccc2c(c1)cncc2[N@]3CC[C@@]4(C3)CCOc5c4cc(cc5)Cl

> <scaffold>
chromane-5spiro-isoquinoline

> <clash_score>
0

> <docking_score>
-9.114848136901855

> <overlap_score>
0.9471918344497681

> <MMFF_internal_energy>
130.98483977490818

> <docked_smiles>
c1ccc2c(c1)cncc2N3CC[C@@]4(C3)CCOc5c4cc(cc5)Cl

$$$$
EDJ-MED-159244ea-2_1
  -OEChem-12272114573D

 44 48  0     1  0  0  0  0  0999 V2000
    3.3432    2.6279   20.4411 C   0  0  0  0  0  0  0  0  0  0  0  0
    3.8960    1.9291   21.5050 C   0  0  0  0  0  0  0  0  0  0  0  0
    3.7865    2.4205   19.1660 C   0  0  0  0  0  0  0  0  0  0  0  0
    4.8973    1.0233   21.2988 C   0  0  0  0  0  0  0  0  0  0  0  0
   12.0765    0.0316   24.1541 C   0  0  0  0  0  0  0  0  0  0  0  0
   12.9132   -0.6032   23.2569 C   0  0  0  0  0  0  0  0  0  0  0  0
   10.9991   -1.4331   22.0443 C   0  0  0  0  0  0  0  0  0  0  0  0
    5.3278    1.2339   17.6066 C   0  0  0  0  0  0  0  0  0  0  0  0
    6.8438   -0.2892   18.3752 C   0  0  0  0  0  0  0  0  0  0  0  0
    4.8226    1.4906   18.9054 C   0  0  0  0  0  0  0  0  0  0  0  0
    5.3982    0.7733   19.9948 C   0  0  0  0  0  0  0  0  0  0  0  0
   10.1406   -0.7765   22.9250 C   0  0  0  0  0  0  0  0  0  0  0  0
    6.4440   -0.1472   19.6979 C   0  0  0  0  0  0  0  0  0  0  0  0
   10.7040   -0.0625   23.9898 C   0  0  0  0  0  0  0  0  0  0  0  0
   12.3683   -1.3298   22.2234 C   0  0  0  0  0  0  0  0  0  0  0  0
    8.0140   -2.1541   22.4331 C   0  0  0  0  0  0  0  0  0  0  0  0
    7.8721   -0.1194   23.8831 C   0  0  0  0  0  0  0  0  0  0  0  0
    6.9866   -1.9366   21.3580 C   0  0  0  0  0  0  0  0  0  0  0  0
    8.2490    0.0169   21.4271 C   0  0  0  0  0  0  0  0  0  0  0  0
    8.6609    1.0133   24.4995 C   0  0  0  0  0  0  0  0  0  0  0  0
    8.6238   -0.7606   22.6929 C   0  0  1  0  0  0  0  0  0  0  0  0
    6.3062    0.3769   17.3421 N   0  0  0  0  0  0  0  0  0  0  0  0
    7.2292   -0.6897   20.7790 N   0  0  2  0  0  0  0  0  0  0  0  0
    9.9479    0.5589   24.9534 O   0  0  0  0  0  0  0  0  0  0  0  0
   13.4288   -2.1387   21.1088 Cl  0  0  0  0  0  0  0  0  0  0  0  0
    2.5434    3.3514   20.6369 H   0  0  0  0  0  0  0  0  0  0  0  0
    3.5178    2.1138   22.5169 H   0  0  0  0  0  0  0  0  0  0  0  0
    3.3410    2.9744   18.3364 H   0  0  0  0  0  0  0  0  0  0  0  0
    5.3113    0.4888   22.1570 H   0  0  0  0  0  0  0  0  0  0  0  0
   12.5016    0.5962   24.9774 H   0  0  0  0  0  0  0  0  0  0  0  0
   13.9917   -0.5167   23.3793 H   0  0  0  0  0  0  0  0  0  0  0  0
   10.6184   -2.0175   21.2234 H   0  0  0  0  0  0  0  0  0  0  0  0
    4.9138    1.7514   16.7477 H   0  0  0  0  0  0  0  0  0  0  0  0
    7.6447   -0.9761   18.1049 H   0  0  0  0  0  0  0  0  0  0  0  0
    7.5122   -2.5236   23.3394 H   0  0  0  0  0  0  0  0  0  0  0  0
    8.7587   -2.9068   22.1422 H   0  0  0  0  0  0  0  0  0  0  0  0
    7.6391   -0.8784   24.6506 H   0  0  0  0  0  0  0  0  0  0  0  0
    6.8989    0.2679   23.5277 H   0  0  0  0  0  0  0  0  0  0  0  0
    7.0398   -2.7511   20.5915 H   0  0  0  0  0  0  0  0  0  0  0  0
    5.9565   -2.0155   21.7927 H   0  0  0  0  0  0  0  0  0  0  0  0
    7.8809    1.0373   21.6907 H   0  0  0  0  0  0  0  0  0  0  0  0
    9.1367    0.1871   20.7695 H   0  0  0  0  0  0  0  0  0  0  0  0
    8.8461    1.7844   23.7504 H   0  0  0  0  0  0  0  0  0  0  0  0
    8.1397    1.4834   25.3351 H   0  0  0  0  0  0  0  0  0  0  0  0
  1  2  1  0  0  0  0
  1  3  2  0  0  0  0
  2  4  2  0  0  0  0
  3 10  1  0  0  0  0
  4 11  1  0  0  0  0
  5  6  1  0  0  0  0
  5 14  2  0  0  0  0
  6 15  2  0  0  0  0
  7 12  2  0  0  0  0
  7 15  1  0  0  0  0
  8 10  2  0  0  0  0
  8 22  1  0  0  0  0
  9 13  1  0  0  0  0
  9 22  2  0  0  0  0
 10 11  1  0  0  0  0
 11 13  2  0  0  0  0
 12 14  1  0  0  0  0
 12 21  1  6  0  0  0
 13 23  1  1  0  0  0
 14 24  1  0  0  0  0
 15 25  1  0  0  0  0
 16 18  1  0  0  0  0
 16 21  1  1  0  0  0
 17 20  1  0  0  0  0
 17 21  1  6  0  0  0
 18 23  1  0  0  0  0
 19 21  1  1  0  0  0
 19 23  1  0  0  0  0
 20 24  1  0  0  0  0
  1 26  1  0  0  0  0
  2 27  1  0  0  0  0
  3 28  1  0  0  0  0
  4 29  1  0  0  0  0
  5 30  1  0  0  0  0
  6 31  1  0  0  0  0
  7 32  1  0  0  0  0
  8 33  1  0  0  0  0
  9 34  1  0  0  0  0
 16 35  1  0  0  0  0
 16 36  1  0  0  0  0
 17 37  1  0  0  0  0
 17 38  1  0  0  0  0
 18 39  1  0  0  0  0
 18 40  1  0  0  0  0
 19 41  1  0  0  0  0
 19 42  1  0  0  0  0
 20 43  1  0  0  0  0
 20 44  1  0  0  0  0
M  END
> <compound>
EDJ-MED-159244ea-2

> <compound_smiles>
c1ccc2c(c1)cncc2N3CC[C@@]4(C3)CCOc5c4cc(cc5)Cl

> <enantiomer_smiles>
c1ccc2c(c1)cncc2[N@@]3CC[C@@]4(C3)CCOc5c4cc(cc5)Cl

> <scaffold>
chromane-5spiro-isoquinoline

> <clash_score>
0

> <docking_score>
-9.114992141723633

> <overlap_score>
0.9471920132637024

> <MMFF_internal_energy>
130.9965173298771

> <docked_smiles>
c1ccc2c(c1)cncc2N3CC[C@@]4(C3)CCOc5c4cc(cc5)Cl

$$$$
DAR-DIA-6be260fc-5_1
  -OEChem-12272114573D

 44 48  0     1  0  0  0  0  0999 V2000
    3.3432    2.6279   20.4411 C   0  0  0  0  0  0  0  0  0  0  0  0
    3.8960    1.9291   21.5050 C   0  0  0  0  0  0  0  0  0  0  0  0
    3.7865    2.4205   19.1660 C   0  0  0  0  0  0  0  0  0  0  0  0
    4.8973    1.0233   21.2988 C   0  0  0  0  0  0  0  0  0  0  0  0
   12.0765    0.0316   24.1541 C   0  0  0  0  0  0  0  0  0  0  0  0
   12.9132   -0.6032   23.2569 C   0  0  0  0  0  0  0  0  0  0  0  0
   10.9991   -1.4331   22.0443 C   0  0  0  0  0  0  0  0  0  0  0  0
    5.3278    1.2339   17.6066 C   0  0  0  0  0  0  0  0  0  0  0  0
    6.8438   -0.2892   18.3752 C   0  0  0  0  0  0  0  0  0  0  0  0
    4.8226    1.4906   18.9054 C   0  0  0  0  0  0  0  0  0  0  0  0
    5.3982    0.7733   19.9948 C   0  0  0  0  0  0  0  0  0  0  0  0
   10.1406   -0.7765   22.9250 C   0  0  0  0  0  0  0  0  0  0  0  0
   10.7040   -0.0625   23.9898 C   0  0  0  0  0  0  0  0  0  0  0  0
    6.4440   -0.1472   19.6979 C   0  0  0  0  0  0  0  0  0  0  0  0
   12.3683   -1.3298   22.2234 C   0  0  0  0  0  0  0  0  0  0  0  0
    8.2490    0.0169   21.4271 C   0  0  0  0  0  0  0  0  0  0  0  0
    7.8721   -0.1194   23.8831 C   0  0  0  0  0  0  0  0  0  0  0  0
    8.0140   -2.1541   22.4331 C   0  0  0  0  0  0  0  0  0  0  0  0
    8.6609    1.0133   24.4995 C   0  0  0  0  0  0  0  0  0  0  0  0
    6.9866   -1.9366   21.3580 C   0  0  0  0  0  0  0  0  0  0  0  0
    8.6238   -0.7606   22.6929 C   0  0  3  0  0  0  0  0  0  0  0  0
    6.3062    0.3769   17.3421 N   0  0  0  0  0  0  0  0  0  0  0  0
    9.9479    0.5589   24.9534 N   0  0  0  0  0  0  0  0  0  0  0  0
    7.2292   -0.6897   20.7790 N   0  0  0  0  0  0  0  0  0  0  0  0
    8.8287    1.0406   21.0798 O   0  0  0  0  0  0  0  0  0  0  0  0
   13.4273   -2.1445   21.1110 Cl  0  0  0  0  0  0  0  0  0  0  0  0
    2.5432    3.3510   20.6369 H   0  0  0  0  0  0  0  0  0  0  0  0
    3.5174    2.1137   22.5168 H   0  0  0  0  0  0  0  0  0  0  0  0
    3.3409    2.9743   18.3364 H   0  0  0  0  0  0  0  0  0  0  0  0
    5.3118    0.4895   22.1572 H   0  0  0  0  0  0  0  0  0  0  0  0
   12.5046    0.5993   24.9693 H   0  0  0  0  0  0  0  0  0  0  0  0
   13.9909   -0.5156   23.3772 H   0  0  0  0  0  0  0  0  0  0  0  0
   10.6042   -2.0202   21.2264 H   0  0  0  0  0  0  0  0  0  0  0  0
    4.9141    1.7511   16.7474 H   0  0  0  0  0  0  0  0  0  0  0  0
    7.6445   -0.9764   18.1043 H   0  0  0  0  0  0  0  0  0  0  0  0
    7.6784   -0.8791   24.6556 H   0  0  0  0  0  0  0  0  0  0  0  0
    6.8829    0.2429   23.5736 H   0  0  0  0  0  0  0  0  0  0  0  0
    7.5150   -2.5441   23.3343 H   0  0  0  0  0  0  0  0  0  0  0  0
    8.7619   -2.9051   22.1435 H   0  0  0  0  0  0  0  0  0  0  0  0
    8.7951    1.8359   23.7810 H   0  0  0  0  0  0  0  0  0  0  0  0
    8.1069    1.4348   25.3514 H   0  0  0  0  0  0  0  0  0  0  0  0
    7.0591   -2.7246   20.5718 H   0  0  0  0  0  0  0  0  0  0  0  0
    5.9516   -1.9958   21.7713 H   0  0  0  0  0  0  0  0  0  0  0  0
   10.3328    0.8752   25.7910 H   0  0  0  0  0  0  0  0  0  0  0  0
  1  2  1  0  0  0  0
  1  3  2  0  0  0  0
  2  4  2  0  0  0  0
  3 10  1  0  0  0  0
  4 11  1  0  0  0  0
  5  6  1  0  0  0  0
  5 13  2  0  0  0  0
  6 15  2  0  0  0  0
  7 12  2  0  0  0  0
  7 15  1  0  0  0  0
  8 10  2  0  0  0  0
  8 22  1  0  0  0  0
  9 14  1  0  0  0  0
  9 22  2  0  0  0  0
 10 11  1  0  0  0  0
 11 14  2  0  0  0  0
 12 13  1  0  0  0  0
 12 21  1  0  0  0  0
 13 23  1  0  0  0  0
 14 24  1  0  0  0  0
 15 26  1  0  0  0  0
 16 21  1  0  0  0  0
 16 24  1  0  0  0  0
 16 25  2  0  0  0  0
 17 19  1  0  0  0  0
 17 21  1  0  0  0  0
 18 20  1  0  0  0  0
 18 21  1  0  0  0  0
 19 23  1  0  0  0  0
 20 24  1  0  0  0  0
  1 27  1  0  0  0  0
  2 28  1  0  0  0  0
  3 29  1  0  0  0  0
  4 30  1  0  0  0  0
  5 31  1  0  0  0  0
  6 32  1  0  0  0  0
  7 33  1  0  0  0  0
  8 34  1  0  0  0  0
  9 35  1  0  0  0  0
 17 36  1  0  0  0  0
 17 37  1  0  0  0  0
 18 38  1  0  0  0  0
 18 39  1  0  0  0  0
 19 40  1  0  0  0  0
 19 41  1  0  0  0  0
 20 42  1  0  0  0  0
 20 43  1  0  0  0  0
 23 44  1  0  0  0  0
M  END
> <compound>
DAR-DIA-6be260fc-5

> <compound_smiles>
c1ccc2c(c1)cncc2N3CCC4(C3=O)CCNc5c4cc(cc5)Cl

> <enantiomer_smiles>
c1ccc2c(c1)cncc2N3CCC4(C3=O)CCNc5c4cc(cc5)Cl

> <scaffold>
tetralinlike-5spiro-isoquinoline

> <clash_score>
0

> <docking_score>
-11.065664291381836

> <overlap_score>
0.9739398956298828

> <MMFF_internal_energy>
99.51386412364477

> <docked_smiles>
c1ccc2c(c1)cncc2N3CC[C@@]4(C3=O)CCNc5c4cc(cc5)Cl

$$$$
EDJ-MED-a6bab6fb-1_2
  -OEChem-12272114573D

 47 51  0     1  0  0  0  0  0999 V2000
    3.3432    2.6279   20.4411 C   0  0  0  0  0  0  0  0  0  0  0  0
    3.7865    2.4205   19.1660 C   0  0  0  0  0  0  0  0  0  0  0  0
    3.8960    1.9291   21.5050 C   0  0  0  0  0  0  0  0  0  0  0  0
   12.0765    0.0316   24.1541 C   0  0  0  0  0  0  0  0  0  0  0  0
   12.9132   -0.6032   23.2569 C   0  0  0  0  0  0  0  0  0  0  0  0
   10.9991   -1.4331   22.0443 C   0  0  0  0  0  0  0  0  0  0  0  0
    5.3278    1.2339   17.6066 C   0  0  0  0  0  0  0  0  0  0  0  0
    6.8438   -0.2892   18.3752 C   0  0  0  0  0  0  0  0  0  0  0  0
    4.8226    1.4906   18.9054 C   0  0  0  0  0  0  0  0  0  0  0  0
    5.3982    0.7733   19.9948 C   0  0  0  0  0  0  0  0  0  0  0  0
   10.1406   -0.7765   22.9250 C   0  0  0  0  0  0  0  0  0  0  0  0
    4.8973    1.0233   21.2988 C   0  0  0  0  0  0  0  0  0  0  0  0
    6.4440   -0.1472   19.6979 C   0  0  0  0  0  0  0  0  0  0  0  0
   10.7040   -0.0625   23.9898 C   0  0  0  0  0  0  0  0  0  0  0  0
   12.3683   -1.3298   22.2234 C   0  0  0  0  0  0  0  0  0  0  0  0
    8.0140   -2.1541   22.4331 C   0  0  0  0  0  0  0  0  0  0  0  0
    7.8721   -0.1194   23.8831 C   0  0  0  0  0  0  0  0  0  0  0  0
    6.9866   -1.9366   21.3580 C   0  0  0  0  0  0  0  0  0  0  0  0
    8.2490    0.0169   21.4271 C   0  0  0  0  0  0  0  0  0  0  0  0
    8.6609    1.0133   24.4995 C   0  0  0  0  0  0  0  0  0  0  0  0
    8.6238   -0.7606   22.6929 C   0  0  3  0  0  0  0  0  0  0  0  0
    5.4160    0.3280   22.5248 C   0  0  0  0  0  0  0  0  0  0  0  0
    6.3062    0.3769   17.3421 N   0  0  0  0  0  0  0  0  0  0  0  0
    7.2292   -0.6897   20.7790 N   0  0  1  0  0  0  0  0  0  0  0  0
    9.9479    0.5589   24.9534 O   0  0  0  0  0  0  0  0  0  0  0  0
   13.4289   -2.1391   21.1090 Cl  0  0  0  0  0  0  0  0  0  0  0  0
    2.5417    3.3496   20.6364 H   0  0  0  0  0  0  0  0  0  0  0  0
    3.3404    2.9742   18.3366 H   0  0  0  0  0  0  0  0  0  0  0  0
    3.5080    2.1238   22.5126 H   0  0  0  0  0  0  0  0  0  0  0  0
   12.5016    0.5964   24.9773 H   0  0  0  0  0  0  0  0  0  0  0  0
   13.9917   -0.5169   23.3795 H   0  0  0  0  0  0  0  0  0  0  0  0
   10.6184   -2.0172   21.2233 H   0  0  0  0  0  0  0  0  0  0  0  0
    4.9135    1.7509   16.7475 H   0  0  0  0  0  0  0  0  0  0  0  0
    7.6452   -0.9751   18.1031 H   0  0  0  0  0  0  0  0  0  0  0  0
    7.5122   -2.5241   23.3393 H   0  0  0  0  0  0  0  0  0  0  0  0
    8.7590   -2.9064   22.1421 H   0  0  0  0  0  0  0  0  0  0  0  0
    7.6392   -0.8782   24.6507 H   0  0  0  0  0  0  0  0  0  0  0  0
    6.8990    0.2679   23.5277 H   0  0  0  0  0  0  0  0  0  0  0  0
    7.0396   -2.7509   20.5913 H   0  0  0  0  0  0  0  0  0  0  0  0
    5.9566   -2.0156   21.7931 H   0  0  0  0  0  0  0  0  0  0  0  0
    7.8805    1.0371   21.6910 H   0  0  0  0  0  0  0  0  0  0  0  0
    9.1366    0.1876   20.7695 H   0  0  0  0  0  0  0  0  0  0  0  0
    8.8457    1.7853   23.7513 H   0  0  0  0  0  0  0  0  0  0  0  0
    8.1398    1.4823   25.3357 H   0  0  0  0  0  0  0  0  0  0  0  0
    4.8444   -0.5876   22.7075 H   0  0  0  0  0  0  0  0  0  0  0  0
    6.4752    0.0682   22.4211 H   0  0  0  0  0  0  0  0  0  0  0  0
    5.3279    0.9801   23.4008 H   0  0  0  0  0  0  0  0  0  0  0  0
  1  2  1  0  0  0  0
  1  3  2  0  0  0  0
  2  9  2  0  0  0  0
  3 12  1  0  0  0  0
  4  5  1  0  0  0  0
  4 14  2  0  0  0  0
  5 15  2  0  0  0  0
  6 11  2  0  0  0  0
  6 15  1  0  0  0  0
  7  9  1  0  0  0  0
  7 23  2  0  0  0  0
  8 13  2  0  0  0  0
  8 23  1  0  0  0  0
  9 10  1  0  0  0  0
 10 12  2  0  0  0  0
 10 13  1  0  0  0  0
 11 14  1  0  0  0  0
 11 21  1  0  0  0  0
 12 22  1  0  0  0  0
 13 24  1  6  0  0  0
 14 25  1  0  0  0  0
 15 26  1  0  0  0  0
 16 18  1  0  0  0  0
 16 21  1  0  0  0  0
 17 20  1  0  0  0  0
 17 21  1  0  0  0  0
 18 24  1  0  0  0  0
 19 21  1  0  0  0  0
 19 24  1  0  0  0  0
 20 25  1  0  0  0  0
  1 27  1  0  0  0  0
  2 28  1  0  0  0  0
  3 29  1  0  0  0  0
  4 30  1  0  0  0  0
  5 31  1  0  0  0  0
  6 32  1  0  0  0  0
  7 33  1  0  0  0  0
  8 34  1  0  0  0  0
 16 35  1  0  0  0  0
 16 36  1  0  0  0  0
 17 37  1  0  0  0  0
 17 38  1  0  0  0  0
 18 39  1  0  0  0  0
 18 40  1  0  0  0  0
 19 41  1  0  0  0  0
 19 42  1  0  0  0  0
 20 43  1  0  0  0  0
 20 44  1  0  0  0  0
 22 45  1  0  0  0  0
 22 46  1  0  0  0  0
 22 47  1  0  0  0  0
M  END
> <compound>
EDJ-MED-a6bab6fb-1

> <compound_smiles>
Cc1cccc2c1c(cnc2)N3CCC4(C3)CCOc5c4cc(cc5)Cl

> <enantiomer_smiles>
Cc1cccc2c1c(cnc2)[N@]3CCC4(C3)CCOc5c4cc(cc5)Cl

> <scaffold>
chromane-5spiro-isoquinoline

> <clash_score>
0

> <docking_score>
-9.35273265838623

> <overlap_score>
0.957095742225647

> <MMFF_internal_energy>
238.2174360428996

> <docked_smiles>
Cc1cccc2c1c(cnc2)N3CC[C@@]4(C3)CCOc5c4cc(cc5)Cl

$$$$
ALP-POS-477dc5b7-4_1
  -OEChem-12272114573D

 43 47  0     1  0  0  0  0  0999 V2000
    3.3432    2.6279   20.4411 C   0  0  0  0  0  0  0  0  0  0  0  0
    3.8960    1.9291   21.5050 C   0  0  0  0  0  0  0  0  0  0  0  0
    3.7865    2.4205   19.1660 C   0  0  0  0  0  0  0  0  0  0  0  0
    4.8973    1.0233   21.2988 C   0  0  0  0  0  0  0  0  0  0  0  0
   12.0765    0.0316   24.1541 C   0  0  0  0  0  0  0  0  0  0  0  0
   12.9132   -0.6032   23.2569 C   0  0  0  0  0  0  0  0  0  0  0  0
   10.9991   -1.4331   22.0443 C   0  0  0  0  0  0  0  0  0  0  0  0
    5.3278    1.2339   17.6066 C   0  0  0  0  0  0  0  0  0  0  0  0
    6.8438   -0.2892   18.3752 C   0  0  0  0  0  0  0  0  0  0  0  0
    4.8226    1.4906   18.9054 C   0  0  0  0  0  0  0  0  0  0  0  0
    5.3982    0.7733   19.9948 C   0  0  0  0  0  0  0  0  0  0  0  0
   10.1406   -0.7765   22.9250 C   0  0  0  0  0  0  0  0  0  0  0  0
    6.4440   -0.1472   19.6979 C   0  0  0  0  0  0  0  0  0  0  0  0
   10.7040   -0.0625   23.9898 C   0  0  0  0  0  0  0  0  0  0  0  0
   12.3683   -1.3298   22.2234 C   0  0  0  0  0  0  0  0  0  0  0  0
    8.2490    0.0169   21.4271 C   0  0  0  0  0  0  0  0  0  0  0  0
    8.0140   -2.1541   22.4331 C   0  0  0  0  0  0  0  0  0  0  0  0
    7.8721   -0.1194   23.8831 C   0  0  0  0  0  0  0  0  0  0  0  0
    6.9866   -1.9366   21.3580 C   0  0  0  0  0  0  0  0  0  0  0  0
    8.6609    1.0133   24.4995 C   0  0  0  0  0  0  0  0  0  0  0  0
    8.6238   -0.7606   22.6929 C   0  0  3  0  0  0  0  0  0  0  0  0
    6.3062    0.3769   17.3421 N   0  0  0  0  0  0  0  0  0  0  0  0
    7.2292   -0.6897   20.7790 N   0  0  0  0  0  0  0  0  0  0  0  0
    8.7606    1.0917   21.1281 O   0  0  0  0  0  0  0  0  0  0  0  0
    9.9479    0.5589   24.9534 O   0  0  0  0  0  0  0  0  0  0  0  0
   13.4277   -2.1423   21.1101 Cl  0  0  0  0  0  0  0  0  0  0  0  0
    2.5432    3.3510   20.6369 H   0  0  0  0  0  0  0  0  0  0  0  0
    3.5174    2.1137   22.5168 H   0  0  0  0  0  0  0  0  0  0  0  0
    3.3409    2.9743   18.3364 H   0  0  0  0  0  0  0  0  0  0  0  0
    5.3118    0.4895   22.1572 H   0  0  0  0  0  0  0  0  0  0  0  0
   12.5008    0.6100   24.9695 H   0  0  0  0  0  0  0  0  0  0  0  0
   13.9913   -0.5110   23.3752 H   0  0  0  0  0  0  0  0  0  0  0  0
   10.6072   -2.0148   21.2230 H   0  0  0  0  0  0  0  0  0  0  0  0
    4.9141    1.7511   16.7474 H   0  0  0  0  0  0  0  0  0  0  0  0
    7.6445   -0.9764   18.1043 H   0  0  0  0  0  0  0  0  0  0  0  0
    7.5786   -2.6050   23.3386 H   0  0  0  0  0  0  0  0  0  0  0  0
    8.7611   -2.8755   22.0676 H   0  0  0  0  0  0  0  0  0  0  0  0
    7.7069   -0.8840   24.6619 H   0  0  0  0  0  0  0  0  0  0  0  0
    6.8762    0.2453   23.5823 H   0  0  0  0  0  0  0  0  0  0  0  0
    7.0219   -2.7517   20.5946 H   0  0  0  0  0  0  0  0  0  0  0  0
    5.9539   -1.9480   21.7827 H   0  0  0  0  0  0  0  0  0  0  0  0
    8.7981    1.8568   23.8125 H   0  0  0  0  0  0  0  0  0  0  0  0
    8.1348    1.3979   25.3796 H   0  0  0  0  0  0  0  0  0  0  0  0
  1  2  1  0  0  0  0
  1  3  2  0  0  0  0
  2  4  2  0  0  0  0
  3 10  1  0  0  0  0
  4 11  1  0  0  0  0
  5  6  1  0  0  0  0
  5 14  2  0  0  0  0
  6 15  2  0  0  0  0
  7 12  2  0  0  0  0
  7 15  1  0  0  0  0
  8 10  2  0  0  0  0
  8 22  1  0  0  0  0
  9 13  1  0  0  0  0
  9 22  2  0  0  0  0
 10 11  1  0  0  0  0
 11 13  2  0  0  0  0
 12 14  1  0  0  0  0
 12 21  1  0  0  0  0
 13 23  1  0  0  0  0
 14 25  1  0  0  0  0
 15 26  1  0  0  0  0
 16 21  1  0  0  0  0
 16 23  1  0  0  0  0
 16 24  2  0  0  0  0
 17 19  1  0  0  0  0
 17 21  1  0  0  0  0
 18 20  1  0  0  0  0
 18 21  1  0  0  0  0
 19 23  1  0  0  0  0
 20 25  1  0  0  0  0
  1 27  1  0  0  0  0
  2 28  1  0  0  0  0
  3 29  1  0  0  0  0
  4 30  1  0  0  0  0
  5 31  1  0  0  0  0
  6 32  1  0  0  0  0
  7 33  1  0  0  0  0
  8 34  1  0  0  0  0
  9 35  1  0  0  0  0
 17 36  1  0  0  0  0
 17 37  1  0  0  0  0
 18 38  1  0  0  0  0
 18 39  1  0  0  0  0
 19 40  1  0  0  0  0
 19 41  1  0  0  0  0
 20 42  1  0  0  0  0
 20 43  1  0  0  0  0
M  END
> <compound>
ALP-POS-477dc5b7-4

> <compound_smiles>
c1ccc2c(c1)cncc2N3CCC4(C3=O)CCOc5c4cc(cc5)Cl

> <enantiomer_smiles>
c1ccc2c(c1)cncc2N3CCC4(C3=O)CCOc5c4cc(cc5)Cl

> <scaffold>
chromane-5spiro-isoquinoline

> <clash_score>
0

> <docking_score>
-9.884474754333496

> <overlap_score>
0.9739437103271484

> <MMFF_internal_energy>
107.26639465647172

> <docked_smiles>
c1ccc2c(c1)cncc2N3CC[C@@]4(C3=O)CCOc5c4cc(cc5)Cl

$$$$
EDJ-MED-159244ea-3_1
  -OEChem-12272114573D

 43 47  0     1  0  0  0  0  0999 V2000
    3.3432    2.6279   20.4411 C   0  0  0  0  0  0  0  0  0  0  0  0
    3.8960    1.9291   21.5050 C   0  0  0  0  0  0  0  0  0  0  0  0
    3.7865    2.4205   19.1660 C   0  0  0  0  0  0  0  0  0  0  0  0
    4.8973    1.0233   21.2988 C   0  0  0  0  0  0  0  0  0  0  0  0
   12.0765    0.0316   24.1541 C   0  0  0  0  0  0  0  0  0  0  0  0
   12.9132   -0.6032   23.2569 C   0  0  0  0  0  0  0  0  0  0  0  0
   10.9991   -1.4331   22.0443 C   0  0  0  0  0  0  0  0  0  0  0  0
    5.3278    1.2339   17.6066 C   0  0  0  0  0  0  0  0  0  0  0  0
    6.8438   -0.2892   18.3752 C   0  0  0  0  0  0  0  0  0  0  0  0
    4.8226    1.4906   18.9054 C   0  0  0  0  0  0  0  0  0  0  0  0
    5.3982    0.7733   19.9948 C   0  0  0  0  0  0  0  0  0  0  0  0
   10.1406   -0.7765   22.9250 C   0  0  0  0  0  0  0  0  0  0  0  0
    6.4440   -0.1472   19.6979 C   0  0  0  0  0  0  0  0  0  0  0  0
   10.7040   -0.0625   23.9898 C   0  0  0  0  0  0  0  0  0  0  0  0
   12.3683   -1.3298   22.2234 C   0  0  0  0  0  0  0  0  0  0  0  0
    6.9866   -1.9366   21.3580 C   0  0  0  0  0  0  0  0  0  0  0  0
    8.0140   -2.1541   22.4331 C   0  0  0  0  0  0  0  0  0  0  0  0
    7.8721   -0.1194   23.8831 C   0  0  0  0  0  0  0  0  0  0  0  0
    8.2490    0.0169   21.4271 C   0  0  0  0  0  0  0  0  0  0  0  0
    8.6609    1.0133   24.4995 C   0  0  0  0  0  0  0  0  0  0  0  0
    8.6238   -0.7606   22.6929 C   0  0  2  0  0  0  0  0  0  0  0  0
    6.3062    0.3769   17.3421 N   0  0  0  0  0  0  0  0  0  0  0  0
    7.2292   -0.6897   20.7790 N   0  0  0  0  0  0  0  0  0  0  0  0
    6.0913   -2.7468   21.1362 O   0  0  0  0  0  0  0  0  0  0  0  0
    9.9479    0.5589   24.9534 O   0  0  0  0  0  0  0  0  0  0  0  0
   13.4282   -2.1394   21.1087 Cl  0  0  0  0  0  0  0  0  0  0  0  0
    2.5432    3.3510   20.6369 H   0  0  0  0  0  0  0  0  0  0  0  0
    3.5174    2.1137   22.5168 H   0  0  0  0  0  0  0  0  0  0  0  0
    3.3409    2.9743   18.3364 H   0  0  0  0  0  0  0  0  0  0  0  0
    5.3118    0.4895   22.1572 H   0  0  0  0  0  0  0  0  0  0  0  0
   12.5014    0.5925   24.9804 H   0  0  0  0  0  0  0  0  0  0  0  0
   13.9916   -0.5201   23.3814 H   0  0  0  0  0  0  0  0  0  0  0  0
   10.6171   -2.0193   21.2247 H   0  0  0  0  0  0  0  0  0  0  0  0
    4.9141    1.7511   16.7474 H   0  0  0  0  0  0  0  0  0  0  0  0
    7.6445   -0.9764   18.1043 H   0  0  0  0  0  0  0  0  0  0  0  0
    7.4870   -2.5403   23.3138 H   0  0  0  0  0  0  0  0  0  0  0  0
    8.7526   -2.8936   22.1052 H   0  0  0  0  0  0  0  0  0  0  0  0
    7.6362   -0.8789   24.6494 H   0  0  0  0  0  0  0  0  0  0  0  0
    6.9003    0.2705   23.5267 H   0  0  0  0  0  0  0  0  0  0  0  0
    7.8536    1.0242   21.6783 H   0  0  0  0  0  0  0  0  0  0  0  0
    9.1179    0.1772   20.7525 H   0  0  0  0  0  0  0  0  0  0  0  0
    8.8459    1.7875   23.7508 H   0  0  0  0  0  0  0  0  0  0  0  0
    8.1370    1.4846   25.3356 H   0  0  0  0  0  0  0  0  0  0  0  0
  1  2  1  0  0  0  0
  1  3  2  0  0  0  0
  2  4  2  0  0  0  0
  3 10  1  0  0  0  0
  4 11  1  0  0  0  0
  5  6  1  0  0  0  0
  5 14  2  0  0  0  0
  6 15  2  0  0  0  0
  7 12  2  0  0  0  0
  7 15  1  0  0  0  0
  8 10  2  0  0  0  0
  8 22  1  0  0  0  0
  9 13  1  0  0  0  0
  9 22  2  0  0  0  0
 10 11  1  0  0  0  0
 11 13  2  0  0  0  0
 12 14  1  0  0  0  0
 12 21  1  6  0  0  0
 13 23  1  0  0  0  0
 14 25  1  0  0  0  0
 15 26  1  0  0  0  0
 16 17  1  0  0  0  0
 16 23  1  0  0  0  0
 16 24  2  0  0  0  0
 17 21  1  6  0  0  0
 18 20  1  0  0  0  0
 18 21  1  1  0  0  0
 19 21  1  1  0  0  0
 19 23  1  0  0  0  0
 20 25  1  0  0  0  0
  1 27  1  0  0  0  0
  2 28  1  0  0  0  0
  3 29  1  0  0  0  0
  4 30  1  0  0  0  0
  5 31  1  0  0  0  0
  6 32  1  0  0  0  0
  7 33  1  0  0  0  0
  8 34  1  0  0  0  0
  9 35  1  0  0  0  0
 17 36  1  0  0  0  0
 17 37  1  0  0  0  0
 18 38  1  0  0  0  0
 18 39  1  0  0  0  0
 19 40  1  0  0  0  0
 19 41  1  0  0  0  0
 20 42  1  0  0  0  0
 20 43  1  0  0  0  0
M  END
> <compound>
EDJ-MED-159244ea-3

> <compound_smiles>
c1ccc2c(c1)cncc2N3C[C@@]4(CCOc5c4cc(cc5)Cl)CC3=O

> <enantiomer_smiles>
c1ccc2c(c1)cncc2N3C[C@@]4(CCOc5c4cc(cc5)Cl)CC3=O

> <scaffold>
chromane-5spiro-isoquinoline

> <clash_score>
0

> <docking_score>
-9.16669750213623

> <overlap_score>
0.9729082584381104

> <MMFF_internal_energy>
102.9216253517952

> <docked_smiles>
c1ccc2c(c1)cncc2N3C[C@@]4(CCOc5c4cc(cc5)Cl)CC3=O

$$$$
EDJ-MED-159244ea-1_1
  -OEChem-12272114573D

 43 47  0     1  0  0  0  0  0999 V2000
    3.3432    2.6279   20.4411 C   0  0  0  0  0  0  0  0  0  0  0  0
    3.8960    1.9291   21.5050 C   0  0  0  0  0  0  0  0  0  0  0  0
    3.7865    2.4205   19.1660 C   0  0  0  0  0  0  0  0  0  0  0  0
    4.8973    1.0233   21.2988 C   0  0  0  0  0  0  0  0  0  0  0  0
   12.0765    0.0316   24.1541 C   0  0  0  0  0  0  0  0  0  0  0  0
   12.9132   -0.6032   23.2569 C   0  0  0  0  0  0  0  0  0  0  0  0
   10.9991   -1.4331   22.0443 C   0  0  0  0  0  0  0  0  0  0  0  0
    5.3278    1.2339   17.6066 C   0  0  0  0  0  0  0  0  0  0  0  0
    6.8438   -0.2892   18.3752 C   0  0  0  0  0  0  0  0  0  0  0  0
    4.8226    1.4906   18.9054 C   0  0  0  0  0  0  0  0  0  0  0  0
    5.3982    0.7733   19.9948 C   0  0  0  0  0  0  0  0  0  0  0  0
   10.1406   -0.7765   22.9250 C   0  0  0  0  0  0  0  0  0  0  0  0
    6.4440   -0.1472   19.6979 C   0  0  0  0  0  0  0  0  0  0  0  0
   10.7040   -0.0625   23.9898 C   0  0  0  0  0  0  0  0  0  0  0  0
   12.3683   -1.3298   22.2234 C   0  0  0  0  0  0  0  0  0  0  0  0
    8.2490    0.0169   21.4271 C   0  0  0  0  0  0  0  0  0  0  0  0
    8.0140   -2.1541   22.4331 C   0  0  0  0  0  0  0  0  0  0  0  0
    7.8721   -0.1194   23.8831 C   0  0  0  0  0  0  0  0  0  0  0  0
    6.9866   -1.9366   21.3580 C   0  0  0  0  0  0  0  0  0  0  0  0
    8.6609    1.0133   24.4995 C   0  0  0  0  0  0  0  0  0  0  0  0
    8.6238   -0.7606   22.6929 C   0  0  2  0  0  0  0  0  0  0  0  0
    6.3062    0.3769   17.3421 N   0  0  0  0  0  0  0  0  0  0  0  0
    7.2292   -0.6897   20.7790 N   0  0  0  0  0  0  0  0  0  0  0  0
    8.8242    1.0441   21.0801 O   0  0  0  0  0  0  0  0  0  0  0  0
    9.9479    0.5589   24.9534 O   0  0  0  0  0  0  0  0  0  0  0  0
   13.4281   -2.1402   21.1088 Cl  0  0  0  0  0  0  0  0  0  0  0  0
    2.5432    3.3510   20.6369 H   0  0  0  0  0  0  0  0  0  0  0  0
    3.5174    2.1137   22.5168 H   0  0  0  0  0  0  0  0  0  0  0  0
    3.3409    2.9743   18.3364 H   0  0  0  0  0  0  0  0  0  0  0  0
    5.3118    0.4895   22.1572 H   0  0  0  0  0  0  0  0  0  0  0  0
   12.5001    0.5849   24.9871 H   0  0  0  0  0  0  0  0  0  0  0  0
   13.9913   -0.5278   23.3870 H   0  0  0  0  0  0  0  0  0  0  0  0
   10.6068   -2.0245   21.2301 H   0  0  0  0  0  0  0  0  0  0  0  0
    4.9141    1.7511   16.7474 H   0  0  0  0  0  0  0  0  0  0  0  0
    7.6445   -0.9764   18.1043 H   0  0  0  0  0  0  0  0  0  0  0  0
    7.5132   -2.5634   23.3240 H   0  0  0  0  0  0  0  0  0  0  0  0
    8.7682   -2.9022   22.1422 H   0  0  0  0  0  0  0  0  0  0  0  0
    7.6322   -0.8662   24.6577 H   0  0  0  0  0  0  0  0  0  0  0  0
    6.9099    0.2888   23.5281 H   0  0  0  0  0  0  0  0  0  0  0  0
    7.0577   -2.7255   20.5709 H   0  0  0  0  0  0  0  0  0  0  0  0
    5.9505   -1.9964   21.7717 H   0  0  0  0  0  0  0  0  0  0  0  0
    8.8465    1.7887   23.7486 H   0  0  0  0  0  0  0  0  0  0  0  0
    8.1327    1.4920   25.3329 H   0  0  0  0  0  0  0  0  0  0  0  0
  1  2  1  0  0  0  0
  1  3  2  0  0  0  0
  2  4  2  0  0  0  0
  3 10  1  0  0  0  0
  4 11  1  0  0  0  0
  5  6  1  0  0  0  0
  5 14  2  0  0  0  0
  6 15  2  0  0  0  0
  7 12  2  0  0  0  0
  7 15  1  0  0  0  0
  8 10  2  0  0  0  0
  8 22  1  0  0  0  0
  9 13  1  0  0  0  0
  9 22  2  0  0  0  0
 10 11  1  0  0  0  0
 11 13  2  0  0  0  0
 12 14  1  0  0  0  0
 12 21  1  1  0  0  0
 13 23  1  0  0  0  0
 14 25  1  0  0  0  0
 15 26  1  0  0  0  0
 16 21  1  6  0  0  0
 16 23  1  0  0  0  0
 16 24  2  0  0  0  0
 17 19  1  0  0  0  0
 17 21  1  6  0  0  0
 18 20  1  0  0  0  0
 18 21  1  1  0  0  0
 19 23  1  0  0  0  0
 20 25  1  0  0  0  0
  1 27  1  0  0  0  0
  2 28  1  0  0  0  0
  3 29  1  0  0  0  0
  4 30  1  0  0  0  0
  5 31  1  0  0  0  0
  6 32  1  0  0  0  0
  7 33  1  0  0  0  0
  8 34  1  0  0  0  0
  9 35  1  0  0  0  0
 17 36  1  0  0  0  0
 17 37  1  0  0  0  0
 18 38  1  0  0  0  0
 18 39  1  0  0  0  0
 19 40  1  0  0  0  0
 19 41  1  0  0  0  0
 20 42  1  0  0  0  0
 20 43  1  0  0  0  0
M  END
> <compound>
EDJ-MED-159244ea-1

> <compound_smiles>
c1ccc2c(c1)cncc2N3CC[C@]4(C3=O)CCOc5c4cc(cc5)Cl

> <enantiomer_smiles>
c1ccc2c(c1)cncc2N3CC[C@]4(C3=O)CCOc5c4cc(cc5)Cl

> <scaffold>
chromane-5spiro-isoquinoline

> <clash_score>
0

> <docking_score>
-9.85554027557373

> <overlap_score>
0.9739340543746948

> <MMFF_internal_energy>
109.20807707772539

> <docked_smiles>
c1ccc2c(c1)cncc2N3CC[C@@]4(C3=O)CCOc5c4cc(cc5)Cl

$$$$
MAT-POS-983b399a-1_1
  -OEChem-12272114573D

 43 47  0     1  0  0  0  0  0999 V2000
    3.3432    2.6279   20.4411 C   0  0  0  0  0  0  0  0  0  0  0  0
    3.8960    1.9291   21.5050 C   0  0  0  0  0  0  0  0  0  0  0  0
    3.7865    2.4205   19.1660 C   0  0  0  0  0  0  0  0  0  0  0  0
    4.8973    1.0233   21.2988 C   0  0  0  0  0  0  0  0  0  0  0  0
   12.0765    0.0316   24.1541 C   0  0  0  0  0  0  0  0  0  0  0  0
   12.9132   -0.6032   23.2569 C   0  0  0  0  0  0  0  0  0  0  0  0
   10.9991   -1.4331   22.0443 C   0  0  0  0  0  0  0  0  0  0  0  0
    5.3278    1.2339   17.6066 C   0  0  0  0  0  0  0  0  0  0  0  0
    6.8438   -0.2892   18.3752 C   0  0  0  0  0  0  0  0  0  0  0  0
    4.8226    1.4906   18.9054 C   0  0  0  0  0  0  0  0  0  0  0  0
    5.3982    0.7733   19.9948 C   0  0  0  0  0  0  0  0  0  0  0  0
   10.1406   -0.7765   22.9250 C   0  0  0  0  0  0  0  0  0  0  0  0
    6.4440   -0.1472   19.6979 C   0  0  0  0  0  0  0  0  0  0  0  0
   10.7040   -0.0625   23.9898 C   0  0  0  0  0  0  0  0  0  0  0  0
   12.3683   -1.3298   22.2234 C   0  0  0  0  0  0  0  0  0  0  0  0
    8.2490    0.0169   21.4271 C   0  0  0  0  0  0  0  0  0  0  0  0
    8.0140   -2.1541   22.4331 C   0  0  0  0  0  0  0  0  0  0  0  0
    7.8721   -0.1194   23.8831 C   0  0  0  0  0  0  0  0  0  0  0  0
    6.9866   -1.9366   21.3580 C   0  0  0  0  0  0  0  0  0  0  0  0
    8.6609    1.0133   24.4995 C   0  0  0  0  0  0  0  0  0  0  0  0
    8.6238   -0.7606   22.6929 C   0  0  3  0  0  0  0  0  0  0  0  0
    6.3062    0.3769   17.3421 N   0  0  0  0  0  0  0  0  0  0  0  0
    7.2292   -0.6897   20.7790 N   0  0  0  0  0  0  0  0  0  0  0  0
    8.7606    1.0917   21.1281 O   0  0  0  0  0  0  0  0  0  0  0  0
    9.9479    0.5589   24.9534 O   0  0  0  0  0  0  0  0  0  0  0  0
   13.4277   -2.1423   21.1101 Cl  0  0  0  0  0  0  0  0  0  0  0  0
    2.5432    3.3510   20.6369 H   0  0  0  0  0  0  0  0  0  0  0  0
    3.5174    2.1137   22.5168 H   0  0  0  0  0  0  0  0  0  0  0  0
    3.3409    2.9743   18.3364 H   0  0  0  0  0  0  0  0  0  0  0  0
    5.3118    0.4895   22.1572 H   0  0  0  0  0  0  0  0  0  0  0  0
   12.5008    0.6100   24.9695 H   0  0  0  0  0  0  0  0  0  0  0  0
   13.9913   -0.5110   23.3752 H   0  0  0  0  0  0  0  0  0  0  0  0
   10.6072   -2.0148   21.2230 H   0  0  0  0  0  0  0  0  0  0  0  0
    4.9141    1.7511   16.7474 H   0  0  0  0  0  0  0  0  0  0  0  0
    7.6445   -0.9764   18.1043 H   0  0  0  0  0  0  0  0  0  0  0  0
    7.5786   -2.6050   23.3386 H   0  0  0  0  0  0  0  0  0  0  0  0
    8.7611   -2.8755   22.0676 H   0  0  0  0  0  0  0  0  0  0  0  0
    7.7069   -0.8840   24.6619 H   0  0  0  0  0  0  0  0  0  0  0  0
    6.8762    0.2453   23.5823 H   0  0  0  0  0  0  0  0  0  0  0  0
    7.0219   -2.7517   20.5946 H   0  0  0  0  0  0  0  0  0  0  0  0
    5.9539   -1.9480   21.7827 H   0  0  0  0  0  0  0  0  0  0  0  0
    8.7981    1.8568   23.8125 H   0  0  0  0  0  0  0  0  0  0  0  0
    8.1348    1.3979   25.3796 H   0  0  0  0  0  0  0  0  0  0  0  0
  1  2  1  0  0  0  0
  1  3  2  0  0  0  0
  2  4  2  0  0  0  0
  3 10  1  0  0  0  0
  4 11  1  0  0  0  0
  5  6  1  0  0  0  0
  5 14  2  0  0  0  0
  6 15  2  0  0  0  0
  7 12  2  0  0  0  0
  7 15  1  0  0  0  0
  8 10  2  0  0  0  0
  8 22  1  0  0  0  0
  9 13  1  0  0  0  0
  9 22  2  0  0  0  0
 10 11  1  0  0  0  0
 11 13  2  0  0  0  0
 12 14  1  0  0  0  0
 12 21  1  0  0  0  0
 13 23  1  0  0  0  0
 14 25  1  0  0  0  0
 15 26  1  0  0  0  0
 16 21  1  0  0  0  0
 16 23  1  0  0  0  0
 16 24  2  0  0  0  0
 17 19  1  0  0  0  0
 17 21  1  0  0  0  0
 18 20  1  0  0  0  0
 18 21  1  0  0  0  0
 19 23  1  0  0  0  0
 20 25  1  0  0  0  0
  1 27  1  0  0  0  0
  2 28  1  0  0  0  0
  3 29  1  0  0  0  0
  4 30  1  0  0  0  0
  5 31  1  0  0  0  0
  6 32  1  0  0  0  0
  7 33  1  0  0  0  0
  8 34  1  0  0  0  0
  9 35  1  0  0  0  0
 17 36  1  0  0  0  0
 17 37  1  0  0  0  0
 18 38  1  0  0  0  0
 18 39  1  0  0  0  0
 19 40  1  0  0  0  0
 19 41  1  0  0  0  0
 20 42  1  0  0  0  0
 20 43  1  0  0  0  0
M  END
> <compound>
MAT-POS-983b399a-1

> <compound_smiles>
c1ccc2c(c1)cncc2N3CCC4(C3=O)CCOc5c4cc(cc5)Cl

> <enantiomer_smiles>
c1ccc2c(c1)cncc2N3CCC4(C3=O)CCOc5c4cc(cc5)Cl

> <scaffold>
chromane-5spiro-isoquinoline

> <clash_score>
0

> <docking_score>
-9.884474754333496

> <overlap_score>
0.9739437103271484

> <MMFF_internal_energy>
107.26639465647172

> <docked_smiles>
c1ccc2c(c1)cncc2N3CC[C@@]4(C3=O)CCOc5c4cc(cc5)Cl

$$$$
BEN-BAS-c2bc0d80-3_1
  -OEChem-12272114573D

 42 46  0     1  0  0  0  0  0999 V2000
    3.3432    2.6279   20.4411 C   0  0  0  0  0  0  0  0  0  0  0  0
    3.8960    1.9291   21.5050 C   0  0  0  0  0  0  0  0  0  0  0  0
    3.7865    2.4205   19.1660 C   0  0  0  0  0  0  0  0  0  0  0  0
    4.8973    1.0233   21.2988 C   0  0  0  0  0  0  0  0  0  0  0  0
   12.0765    0.0316   24.1541 C   0  0  0  0  0  0  0  0  0  0  0  0
   12.9132   -0.6032   23.2569 C   0  0  0  0  0  0  0  0  0  0  0  0
   10.9991   -1.4331   22.0443 C   0  0  0  0  0  0  0  0  0  0  0  0
    5.3278    1.2339   17.6066 C   0  0  0  0  0  0  0  0  0  0  0  0
    6.8438   -0.2892   18.3752 C   0  0  0  0  0  0  0  0  0  0  0  0
    4.8226    1.4906   18.9054 C   0  0  0  0  0  0  0  0  0  0  0  0
    5.3982    0.7733   19.9948 C   0  0  0  0  0  0  0  0  0  0  0  0
   10.1406   -0.7765   22.9250 C   0  0  0  0  0  0  0  0  0  0  0  0
    6.4440   -0.1472   19.6979 C   0  0  0  0  0  0  0  0  0  0  0  0
   10.7040   -0.0625   23.9898 C   0  0  0  0  0  0  0  0  0  0  0  0
   12.3683   -1.3298   22.2234 C   0  0  0  0  0  0  0  0  0  0  0  0
    8.2490    0.0169   21.4271 C   0  0  0  0  0  0  0  0  0  0  0  0
    7.8721   -0.1194   23.8831 C   0  0  0  0  0  0  0  0  0  0  0  0
    8.0140   -2.1541   22.4331 C   0  0  0  0  0  0  0  0  0  0  0  0
    8.6609    1.0133   24.4995 C   0  0  0  0  0  0  0  0  0  0  0  0
    8.6238   -0.7606   22.6929 C   0  0  3  0  0  0  0  0  0  0  0  0
    6.3062    0.3769   17.3421 N   0  0  0  0  0  0  0  0  0  0  0  0
    6.9866   -1.9366   21.3580 N   0  0  0  0  0  0  0  0  0  0  0  0
    7.2292   -0.6897   20.7790 N   0  0  0  0  0  0  0  0  0  0  0  0
    8.7740    1.0817   21.1123 O   0  0  0  0  0  0  0  0  0  0  0  0
    9.9479    0.5589   24.9534 O   0  0  0  0  0  0  0  0  0  0  0  0
   13.4280   -2.1429   21.1108 Cl  0  0  0  0  0  0  0  0  0  0  0  0
    2.5432    3.3510   20.6369 H   0  0  0  0  0  0  0  0  0  0  0  0
    3.5174    2.1137   22.5168 H   0  0  0  0  0  0  0  0  0  0  0  0
    3.3409    2.9743   18.3364 H   0  0  0  0  0  0  0  0  0  0  0  0
    5.3118    0.4895   22.1572 H   0  0  0  0  0  0  0  0  0  0  0  0
   12.5008    0.6097   24.9698 H   0  0  0  0  0  0  0  0  0  0  0  0
   13.9914   -0.5110   23.3751 H   0  0  0  0  0  0  0  0  0  0  0  0
   10.6079   -2.0142   21.2223 H   0  0  0  0  0  0  0  0  0  0  0  0
    4.9141    1.7511   16.7474 H   0  0  0  0  0  0  0  0  0  0  0  0
    7.6445   -0.9764   18.1043 H   0  0  0  0  0  0  0  0  0  0  0  0
    7.7079   -0.8846   24.6624 H   0  0  0  0  0  0  0  0  0  0  0  0
    6.8741    0.2439   23.5848 H   0  0  0  0  0  0  0  0  0  0  0  0
    8.7380   -2.8832   22.0561 H   0  0  0  0  0  0  0  0  0  0  0  0
    7.5441   -2.5933   23.3174 H   0  0  0  0  0  0  0  0  0  0  0  0
    8.7978    1.8562   23.8117 H   0  0  0  0  0  0  0  0  0  0  0  0
    8.1338    1.3977   25.3790 H   0  0  0  0  0  0  0  0  0  0  0  0
    7.1091   -2.6641   20.6437 H   0  0  0  0  0  0  0  0  0  0  0  0
  1  2  1  0  0  0  0
  1  3  2  0  0  0  0
  2  4  2  0  0  0  0
  3 10  1  0  0  0  0
  4 11  1  0  0  0  0
  5  6  1  0  0  0  0
  5 14  2  0  0  0  0
  6 15  2  0  0  0  0
  7 12  2  0  0  0  0
  7 15  1  0  0  0  0
  8 10  2  0  0  0  0
  8 21  1  0  0  0  0
  9 13  1  0  0  0  0
  9 21  2  0  0  0  0
 10 11  1  0  0  0  0
 11 13  2  0  0  0  0
 12 14  1  0  0  0  0
 12 20  1  0  0  0  0
 13 23  1  0  0  0  0
 14 25  1  0  0  0  0
 15 26  1  0  0  0  0
 16 20  1  0  0  0  0
 16 23  1  0  0  0  0
 16 24  2  0  0  0  0
 17 19  1  0  0  0  0
 17 20  1  0  0  0  0
 18 20  1  0  0  0  0
 18 22  1  0  0  0  0
 19 25  1  0  0  0  0
 22 23  1  0  0  0  0
  1 27  1  0  0  0  0
  2 28  1  0  0  0  0
  3 29  1  0  0  0  0
  4 30  1  0  0  0  0
  5 31  1  0  0  0  0
  6 32  1  0  0  0  0
  7 33  1  0  0  0  0
  8 34  1  0  0  0  0
  9 35  1  0  0  0  0
 17 36  1  0  0  0  0
 17 37  1  0  0  0  0
 18 38  1  0  0  0  0
 18 39  1  0  0  0  0
 19 40  1  0  0  0  0
 19 41  1  0  0  0  0
 22 42  1  0  0  0  0
M  END
> <compound>
BEN-BAS-c2bc0d80-3

> <compound_smiles>
c1ccc2c(c1)cncc2N3C(=O)C4(CCOc5c4cc(cc5)Cl)CN3

> <enantiomer_smiles>
c1ccc2c(c1)cncc2N3C(=O)C4(CCOc5c4cc(cc5)Cl)CN3

> <scaffold>
chromane-5spiro-isoquinoline

> <clash_score>
0

> <docking_score>
-9.950912475585938

> <overlap_score>
0.9739341139793396

> <MMFF_internal_energy>
144.1217669564488

> <docked_smiles>
c1ccc2c(c1)cncc2N3C(=O)[C@@]4(CCOc5c4cc(cc5)Cl)CN3

$$$$
EDJ-MED-f3cfbbb5-1_1
  -OEChem-12272114573D

 47 51  0     1  0  0  0  0  0999 V2000
    3.3432    2.6279   20.4411 C   0  0  0  0  0  0  0  0  0  0  0  0
    3.7865    2.4205   19.1660 C   0  0  0  0  0  0  0  0  0  0  0  0
   12.0765    0.0316   24.1541 C   0  0  0  0  0  0  0  0  0  0  0  0
    3.8960    1.9291   21.5050 C   0  0  0  0  0  0  0  0  0  0  0  0
   12.9132   -0.6032   23.2569 C   0  0  0  0  0  0  0  0  0  0  0  0
   10.9991   -1.4331   22.0443 C   0  0  0  0  0  0  0  0  0  0  0  0
    5.3278    1.2339   17.6066 C   0  0  0  0  0  0  0  0  0  0  0  0
    6.8438   -0.2892   18.3752 C   0  0  0  0  0  0  0  0  0  0  0  0
    4.8226    1.4906   18.9054 C   0  0  0  0  0  0  0  0  0  0  0  0
    5.3982    0.7733   19.9948 C   0  0  0  0  0  0  0  0  0  0  0  0
   10.7040   -0.0625   23.9898 C   0  0  0  0  0  0  0  0  0  0  0  0
   10.1406   -0.7765   22.9250 C   0  0  0  0  0  0  0  0  0  0  0  0
    4.8973    1.0233   21.2988 C   0  0  0  0  0  0  0  0  0  0  0  0
    6.4440   -0.1472   19.6979 C   0  0  0  0  0  0  0  0  0  0  0  0
   12.3683   -1.3298   22.2234 C   0  0  0  0  0  0  0  0  0  0  0  0
    9.9479    0.5589   24.9534 C   0  0  0  0  0  0  0  0  0  0  0  0
    8.0140   -2.1541   22.4331 C   0  0  0  0  0  0  0  0  0  0  0  0
    6.9866   -1.9366   21.3580 C   0  0  0  0  0  0  0  0  0  0  0  0
    8.2490    0.0169   21.4271 C   0  0  0  0  0  0  0  0  0  0  0  0
    7.8721   -0.1194   23.8831 C   0  0  0  0  0  0  0  0  0  0  0  0
    8.6238   -0.7606   22.6929 C   0  0  3  0  0  0  0  0  0  0  0  0
    5.4160    0.3280   22.5248 C   0  0  0  0  0  0  0  0  0  0  0  0
    6.3062    0.3769   17.3421 N   0  0  0  0  0  0  0  0  0  0  0  0
    7.2292   -0.6897   20.7790 N   0  0  2  0  0  0  0  0  0  0  0  0
    8.6609    1.0133   24.4995 O   0  0  0  0  0  0  0  0  0  0  0  0
   13.4281   -2.1415   21.1105 Cl  0  0  0  0  0  0  0  0  0  0  0  0
    2.5417    3.3496   20.6364 H   0  0  0  0  0  0  0  0  0  0  0  0
    3.3404    2.9742   18.3366 H   0  0  0  0  0  0  0  0  0  0  0  0
   12.5023    0.5922   24.9791 H   0  0  0  0  0  0  0  0  0  0  0  0
    3.5080    2.1238   22.5126 H   0  0  0  0  0  0  0  0  0  0  0  0
   13.9913   -0.5228   23.3835 H   0  0  0  0  0  0  0  0  0  0  0  0
   10.6163   -2.0199   21.2243 H   0  0  0  0  0  0  0  0  0  0  0  0
    4.9135    1.7509   16.7475 H   0  0  0  0  0  0  0  0  0  0  0  0
    7.6452   -0.9751   18.1031 H   0  0  0  0  0  0  0  0  0  0  0  0
    9.7465   -0.0961   25.8337 H   0  0  0  0  0  0  0  0  0  0  0  0
   10.4335    1.4728   25.3675 H   0  0  0  0  0  0  0  0  0  0  0  0
    7.5808   -2.6136   23.3328 H   0  0  0  0  0  0  0  0  0  0  0  0
    8.7865   -2.8428   22.0576 H   0  0  0  0  0  0  0  0  0  0  0  0
    7.0304   -2.7729   20.6127 H   0  0  0  0  0  0  0  0  0  0  0  0
    5.9526   -1.9842   21.7857 H   0  0  0  0  0  0  0  0  0  0  0  0
    7.9595    1.0713   21.6614 H   0  0  0  0  0  0  0  0  0  0  0  0
    9.1301    0.1020   20.7464 H   0  0  0  0  0  0  0  0  0  0  0  0
    6.9209    0.3307   23.5727 H   0  0  0  0  0  0  0  0  0  0  0  0
    7.6404   -0.8364   24.6831 H   0  0  0  0  0  0  0  0  0  0  0  0
    4.8444   -0.5876   22.7075 H   0  0  0  0  0  0  0  0  0  0  0  0
    6.4752    0.0682   22.4211 H   0  0  0  0  0  0  0  0  0  0  0  0
    5.3279    0.9801   23.4008 H   0  0  0  0  0  0  0  0  0  0  0  0
  1  2  1  0  0  0  0
  1  4  2  0  0  0  0
  2  9  2  0  0  0  0
  3  5  1  0  0  0  0
  3 11  2  0  0  0  0
  4 13  1  0  0  0  0
  5 15  2  0  0  0  0
  6 12  2  0  0  0  0
  6 15  1  0  0  0  0
  7  9  1  0  0  0  0
  7 23  2  0  0  0  0
  8 14  2  0  0  0  0
  8 23  1  0  0  0  0
  9 10  1  0  0  0  0
 10 13  2  0  0  0  0
 10 14  1  0  0  0  0
 11 12  1  0  0  0  0
 11 16  1  0  0  0  0
 12 21  1  0  0  0  0
 13 22  1  0  0  0  0
 14 24  1  1  0  0  0
 15 26  1  0  0  0  0
 16 25  1  0  0  0  0
 17 18  1  0  0  0  0
 17 21  1  0  0  0  0
 18 24  1  0  0  0  0
 19 21  1  0  0  0  0
 19 24  1  0  0  0  0
 20 21  1  0  0  0  0
 20 25  1  0  0  0  0
  1 27  1  0  0  0  0
  2 28  1  0  0  0  0
  3 29  1  0  0  0  0
  4 30  1  0  0  0  0
  5 31  1  0  0  0  0
  6 32  1  0  0  0  0
  7 33  1  0  0  0  0
  8 34  1  0  0  0  0
 16 35  1  0  0  0  0
 16 36  1  0  0  0  0
 17 37  1  0  0  0  0
 17 38  1  0  0  0  0
 18 39  1  0  0  0  0
 18 40  1  0  0  0  0
 19 41  1  0  0  0  0
 19 42  1  0  0  0  0
 20 43  1  0  0  0  0
 20 44  1  0  0  0  0
 22 45  1  0  0  0  0
 22 46  1  0  0  0  0
 22 47  1  0  0  0  0
M  END
> <compound>
EDJ-MED-f3cfbbb5-1

> <compound_smiles>
Cc1cccc2c1c(cnc2)N3CCC4(C3)COCc5c4cc(cc5)Cl

> <enantiomer_smiles>
Cc1cccc2c1c(cnc2)[N@@]3CCC4(C3)COCc5c4cc(cc5)Cl

> <scaffold>
tetralinlike-5spiro-isoquinoline

> <clash_score>
0

> <docking_score>
-9.634618759155273

> <overlap_score>
0.9570974111557007

> <MMFF_internal_energy>
256.4274594660797

> <docked_smiles>
Cc1cccc2c1c(cnc2)N3CC[C@@]4(C3)COCc5c4cc(cc5)Cl

$$$$
EDJ-MED-f3cfbbb5-1_2
  -OEChem-12272114573D

 47 51  0     1  0  0  0  0  0999 V2000
    3.3432    2.6279   20.4411 C   0  0  0  0  0  0  0  0  0  0  0  0
    3.7865    2.4205   19.1660 C   0  0  0  0  0  0  0  0  0  0  0  0
   12.0765    0.0316   24.1541 C   0  0  0  0  0  0  0  0  0  0  0  0
    3.8960    1.9291   21.5050 C   0  0  0  0  0  0  0  0  0  0  0  0
   12.9132   -0.6032   23.2569 C   0  0  0  0  0  0  0  0  0  0  0  0
   10.9991   -1.4331   22.0443 C   0  0  0  0  0  0  0  0  0  0  0  0
    5.3278    1.2339   17.6066 C   0  0  0  0  0  0  0  0  0  0  0  0
    6.8438   -0.2892   18.3752 C   0  0  0  0  0  0  0  0  0  0  0  0
    4.8226    1.4906   18.9054 C   0  0  0  0  0  0  0  0  0  0  0  0
    5.3982    0.7733   19.9948 C   0  0  0  0  0  0  0  0  0  0  0  0
   10.7040   -0.0625   23.9898 C   0  0  0  0  0  0  0  0  0  0  0  0
   10.1406   -0.7765   22.9250 C   0  0  0  0  0  0  0  0  0  0  0  0
    4.8973    1.0233   21.2988 C   0  0  0  0  0  0  0  0  0  0  0  0
    6.4440   -0.1472   19.6979 C   0  0  0  0  0  0  0  0  0  0  0  0
   12.3683   -1.3298   22.2234 C   0  0  0  0  0  0  0  0  0  0  0  0
    9.9479    0.5589   24.9534 C   0  0  0  0  0  0  0  0  0  0  0  0
    8.0140   -2.1541   22.4331 C   0  0  0  0  0  0  0  0  0  0  0  0
    6.9866   -1.9366   21.3580 C   0  0  0  0  0  0  0  0  0  0  0  0
    8.2490    0.0169   21.4271 C   0  0  0  0  0  0  0  0  0  0  0  0
    7.8721   -0.1194   23.8831 C   0  0  0  0  0  0  0  0  0  0  0  0
    8.6238   -0.7606   22.6929 C   0  0  3  0  0  0  0  0  0  0  0  0
    5.4160    0.3280   22.5248 C   0  0  0  0  0  0  0  0  0  0  0  0
    6.3062    0.3769   17.3421 N   0  0  0  0  0  0  0  0  0  0  0  0
    7.2292   -0.6897   20.7790 N   0  0  1  0  0  0  0  0  0  0  0  0
    8.6609    1.0133   24.4995 O   0  0  0  0  0  0  0  0  0  0  0  0
   13.4281   -2.1416   21.1106 Cl  0  0  0  0  0  0  0  0  0  0  0  0
    2.5417    3.3496   20.6364 H   0  0  0  0  0  0  0  0  0  0  0  0
    3.3404    2.9742   18.3366 H   0  0  0  0  0  0  0  0  0  0  0  0
   12.5023    0.5920   24.9792 H   0  0  0  0  0  0  0  0  0  0  0  0
    3.5080    2.1238   22.5126 H   0  0  0  0  0  0  0  0  0  0  0  0
   13.9913   -0.5229   23.3835 H   0  0  0  0  0  0  0  0  0  0  0  0
   10.6164   -2.0197   21.2242 H   0  0  0  0  0  0  0  0  0  0  0  0
    4.9135    1.7509   16.7475 H   0  0  0  0  0  0  0  0  0  0  0  0
    7.6452   -0.9751   18.1031 H   0  0  0  0  0  0  0  0  0  0  0  0
    9.7467   -0.0960   25.8338 H   0  0  0  0  0  0  0  0  0  0  0  0
   10.4335    1.4728   25.3676 H   0  0  0  0  0  0  0  0  0  0  0  0
    7.5805   -2.6135   23.3326 H   0  0  0  0  0  0  0  0  0  0  0  0
    8.7865   -2.8429   22.0577 H   0  0  0  0  0  0  0  0  0  0  0  0
    7.0303   -2.7729   20.6127 H   0  0  0  0  0  0  0  0  0  0  0  0
    5.9526   -1.9841   21.7856 H   0  0  0  0  0  0  0  0  0  0  0  0
    7.9596    1.0713   21.6615 H   0  0  0  0  0  0  0  0  0  0  0  0
    9.1301    0.1020   20.7463 H   0  0  0  0  0  0  0  0  0  0  0  0
    6.9209    0.3308   23.5726 H   0  0  0  0  0  0  0  0  0  0  0  0
    7.6403   -0.8364   24.6831 H   0  0  0  0  0  0  0  0  0  0  0  0
    4.8444   -0.5876   22.7075 H   0  0  0  0  0  0  0  0  0  0  0  0
    6.4752    0.0682   22.4211 H   0  0  0  0  0  0  0  0  0  0  0  0
    5.3279    0.9801   23.4008 H   0  0  0  0  0  0  0  0  0  0  0  0
  1  2  1  0  0  0  0
  1  4  2  0  0  0  0
  2  9  2  0  0  0  0
  3  5  1  0  0  0  0
  3 11  2  0  0  0  0
  4 13  1  0  0  0  0
  5 15  2  0  0  0  0
  6 12  2  0  0  0  0
  6 15  1  0  0  0  0
  7  9  1  0  0  0  0
  7 23  2  0  0  0  0
  8 14  2  0  0  0  0
  8 23  1  0  0  0  0
  9 10  1  0  0  0  0
 10 13  2  0  0  0  0
 10 14  1  0  0  0  0
 11 12  1  0  0  0  0
 11 16  1  0  0  0  0
 12 21  1  0  0  0  0
 13 22  1  0  0  0  0
 14 24  1  6  0  0  0
 15 26  1  0  0  0  0
 16 25  1  0  0  0  0
 17 18  1  0  0  0  0
 17 21  1  0  0  0  0
 18 24  1  0  0  0  0
 19 21  1  0  0  0  0
 19 24  1  0  0  0  0
 20 21  1  0  0  0  0
 20 25  1  0  0  0  0
  1 27  1  0  0  0  0
  2 28  1  0  0  0  0
  3 29  1  0  0  0  0
  4 30  1  0  0  0  0
  5 31  1  0  0  0  0
  6 32  1  0  0  0  0
  7 33  1  0  0  0  0
  8 34  1  0  0  0  0
 16 35  1  0  0  0  0
 16 36  1  0  0  0  0
 17 37  1  0  0  0  0
 17 38  1  0  0  0  0
 18 39  1  0  0  0  0
 18 40  1  0  0  0  0
 19 41  1  0  0  0  0
 19 42  1  0  0  0  0
 20 43  1  0  0  0  0
 20 44  1  0  0  0  0
 22 45  1  0  0  0  0
 22 46  1  0  0  0  0
 22 47  1  0  0  0  0
M  END
> <compound>
EDJ-MED-f3cfbbb5-1

> <compound_smiles>
Cc1cccc2c1c(cnc2)N3CCC4(C3)COCc5c4cc(cc5)Cl

> <enantiomer_smiles>
Cc1cccc2c1c(cnc2)[N@]3CCC4(C3)COCc5c4cc(cc5)Cl

> <scaffold>
tetralinlike-5spiro-isoquinoline

> <clash_score>
0

> <docking_score>
-9.634551048278809

> <overlap_score>
0.9570971727371216

> <MMFF_internal_energy>
256.42964785240525

> <docked_smiles>
Cc1cccc2c1c(cnc2)N3CC[C@@]4(C3)COCc5c4cc(cc5)Cl

$$$$
BRU-THA-73c97d88-1_1
  -OEChem-12272114573D

 40 44  0     1  0  0  0  0  0999 V2000
    3.3432    2.6279   20.4411 C   0  0  0  0  0  0  0  0  0  0  0  0
    3.8960    1.9291   21.5050 C   0  0  0  0  0  0  0  0  0  0  0  0
    3.7865    2.4205   19.1660 C   0  0  0  0  0  0  0  0  0  0  0  0
    4.8973    1.0233   21.2988 C   0  0  0  0  0  0  0  0  0  0  0  0
   12.0765    0.0316   24.1541 C   0  0  0  0  0  0  0  0  0  0  0  0
   12.9132   -0.6032   23.2569 C   0  0  0  0  0  0  0  0  0  0  0  0
   10.9991   -1.4331   22.0443 C   0  0  0  0  0  0  0  0  0  0  0  0
    5.3278    1.2339   17.6066 C   0  0  0  0  0  0  0  0  0  0  0  0
    6.8438   -0.2892   18.3752 C   0  0  0  0  0  0  0  0  0  0  0  0
    4.8226    1.4906   18.9054 C   0  0  0  0  0  0  0  0  0  0  0  0
    5.3982    0.7733   19.9948 C   0  0  0  0  0  0  0  0  0  0  0  0
   10.1406   -0.7765   22.9250 C   0  0  0  0  0  0  0  0  0  0  0  0
    6.4440   -0.1472   19.6979 C   0  0  0  0  0  0  0  0  0  0  0  0
   10.7040   -0.0625   23.9898 C   0  0  0  0  0  0  0  0  0  0  0  0
   12.3683   -1.3298   22.2234 C   0  0  0  0  0  0  0  0  0  0  0  0
    8.0140   -2.1541   22.4331 C   0  0  0  0  0  0  0  0  0  0  0  0
    8.2490    0.0169   21.4271 C   0  0  0  0  0  0  0  0  0  0  0  0
    7.8721   -0.1194   23.8831 C   0  0  0  0  0  0  0  0  0  0  0  0
    8.6609    1.0133   24.4995 C   0  0  0  0  0  0  0  0  0  0  0  0
    8.6238   -0.7606   22.6929 C   0  0  3  0  0  0  0  0  0  0  0  0
    6.3062    0.3769   17.3421 N   0  0  0  0  0  0  0  0  0  0  0  0
    6.9866   -1.9366   21.3580 N   0  0  0  0  0  0  0  0  0  0  0  0
    7.2292   -0.6897   20.7790 N   0  0  0  0  0  0  0  0  0  0  0  0
    8.7997    1.0782   21.0962 O   0  0  0  0  0  0  0  0  0  0  0  0
    9.9479    0.5589   24.9534 O   0  0  0  0  0  0  0  0  0  0  0  0
   13.4268   -2.1474   21.1128 Cl  0  0  0  0  0  0  0  0  0  0  0  0
    2.5432    3.3510   20.6369 H   0  0  0  0  0  0  0  0  0  0  0  0
    3.5174    2.1137   22.5168 H   0  0  0  0  0  0  0  0  0  0  0  0
    3.3409    2.9743   18.3364 H   0  0  0  0  0  0  0  0  0  0  0  0
    5.3118    0.4895   22.1572 H   0  0  0  0  0  0  0  0  0  0  0  0
   12.5000    0.6059   24.9730 H   0  0  0  0  0  0  0  0  0  0  0  0
   13.9910   -0.5156   23.3783 H   0  0  0  0  0  0  0  0  0  0  0  0
   10.6019   -2.0234   21.2291 H   0  0  0  0  0  0  0  0  0  0  0  0
    4.9141    1.7511   16.7474 H   0  0  0  0  0  0  0  0  0  0  0  0
    7.6445   -0.9764   18.1043 H   0  0  0  0  0  0  0  0  0  0  0  0
    8.2030   -3.0291   22.8512 H   0  0  0  0  0  0  0  0  0  0  0  0
    7.6939   -0.8881   24.6558 H   0  0  0  0  0  0  0  0  0  0  0  0
    6.8765    0.2368   23.5689 H   0  0  0  0  0  0  0  0  0  0  0  0
    8.8010    1.8504   23.8092 H   0  0  0  0  0  0  0  0  0  0  0  0
    8.1327    1.3979   25.3756 H   0  0  0  0  0  0  0  0  0  0  0  0
  1  2  1  0  0  0  0
  1  3  2  0  0  0  0
  2  4  2  0  0  0  0
  3 10  1  0  0  0  0
  4 11  1  0  0  0  0
  5  6  1  0  0  0  0
  5 14  2  0  0  0  0
  6 15  2  0  0  0  0
  7 12  2  0  0  0  0
  7 15  1  0  0  0  0
  8 10  2  0  0  0  0
  8 21  1  0  0  0  0
  9 13  1  0  0  0  0
  9 21  2  0  0  0  0
 10 11  1  0  0  0  0
 11 13  2  0  0  0  0
 12 14  1  0  0  0  0
 12 20  1  0  0  0  0
 13 23  1  0  0  0  0
 14 25  1  0  0  0  0
 15 26  1  0  0  0  0
 16 20  1  0  0  0  0
 16 22  2  0  0  0  0
 17 20  1  0  0  0  0
 17 23  1  0  0  0  0
 17 24  2  0  0  0  0
 18 19  1  0  0  0  0
 18 20  1  0  0  0  0
 19 25  1  0  0  0  0
 22 23  1  0  0  0  0
  1 27  1  0  0  0  0
  2 28  1  0  0  0  0
  3 29  1  0  0  0  0
  4 30  1  0  0  0  0
  5 31  1  0  0  0  0
  6 32  1  0  0  0  0
  7 33  1  0  0  0  0
  8 34  1  0  0  0  0
  9 35  1  0  0  0  0
 16 36  1  0  0  0  0
 18 37  1  0  0  0  0
 18 38  1  0  0  0  0
 19 39  1  0  0  0  0
 19 40  1  0  0  0  0
M  END
> <compound>
BRU-THA-73c97d88-1

> <compound_smiles>
c1ccc2c(c1)cncc2N3C(=O)C4(CCOc5c4cc(cc5)Cl)C=N3

> <enantiomer_smiles>
c1ccc2c(c1)cncc2N3C(=O)C4(CCOc5c4cc(cc5)Cl)C=N3

> <scaffold>
chromane-5spiro-isoquinoline

> <clash_score>
0

> <docking_score>
-9.836716651916504

> <overlap_score>
0.9737485647201538

> <MMFF_internal_energy>
159.6058053224369

> <docked_smiles>
c1ccc2c(c1)cncc2N3C(=O)[C@@]4(CCOc5c4cc(cc5)Cl)C=N3

$$$$
EDJ-MED-e78d5f1a-1_2
  -OEChem-12272114573D

 44 48  0     1  0  0  0  0  0999 V2000
    3.3432    2.6279   20.4411 C   0  0  0  0  0  0  0  0  0  0  0  0
    3.7865    2.4205   19.1660 C   0  0  0  0  0  0  0  0  0  0  0  0
   12.0765    0.0316   24.1541 C   0  0  0  0  0  0  0  0  0  0  0  0
    3.8960    1.9291   21.5050 C   0  0  0  0  0  0  0  0  0  0  0  0
   12.9132   -0.6032   23.2569 C   0  0  0  0  0  0  0  0  0  0  0  0
   10.9991   -1.4331   22.0443 C   0  0  0  0  0  0  0  0  0  0  0  0
    5.3278    1.2339   17.6066 C   0  0  0  0  0  0  0  0  0  0  0  0
    6.8438   -0.2892   18.3752 C   0  0  0  0  0  0  0  0  0  0  0  0
    4.8226    1.4906   18.9054 C   0  0  0  0  0  0  0  0  0  0  0  0
    5.3982    0.7733   19.9948 C   0  0  0  0  0  0  0  0  0  0  0  0
   10.1406   -0.7765   22.9250 C   0  0  0  0  0  0  0  0  0  0  0  0
    6.4440   -0.1472   19.6979 C   0  0  0  0  0  0  0  0  0  0  0  0
   10.7040   -0.0625   23.9898 C   0  0  0  0  0  0  0  0  0  0  0  0
   12.3683   -1.3298   22.2234 C   0  0  0  0  0  0  0  0  0  0  0  0
    4.8973    1.0233   21.2988 C   0  0  0  0  0  0  0  0  0  0  0  0
    8.0140   -2.1541   22.4331 C   0  0  0  0  0  0  0  0  0  0  0  0
    7.8721   -0.1194   23.8831 C   0  0  0  0  0  0  0  0  0  0  0  0
    6.9866   -1.9366   21.3580 C   0  0  0  0  0  0  0  0  0  0  0  0
    8.2490    0.0169   21.4271 C   0  0  0  0  0  0  0  0  0  0  0  0
    8.6609    1.0133   24.4995 C   0  0  0  0  0  0  0  0  0  0  0  0
    8.6238   -0.7606   22.6929 C   0  0  3  0  0  0  0  0  0  0  0  0
    6.3062    0.3769   17.3421 N   0  0  0  0  0  0  0  0  0  0  0  0
    7.2292   -0.6897   20.7790 N   0  0  1  0  0  0  0  0  0  0  0  0
    9.9479    0.5589   24.9534 O   0  0  0  0  0  0  0  0  0  0  0  0
   13.4289   -2.1391   21.1090 Cl  0  0  0  0  0  0  0  0  0  0  0  0
    5.4607    0.2476   22.7536 Cl  0  0  0  0  0  0  0  0  0  0  0  0
    2.5421    3.3502   20.6366 H   0  0  0  0  0  0  0  0  0  0  0  0
    3.3409    2.9736   18.3360 H   0  0  0  0  0  0  0  0  0  0  0  0
   12.5016    0.5964   24.9773 H   0  0  0  0  0  0  0  0  0  0  0  0
    3.4993    2.1323   22.5080 H   0  0  0  0  0  0  0  0  0  0  0  0
   13.9917   -0.5169   23.3795 H   0  0  0  0  0  0  0  0  0  0  0  0
   10.6184   -2.0172   21.2233 H   0  0  0  0  0  0  0  0  0  0  0  0
    4.9142    1.7512   16.7476 H   0  0  0  0  0  0  0  0  0  0  0  0
    7.6454   -0.9743   18.1013 H   0  0  0  0  0  0  0  0  0  0  0  0
    7.5122   -2.5241   23.3393 H   0  0  0  0  0  0  0  0  0  0  0  0
    8.7590   -2.9064   22.1421 H   0  0  0  0  0  0  0  0  0  0  0  0
    7.6392   -0.8782   24.6507 H   0  0  0  0  0  0  0  0  0  0  0  0
    6.8990    0.2679   23.5277 H   0  0  0  0  0  0  0  0  0  0  0  0
    7.0396   -2.7509   20.5913 H   0  0  0  0  0  0  0  0  0  0  0  0
    5.9566   -2.0156   21.7931 H   0  0  0  0  0  0  0  0  0  0  0  0
    7.8805    1.0371   21.6910 H   0  0  0  0  0  0  0  0  0  0  0  0
    9.1366    0.1876   20.7695 H   0  0  0  0  0  0  0  0  0  0  0  0
    8.8457    1.7853   23.7513 H   0  0  0  0  0  0  0  0  0  0  0  0
    8.1398    1.4823   25.3357 H   0  0  0  0  0  0  0  0  0  0  0  0
  1  2  1  0  0  0  0
  1  4  2  0  0  0  0
  2  9  2  0  0  0  0
  3  5  1  0  0  0  0
  3 13  2  0  0  0  0
  4 15  1  0  0  0  0
  5 14  2  0  0  0  0
  6 11  2  0  0  0  0
  6 14  1  0  0  0  0
  7  9  1  0  0  0  0
  7 22  2  0  0  0  0
  8 12  2  0  0  0  0
  8 22  1  0  0  0  0
  9 10  1  0  0  0  0
 10 12  1  0  0  0  0
 10 15  2  0  0  0  0
 11 13  1  0  0  0  0
 11 21  1  0  0  0  0
 12 23  1  6  0  0  0
 13 24  1  0  0  0  0
 14 25  1  0  0  0  0
 15 26  1  0  0  0  0
 16 18  1  0  0  0  0
 16 21  1  0  0  0  0
 17 20  1  0  0  0  0
 17 21  1  0  0  0  0
 18 23  1  0  0  0  0
 19 21  1  0  0  0  0
 19 23  1  0  0  0  0
 20 24  1  0  0  0  0
  1 27  1  0  0  0  0
  2 28  1  0  0  0  0
  3 29  1  0  0  0  0
  4 30  1  0  0  0  0
  5 31  1  0  0  0  0
  6 32  1  0  0  0  0
  7 33  1  0  0  0  0
  8 34  1  0  0  0  0
 16 35  1  0  0  0  0
 16 36  1  0  0  0  0
 17 37  1  0  0  0  0
 17 38  1  0  0  0  0
 18 39  1  0  0  0  0
 18 40  1  0  0  0  0
 19 41  1  0  0  0  0
 19 42  1  0  0  0  0
 20 43  1  0  0  0  0
 20 44  1  0  0  0  0
M  END
> <compound>
EDJ-MED-e78d5f1a-1

> <compound_smiles>
c1cc2cncc(c2c(c1)Cl)N3CCC4(C3)CCOc5c4cc(cc5)Cl

> <enantiomer_smiles>
c1cc2cncc(c2c(c1)Cl)[N@]3CCC4(C3)CCOc5c4cc(cc5)Cl

> <scaffold>
chromane-5spiro-isoquinoline

> <clash_score>
0

> <docking_score>
-9.336953163146973

> <overlap_score>
0.9546887874603271

> <MMFF_internal_energy>
218.6599421857103

> <docked_smiles>
c1cc2cncc(c2c(c1)Cl)N3CC[C@@]4(C3)CCOc5c4cc(cc5)Cl

$$$$
EDJ-MED-e78d5f1a-1_1
  -OEChem-12272114573D

 44 48  0     1  0  0  0  0  0999 V2000
    3.3432    2.6279   20.4411 C   0  0  0  0  0  0  0  0  0  0  0  0
    3.7865    2.4205   19.1660 C   0  0  0  0  0  0  0  0  0  0  0  0
   12.0765    0.0316   24.1541 C   0  0  0  0  0  0  0  0  0  0  0  0
    3.8960    1.9291   21.5050 C   0  0  0  0  0  0  0  0  0  0  0  0
   12.9132   -0.6032   23.2569 C   0  0  0  0  0  0  0  0  0  0  0  0
   10.9991   -1.4331   22.0443 C   0  0  0  0  0  0  0  0  0  0  0  0
    5.3278    1.2339   17.6066 C   0  0  0  0  0  0  0  0  0  0  0  0
    6.8438   -0.2892   18.3752 C   0  0  0  0  0  0  0  0  0  0  0  0
    4.8226    1.4906   18.9054 C   0  0  0  0  0  0  0  0  0  0  0  0
    5.3982    0.7733   19.9948 C   0  0  0  0  0  0  0  0  0  0  0  0
   10.1406   -0.7765   22.9250 C   0  0  0  0  0  0  0  0  0  0  0  0
    6.4440   -0.1472   19.6979 C   0  0  0  0  0  0  0  0  0  0  0  0
   10.7040   -0.0625   23.9898 C   0  0  0  0  0  0  0  0  0  0  0  0
   12.3683   -1.3298   22.2234 C   0  0  0  0  0  0  0  0  0  0  0  0
    4.8973    1.0233   21.2988 C   0  0  0  0  0  0  0  0  0  0  0  0
    8.0140   -2.1541   22.4331 C   0  0  0  0  0  0  0  0  0  0  0  0
    7.8721   -0.1194   23.8831 C   0  0  0  0  0  0  0  0  0  0  0  0
    6.9866   -1.9366   21.3580 C   0  0  0  0  0  0  0  0  0  0  0  0
    8.2490    0.0169   21.4271 C   0  0  0  0  0  0  0  0  0  0  0  0
    8.6609    1.0133   24.4995 C   0  0  0  0  0  0  0  0  0  0  0  0
    8.6238   -0.7606   22.6929 C   0  0  3  0  0  0  0  0  0  0  0  0
    6.3062    0.3769   17.3421 N   0  0  0  0  0  0  0  0  0  0  0  0
    7.2292   -0.6897   20.7790 N   0  0  2  0  0  0  0  0  0  0  0  0
    9.9479    0.5589   24.9534 O   0  0  0  0  0  0  0  0  0  0  0  0
   13.4290   -2.1390   21.1091 Cl  0  0  0  0  0  0  0  0  0  0  0  0
    5.4607    0.2476   22.7536 Cl  0  0  0  0  0  0  0  0  0  0  0  0
    2.5421    3.3502   20.6366 H   0  0  0  0  0  0  0  0  0  0  0  0
    3.3409    2.9736   18.3360 H   0  0  0  0  0  0  0  0  0  0  0  0
   12.5016    0.5957   24.9778 H   0  0  0  0  0  0  0  0  0  0  0  0
    3.4993    2.1323   22.5080 H   0  0  0  0  0  0  0  0  0  0  0  0
   13.9917   -0.5169   23.3795 H   0  0  0  0  0  0  0  0  0  0  0  0
   10.6184   -2.0173   21.2233 H   0  0  0  0  0  0  0  0  0  0  0  0
    4.9142    1.7512   16.7476 H   0  0  0  0  0  0  0  0  0  0  0  0
    7.6454   -0.9743   18.1013 H   0  0  0  0  0  0  0  0  0  0  0  0
    7.5127   -2.5249   23.3391 H   0  0  0  0  0  0  0  0  0  0  0  0
    8.7591   -2.9059   22.1411 H   0  0  0  0  0  0  0  0  0  0  0  0
    7.6397   -0.8783   24.6509 H   0  0  0  0  0  0  0  0  0  0  0  0
    6.8985    0.2675   23.5282 H   0  0  0  0  0  0  0  0  0  0  0  0
    7.0400   -2.7509   20.5913 H   0  0  0  0  0  0  0  0  0  0  0  0
    5.9566   -2.0159   21.7928 H   0  0  0  0  0  0  0  0  0  0  0  0
    7.8809    1.0374   21.6903 H   0  0  0  0  0  0  0  0  0  0  0  0
    9.1367    0.1868   20.7694 H   0  0  0  0  0  0  0  0  0  0  0  0
    8.8459    1.7850   23.7508 H   0  0  0  0  0  0  0  0  0  0  0  0
    8.1397    1.4832   25.3352 H   0  0  0  0  0  0  0  0  0  0  0  0
  1  2  1  0  0  0  0
  1  4  2  0  0  0  0
  2  9  2  0  0  0  0
  3  5  1  0  0  0  0
  3 13  2  0  0  0  0
  4 15  1  0  0  0  0
  5 14  2  0  0  0  0
  6 11  2  0  0  0  0
  6 14  1  0  0  0  0
  7  9  1  0  0  0  0
  7 22  2  0  0  0  0
  8 12  2  0  0  0  0
  8 22  1  0  0  0  0
  9 10  1  0  0  0  0
 10 12  1  0  0  0  0
 10 15  2  0  0  0  0
 11 13  1  0  0  0  0
 11 21  1  0  0  0  0
 12 23  1  1  0  0  0
 13 24  1  0  0  0  0
 14 25  1  0  0  0  0
 15 26  1  0  0  0  0
 16 18  1  0  0  0  0
 16 21  1  0  0  0  0
 17 20  1  0  0  0  0
 17 21  1  0  0  0  0
 18 23  1  0  0  0  0
 19 21  1  0  0  0  0
 19 23  1  0  0  0  0
 20 24  1  0  0  0  0
  1 27  1  0  0  0  0
  2 28  1  0  0  0  0
  3 29  1  0  0  0  0
  4 30  1  0  0  0  0
  5 31  1  0  0  0  0
  6 32  1  0  0  0  0
  7 33  1  0  0  0  0
  8 34  1  0  0  0  0
 16 35  1  0  0  0  0
 16 36  1  0  0  0  0
 17 37  1  0  0  0  0
 17 38  1  0  0  0  0
 18 39  1  0  0  0  0
 18 40  1  0  0  0  0
 19 41  1  0  0  0  0
 19 42  1  0  0  0  0
 20 43  1  0  0  0  0
 20 44  1  0  0  0  0
M  END
> <compound>
EDJ-MED-e78d5f1a-1

> <compound_smiles>
c1cc2cncc(c2c(c1)Cl)N3CCC4(C3)CCOc5c4cc(cc5)Cl

> <enantiomer_smiles>
c1cc2cncc(c2c(c1)Cl)[N@@]3CCC4(C3)CCOc5c4cc(cc5)Cl

> <scaffold>
chromane-5spiro-isoquinoline

> <clash_score>
0

> <docking_score>
-9.336977005004883

> <overlap_score>
0.9546890258789062

> <MMFF_internal_energy>
218.6678613545575

> <docked_smiles>
c1cc2cncc(c2c(c1)Cl)N3CC[C@@]4(C3)CCOc5c4cc(cc5)Cl

$$$$
EDJ-MED-a6bab6fb-1_1
  -OEChem-12272114573D

 47 51  0     1  0  0  0  0  0999 V2000
    3.3432    2.6279   20.4411 C   0  0  0  0  0  0  0  0  0  0  0  0
    3.7865    2.4205   19.1660 C   0  0  0  0  0  0  0  0  0  0  0  0
    3.8960    1.9291   21.5050 C   0  0  0  0  0  0  0  0  0  0  0  0
   12.0765    0.0316   24.1541 C   0  0  0  0  0  0  0  0  0  0  0  0
   12.9132   -0.6032   23.2569 C   0  0  0  0  0  0  0  0  0  0  0  0
   10.9991   -1.4331   22.0443 C   0  0  0  0  0  0  0  0  0  0  0  0
    5.3278    1.2339   17.6066 C   0  0  0  0  0  0  0  0  0  0  0  0
    6.8438   -0.2892   18.3752 C   0  0  0  0  0  0  0  0  0  0  0  0
    4.8226    1.4906   18.9054 C   0  0  0  0  0  0  0  0  0  0  0  0
    5.3982    0.7733   19.9948 C   0  0  0  0  0  0  0  0  0  0  0  0
   10.1406   -0.7765   22.9250 C   0  0  0  0  0  0  0  0  0  0  0  0
    4.8973    1.0233   21.2988 C   0  0  0  0  0  0  0  0  0  0  0  0
    6.4440   -0.1472   19.6979 C   0  0  0  0  0  0  0  0  0  0  0  0
   10.7040   -0.0625   23.9898 C   0  0  0  0  0  0  0  0  0  0  0  0
   12.3683   -1.3298   22.2234 C   0  0  0  0  0  0  0  0  0  0  0  0
    8.0140   -2.1541   22.4331 C   0  0  0  0  0  0  0  0  0  0  0  0
    7.8721   -0.1194   23.8831 C   0  0  0  0  0  0  0  0  0  0  0  0
    6.9866   -1.9366   21.3580 C   0  0  0  0  0  0  0  0  0  0  0  0
    8.2490    0.0169   21.4271 C   0  0  0  0  0  0  0  0  0  0  0  0
    8.6609    1.0133   24.4995 C   0  0  0  0  0  0  0  0  0  0  0  0
    8.6238   -0.7606   22.6929 C   0  0  3  0  0  0  0  0  0  0  0  0
    5.4160    0.3280   22.5248 C   0  0  0  0  0  0  0  0  0  0  0  0
    6.3062    0.3769   17.3421 N   0  0  0  0  0  0  0  0  0  0  0  0
    7.2292   -0.6897   20.7790 N   0  0  2  0  0  0  0  0  0  0  0  0
    9.9479    0.5589   24.9534 O   0  0  0  0  0  0  0  0  0  0  0  0
   13.4290   -2.1390   21.1091 Cl  0  0  0  0  0  0  0  0  0  0  0  0
    2.5417    3.3496   20.6364 H   0  0  0  0  0  0  0  0  0  0  0  0
    3.3404    2.9742   18.3366 H   0  0  0  0  0  0  0  0  0  0  0  0
    3.5080    2.1238   22.5126 H   0  0  0  0  0  0  0  0  0  0  0  0
   12.5016    0.5957   24.9778 H   0  0  0  0  0  0  0  0  0  0  0  0
   13.9917   -0.5169   23.3795 H   0  0  0  0  0  0  0  0  0  0  0  0
   10.6184   -2.0173   21.2233 H   0  0  0  0  0  0  0  0  0  0  0  0
    4.9135    1.7509   16.7475 H   0  0  0  0  0  0  0  0  0  0  0  0
    7.6452   -0.9751   18.1031 H   0  0  0  0  0  0  0  0  0  0  0  0
    7.5127   -2.5249   23.3391 H   0  0  0  0  0  0  0  0  0  0  0  0
    8.7591   -2.9059   22.1411 H   0  0  0  0  0  0  0  0  0  0  0  0
    7.6397   -0.8783   24.6509 H   0  0  0  0  0  0  0  0  0  0  0  0
    6.8985    0.2675   23.5282 H   0  0  0  0  0  0  0  0  0  0  0  0
    7.0400   -2.7509   20.5913 H   0  0  0  0  0  0  0  0  0  0  0  0
    5.9566   -2.0159   21.7928 H   0  0  0  0  0  0  0  0  0  0  0  0
    7.8809    1.0374   21.6903 H   0  0  0  0  0  0  0  0  0  0  0  0
    9.1367    0.1868   20.7694 H   0  0  0  0  0  0  0  0  0  0  0  0
    8.8459    1.7850   23.7508 H   0  0  0  0  0  0  0  0  0  0  0  0
    8.1397    1.4832   25.3352 H   0  0  0  0  0  0  0  0  0  0  0  0
    4.8444   -0.5876   22.7075 H   0  0  0  0  0  0  0  0  0  0  0  0
    6.4752    0.0682   22.4211 H   0  0  0  0  0  0  0  0  0  0  0  0
    5.3279    0.9801   23.4008 H   0  0  0  0  0  0  0  0  0  0  0  0
  1  2  1  0  0  0  0
  1  3  2  0  0  0  0
  2  9  2  0  0  0  0
  3 12  1  0  0  0  0
  4  5  1  0  0  0  0
  4 14  2  0  0  0  0
  5 15  2  0  0  0  0
  6 11  2  0  0  0  0
  6 15  1  0  0  0  0
  7  9  1  0  0  0  0
  7 23  2  0  0  0  0
  8 13  2  0  0  0  0
  8 23  1  0  0  0  0
  9 10  1  0  0  0  0
 10 12  2  0  0  0  0
 10 13  1  0  0  0  0
 11 14  1  0  0  0  0
 11 21  1  0  0  0  0
 12 22  1  0  0  0  0
 13 24  1  1  0  0  0
 14 25  1  0  0  0  0
 15 26  1  0  0  0  0
 16 18  1  0  0  0  0
 16 21  1  0  0  0  0
 17 20  1  0  0  0  0
 17 21  1  0  0  0  0
 18 24  1  0  0  0  0
 19 21  1  0  0  0  0
 19 24  1  0  0  0  0
 20 25  1  0  0  0  0
  1 27  1  0  0  0  0
  2 28  1  0  0  0  0
  3 29  1  0  0  0  0
  4 30  1  0  0  0  0
  5 31  1  0  0  0  0
  6 32  1  0  0  0  0
  7 33  1  0  0  0  0
  8 34  1  0  0  0  0
 16 35  1  0  0  0  0
 16 36  1  0  0  0  0
 17 37  1  0  0  0  0
 17 38  1  0  0  0  0
 18 39  1  0  0  0  0
 18 40  1  0  0  0  0
 19 41  1  0  0  0  0
 19 42  1  0  0  0  0
 20 43  1  0  0  0  0
 20 44  1  0  0  0  0
 22 45  1  0  0  0  0
 22 46  1  0  0  0  0
 22 47  1  0  0  0  0
M  END
> <compound>
EDJ-MED-a6bab6fb-1

> <compound_smiles>
Cc1cccc2c1c(cnc2)N3CCC4(C3)CCOc5c4cc(cc5)Cl

> <enantiomer_smiles>
Cc1cccc2c1c(cnc2)[N@@]3CCC4(C3)CCOc5c4cc(cc5)Cl

> <scaffold>
chromane-5spiro-isoquinoline

> <clash_score>
0

> <docking_score>
-9.35275650024414

> <overlap_score>
0.9570959210395813

> <MMFF_internal_energy>
238.13466230145022

> <docked_smiles>
Cc1cccc2c1c(cnc2)N3CC[C@@]4(C3)CCOc5c4cc(cc5)Cl

$$$$
VLA-UCB-05e51b3f-5_1
  -OEChem-12272114573D

 42 46  0     1  0  0  0  0  0999 V2000
    3.3432    2.6279   20.4411 C   0  0  0  0  0  0  0  0  0  0  0  0
    3.8960    1.9291   21.5050 C   0  0  0  0  0  0  0  0  0  0  0  0
    3.7865    2.4205   19.1660 C   0  0  0  0  0  0  0  0  0  0  0  0
    4.8973    1.0233   21.2988 C   0  0  0  0  0  0  0  0  0  0  0  0
   12.0765    0.0316   24.1541 C   0  0  0  0  0  0  0  0  0  0  0  0
   12.9132   -0.6032   23.2569 C   0  0  0  0  0  0  0  0  0  0  0  0
   10.9991   -1.4331   22.0443 C   0  0  0  0  0  0  0  0  0  0  0  0
    5.3278    1.2339   17.6066 C   0  0  0  0  0  0  0  0  0  0  0  0
    6.8438   -0.2892   18.3752 C   0  0  0  0  0  0  0  0  0  0  0  0
    4.8226    1.4906   18.9054 C   0  0  0  0  0  0  0  0  0  0  0  0
    5.3982    0.7733   19.9948 C   0  0  0  0  0  0  0  0  0  0  0  0
   10.1406   -0.7765   22.9250 C   0  0  0  0  0  0  0  0  0  0  0  0
    6.4440   -0.1472   19.6979 C   0  0  0  0  0  0  0  0  0  0  0  0
   10.7040   -0.0625   23.9898 C   0  0  0  0  0  0  0  0  0  0  0  0
   12.3683   -1.3298   22.2234 C   0  0  0  0  0  0  0  0  0  0  0  0
    6.9866   -1.9366   21.3580 C   0  0  0  0  0  0  0  0  0  0  0  0
    8.2490    0.0169   21.4271 C   0  0  0  0  0  0  0  0  0  0  0  0
    8.0140   -2.1541   22.4331 C   0  0  0  0  0  0  0  0  0  0  0  0
    7.8721   -0.1194   23.8831 C   0  0  0  0  0  0  0  0  0  0  0  0
    8.6609    1.0133   24.4995 C   0  0  0  0  0  0  0  0  0  0  0  0
    8.6238   -0.7606   22.6929 C   0  0  2  0  0  0  0  0  0  0  0  0
    6.3062    0.3769   17.3421 N   0  0  0  0  0  0  0  0  0  0  0  0
    7.2292   -0.6897   20.7790 N   0  0  0  0  0  0  0  0  0  0  0  0
    6.1223   -2.7622   21.1002 O   0  0  0  0  0  0  0  0  0  0  0  0
    8.7751    1.0706   21.1053 O   0  0  0  0  0  0  0  0  0  0  0  0
    9.9479    0.5589   24.9534 O   0  0  0  0  0  0  0  0  0  0  0  0
   13.4274   -2.1403   21.1083 Cl  0  0  0  0  0  0  0  0  0  0  0  0
    2.5432    3.3510   20.6369 H   0  0  0  0  0  0  0  0  0  0  0  0
    3.5174    2.1137   22.5168 H   0  0  0  0  0  0  0  0  0  0  0  0
    3.3409    2.9743   18.3364 H   0  0  0  0  0  0  0  0  0  0  0  0
    5.3118    0.4895   22.1572 H   0  0  0  0  0  0  0  0  0  0  0  0
   12.5001    0.5858   24.9864 H   0  0  0  0  0  0  0  0  0  0  0  0
   13.9913   -0.5277   23.3867 H   0  0  0  0  0  0  0  0  0  0  0  0
   10.6061   -2.0241   21.2299 H   0  0  0  0  0  0  0  0  0  0  0  0
    4.9141    1.7511   16.7474 H   0  0  0  0  0  0  0  0  0  0  0  0
    7.6445   -0.9764   18.1043 H   0  0  0  0  0  0  0  0  0  0  0  0
    7.4954   -2.5837   23.2989 H   0  0  0  0  0  0  0  0  0  0  0  0
    8.7593   -2.8862   22.0968 H   0  0  0  0  0  0  0  0  0  0  0  0
    7.6296   -0.8689   24.6555 H   0  0  0  0  0  0  0  0  0  0  0  0
    6.9098    0.2904   23.5284 H   0  0  0  0  0  0  0  0  0  0  0  0
    8.8464    1.7877   23.7476 H   0  0  0  0  0  0  0  0  0  0  0  0
    8.1347    1.4935   25.3328 H   0  0  0  0  0  0  0  0  0  0  0  0
  1  2  1  0  0  0  0
  1  3  2  0  0  0  0
  2  4  2  0  0  0  0
  3 10  1  0  0  0  0
  4 11  1  0  0  0  0
  5  6  1  0  0  0  0
  5 14  2  0  0  0  0
  6 15  2  0  0  0  0
  7 12  2  0  0  0  0
  7 15  1  0  0  0  0
  8 10  2  0  0  0  0
  8 22  1  0  0  0  0
  9 13  1  0  0  0  0
  9 22  2  0  0  0  0
 10 11  1  0  0  0  0
 11 13  2  0  0  0  0
 12 14  1  0  0  0  0
 12 21  1  1  0  0  0
 13 23  1  0  0  0  0
 14 26  1  0  0  0  0
 15 27  1  0  0  0  0
 16 18  1  0  0  0  0
 16 23  1  0  0  0  0
 16 24  2  0  0  0  0
 17 21  1  6  0  0  0
 17 23  1  0  0  0  0
 17 25  2  0  0  0  0
 18 21  1  6  0  0  0
 19 20  1  0  0  0  0
 19 21  1  1  0  0  0
 20 26  1  0  0  0  0
  1 28  1  0  0  0  0
  2 29  1  0  0  0  0
  3 30  1  0  0  0  0
  4 31  1  0  0  0  0
  5 32  1  0  0  0  0
  6 33  1  0  0  0  0
  7 34  1  0  0  0  0
  8 35  1  0  0  0  0
  9 36  1  0  0  0  0
 18 37  1  0  0  0  0
 18 38  1  0  0  0  0
 19 39  1  0  0  0  0
 19 40  1  0  0  0  0
 20 41  1  0  0  0  0
 20 42  1  0  0  0  0
M  END
> <compound>
VLA-UCB-05e51b3f-5

> <compound_smiles>
c1ccc2c(c1)cncc2N3C(=O)C[C@]4(C3=O)CCOc5c4cc(cc5)Cl

> <enantiomer_smiles>
c1ccc2c(c1)cncc2N3C(=O)C[C@]4(C3=O)CCOc5c4cc(cc5)Cl

> <scaffold>
chromane-5spiro-isoquinoline

> <clash_score>
0

> <docking_score>
-9.898781776428223

> <overlap_score>
1.0

> <MMFF_internal_energy>
77.28663003896249

> <docked_smiles>
c1ccc2c(c1)cncc2N3C(=O)C[C@@]4(C3=O)CCOc5c4cc(cc5)Cl

$$$$
VLA-UCB-50c39ae8-2_1
  -OEChem-12272114573D

 42 46  0     1  0  0  0  0  0999 V2000
    3.3432    2.6279   20.4411 C   0  0  0  0  0  0  0  0  0  0  0  0
    3.8960    1.9291   21.5050 C   0  0  0  0  0  0  0  0  0  0  0  0
    3.7865    2.4205   19.1660 C   0  0  0  0  0  0  0  0  0  0  0  0
    4.8973    1.0233   21.2988 C   0  0  0  0  0  0  0  0  0  0  0  0
   12.0765    0.0316   24.1541 C   0  0  0  0  0  0  0  0  0  0  0  0
   12.9132   -0.6032   23.2569 C   0  0  0  0  0  0  0  0  0  0  0  0
   10.9991   -1.4331   22.0443 C   0  0  0  0  0  0  0  0  0  0  0  0
    5.3278    1.2339   17.6066 C   0  0  0  0  0  0  0  0  0  0  0  0
    6.8438   -0.2892   18.3752 C   0  0  0  0  0  0  0  0  0  0  0  0
    4.8226    1.4906   18.9054 C   0  0  0  0  0  0  0  0  0  0  0  0
    5.3982    0.7733   19.9948 C   0  0  0  0  0  0  0  0  0  0  0  0
   10.1406   -0.7765   22.9250 C   0  0  0  0  0  0  0  0  0  0  0  0
    6.4440   -0.1472   19.6979 C   0  0  0  0  0  0  0  0  0  0  0  0
   10.7040   -0.0625   23.9898 C   0  0  0  0  0  0  0  0  0  0  0  0
   12.3683   -1.3298   22.2234 C   0  0  0  0  0  0  0  0  0  0  0  0
    6.9866   -1.9366   21.3580 C   0  0  0  0  0  0  0  0  0  0  0  0
    8.2490    0.0169   21.4271 C   0  0  0  0  0  0  0  0  0  0  0  0
    8.0140   -2.1541   22.4331 C   0  0  0  0  0  0  0  0  0  0  0  0
    7.8721   -0.1194   23.8831 C   0  0  0  0  0  0  0  0  0  0  0  0
    8.6609    1.0133   24.4995 C   0  0  0  0  0  0  0  0  0  0  0  0
    8.6238   -0.7606   22.6929 C   0  0  1  0  0  0  0  0  0  0  0  0
    6.3062    0.3769   17.3421 N   0  0  0  0  0  0  0  0  0  0  0  0
    7.2292   -0.6897   20.7790 N   0  0  0  0  0  0  0  0  0  0  0  0
    6.1214   -2.7615   21.1009 O   0  0  0  0  0  0  0  0  0  0  0  0
    8.7938    1.0567   21.0915 O   0  0  0  0  0  0  0  0  0  0  0  0
    9.9479    0.5589   24.9534 O   0  0  0  0  0  0  0  0  0  0  0  0
   13.4274   -2.1431   21.1104 Cl  0  0  0  0  0  0  0  0  0  0  0  0
    2.5432    3.3510   20.6369 H   0  0  0  0  0  0  0  0  0  0  0  0
    3.5174    2.1137   22.5168 H   0  0  0  0  0  0  0  0  0  0  0  0
    3.3409    2.9743   18.3364 H   0  0  0  0  0  0  0  0  0  0  0  0
    5.3118    0.4895   22.1572 H   0  0  0  0  0  0  0  0  0  0  0  0
   12.5012    0.6090   24.9700 H   0  0  0  0  0  0  0  0  0  0  0  0
   13.9913   -0.5111   23.3750 H   0  0  0  0  0  0  0  0  0  0  0  0
   10.6062   -2.0163   21.2242 H   0  0  0  0  0  0  0  0  0  0  0  0
    4.9141    1.7511   16.7474 H   0  0  0  0  0  0  0  0  0  0  0  0
    7.6445   -0.9764   18.1043 H   0  0  0  0  0  0  0  0  0  0  0  0
    7.5380   -2.5803   23.3257 H   0  0  0  0  0  0  0  0  0  0  0  0
    8.7315   -2.8929   22.0553 H   0  0  0  0  0  0  0  0  0  0  0  0
    7.7076   -0.8827   24.6640 H   0  0  0  0  0  0  0  0  0  0  0  0
    6.8749    0.2420   23.5800 H   0  0  0  0  0  0  0  0  0  0  0  0
    8.7974    1.8573   23.8134 H   0  0  0  0  0  0  0  0  0  0  0  0
    8.1335    1.3967   25.3795 H   0  0  0  0  0  0  0  0  0  0  0  0
  1  2  1  0  0  0  0
  1  3  2  0  0  0  0
  2  4  2  0  0  0  0
  3 10  1  0  0  0  0
  4 11  1  0  0  0  0
  5  6  1  0  0  0  0
  5 14  2  0  0  0  0
  6 15  2  0  0  0  0
  7 12  2  0  0  0  0
  7 15  1  0  0  0  0
  8 10  2  0  0  0  0
  8 22  1  0  0  0  0
  9 13  1  0  0  0  0
  9 22  2  0  0  0  0
 10 11  1  0  0  0  0
 11 13  2  0  0  0  0
 12 14  1  0  0  0  0
 12 21  1  6  0  0  0
 13 23  1  0  0  0  0
 14 26  1  0  0  0  0
 15 27  1  0  0  0  0
 16 18  1  0  0  0  0
 16 23  1  0  0  0  0
 16 24  2  0  0  0  0
 17 21  1  1  0  0  0
 17 23  1  0  0  0  0
 17 25  2  0  0  0  0
 18 21  1  1  0  0  0
 19 20  1  0  0  0  0
 19 21  1  6  0  0  0
 20 26  1  0  0  0  0
  1 28  1  0  0  0  0
  2 29  1  0  0  0  0
  3 30  1  0  0  0  0
  4 31  1  0  0  0  0
  5 32  1  0  0  0  0
  6 33  1  0  0  0  0
  7 34  1  0  0  0  0
  8 35  1  0  0  0  0
  9 36  1  0  0  0  0
 18 37  1  0  0  0  0
 18 38  1  0  0  0  0
 19 39  1  0  0  0  0
 19 40  1  0  0  0  0
 20 41  1  0  0  0  0
 20 42  1  0  0  0  0
M  END
> <compound>
VLA-UCB-50c39ae8-2

> <compound_smiles>
c1ccc2c(c1)cncc2N3C(=O)C[C@@]4(C3=O)CCOc5c4cc(cc5)Cl

> <enantiomer_smiles>
c1ccc2c(c1)cncc2N3C(=O)C[C@@]4(C3=O)CCOc5c4cc(cc5)Cl

> <scaffold>
chromane-5spiro-isoquinoline

> <clash_score>
0

> <docking_score>
-9.889894485473633

> <overlap_score>
1.0

> <MMFF_internal_energy>
76.2763111062452

> <docked_smiles>
c1ccc2c(c1)cncc2N3C(=O)C[C@@]4(C3=O)CCOc5c4cc(cc5)Cl

$$$$
BRU-THA-55eab31a-1_1
  -OEChem-12272114573D

 41 45  0     1  0  0  0  0  0999 V2000
    3.3432    2.6279   20.4411 C   0  0  0  0  0  0  0  0  0  0  0  0
    3.8960    1.9291   21.5050 C   0  0  0  0  0  0  0  0  0  0  0  0
    3.7865    2.4205   19.1660 C   0  0  0  0  0  0  0  0  0  0  0  0
    4.8973    1.0233   21.2988 C   0  0  0  0  0  0  0  0  0  0  0  0
   12.0765    0.0316   24.1541 C   0  0  0  0  0  0  0  0  0  0  0  0
   12.9132   -0.6032   23.2569 C   0  0  0  0  0  0  0  0  0  0  0  0
   10.9991   -1.4331   22.0443 C   0  0  0  0  0  0  0  0  0  0  0  0
    5.3278    1.2339   17.6066 C   0  0  0  0  0  0  0  0  0  0  0  0
    6.8438   -0.2892   18.3752 C   0  0  0  0  0  0  0  0  0  0  0  0
    4.8226    1.4906   18.9054 C   0  0  0  0  0  0  0  0  0  0  0  0
    5.3982    0.7733   19.9948 C   0  0  0  0  0  0  0  0  0  0  0  0
   10.1406   -0.7765   22.9250 C   0  0  0  0  0  0  0  0  0  0  0  0
   10.7040   -0.0625   23.9898 C   0  0  0  0  0  0  0  0  0  0  0  0
    6.4440   -0.1472   19.6979 C   0  0  0  0  0  0  0  0  0  0  0  0
   12.3683   -1.3298   22.2234 C   0  0  0  0  0  0  0  0  0  0  0  0
    8.0140   -2.1541   22.4331 C   0  0  0  0  0  0  0  0  0  0  0  0
    8.2490    0.0169   21.4271 C   0  0  0  0  0  0  0  0  0  0  0  0
    7.8721   -0.1194   23.8831 C   0  0  0  0  0  0  0  0  0  0  0  0
    8.6609    1.0133   24.4995 C   0  0  0  0  0  0  0  0  0  0  0  0
    8.6238   -0.7606   22.6929 C   0  0  3  0  0  0  0  0  0  0  0  0
    6.3062    0.3769   17.3421 N   0  0  0  0  0  0  0  0  0  0  0  0
    6.9866   -1.9366   21.3580 N   0  0  0  0  0  0  0  0  0  0  0  0
    9.9479    0.5589   24.9534 N   0  0  0  0  0  0  0  0  0  0  0  0
    7.2292   -0.6897   20.7790 N   0  0  0  0  0  0  0  0  0  0  0  0
    8.7958    1.0819   21.1013 O   0  0  0  0  0  0  0  0  0  0  0  0
   13.4270   -2.1452   21.1115 Cl  0  0  0  0  0  0  0  0  0  0  0  0
    2.5432    3.3510   20.6369 H   0  0  0  0  0  0  0  0  0  0  0  0
    3.5174    2.1137   22.5168 H   0  0  0  0  0  0  0  0  0  0  0  0
    3.3409    2.9743   18.3364 H   0  0  0  0  0  0  0  0  0  0  0  0
    5.3118    0.4895   22.1572 H   0  0  0  0  0  0  0  0  0  0  0  0
   12.5041    0.6025   24.9679 H   0  0  0  0  0  0  0  0  0  0  0  0
   13.9909   -0.5157   23.3771 H   0  0  0  0  0  0  0  0  0  0  0  0
   10.6054   -2.0225   21.2270 H   0  0  0  0  0  0  0  0  0  0  0  0
    4.9141    1.7511   16.7474 H   0  0  0  0  0  0  0  0  0  0  0  0
    7.6445   -0.9764   18.1043 H   0  0  0  0  0  0  0  0  0  0  0  0
    8.2143   -3.0324   22.8384 H   0  0  0  0  0  0  0  0  0  0  0  0
    7.6737   -0.8804   24.6523 H   0  0  0  0  0  0  0  0  0  0  0  0
    6.8875    0.2481   23.5617 H   0  0  0  0  0  0  0  0  0  0  0  0
    8.7958    1.8311   23.7754 H   0  0  0  0  0  0  0  0  0  0  0  0
    8.1066    1.4379   25.3490 H   0  0  0  0  0  0  0  0  0  0  0  0
   10.3415    0.8955   25.7817 H   0  0  0  0  0  0  0  0  0  0  0  0
  1  2  1  0  0  0  0
  1  3  2  0  0  0  0
  2  4  2  0  0  0  0
  3 10  1  0  0  0  0
  4 11  1  0  0  0  0
  5  6  1  0  0  0  0
  5 13  2  0  0  0  0
  6 15  2  0  0  0  0
  7 12  2  0  0  0  0
  7 15  1  0  0  0  0
  8 10  2  0  0  0  0
  8 21  1  0  0  0  0
  9 14  1  0  0  0  0
  9 21  2  0  0  0  0
 10 11  1  0  0  0  0
 11 14  2  0  0  0  0
 12 13  1  0  0  0  0
 12 20  1  0  0  0  0
 13 23  1  0  0  0  0
 14 24  1  0  0  0  0
 15 26  1  0  0  0  0
 16 20  1  0  0  0  0
 16 22  2  0  0  0  0
 17 20  1  0  0  0  0
 17 24  1  0  0  0  0
 17 25  2  0  0  0  0
 18 19  1  0  0  0  0
 18 20  1  0  0  0  0
 19 23  1  0  0  0  0
 22 24  1  0  0  0  0
  1 27  1  0  0  0  0
  2 28  1  0  0  0  0
  3 29  1  0  0  0  0
  4 30  1  0  0  0  0
  5 31  1  0  0  0  0
  6 32  1  0  0  0  0
  7 33  1  0  0  0  0
  8 34  1  0  0  0  0
  9 35  1  0  0  0  0
 16 36  1  0  0  0  0
 18 37  1  0  0  0  0
 18 38  1  0  0  0  0
 19 39  1  0  0  0  0
 19 40  1  0  0  0  0
 23 41  1  0  0  0  0
M  END
> <compound>
BRU-THA-55eab31a-1

> <compound_smiles>
c1ccc2c(c1)cncc2N3C(=O)C4(CCNc5c4cc(cc5)Cl)C=N3

> <enantiomer_smiles>
c1ccc2c(c1)cncc2N3C(=O)C4(CCNc5c4cc(cc5)Cl)C=N3

> <scaffold>
tetralinlike-5spiro-isoquinoline

> <clash_score>
0

> <docking_score>
-11.05671501159668

> <overlap_score>
0.9737493991851807

> <MMFF_internal_energy>
148.7506187756062

> <docked_smiles>
c1ccc2c(c1)cncc2N3C(=O)[C@@]4(CCNc5c4cc(cc5)Cl)C=N3

$$$$
BEN-BAS-c2bc0d80-6_1
  -OEChem-12272114573D

 42 46  0     1  0  0  0  0  0999 V2000
    3.3432    2.6279   20.4411 C   0  0  0  0  0  0  0  0  0  0  0  0
    3.8960    1.9291   21.5050 C   0  0  0  0  0  0  0  0  0  0  0  0
    3.7865    2.4205   19.1660 C   0  0  0  0  0  0  0  0  0  0  0  0
    4.8973    1.0233   21.2988 C   0  0  0  0  0  0  0  0  0  0  0  0
   12.0765    0.0316   24.1541 C   0  0  0  0  0  0  0  0  0  0  0  0
   12.9132   -0.6032   23.2569 C   0  0  0  0  0  0  0  0  0  0  0  0
   10.9991   -1.4331   22.0443 C   0  0  0  0  0  0  0  0  0  0  0  0
    5.3278    1.2339   17.6066 C   0  0  0  0  0  0  0  0  0  0  0  0
    6.8438   -0.2892   18.3752 C   0  0  0  0  0  0  0  0  0  0  0  0
    4.8226    1.4906   18.9054 C   0  0  0  0  0  0  0  0  0  0  0  0
    5.3982    0.7733   19.9948 C   0  0  0  0  0  0  0  0  0  0  0  0
   10.1406   -0.7765   22.9250 C   0  0  0  0  0  0  0  0  0  0  0  0
    6.4440   -0.1472   19.6979 C   0  0  0  0  0  0  0  0  0  0  0  0
   10.7040   -0.0625   23.9898 C   0  0  0  0  0  0  0  0  0  0  0  0
   12.3683   -1.3298   22.2234 C   0  0  0  0  0  0  0  0  0  0  0  0
    6.9866   -1.9366   21.3580 C   0  0  0  0  0  0  0  0  0  0  0  0
    8.2490    0.0169   21.4271 C   0  0  0  0  0  0  0  0  0  0  0  0
    8.0140   -2.1541   22.4331 C   0  0  0  0  0  0  0  0  0  0  0  0
    7.8721   -0.1194   23.8831 C   0  0  0  0  0  0  0  0  0  0  0  0
    8.6609    1.0133   24.4995 C   0  0  0  0  0  0  0  0  0  0  0  0
    8.6238   -0.7606   22.6929 C   0  0  3  0  0  0  0  0  0  0  0  0
    6.3062    0.3769   17.3421 N   0  0  0  0  0  0  0  0  0  0  0  0
    7.2292   -0.6897   20.7790 N   0  0  0  0  0  0  0  0  0  0  0  0
    6.1218   -2.7618   21.1005 O   0  0  0  0  0  0  0  0  0  0  0  0
    8.7938    1.0566   21.0912 O   0  0  0  0  0  0  0  0  0  0  0  0
    9.9479    0.5589   24.9534 O   0  0  0  0  0  0  0  0  0  0  0  0
   13.4278   -2.1427   21.1104 Cl  0  0  0  0  0  0  0  0  0  0  0  0
    2.5432    3.3510   20.6369 H   0  0  0  0  0  0  0  0  0  0  0  0
    3.5174    2.1137   22.5168 H   0  0  0  0  0  0  0  0  0  0  0  0
    3.3409    2.9743   18.3364 H   0  0  0  0  0  0  0  0  0  0  0  0
    5.3118    0.4895   22.1572 H   0  0  0  0  0  0  0  0  0  0  0  0
   12.5006    0.6092   24.9700 H   0  0  0  0  0  0  0  0  0  0  0  0
   13.9913   -0.5109   23.3750 H   0  0  0  0  0  0  0  0  0  0  0  0
   10.6066   -2.0147   21.2230 H   0  0  0  0  0  0  0  0  0  0  0  0
    4.9141    1.7511   16.7474 H   0  0  0  0  0  0  0  0  0  0  0  0
    7.6445   -0.9764   18.1043 H   0  0  0  0  0  0  0  0  0  0  0  0
    7.5395   -2.5821   23.3255 H   0  0  0  0  0  0  0  0  0  0  0  0
    8.7320   -2.8915   22.0534 H   0  0  0  0  0  0  0  0  0  0  0  0
    7.7059   -0.8819   24.6644 H   0  0  0  0  0  0  0  0  0  0  0  0
    6.8749    0.2419   23.5794 H   0  0  0  0  0  0  0  0  0  0  0  0
    8.7988    1.8573   23.8136 H   0  0  0  0  0  0  0  0  0  0  0  0
    8.1336    1.3973   25.3791 H   0  0  0  0  0  0  0  0  0  0  0  0
  1  2  1  0  0  0  0
  1  3  2  0  0  0  0
  2  4  2  0  0  0  0
  3 10  1  0  0  0  0
  4 11  1  0  0  0  0
  5  6  1  0  0  0  0
  5 14  2  0  0  0  0
  6 15  2  0  0  0  0
  7 12  2  0  0  0  0
  7 15  1  0  0  0  0
  8 10  2  0  0  0  0
  8 22  1  0  0  0  0
  9 13  1  0  0  0  0
  9 22  2  0  0  0  0
 10 11  1  0  0  0  0
 11 13  2  0  0  0  0
 12 14  1  0  0  0  0
 12 21  1  0  0  0  0
 13 23  1  0  0  0  0
 14 26  1  0  0  0  0
 15 27  1  0  0  0  0
 16 18  1  0  0  0  0
 16 23  1  0  0  0  0
 16 24  2  0  0  0  0
 17 21  1  0  0  0  0
 17 23  1  0  0  0  0
 17 25  2  0  0  0  0
 18 21  1  0  0  0  0
 19 20  1  0  0  0  0
 19 21  1  0  0  0  0
 20 26  1  0  0  0  0
  1 28  1  0  0  0  0
  2 29  1  0  0  0  0
  3 30  1  0  0  0  0
  4 31  1  0  0  0  0
  5 32  1  0  0  0  0
  6 33  1  0  0  0  0
  7 34  1  0  0  0  0
  8 35  1  0  0  0  0
  9 36  1  0  0  0  0
 18 37  1  0  0  0  0
 18 38  1  0  0  0  0
 19 39  1  0  0  0  0
 19 40  1  0  0  0  0
 20 41  1  0  0  0  0
 20 42  1  0  0  0  0
M  END
> <compound>
BEN-BAS-c2bc0d80-6

> <compound_smiles>
c1ccc2c(c1)cncc2N3C(=O)CC4(C3=O)CCOc5c4cc(cc5)Cl

> <enantiomer_smiles>
c1ccc2c(c1)cncc2N3C(=O)CC4(C3=O)CCOc5c4cc(cc5)Cl

> <scaffold>
chromane-5spiro-isoquinoline

> <clash_score>
0

> <docking_score>
-9.889623641967773

> <overlap_score>
1.0

> <MMFF_internal_energy>
76.27022489322606

> <docked_smiles>
c1ccc2c(c1)cncc2N3C(=O)C[C@@]4(C3=O)CCOc5c4cc(cc5)Cl

$$$$
MAT-POS-94643566-1_1
  -OEChem-12272114573D

 42 46  0     1  0  0  0  0  0999 V2000
    3.3432    2.6279   20.4411 C   0  0  0  0  0  0  0  0  0  0  0  0
    3.8960    1.9291   21.5050 C   0  0  0  0  0  0  0  0  0  0  0  0
    3.7865    2.4205   19.1660 C   0  0  0  0  0  0  0  0  0  0  0  0
    4.8973    1.0233   21.2988 C   0  0  0  0  0  0  0  0  0  0  0  0
   12.0765    0.0316   24.1541 C   0  0  0  0  0  0  0  0  0  0  0  0
   12.9132   -0.6032   23.2569 C   0  0  0  0  0  0  0  0  0  0  0  0
   10.9991   -1.4331   22.0443 C   0  0  0  0  0  0  0  0  0  0  0  0
    5.3278    1.2339   17.6066 C   0  0  0  0  0  0  0  0  0  0  0  0
    6.8438   -0.2892   18.3752 C   0  0  0  0  0  0  0  0  0  0  0  0
    4.8226    1.4906   18.9054 C   0  0  0  0  0  0  0  0  0  0  0  0
    5.3982    0.7733   19.9948 C   0  0  0  0  0  0  0  0  0  0  0  0
   10.1406   -0.7765   22.9250 C   0  0  0  0  0  0  0  0  0  0  0  0
    6.4440   -0.1472   19.6979 C   0  0  0  0  0  0  0  0  0  0  0  0
   10.7040   -0.0625   23.9898 C   0  0  0  0  0  0  0  0  0  0  0  0
   12.3683   -1.3298   22.2234 C   0  0  0  0  0  0  0  0  0  0  0  0
    6.9866   -1.9366   21.3580 C   0  0  0  0  0  0  0  0  0  0  0  0
    8.2490    0.0169   21.4271 C   0  0  0  0  0  0  0  0  0  0  0  0
    8.0140   -2.1541   22.4331 C   0  0  0  0  0  0  0  0  0  0  0  0
    7.8721   -0.1194   23.8831 C   0  0  0  0  0  0  0  0  0  0  0  0
    8.6609    1.0133   24.4995 C   0  0  0  0  0  0  0  0  0  0  0  0
    8.6238   -0.7606   22.6929 C   0  0  3  0  0  0  0  0  0  0  0  0
    6.3062    0.3769   17.3421 N   0  0  0  0  0  0  0  0  0  0  0  0
    7.2292   -0.6897   20.7790 N   0  0  0  0  0  0  0  0  0  0  0  0
    6.1218   -2.7618   21.1005 O   0  0  0  0  0  0  0  0  0  0  0  0
    8.7938    1.0566   21.0912 O   0  0  0  0  0  0  0  0  0  0  0  0
    9.9479    0.5589   24.9534 O   0  0  0  0  0  0  0  0  0  0  0  0
   13.4278   -2.1427   21.1104 Cl  0  0  0  0  0  0  0  0  0  0  0  0
    2.5432    3.3510   20.6369 H   0  0  0  0  0  0  0  0  0  0  0  0
    3.5174    2.1137   22.5168 H   0  0  0  0  0  0  0  0  0  0  0  0
    3.3409    2.9743   18.3364 H   0  0  0  0  0  0  0  0  0  0  0  0
    5.3118    0.4895   22.1572 H   0  0  0  0  0  0  0  0  0  0  0  0
   12.5006    0.6092   24.9700 H   0  0  0  0  0  0  0  0  0  0  0  0
   13.9913   -0.5109   23.3750 H   0  0  0  0  0  0  0  0  0  0  0  0
   10.6066   -2.0147   21.2230 H   0  0  0  0  0  0  0  0  0  0  0  0
    4.9141    1.7511   16.7474 H   0  0  0  0  0  0  0  0  0  0  0  0
    7.6445   -0.9764   18.1043 H   0  0  0  0  0  0  0  0  0  0  0  0
    7.5395   -2.5821   23.3255 H   0  0  0  0  0  0  0  0  0  0  0  0
    8.7320   -2.8915   22.0534 H   0  0  0  0  0  0  0  0  0  0  0  0
    7.7059   -0.8819   24.6644 H   0  0  0  0  0  0  0  0  0  0  0  0
    6.8749    0.2419   23.5794 H   0  0  0  0  0  0  0  0  0  0  0  0
    8.7988    1.8573   23.8136 H   0  0  0  0  0  0  0  0  0  0  0  0
    8.1336    1.3973   25.3791 H   0  0  0  0  0  0  0  0  0  0  0  0
  1  2  1  0  0  0  0
  1  3  2  0  0  0  0
  2  4  2  0  0  0  0
  3 10  1  0  0  0  0
  4 11  1  0  0  0  0
  5  6  1  0  0  0  0
  5 14  2  0  0  0  0
  6 15  2  0  0  0  0
  7 12  2  0  0  0  0
  7 15  1  0  0  0  0
  8 10  2  0  0  0  0
  8 22  1  0  0  0  0
  9 13  1  0  0  0  0
  9 22  2  0  0  0  0
 10 11  1  0  0  0  0
 11 13  2  0  0  0  0
 12 14  1  0  0  0  0
 12 21  1  0  0  0  0
 13 23  1  0  0  0  0
 14 26  1  0  0  0  0
 15 27  1  0  0  0  0
 16 18  1  0  0  0  0
 16 23  1  0  0  0  0
 16 24  2  0  0  0  0
 17 21  1  0  0  0  0
 17 23  1  0  0  0  0
 17 25  2  0  0  0  0
 18 21  1  0  0  0  0
 19 20  1  0  0  0  0
 19 21  1  0  0  0  0
 20 26  1  0  0  0  0
  1 28  1  0  0  0  0
  2 29  1  0  0  0  0
  3 30  1  0  0  0  0
  4 31  1  0  0  0  0
  5 32  1  0  0  0  0
  6 33  1  0  0  0  0
  7 34  1  0  0  0  0
  8 35  1  0  0  0  0
  9 36  1  0  0  0  0
 18 37  1  0  0  0  0
 18 38  1  0  0  0  0
 19 39  1  0  0  0  0
 19 40  1  0  0  0  0
 20 41  1  0  0  0  0
 20 42  1  0  0  0  0
M  END
> <compound>
MAT-POS-94643566-1

> <compound_smiles>
c1ccc2c(c1)cncc2N3C(=O)CC4(C3=O)CCOc5c4cc(cc5)Cl

> <enantiomer_smiles>
c1ccc2c(c1)cncc2N3C(=O)CC4(C3=O)CCOc5c4cc(cc5)Cl

> <scaffold>
chromane-5spiro-isoquinoline

> <clash_score>
0

> <docking_score>
-9.889623641967773

> <overlap_score>
1.0

> <MMFF_internal_energy>
76.27022489322606

> <docked_smiles>
c1ccc2c(c1)cncc2N3C(=O)C[C@@]4(C3=O)CCOc5c4cc(cc5)Cl

$$$$
VLA-UNK-cf7facf1-1_1
  -OEChem-12272114573D

 41 45  0     1  0  0  0  0  0999 V2000
    3.3432    2.6279   20.4411 C   0  0  0  0  0  0  0  0  0  0  0  0
    3.8960    1.9291   21.5050 C   0  0  0  0  0  0  0  0  0  0  0  0
    3.7865    2.4205   19.1660 C   0  0  0  0  0  0  0  0  0  0  0  0
    4.8973    1.0233   21.2988 C   0  0  0  0  0  0  0  0  0  0  0  0
   12.0765    0.0316   24.1541 C   0  0  0  0  0  0  0  0  0  0  0  0
   12.9132   -0.6032   23.2569 C   0  0  0  0  0  0  0  0  0  0  0  0
   10.9991   -1.4331   22.0443 C   0  0  0  0  0  0  0  0  0  0  0  0
    5.3278    1.2339   17.6066 C   0  0  0  0  0  0  0  0  0  0  0  0
    6.8438   -0.2892   18.3752 C   0  0  0  0  0  0  0  0  0  0  0  0
    4.8226    1.4906   18.9054 C   0  0  0  0  0  0  0  0  0  0  0  0
    5.3982    0.7733   19.9948 C   0  0  0  0  0  0  0  0  0  0  0  0
   10.1406   -0.7765   22.9250 C   0  0  0  0  0  0  0  0  0  0  0  0
    6.4440   -0.1472   19.6979 C   0  0  0  0  0  0  0  0  0  0  0  0
   10.7040   -0.0625   23.9898 C   0  0  0  0  0  0  0  0  0  0  0  0
   12.3683   -1.3298   22.2234 C   0  0  0  0  0  0  0  0  0  0  0  0
    8.2490    0.0169   21.4271 C   0  0  0  0  0  0  0  0  0  0  0  0
    6.9866   -1.9366   21.3580 C   0  0  0  0  0  0  0  0  0  0  0  0
    7.8721   -0.1194   23.8831 C   0  0  0  0  0  0  0  0  0  0  0  0
    8.6609    1.0133   24.4995 C   0  0  0  0  0  0  0  0  0  0  0  0
    8.6238   -0.7606   22.6929 C   0  0  1  0  0  0  0  0  0  0  0  0
    6.3062    0.3769   17.3421 N   0  0  0  0  0  0  0  0  0  0  0  0
    8.0140   -2.1541   22.4331 N   0  0  0  0  0  0  0  0  0  0  0  0
    7.2292   -0.6897   20.7790 N   0  0  0  0  0  0  0  0  0  0  0  0
    8.7674    1.0711   21.1192 O   0  0  0  0  0  0  0  0  0  0  0  0
    6.1643   -2.7930   21.1194 O   0  0  0  0  0  0  0  0  0  0  0  0
    9.9479    0.5589   24.9534 O   0  0  0  0  0  0  0  0  0  0  0  0
   13.4269   -2.1380   21.1062 Cl  0  0  0  0  0  0  0  0  0  0  0  0
    2.5432    3.3510   20.6369 H   0  0  0  0  0  0  0  0  0  0  0  0
    3.5174    2.1137   22.5168 H   0  0  0  0  0  0  0  0  0  0  0  0
    3.3409    2.9743   18.3364 H   0  0  0  0  0  0  0  0  0  0  0  0
    5.3118    0.4895   22.1572 H   0  0  0  0  0  0  0  0  0  0  0  0
   12.4995    0.5903   24.9841 H   0  0  0  0  0  0  0  0  0  0  0  0
   13.9909   -0.5230   23.3840 H   0  0  0  0  0  0  0  0  0  0  0  0
   10.6018   -2.0169   21.2244 H   0  0  0  0  0  0  0  0  0  0  0  0
    4.9141    1.7511   16.7474 H   0  0  0  0  0  0  0  0  0  0  0  0
    7.6445   -0.9764   18.1043 H   0  0  0  0  0  0  0  0  0  0  0  0
    7.6297   -0.8753   24.6490 H   0  0  0  0  0  0  0  0  0  0  0  0
    6.9115    0.2869   23.5192 H   0  0  0  0  0  0  0  0  0  0  0  0
    8.8456    1.7871   23.7501 H   0  0  0  0  0  0  0  0  0  0  0  0
    8.1368    1.4871   25.3344 H   0  0  0  0  0  0  0  0  0  0  0  0
    8.2290   -2.9427   22.8427 H   0  0  0  0  0  0  0  0  0  0  0  0
  1  2  1  0  0  0  0
  1  3  2  0  0  0  0
  2  4  2  0  0  0  0
  3 10  1  0  0  0  0
  4 11  1  0  0  0  0
  5  6  1  0  0  0  0
  5 14  2  0  0  0  0
  6 15  2  0  0  0  0
  7 12  2  0  0  0  0
  7 15  1  0  0  0  0
  8 10  2  0  0  0  0
  8 21  1  0  0  0  0
  9 13  1  0  0  0  0
  9 21  2  0  0  0  0
 10 11  1  0  0  0  0
 11 13  2  0  0  0  0
 12 14  1  0  0  0  0
 12 20  1  1  0  0  0
 13 23  1  0  0  0  0
 14 26  1  0  0  0  0
 15 27  1  0  0  0  0
 16 20  1  6  0  0  0
 16 23  1  0  0  0  0
 16 24  2  0  0  0  0
 17 22  1  0  0  0  0
 17 23  1  0  0  0  0
 17 25  2  0  0  0  0
 18 19  1  0  0  0  0
 18 20  1  6  0  0  0
 19 26  1  0  0  0  0
 20 22  1  1  0  0  0
  1 28  1  0  0  0  0
  2 29  1  0  0  0  0
  3 30  1  0  0  0  0
  4 31  1  0  0  0  0
  5 32  1  0  0  0  0
  6 33  1  0  0  0  0
  7 34  1  0  0  0  0
  8 35  1  0  0  0  0
  9 36  1  0  0  0  0
 18 37  1  0  0  0  0
 18 38  1  0  0  0  0
 19 39  1  0  0  0  0
 19 40  1  0  0  0  0
 22 41  1  0  0  0  0
M  END
> <compound>
VLA-UNK-cf7facf1-1

> <compound_smiles>
c1ccc2c(c1)cncc2N3C(=O)[C@]4(CCOc5c4cc(cc5)Cl)NC3=O

> <enantiomer_smiles>
c1ccc2c(c1)cncc2N3C(=O)[C@]4(CCOc5c4cc(cc5)Cl)NC3=O

> <scaffold>
chromane-5spiro-isoquinoline

> <clash_score>
0

> <docking_score>
-8.968096733093262

> <overlap_score>
1.0

> <MMFF_internal_energy>
70.16352771907053

> <docked_smiles>
c1ccc2c(c1)cncc2N3C(=O)[C@@]4(CCOc5c4cc(cc5)Cl)NC3=O

$$$$
MAT-POS-90505e2b-1_1
  -OEChem-12272114573D

 40 44  0     1  0  0  0  0  0999 V2000
    3.3432    2.6279   20.4411 C   0  0  0  0  0  0  0  0  0  0  0  0
    3.8960    1.9291   21.5050 C   0  0  0  0  0  0  0  0  0  0  0  0
    3.7865    2.4205   19.1660 C   0  0  0  0  0  0  0  0  0  0  0  0
    4.8973    1.0233   21.2988 C   0  0  0  0  0  0  0  0  0  0  0  0
   12.0765    0.0316   24.1541 C   0  0  0  0  0  0  0  0  0  0  0  0
   12.9132   -0.6032   23.2569 C   0  0  0  0  0  0  0  0  0  0  0  0
   10.9991   -1.4331   22.0443 C   0  0  0  0  0  0  0  0  0  0  0  0
    5.3278    1.2339   17.6066 C   0  0  0  0  0  0  0  0  0  0  0  0
    6.8438   -0.2892   18.3752 C   0  0  0  0  0  0  0  0  0  0  0  0
    4.8226    1.4906   18.9054 C   0  0  0  0  0  0  0  0  0  0  0  0
    5.3982    0.7733   19.9948 C   0  0  0  0  0  0  0  0  0  0  0  0
   10.1406   -0.7765   22.9250 C   0  0  0  0  0  0  0  0  0  0  0  0
    6.4440   -0.1472   19.6979 C   0  0  0  0  0  0  0  0  0  0  0  0
   10.7040   -0.0625   23.9898 C   0  0  0  0  0  0  0  0  0  0  0  0
   12.3683   -1.3298   22.2234 C   0  0  0  0  0  0  0  0  0  0  0  0
    8.2490    0.0169   21.4271 C   0  0  0  0  0  0  0  0  0  0  0  0
    6.9866   -1.9366   21.3580 C   0  0  0  0  0  0  0  0  0  0  0  0
    7.8721   -0.1194   23.8831 C   0  0  0  0  0  0  0  0  0  0  0  0
    8.6609    1.0133   24.4995 C   0  0  0  0  0  0  0  0  0  0  0  0
    8.6238   -0.7606   22.6929 C   0  0  3  0  0  0  0  0  0  0  0  0
    6.3062    0.3769   17.3421 N   0  0  0  0  0  0  0  0  0  0  0  0
    7.2292   -0.6897   20.7790 N   0  0  0  0  0  0  0  0  0  0  0  0
    8.7626    1.0825   21.1270 O   0  0  0  0  0  0  0  0  0  0  0  0
    6.1877   -2.7896   21.1501 O   0  0  0  0  0  0  0  0  0  0  0  0
    9.9479    0.5589   24.9534 O   0  0  0  0  0  0  0  0  0  0  0  0
    8.0140   -2.1541   22.4331 O   0  0  0  0  0  0  0  0  0  0  0  0
   13.4267   -2.1385   21.1062 Cl  0  0  0  0  0  0  0  0  0  0  0  0
    2.5432    3.3510   20.6369 H   0  0  0  0  0  0  0  0  0  0  0  0
    3.5174    2.1137   22.5168 H   0  0  0  0  0  0  0  0  0  0  0  0
    3.3409    2.9743   18.3364 H   0  0  0  0  0  0  0  0  0  0  0  0
    5.3118    0.4895   22.1572 H   0  0  0  0  0  0  0  0  0  0  0  0
   12.4997    0.5923   24.9826 H   0  0  0  0  0  0  0  0  0  0  0  0
   13.9908   -0.5201   23.3815 H   0  0  0  0  0  0  0  0  0  0  0  0
   10.5986   -2.0164   21.2249 H   0  0  0  0  0  0  0  0  0  0  0  0
    4.9141    1.7511   16.7474 H   0  0  0  0  0  0  0  0  0  0  0  0
    7.6445   -0.9764   18.1043 H   0  0  0  0  0  0  0  0  0  0  0  0
    7.6279   -0.8811   24.6429 H   0  0  0  0  0  0  0  0  0  0  0  0
    6.9011    0.2645   23.5223 H   0  0  0  0  0  0  0  0  0  0  0  0
    8.8447    1.7869   23.7508 H   0  0  0  0  0  0  0  0  0  0  0  0
    8.1362    1.4839   25.3347 H   0  0  0  0  0  0  0  0  0  0  0  0
  1  2  1  0  0  0  0
  1  3  2  0  0  0  0
  2  4  2  0  0  0  0
  3 10  1  0  0  0  0
  4 11  1  0  0  0  0
  5  6  1  0  0  0  0
  5 14  2  0  0  0  0
  6 15  2  0  0  0  0
  7 12  2  0  0  0  0
  7 15  1  0  0  0  0
  8 10  2  0  0  0  0
  8 21  1  0  0  0  0
  9 13  1  0  0  0  0
  9 21  2  0  0  0  0
 10 11  1  0  0  0  0
 11 13  2  0  0  0  0
 12 14  1  0  0  0  0
 12 20  1  0  0  0  0
 13 22  1  0  0  0  0
 14 25  1  0  0  0  0
 15 27  1  0  0  0  0
 16 20  1  0  0  0  0
 16 22  1  0  0  0  0
 16 23  2  0  0  0  0
 17 22  1  0  0  0  0
 17 24  2  0  0  0  0
 17 26  1  0  0  0  0
 18 19  1  0  0  0  0
 18 20  1  0  0  0  0
 19 25  1  0  0  0  0
 20 26  1  0  0  0  0
  1 28  1  0  0  0  0
  2 29  1  0  0  0  0
  3 30  1  0  0  0  0
  4 31  1  0  0  0  0
  5 32  1  0  0  0  0
  6 33  1  0  0  0  0
  7 34  1  0  0  0  0
  8 35  1  0  0  0  0
  9 36  1  0  0  0  0
 18 37  1  0  0  0  0
 18 38  1  0  0  0  0
 19 39  1  0  0  0  0
 19 40  1  0  0  0  0
M  END
> <compound>
MAT-POS-90505e2b-1

> <compound_smiles>
c1ccc2c(c1)cncc2N3C(=O)C4(CCOc5c4cc(cc5)Cl)OC3=O

> <enantiomer_smiles>
c1ccc2c(c1)cncc2N3C(=O)C4(CCOc5c4cc(cc5)Cl)OC3=O

> <scaffold>
chromane-5spiro-isoquinoline

> <clash_score>
0

> <docking_score>
-9.711803436279297

> <overlap_score>
1.0

> <MMFF_internal_energy>
74.18896770997111

> <docked_smiles>
c1ccc2c(c1)cncc2N3C(=O)[C@@]4(CCOc5c4cc(cc5)Cl)OC3=O

$$$$
MAT-POS-ec6d90b7-1_1
  -OEChem-12272114573D

 40 44  0     1  0  0  0  0  0999 V2000
    3.3432    2.6279   20.4411 C   0  0  0  0  0  0  0  0  0  0  0  0
    3.8960    1.9291   21.5050 C   0  0  0  0  0  0  0  0  0  0  0  0
    3.7865    2.4205   19.1660 C   0  0  0  0  0  0  0  0  0  0  0  0
    4.8973    1.0233   21.2988 C   0  0  0  0  0  0  0  0  0  0  0  0
   12.0765    0.0316   24.1541 C   0  0  0  0  0  0  0  0  0  0  0  0
   12.9132   -0.6032   23.2569 C   0  0  0  0  0  0  0  0  0  0  0  0
   10.9991   -1.4331   22.0443 C   0  0  0  0  0  0  0  0  0  0  0  0
    5.3278    1.2339   17.6066 C   0  0  0  0  0  0  0  0  0  0  0  0
    6.8438   -0.2892   18.3752 C   0  0  0  0  0  0  0  0  0  0  0  0
    4.8226    1.4906   18.9054 C   0  0  0  0  0  0  0  0  0  0  0  0
    5.3982    0.7733   19.9948 C   0  0  0  0  0  0  0  0  0  0  0  0
   10.1406   -0.7765   22.9250 C   0  0  0  0  0  0  0  0  0  0  0  0
    6.4440   -0.1472   19.6979 C   0  0  0  0  0  0  0  0  0  0  0  0
   10.7040   -0.0625   23.9898 C   0  0  0  0  0  0  0  0  0  0  0  0
   12.3683   -1.3298   22.2234 C   0  0  0  0  0  0  0  0  0  0  0  0
    8.2490    0.0169   21.4271 C   0  0  0  0  0  0  0  0  0  0  0  0
    6.9866   -1.9366   21.3580 C   0  0  0  0  0  0  0  0  0  0  0  0
    7.8721   -0.1194   23.8831 C   0  0  0  0  0  0  0  0  0  0  0  0
    8.6609    1.0133   24.4995 C   0  0  0  0  0  0  0  0  0  0  0  0
    8.6238   -0.7606   22.6929 C   0  0  2  0  0  0  0  0  0  0  0  0
    6.3062    0.3769   17.3421 N   0  0  0  0  0  0  0  0  0  0  0  0
    7.2292   -0.6897   20.7790 N   0  0  0  0  0  0  0  0  0  0  0  0
    8.8166    1.0420   21.0860 O   0  0  0  0  0  0  0  0  0  0  0  0
    6.1648   -2.7735   21.1752 O   0  0  0  0  0  0  0  0  0  0  0  0
    9.9479    0.5589   24.9534 O   0  0  0  0  0  0  0  0  0  0  0  0
    8.0140   -2.1541   22.4331 O   0  0  0  0  0  0  0  0  0  0  0  0
   13.4268   -2.1467   21.1122 Cl  0  0  0  0  0  0  0  0  0  0  0  0
    2.5432    3.3510   20.6369 H   0  0  0  0  0  0  0  0  0  0  0  0
    3.5174    2.1137   22.5168 H   0  0  0  0  0  0  0  0  0  0  0  0
    3.3409    2.9743   18.3364 H   0  0  0  0  0  0  0  0  0  0  0  0
    5.3118    0.4895   22.1572 H   0  0  0  0  0  0  0  0  0  0  0  0
   12.4997    0.6027   24.9754 H   0  0  0  0  0  0  0  0  0  0  0  0
   13.9908   -0.5188   23.3808 H   0  0  0  0  0  0  0  0  0  0  0  0
   10.5985   -2.0239   21.2303 H   0  0  0  0  0  0  0  0  0  0  0  0
    4.9141    1.7511   16.7474 H   0  0  0  0  0  0  0  0  0  0  0  0
    7.6445   -0.9764   18.1043 H   0  0  0  0  0  0  0  0  0  0  0  0
    7.6900   -0.8974   24.6460 H   0  0  0  0  0  0  0  0  0  0  0  0
    6.8738    0.2286   23.5680 H   0  0  0  0  0  0  0  0  0  0  0  0
    8.8030    1.8491   23.8102 H   0  0  0  0  0  0  0  0  0  0  0  0
    8.1329    1.3967   25.3752 H   0  0  0  0  0  0  0  0  0  0  0  0
  1  2  1  0  0  0  0
  1  3  2  0  0  0  0
  2  4  2  0  0  0  0
  3 10  1  0  0  0  0
  4 11  1  0  0  0  0
  5  6  1  0  0  0  0
  5 14  2  0  0  0  0
  6 15  2  0  0  0  0
  7 12  2  0  0  0  0
  7 15  1  0  0  0  0
  8 10  2  0  0  0  0
  8 21  1  0  0  0  0
  9 13  1  0  0  0  0
  9 21  2  0  0  0  0
 10 11  1  0  0  0  0
 11 13  2  0  0  0  0
 12 14  1  0  0  0  0
 12 20  1  6  0  0  0
 13 22  1  0  0  0  0
 14 25  1  0  0  0  0
 15 27  1  0  0  0  0
 16 20  1  1  0  0  0
 16 22  1  0  0  0  0
 16 23  2  0  0  0  0
 17 22  1  0  0  0  0
 17 24  2  0  0  0  0
 17 26  1  0  0  0  0
 18 19  1  0  0  0  0
 18 20  1  1  0  0  0
 19 25  1  0  0  0  0
 20 26  1  6  0  0  0
  1 28  1  0  0  0  0
  2 29  1  0  0  0  0
  3 30  1  0  0  0  0
  4 31  1  0  0  0  0
  5 32  1  0  0  0  0
  6 33  1  0  0  0  0
  7 34  1  0  0  0  0
  8 35  1  0  0  0  0
  9 36  1  0  0  0  0
 18 37  1  0  0  0  0
 18 38  1  0  0  0  0
 19 39  1  0  0  0  0
 19 40  1  0  0  0  0
M  END
> <compound>
MAT-POS-ec6d90b7-1

> <compound_smiles>
c1ccc2c(c1)cncc2N3C(=O)[C@@]4(CCOc5c4cc(cc5)Cl)OC3=O

> <enantiomer_smiles>
c1ccc2c(c1)cncc2N3C(=O)[C@@]4(CCOc5c4cc(cc5)Cl)OC3=O

> <scaffold>
chromane-5spiro-isoquinoline

> <clash_score>
0

> <docking_score>
-9.706732749938965

> <overlap_score>
1.0

> <MMFF_internal_energy>
73.85768274638635

> <docked_smiles>
c1ccc2c(c1)cncc2N3C(=O)[C@@]4(CCOc5c4cc(cc5)Cl)OC3=O

$$$$
MAT-POS-983b399a-3_1
  -OEChem-12272114573D

 43 47  0     1  0  0  0  0  0999 V2000
    3.3432    2.6279   20.4411 C   0  0  0  0  0  0  0  0  0  0  0  0
    3.8960    1.9291   21.5050 C   0  0  0  0  0  0  0  0  0  0  0  0
    3.7865    2.4205   19.1660 C   0  0  0  0  0  0  0  0  0  0  0  0
    4.8973    1.0233   21.2988 C   0  0  0  0  0  0  0  0  0  0  0  0
   12.0765    0.0316   24.1541 C   0  0  0  0  0  0  0  0  0  0  0  0
   12.9132   -0.6032   23.2569 C   0  0  0  0  0  0  0  0  0  0  0  0
   10.9991   -1.4331   22.0443 C   0  0  0  0  0  0  0  0  0  0  0  0
    5.3278    1.2339   17.6066 C   0  0  0  0  0  0  0  0  0  0  0  0
    6.8438   -0.2892   18.3752 C   0  0  0  0  0  0  0  0  0  0  0  0
    4.8226    1.4906   18.9054 C   0  0  0  0  0  0  0  0  0  0  0  0
    5.3982    0.7733   19.9948 C   0  0  0  0  0  0  0  0  0  0  0  0
   10.1406   -0.7765   22.9250 C   0  0  0  0  0  0  0  0  0  0  0  0
    6.4440   -0.1472   19.6979 C   0  0  0  0  0  0  0  0  0  0  0  0
   10.7040   -0.0625   23.9898 C   0  0  0  0  0  0  0  0  0  0  0  0
   12.3683   -1.3298   22.2234 C   0  0  0  0  0  0  0  0  0  0  0  0
    6.9866   -1.9366   21.3580 C   0  0  0  0  0  0  0  0  0  0  0  0
    8.0140   -2.1541   22.4331 C   0  0  0  0  0  0  0  0  0  0  0  0
    7.8721   -0.1194   23.8831 C   0  0  0  0  0  0  0  0  0  0  0  0
    8.2490    0.0169   21.4271 C   0  0  0  0  0  0  0  0  0  0  0  0
    8.6609    1.0133   24.4995 C   0  0  0  0  0  0  0  0  0  0  0  0
    8.6238   -0.7606   22.6929 C   0  0  3  0  0  0  0  0  0  0  0  0
    6.3062    0.3769   17.3421 N   0  0  0  0  0  0  0  0  0  0  0  0
    7.2292   -0.6897   20.7790 N   0  0  0  0  0  0  0  0  0  0  0  0
    6.0914   -2.7470   21.1362 O   0  0  0  0  0  0  0  0  0  0  0  0
    9.9479    0.5589   24.9534 O   0  0  0  0  0  0  0  0  0  0  0  0
   13.4283   -2.1397   21.1091 Cl  0  0  0  0  0  0  0  0  0  0  0  0
    2.5432    3.3510   20.6369 H   0  0  0  0  0  0  0  0  0  0  0  0
    3.5174    2.1137   22.5168 H   0  0  0  0  0  0  0  0  0  0  0  0
    3.3409    2.9743   18.3364 H   0  0  0  0  0  0  0  0  0  0  0  0
    5.3118    0.4895   22.1572 H   0  0  0  0  0  0  0  0  0  0  0  0
   12.5012    0.5937   24.9797 H   0  0  0  0  0  0  0  0  0  0  0  0
   13.9916   -0.5215   23.3826 H   0  0  0  0  0  0  0  0  0  0  0  0
   10.6172   -2.0190   21.2244 H   0  0  0  0  0  0  0  0  0  0  0  0
    4.9141    1.7511   16.7474 H   0  0  0  0  0  0  0  0  0  0  0  0
    7.6445   -0.9764   18.1043 H   0  0  0  0  0  0  0  0  0  0  0  0
    7.4876   -2.5417   23.3136 H   0  0  0  0  0  0  0  0  0  0  0  0
    8.7523   -2.8935   22.1045 H   0  0  0  0  0  0  0  0  0  0  0  0
    7.6362   -0.8792   24.6491 H   0  0  0  0  0  0  0  0  0  0  0  0
    6.9003    0.2708   23.5266 H   0  0  0  0  0  0  0  0  0  0  0  0
    7.8544    1.0246   21.6780 H   0  0  0  0  0  0  0  0  0  0  0  0
    9.1182    0.1762   20.7527 H   0  0  0  0  0  0  0  0  0  0  0  0
    8.8466    1.7865   23.7501 H   0  0  0  0  0  0  0  0  0  0  0  0
    8.1373    1.4861   25.3350 H   0  0  0  0  0  0  0  0  0  0  0  0
  1  2  1  0  0  0  0
  1  3  2  0  0  0  0
  2  4  2  0  0  0  0
  3 10  1  0  0  0  0
  4 11  1  0  0  0  0
  5  6  1  0  0  0  0
  5 14  2  0  0  0  0
  6 15  2  0  0  0  0
  7 12  2  0  0  0  0
  7 15  1  0  0  0  0
  8 10  2  0  0  0  0
  8 22  1  0  0  0  0
  9 13  1  0  0  0  0
  9 22  2  0  0  0  0
 10 11  1  0  0  0  0
 11 13  2  0  0  0  0
 12 14  1  0  0  0  0
 12 21  1  0  0  0  0
 13 23  1  0  0  0  0
 14 25  1  0  0  0  0
 15 26  1  0  0  0  0
 16 17  1  0  0  0  0
 16 23  1  0  0  0  0
 16 24  2  0  0  0  0
 17 21  1  0  0  0  0
 18 20  1  0  0  0  0
 18 21  1  0  0  0  0
 19 21  1  0  0  0  0
 19 23  1  0  0  0  0
 20 25  1  0  0  0  0
  1 27  1  0  0  0  0
  2 28  1  0  0  0  0
  3 29  1  0  0  0  0
  4 30  1  0  0  0  0
  5 31  1  0  0  0  0
  6 32  1  0  0  0  0
  7 33  1  0  0  0  0
  8 34  1  0  0  0  0
  9 35  1  0  0  0  0
 17 36  1  0  0  0  0
 17 37  1  0  0  0  0
 18 38  1  0  0  0  0
 18 39  1  0  0  0  0
 19 40  1  0  0  0  0
 19 41  1  0  0  0  0
 20 42  1  0  0  0  0
 20 43  1  0  0  0  0
M  END
> <compound>
MAT-POS-983b399a-3

> <compound_smiles>
c1ccc2c(c1)cncc2N3CC4(CCOc5c4cc(cc5)Cl)CC3=O

> <enantiomer_smiles>
c1ccc2c(c1)cncc2N3CC4(CCOc5c4cc(cc5)Cl)CC3=O

> <scaffold>
chromane-5spiro-isoquinoline

> <clash_score>
0

> <docking_score>
-9.166250228881836

> <overlap_score>
0.9729083180427551

> <MMFF_internal_energy>
102.92050088882527

> <docked_smiles>
c1ccc2c(c1)cncc2N3C[C@@]4(CCOc5c4cc(cc5)Cl)CC3=O

$$$$
MAT-POS-ec6d90b7-2_1
  -OEChem-12272114573D

 40 44  0     1  0  0  0  0  0999 V2000
    3.3432    2.6279   20.4411 C   0  0  0  0  0  0  0  0  0  0  0  0
    3.8960    1.9291   21.5050 C   0  0  0  0  0  0  0  0  0  0  0  0
    3.7865    2.4205   19.1660 C   0  0  0  0  0  0  0  0  0  0  0  0
    4.8973    1.0233   21.2988 C   0  0  0  0  0  0  0  0  0  0  0  0
   12.0765    0.0316   24.1541 C   0  0  0  0  0  0  0  0  0  0  0  0
   12.9132   -0.6032   23.2569 C   0  0  0  0  0  0  0  0  0  0  0  0
   10.9991   -1.4331   22.0443 C   0  0  0  0  0  0  0  0  0  0  0  0
    5.3278    1.2339   17.6066 C   0  0  0  0  0  0  0  0  0  0  0  0
    6.8438   -0.2892   18.3752 C   0  0  0  0  0  0  0  0  0  0  0  0
    4.8226    1.4906   18.9054 C   0  0  0  0  0  0  0  0  0  0  0  0
    5.3982    0.7733   19.9948 C   0  0  0  0  0  0  0  0  0  0  0  0
   10.1406   -0.7765   22.9250 C   0  0  0  0  0  0  0  0  0  0  0  0
    6.4440   -0.1472   19.6979 C   0  0  0  0  0  0  0  0  0  0  0  0
   10.7040   -0.0625   23.9898 C   0  0  0  0  0  0  0  0  0  0  0  0
   12.3683   -1.3298   22.2234 C   0  0  0  0  0  0  0  0  0  0  0  0
    8.2490    0.0169   21.4271 C   0  0  0  0  0  0  0  0  0  0  0  0
    6.9866   -1.9366   21.3580 C   0  0  0  0  0  0  0  0  0  0  0  0
    7.8721   -0.1194   23.8831 C   0  0  0  0  0  0  0  0  0  0  0  0
    8.6609    1.0133   24.4995 C   0  0  0  0  0  0  0  0  0  0  0  0
    8.6238   -0.7606   22.6929 C   0  0  1  0  0  0  0  0  0  0  0  0
    6.3062    0.3769   17.3421 N   0  0  0  0  0  0  0  0  0  0  0  0
    7.2292   -0.6897   20.7790 N   0  0  0  0  0  0  0  0  0  0  0  0
    8.7627    1.0823   21.1267 O   0  0  0  0  0  0  0  0  0  0  0  0
    6.1881   -2.7898   21.1493 O   0  0  0  0  0  0  0  0  0  0  0  0
    9.9479    0.5589   24.9534 O   0  0  0  0  0  0  0  0  0  0  0  0
    8.0140   -2.1541   22.4331 O   0  0  0  0  0  0  0  0  0  0  0  0
   13.4266   -2.1384   21.1060 Cl  0  0  0  0  0  0  0  0  0  0  0  0
    2.5432    3.3510   20.6369 H   0  0  0  0  0  0  0  0  0  0  0  0
    3.5174    2.1137   22.5168 H   0  0  0  0  0  0  0  0  0  0  0  0
    3.3409    2.9743   18.3364 H   0  0  0  0  0  0  0  0  0  0  0  0
    5.3118    0.4895   22.1572 H   0  0  0  0  0  0  0  0  0  0  0  0
   12.4996    0.5926   24.9824 H   0  0  0  0  0  0  0  0  0  0  0  0
   13.9909   -0.5197   23.3812 H   0  0  0  0  0  0  0  0  0  0  0  0
   10.5986   -2.0164   21.2248 H   0  0  0  0  0  0  0  0  0  0  0  0
    4.9141    1.7511   16.7474 H   0  0  0  0  0  0  0  0  0  0  0  0
    7.6445   -0.9764   18.1043 H   0  0  0  0  0  0  0  0  0  0  0  0
    7.6279   -0.8811   24.6429 H   0  0  0  0  0  0  0  0  0  0  0  0
    6.9011    0.2645   23.5222 H   0  0  0  0  0  0  0  0  0  0  0  0
    8.8445    1.7868   23.7507 H   0  0  0  0  0  0  0  0  0  0  0  0
    8.1363    1.4836   25.3348 H   0  0  0  0  0  0  0  0  0  0  0  0
  1  2  1  0  0  0  0
  1  3  2  0  0  0  0
  2  4  2  0  0  0  0
  3 10  1  0  0  0  0
  4 11  1  0  0  0  0
  5  6  1  0  0  0  0
  5 14  2  0  0  0  0
  6 15  2  0  0  0  0
  7 12  2  0  0  0  0
  7 15  1  0  0  0  0
  8 10  2  0  0  0  0
  8 21  1  0  0  0  0
  9 13  1  0  0  0  0
  9 21  2  0  0  0  0
 10 11  1  0  0  0  0
 11 13  2  0  0  0  0
 12 14  1  0  0  0  0
 12 20  1  1  0  0  0
 13 22  1  0  0  0  0
 14 25  1  0  0  0  0
 15 27  1  0  0  0  0
 16 20  1  6  0  0  0
 16 22  1  0  0  0  0
 16 23  2  0  0  0  0
 17 22  1  0  0  0  0
 17 24  2  0  0  0  0
 17 26  1  0  0  0  0
 18 19  1  0  0  0  0
 18 20  1  6  0  0  0
 19 25  1  0  0  0  0
 20 26  1  1  0  0  0
  1 28  1  0  0  0  0
  2 29  1  0  0  0  0
  3 30  1  0  0  0  0
  4 31  1  0  0  0  0
  5 32  1  0  0  0  0
  6 33  1  0  0  0  0
  7 34  1  0  0  0  0
  8 35  1  0  0  0  0
  9 36  1  0  0  0  0
 18 37  1  0  0  0  0
 18 38  1  0  0  0  0
 19 39  1  0  0  0  0
 19 40  1  0  0  0  0
M  END
> <compound>
MAT-POS-ec6d90b7-2

> <compound_smiles>
c1ccc2c(c1)cncc2N3C(=O)[C@]4(CCOc5c4cc(cc5)Cl)OC3=O

> <enantiomer_smiles>
c1ccc2c(c1)cncc2N3C(=O)[C@]4(CCOc5c4cc(cc5)Cl)OC3=O

> <scaffold>
chromane-5spiro-isoquinoline

> <clash_score>
0

> <docking_score>
-9.711243629455566

> <overlap_score>
1.0

> <MMFF_internal_energy>
74.18190855951238

> <docked_smiles>
c1ccc2c(c1)cncc2N3C(=O)[C@@]4(CCOc5c4cc(cc5)Cl)OC3=O

$$$$
VLA-UCB-34f3ed0c-11_1
  -OEChem-12272114573D

 41 45  0     1  0  0  0  0  0999 V2000
    3.3432    2.6279   20.4411 C   0  0  0  0  0  0  0  0  0  0  0  0
    3.8960    1.9291   21.5050 C   0  0  0  0  0  0  0  0  0  0  0  0
    3.7865    2.4205   19.1660 C   0  0  0  0  0  0  0  0  0  0  0  0
    4.8973    1.0233   21.2988 C   0  0  0  0  0  0  0  0  0  0  0  0
   12.0765    0.0316   24.1541 C   0  0  0  0  0  0  0  0  0  0  0  0
   12.9132   -0.6032   23.2569 C   0  0  0  0  0  0  0  0  0  0  0  0
   10.9991   -1.4331   22.0443 C   0  0  0  0  0  0  0  0  0  0  0  0
    5.3278    1.2339   17.6066 C   0  0  0  0  0  0  0  0  0  0  0  0
    6.8438   -0.2892   18.3752 C   0  0  0  0  0  0  0  0  0  0  0  0
    4.8226    1.4906   18.9054 C   0  0  0  0  0  0  0  0  0  0  0  0
    5.3982    0.7733   19.9948 C   0  0  0  0  0  0  0  0  0  0  0  0
   10.1406   -0.7765   22.9250 C   0  0  0  0  0  0  0  0  0  0  0  0
    6.4440   -0.1472   19.6979 C   0  0  0  0  0  0  0  0  0  0  0  0
   10.7040   -0.0625   23.9898 C   0  0  0  0  0  0  0  0  0  0  0  0
   12.3683   -1.3298   22.2234 C   0  0  0  0  0  0  0  0  0  0  0  0
    8.2490    0.0169   21.4271 C   0  0  0  0  0  0  0  0  0  0  0  0
    6.9866   -1.9366   21.3580 C   0  0  0  0  0  0  0  0  0  0  0  0
    7.8721   -0.1194   23.8831 C   0  0  0  0  0  0  0  0  0  0  0  0
    8.6609    1.0133   24.4995 C   0  0  0  0  0  0  0  0  0  0  0  0
    8.6238   -0.7606   22.6929 C   0  0  2  0  0  0  0  0  0  0  0  0
    6.3062    0.3769   17.3421 N   0  0  0  0  0  0  0  0  0  0  0  0
    8.0140   -2.1541   22.4331 N   0  0  0  0  0  0  0  0  0  0  0  0
    7.2292   -0.6897   20.7790 N   0  0  0  0  0  0  0  0  0  0  0  0
    8.8036    1.0441   21.0921 O   0  0  0  0  0  0  0  0  0  0  0  0
    6.1327   -2.7708   21.1544 O   0  0  0  0  0  0  0  0  0  0  0  0
    9.9479    0.5589   24.9534 O   0  0  0  0  0  0  0  0  0  0  0  0
   13.4269   -2.1471   21.1128 Cl  0  0  0  0  0  0  0  0  0  0  0  0
    2.5432    3.3510   20.6369 H   0  0  0  0  0  0  0  0  0  0  0  0
    3.5174    2.1137   22.5168 H   0  0  0  0  0  0  0  0  0  0  0  0
    3.3409    2.9743   18.3364 H   0  0  0  0  0  0  0  0  0  0  0  0
    5.3118    0.4895   22.1572 H   0  0  0  0  0  0  0  0  0  0  0  0
   12.5001    0.6057   24.9731 H   0  0  0  0  0  0  0  0  0  0  0  0
   13.9910   -0.5160   23.3783 H   0  0  0  0  0  0  0  0  0  0  0  0
   10.6020   -2.0229   21.2286 H   0  0  0  0  0  0  0  0  0  0  0  0
    4.9141    1.7511   16.7474 H   0  0  0  0  0  0  0  0  0  0  0  0
    7.6445   -0.9764   18.1043 H   0  0  0  0  0  0  0  0  0  0  0  0
    7.7113   -0.8886   24.6597 H   0  0  0  0  0  0  0  0  0  0  0  0
    6.8745    0.2359   23.5744 H   0  0  0  0  0  0  0  0  0  0  0  0
    8.8020    1.8516   23.8116 H   0  0  0  0  0  0  0  0  0  0  0  0
    8.1342    1.3975   25.3767 H   0  0  0  0  0  0  0  0  0  0  0  0
    8.2114   -2.9427   22.8515 H   0  0  0  0  0  0  0  0  0  0  0  0
  1  2  1  0  0  0  0
  1  3  2  0  0  0  0
  2  4  2  0  0  0  0
  3 10  1  0  0  0  0
  4 11  1  0  0  0  0
  5  6  1  0  0  0  0
  5 14  2  0  0  0  0
  6 15  2  0  0  0  0
  7 12  2  0  0  0  0
  7 15  1  0  0  0  0
  8 10  2  0  0  0  0
  8 21  1  0  0  0  0
  9 13  1  0  0  0  0
  9 21  2  0  0  0  0
 10 11  1  0  0  0  0
 11 13  2  0  0  0  0
 12 14  1  0  0  0  0
 12 20  1  6  0  0  0
 13 23  1  0  0  0  0
 14 26  1  0  0  0  0
 15 27  1  0  0  0  0
 16 20  1  1  0  0  0
 16 23  1  0  0  0  0
 16 24  2  0  0  0  0
 17 22  1  0  0  0  0
 17 23  1  0  0  0  0
 17 25  2  0  0  0  0
 18 19  1  0  0  0  0
 18 20  1  1  0  0  0
 19 26  1  0  0  0  0
 20 22  1  6  0  0  0
  1 28  1  0  0  0  0
  2 29  1  0  0  0  0
  3 30  1  0  0  0  0
  4 31  1  0  0  0  0
  5 32  1  0  0  0  0
  6 33  1  0  0  0  0
  7 34  1  0  0  0  0
  8 35  1  0  0  0  0
  9 36  1  0  0  0  0
 18 37  1  0  0  0  0
 18 38  1  0  0  0  0
 19 39  1  0  0  0  0
 19 40  1  0  0  0  0
 22 41  1  0  0  0  0
M  END
> <compound>
VLA-UCB-34f3ed0c-11

> <compound_smiles>
c1ccc2c(c1)cncc2N3C(=O)[C@@]4(CCOc5c4cc(cc5)Cl)NC3=O

> <enantiomer_smiles>
c1ccc2c(c1)cncc2N3C(=O)[C@@]4(CCOc5c4cc(cc5)Cl)NC3=O

> <scaffold>
chromane-5spiro-isoquinoline

> <clash_score>
0

> <docking_score>
-8.979974746704102

> <overlap_score>
1.0

> <MMFF_internal_energy>
69.76763869414206

> <docked_smiles>
c1ccc2c(c1)cncc2N3C(=O)[C@@]4(CCOc5c4cc(cc5)Cl)NC3=O

$$$$
DAR-DIA-0f7b7cd9-8_1
  -OEChem-12272114573D

 40 44  0     1  0  0  0  0  0999 V2000
    3.3432    2.6279   20.4411 C   0  0  0  0  0  0  0  0  0  0  0  0
    3.8960    1.9291   21.5050 C   0  0  0  0  0  0  0  0  0  0  0  0
    3.7865    2.4205   19.1660 C   0  0  0  0  0  0  0  0  0  0  0  0
    4.8973    1.0233   21.2988 C   0  0  0  0  0  0  0  0  0  0  0  0
   12.0765    0.0316   24.1541 C   0  0  0  0  0  0  0  0  0  0  0  0
   12.9132   -0.6032   23.2569 C   0  0  0  0  0  0  0  0  0  0  0  0
   10.9991   -1.4331   22.0443 C   0  0  0  0  0  0  0  0  0  0  0  0
    5.3278    1.2339   17.6066 C   0  0  0  0  0  0  0  0  0  0  0  0
    6.8438   -0.2892   18.3752 C   0  0  0  0  0  0  0  0  0  0  0  0
    4.8226    1.4906   18.9054 C   0  0  0  0  0  0  0  0  0  0  0  0
    5.3982    0.7733   19.9948 C   0  0  0  0  0  0  0  0  0  0  0  0
   10.1406   -0.7765   22.9250 C   0  0  0  0  0  0  0  0  0  0  0  0
    6.4440   -0.1472   19.6979 C   0  0  0  0  0  0  0  0  0  0  0  0
   10.7040   -0.0625   23.9898 C   0  0  0  0  0  0  0  0  0  0  0  0
   12.3683   -1.3298   22.2234 C   0  0  0  0  0  0  0  0  0  0  0  0
    8.2490    0.0169   21.4271 C   0  0  0  0  0  0  0  0  0  0  0  0
    8.0140   -2.1541   22.4331 C   0  0  0  0  0  0  0  0  0  0  0  0
    7.8721   -0.1194   23.8831 C   0  0  0  0  0  0  0  0  0  0  0  0
    8.6609    1.0133   24.4995 C   0  0  0  0  0  0  0  0  0  0  0  0
    8.6238   -0.7606   22.6929 C   0  0  3  0  0  0  0  0  0  0  0  0
    6.3062    0.3769   17.3421 N   0  0  0  0  0  0  0  0  0  0  0  0
    7.2292   -0.6897   20.7790 N   0  0  0  0  0  0  0  0  0  0  0  0
    8.7950    1.0447   21.1096 O   0  0  0  0  0  0  0  0  0  0  0  0
    8.3680   -3.1620   23.0394 O   0  0  0  0  0  0  0  0  0  0  0  0
    9.9479    0.5589   24.9534 O   0  0  0  0  0  0  0  0  0  0  0  0
    6.9866   -1.9366   21.3580 S   0  0  0  0  0  0  0  0  0  0  0  0
   13.4265   -2.1348   21.1035 Cl  0  0  0  0  0  0  0  0  0  0  0  0
    2.5432    3.3510   20.6369 H   0  0  0  0  0  0  0  0  0  0  0  0
    3.5174    2.1137   22.5168 H   0  0  0  0  0  0  0  0  0  0  0  0
    3.3409    2.9743   18.3364 H   0  0  0  0  0  0  0  0  0  0  0  0
    5.3118    0.4895   22.1572 H   0  0  0  0  0  0  0  0  0  0  0  0
   12.4996    0.5893   24.9844 H   0  0  0  0  0  0  0  0  0  0  0  0
   13.9909   -0.5210   23.3818 H   0  0  0  0  0  0  0  0  0  0  0  0
   10.6007   -2.0137   21.2225 H   0  0  0  0  0  0  0  0  0  0  0  0
    4.9141    1.7511   16.7474 H   0  0  0  0  0  0  0  0  0  0  0  0
    7.6445   -0.9764   18.1043 H   0  0  0  0  0  0  0  0  0  0  0  0
    7.6319   -0.8737   24.6488 H   0  0  0  0  0  0  0  0  0  0  0  0
    6.9061    0.2845   23.5370 H   0  0  0  0  0  0  0  0  0  0  0  0
    8.8456    1.7862   23.7486 H   0  0  0  0  0  0  0  0  0  0  0  0
    8.1363    1.4911   25.3321 H   0  0  0  0  0  0  0  0  0  0  0  0
  1  2  1  0  0  0  0
  1  3  2  0  0  0  0
  2  4  2  0  0  0  0
  3 10  1  0  0  0  0
  4 11  1  0  0  0  0
  5  6  1  0  0  0  0
  5 14  2  0  0  0  0
  6 15  2  0  0  0  0
  7 12  2  0  0  0  0
  7 15  1  0  0  0  0
  8 10  2  0  0  0  0
  8 21  1  0  0  0  0
  9 13  1  0  0  0  0
  9 21  2  0  0  0  0
 10 11  1  0  0  0  0
 11 13  2  0  0  0  0
 12 14  1  0  0  0  0
 12 20  1  0  0  0  0
 13 22  1  0  0  0  0
 14 25  1  0  0  0  0
 15 27  1  0  0  0  0
 16 20  1  0  0  0  0
 16 22  1  0  0  0  0
 16 23  2  0  0  0  0
 17 20  1  0  0  0  0
 17 24  2  0  0  0  0
 17 26  1  0  0  0  0
 18 19  1  0  0  0  0
 18 20  1  0  0  0  0
 19 25  1  0  0  0  0
 22 26  1  0  0  0  0
  1 28  1  0  0  0  0
  2 29  1  0  0  0  0
  3 30  1  0  0  0  0
  4 31  1  0  0  0  0
  5 32  1  0  0  0  0
  6 33  1  0  0  0  0
  7 34  1  0  0  0  0
  8 35  1  0  0  0  0
  9 36  1  0  0  0  0
 18 37  1  0  0  0  0
 18 38  1  0  0  0  0
 19 39  1  0  0  0  0
 19 40  1  0  0  0  0
M  END
> <compound>
DAR-DIA-0f7b7cd9-8

> <compound_smiles>
c1ccc2c(c1)cncc2N3C(=O)C4(CCOc5c4cc(cc5)Cl)C(=O)S3

> <enantiomer_smiles>
c1ccc2c(c1)cncc2N3C(=O)C4(CCOc5c4cc(cc5)Cl)C(=O)S3

> <scaffold>
chromane-5spiro-isoquinoline

> <clash_score>
0

> <docking_score>
-9.18116283416748

> <overlap_score>
0.9847254753112793

> <MMFF_internal_energy>
174.67269989213253

> <docked_smiles>
c1ccc2c(c1)cncc2N3C(=O)[C@@]4(CCOc5c4cc(cc5)Cl)C(=O)S3

$$$$
VLA-UCB-29506327-1_1
  -OEChem-12272114573D

 41 45  0     1  0  0  0  0  0999 V2000
    3.3432    2.6279   20.4411 C   0  0  0  0  0  0  0  0  0  0  0  0
    3.8960    1.9291   21.5050 C   0  0  0  0  0  0  0  0  0  0  0  0
    3.7865    2.4205   19.1660 C   0  0  0  0  0  0  0  0  0  0  0  0
    4.8973    1.0233   21.2988 C   0  0  0  0  0  0  0  0  0  0  0  0
   12.0765    0.0316   24.1541 C   0  0  0  0  0  0  0  0  0  0  0  0
   12.9132   -0.6032   23.2569 C   0  0  0  0  0  0  0  0  0  0  0  0
   10.9991   -1.4331   22.0443 C   0  0  0  0  0  0  0  0  0  0  0  0
    5.3278    1.2339   17.6066 C   0  0  0  0  0  0  0  0  0  0  0  0
    6.8438   -0.2892   18.3752 C   0  0  0  0  0  0  0  0  0  0  0  0
    4.8226    1.4906   18.9054 C   0  0  0  0  0  0  0  0  0  0  0  0
    5.3982    0.7733   19.9948 C   0  0  0  0  0  0  0  0  0  0  0  0
   10.1406   -0.7765   22.9250 C   0  0  0  0  0  0  0  0  0  0  0  0
    6.4440   -0.1472   19.6979 C   0  0  0  0  0  0  0  0  0  0  0  0
   10.7040   -0.0625   23.9898 C   0  0  0  0  0  0  0  0  0  0  0  0
   12.3683   -1.3298   22.2234 C   0  0  0  0  0  0  0  0  0  0  0  0
    8.2490    0.0169   21.4271 C   0  0  0  0  0  0  0  0  0  0  0  0
    6.9866   -1.9366   21.3580 C   0  0  0  0  0  0  0  0  0  0  0  0
    7.8721   -0.1194   23.8831 C   0  0  0  0  0  0  0  0  0  0  0  0
    8.6609    1.0133   24.4995 C   0  0  0  0  0  0  0  0  0  0  0  0
    8.6238   -0.7606   22.6929 C   0  0  3  0  0  0  0  0  0  0  0  0
    6.3062    0.3769   17.3421 N   0  0  0  0  0  0  0  0  0  0  0  0
    8.0140   -2.1541   22.4331 N   0  0  0  0  0  0  0  0  0  0  0  0
    7.2292   -0.6897   20.7790 N   0  0  0  0  0  0  0  0  0  0  0  0
    8.7674    1.0711   21.1191 O   0  0  0  0  0  0  0  0  0  0  0  0
    6.1641   -2.7930   21.1195 O   0  0  0  0  0  0  0  0  0  0  0  0
    9.9479    0.5589   24.9534 O   0  0  0  0  0  0  0  0  0  0  0  0
   13.4270   -2.1376   21.1059 Cl  0  0  0  0  0  0  0  0  0  0  0  0
    2.5432    3.3510   20.6369 H   0  0  0  0  0  0  0  0  0  0  0  0
    3.5174    2.1137   22.5168 H   0  0  0  0  0  0  0  0  0  0  0  0
    3.3409    2.9743   18.3364 H   0  0  0  0  0  0  0  0  0  0  0  0
    5.3118    0.4895   22.1572 H   0  0  0  0  0  0  0  0  0  0  0  0
   12.4997    0.5891   24.9847 H   0  0  0  0  0  0  0  0  0  0  0  0
   13.9910   -0.5216   23.3822 H   0  0  0  0  0  0  0  0  0  0  0  0
   10.6021   -2.0166   21.2240 H   0  0  0  0  0  0  0  0  0  0  0  0
    4.9141    1.7511   16.7474 H   0  0  0  0  0  0  0  0  0  0  0  0
    7.6445   -0.9764   18.1043 H   0  0  0  0  0  0  0  0  0  0  0  0
    7.6290   -0.8747   24.6493 H   0  0  0  0  0  0  0  0  0  0  0  0
    6.9116    0.2884   23.5202 H   0  0  0  0  0  0  0  0  0  0  0  0
    8.8454    1.7874   23.7503 H   0  0  0  0  0  0  0  0  0  0  0  0
    8.1360    1.4866   25.3340 H   0  0  0  0  0  0  0  0  0  0  0  0
    8.2290   -2.9427   22.8427 H   0  0  0  0  0  0  0  0  0  0  0  0
  1  2  1  0  0  0  0
  1  3  2  0  0  0  0
  2  4  2  0  0  0  0
  3 10  1  0  0  0  0
  4 11  1  0  0  0  0
  5  6  1  0  0  0  0
  5 14  2  0  0  0  0
  6 15  2  0  0  0  0
  7 12  2  0  0  0  0
  7 15  1  0  0  0  0
  8 10  2  0  0  0  0
  8 21  1  0  0  0  0
  9 13  1  0  0  0  0
  9 21  2  0  0  0  0
 10 11  1  0  0  0  0
 11 13  2  0  0  0  0
 12 14  1  0  0  0  0
 12 20  1  0  0  0  0
 13 23  1  0  0  0  0
 14 26  1  0  0  0  0
 15 27  1  0  0  0  0
 16 20  1  0  0  0  0
 16 23  1  0  0  0  0
 16 24  2  0  0  0  0
 17 22  1  0  0  0  0
 17 23  1  0  0  0  0
 17 25  2  0  0  0  0
 18 19  1  0  0  0  0
 18 20  1  0  0  0  0
 19 26  1  0  0  0  0
 20 22  1  0  0  0  0
  1 28  1  0  0  0  0
  2 29  1  0  0  0  0
  3 30  1  0  0  0  0
  4 31  1  0  0  0  0
  5 32  1  0  0  0  0
  6 33  1  0  0  0  0
  7 34  1  0  0  0  0
  8 35  1  0  0  0  0
  9 36  1  0  0  0  0
 18 37  1  0  0  0  0
 18 38  1  0  0  0  0
 19 39  1  0  0  0  0
 19 40  1  0  0  0  0
 22 41  1  0  0  0  0
M  END
> <compound>
VLA-UCB-29506327-1

> <compound_smiles>
c1ccc2c(c1)cncc2N3C(=O)C4(CCOc5c4cc(cc5)Cl)NC3=O

> <enantiomer_smiles>
c1ccc2c(c1)cncc2N3C(=O)C4(CCOc5c4cc(cc5)Cl)NC3=O

> <scaffold>
chromane-5spiro-isoquinoline

> <clash_score>
0

> <docking_score>
-8.968528747558594

> <overlap_score>
1.0

> <MMFF_internal_energy>
70.16231254595368

> <docked_smiles>
c1ccc2c(c1)cncc2N3C(=O)[C@@]4(CCOc5c4cc(cc5)Cl)NC3=O

$$$$
DAR-DIA-0f7b7cd9-9_1
  -OEChem-12272114573D

 42 46  0     1  0  0  0  0  0999 V2000
    3.3432    2.6279   20.4411 C   0  0  0  0  0  0  0  0  0  0  0  0
    3.8960    1.9291   21.5050 C   0  0  0  0  0  0  0  0  0  0  0  0
    3.7865    2.4205   19.1660 C   0  0  0  0  0  0  0  0  0  0  0  0
    4.8973    1.0233   21.2988 C   0  0  0  0  0  0  0  0  0  0  0  0
   12.0765    0.0316   24.1541 C   0  0  0  0  0  0  0  0  0  0  0  0
   12.9132   -0.6032   23.2569 C   0  0  0  0  0  0  0  0  0  0  0  0
   10.9991   -1.4331   22.0443 C   0  0  0  0  0  0  0  0  0  0  0  0
    5.3278    1.2339   17.6066 C   0  0  0  0  0  0  0  0  0  0  0  0
    6.8438   -0.2892   18.3752 C   0  0  0  0  0  0  0  0  0  0  0  0
    4.8226    1.4906   18.9054 C   0  0  0  0  0  0  0  0  0  0  0  0
    5.3982    0.7733   19.9948 C   0  0  0  0  0  0  0  0  0  0  0  0
   10.1406   -0.7765   22.9250 C   0  0  0  0  0  0  0  0  0  0  0  0
    6.4440   -0.1472   19.6979 C   0  0  0  0  0  0  0  0  0  0  0  0
   10.7040   -0.0625   23.9898 C   0  0  0  0  0  0  0  0  0  0  0  0
   12.3683   -1.3298   22.2234 C   0  0  0  0  0  0  0  0  0  0  0  0
    8.0140   -2.1541   22.4331 C   0  0  0  0  0  0  0  0  0  0  0  0
    8.2490    0.0169   21.4271 C   0  0  0  0  0  0  0  0  0  0  0  0
    6.9866   -1.9366   21.3580 C   0  0  0  0  0  0  0  0  0  0  0  0
    7.8721   -0.1194   23.8831 C   0  0  0  0  0  0  0  0  0  0  0  0
    8.6609    1.0133   24.4995 C   0  0  0  0  0  0  0  0  0  0  0  0
    8.6238   -0.7606   22.6929 C   0  0  3  0  0  0  0  0  0  0  0  0
    6.3062    0.3769   17.3421 N   0  0  0  0  0  0  0  0  0  0  0  0
    7.2292   -0.6897   20.7790 N   0  0  0  0  0  0  0  0  0  0  0  0
    8.2924   -3.1657   22.9528 O   0  0  0  0  0  0  0  0  0  0  0  0
    8.8003    1.0680   21.1177 O   0  0  0  0  0  0  0  0  0  0  0  0
    9.9479    0.5589   24.9534 O   0  0  0  0  0  0  0  0  0  0  0  0
   13.4265   -2.1478   21.1129 Cl  0  0  0  0  0  0  0  0  0  0  0  0
    2.5432    3.3510   20.6369 H   0  0  0  0  0  0  0  0  0  0  0  0
    3.5174    2.1137   22.5168 H   0  0  0  0  0  0  0  0  0  0  0  0
    3.3409    2.9743   18.3364 H   0  0  0  0  0  0  0  0  0  0  0  0
    5.3118    0.4895   22.1572 H   0  0  0  0  0  0  0  0  0  0  0  0
   12.4994    0.6066   24.9728 H   0  0  0  0  0  0  0  0  0  0  0  0
   13.9910   -0.5168   23.3789 H   0  0  0  0  0  0  0  0  0  0  0  0
   10.6009   -2.0242   21.2300 H   0  0  0  0  0  0  0  0  0  0  0  0
    4.9141    1.7511   16.7474 H   0  0  0  0  0  0  0  0  0  0  0  0
    7.6445   -0.9764   18.1043 H   0  0  0  0  0  0  0  0  0  0  0  0
    7.0695   -2.7503   20.5926 H   0  0  0  0  0  0  0  0  0  0  0  0
    5.9624   -1.9703   21.8103 H   0  0  0  0  0  0  0  0  0  0  0  0
    7.6963   -0.8832   24.6602 H   0  0  0  0  0  0  0  0  0  0  0  0
    6.8761    0.2357   23.5714 H   0  0  0  0  0  0  0  0  0  0  0  0
    8.8011    1.8526   23.8121 H   0  0  0  0  0  0  0  0  0  0  0  0
    8.1333    1.3974   25.3765 H   0  0  0  0  0  0  0  0  0  0  0  0
  1  2  1  0  0  0  0
  1  3  2  0  0  0  0
  2  4  2  0  0  0  0
  3 10  1  0  0  0  0
  4 11  1  0  0  0  0
  5  6  1  0  0  0  0
  5 14  2  0  0  0  0
  6 15  2  0  0  0  0
  7 12  2  0  0  0  0
  7 15  1  0  0  0  0
  8 10  2  0  0  0  0
  8 22  1  0  0  0  0
  9 13  1  0  0  0  0
  9 22  2  0  0  0  0
 10 11  1  0  0  0  0
 11 13  2  0  0  0  0
 12 14  1  0  0  0  0
 12 21  1  0  0  0  0
 13 23  1  0  0  0  0
 14 26  1  0  0  0  0
 15 27  1  0  0  0  0
 16 18  1  0  0  0  0
 16 21  1  0  0  0  0
 16 24  2  0  0  0  0
 17 21  1  0  0  0  0
 17 23  1  0  0  0  0
 17 25  2  0  0  0  0
 18 23  1  0  0  0  0
 19 20  1  0  0  0  0
 19 21  1  0  0  0  0
 20 26  1  0  0  0  0
  1 28  1  0  0  0  0
  2 29  1  0  0  0  0
  3 30  1  0  0  0  0
  4 31  1  0  0  0  0
  5 32  1  0  0  0  0
  6 33  1  0  0  0  0
  7 34  1  0  0  0  0
  8 35  1  0  0  0  0
  9 36  1  0  0  0  0
 18 37  1  0  0  0  0
 18 38  1  0  0  0  0
 19 39  1  0  0  0  0
 19 40  1  0  0  0  0
 20 41  1  0  0  0  0
 20 42  1  0  0  0  0
M  END
> <compound>
DAR-DIA-0f7b7cd9-9

> <compound_smiles>
c1ccc2c(c1)cncc2N3CC(=O)C4(C3=O)CCOc5c4cc(cc5)Cl

> <enantiomer_smiles>
c1ccc2c(c1)cncc2N3CC(=O)C4(C3=O)CCOc5c4cc(cc5)Cl

> <scaffold>
chromane-5spiro-isoquinoline

> <clash_score>
0

> <docking_score>
-9.268266677856445

> <overlap_score>
0.9851523637771606

> <MMFF_internal_energy>
112.35870148822119

> <docked_smiles>
c1ccc2c(c1)cncc2N3CC(=O)[C@@]4(C3=O)CCOc5c4cc(cc5)Cl

$$$$
VLA-MRT-8c78ee15-1_1
  -OEChem-12272114573D

 43 47  0     1  0  0  0  0  0999 V2000
    3.3432    2.6279   20.4411 C   0  0  0  0  0  0  0  0  0  0  0  0
    3.8960    1.9291   21.5050 C   0  0  0  0  0  0  0  0  0  0  0  0
    3.7865    2.4205   19.1660 C   0  0  0  0  0  0  0  0  0  0  0  0
    4.8973    1.0233   21.2988 C   0  0  0  0  0  0  0  0  0  0  0  0
   12.0765    0.0316   24.1541 C   0  0  0  0  0  0  0  0  0  0  0  0
   12.9132   -0.6032   23.2569 C   0  0  0  0  0  0  0  0  0  0  0  0
   10.9991   -1.4331   22.0443 C   0  0  0  0  0  0  0  0  0  0  0  0
    5.3278    1.2339   17.6066 C   0  0  0  0  0  0  0  0  0  0  0  0
    6.8438   -0.2892   18.3752 C   0  0  0  0  0  0  0  0  0  0  0  0
    4.8226    1.4906   18.9054 C   0  0  0  0  0  0  0  0  0  0  0  0
    5.3982    0.7733   19.9948 C   0  0  0  0  0  0  0  0  0  0  0  0
   10.7040   -0.0625   23.9898 C   0  0  0  0  0  0  0  0  0  0  0  0
   10.1406   -0.7765   22.9250 C   0  0  0  0  0  0  0  0  0  0  0  0
    6.4440   -0.1472   19.6979 C   0  0  0  0  0  0  0  0  0  0  0  0
   12.3683   -1.3298   22.2234 C   0  0  0  0  0  0  0  0  0  0  0  0
    8.2490    0.0169   21.4271 C   0  0  0  0  0  0  0  0  0  0  0  0
    6.9866   -1.9366   21.3580 C   0  0  0  0  0  0  0  0  0  0  0  0
    9.9479    0.5589   24.9534 C   0  0  0  0  0  0  0  0  0  0  0  0
    7.8721   -0.1194   23.8831 C   0  0  0  0  0  0  0  0  0  0  0  0
    8.6238   -0.7606   22.6929 C   0  0  3  0  0  0  0  0  0  0  0  0
    6.3062    0.3769   17.3421 N   0  0  0  0  0  0  0  0  0  0  0  0
    8.0140   -2.1541   22.4331 N   0  0  0  0  0  0  0  0  0  0  0  0
    7.2292   -0.6897   20.7790 N   0  0  0  0  0  0  0  0  0  0  0  0
    8.6609    1.0133   24.4995 N   0  3  0  0  0  0  0  0  0  0  0  0
    8.7713    1.0690   21.1197 O   0  0  0  0  0  0  0  0  0  0  0  0
    6.1643   -2.7930   21.1193 O   0  0  0  0  0  0  0  0  0  0  0  0
   13.4271   -2.1432   21.1104 Cl  0  0  0  0  0  0  0  0  0  0  0  0
    2.5432    3.3510   20.6369 H   0  0  0  0  0  0  0  0  0  0  0  0
    3.5174    2.1137   22.5168 H   0  0  0  0  0  0  0  0  0  0  0  0
    3.3409    2.9743   18.3364 H   0  0  0  0  0  0  0  0  0  0  0  0
    5.3118    0.4895   22.1572 H   0  0  0  0  0  0  0  0  0  0  0  0
   12.5016    0.5933   24.9785 H   0  0  0  0  0  0  0  0  0  0  0  0
   13.9909   -0.5225   23.3829 H   0  0  0  0  0  0  0  0  0  0  0  0
   10.6052   -2.0226   21.2276 H   0  0  0  0  0  0  0  0  0  0  0  0
    4.9141    1.7511   16.7474 H   0  0  0  0  0  0  0  0  0  0  0  0
    7.6445   -0.9764   18.1043 H   0  0  0  0  0  0  0  0  0  0  0  0
    9.7272   -0.1012   25.8311 H   0  0  0  0  0  0  0  0  0  0  0  0
   10.4599    1.4628   25.3727 H   0  0  0  0  0  0  0  0  0  0  0  0
    6.9033    0.3143   23.5806 H   0  0  0  0  0  0  0  0  0  0  0  0
    7.6863   -0.8359   24.7005 H   0  0  0  0  0  0  0  0  0  0  0  0
    8.2285   -2.9429   22.8423 H   0  0  0  0  0  0  0  0  0  0  0  0
    8.1072    1.4125   25.2686 H   0  0  0  0  0  0  0  0  0  0  0  0
    8.7550    1.7618   23.8014 H   0  0  0  0  0  0  0  0  0  0  0  0
  1  2  1  0  0  0  0
  1  3  2  0  0  0  0
  2  4  2  0  0  0  0
  3 10  1  0  0  0  0
  4 11  1  0  0  0  0
  5  6  1  0  0  0  0
  5 12  2  0  0  0  0
  6 15  2  0  0  0  0
  7 13  2  0  0  0  0
  7 15  1  0  0  0  0
  8 10  2  0  0  0  0
  8 21  1  0  0  0  0
  9 14  1  0  0  0  0
  9 21  2  0  0  0  0
 10 11  1  0  0  0  0
 11 14  2  0  0  0  0
 12 13  1  0  0  0  0
 12 18  1  0  0  0  0
 13 20  1  0  0  0  0
 14 23  1  0  0  0  0
 15 27  1  0  0  0  0
 16 20  1  0  0  0  0
 16 23  1  0  0  0  0
 16 25  2  0  0  0  0
 17 22  1  0  0  0  0
 17 23  1  0  0  0  0
 17 26  2  0  0  0  0
 18 24  1  0  0  0  0
 19 20  1  0  0  0  0
 19 24  1  0  0  0  0
 20 22  1  0  0  0  0
  1 28  1  0  0  0  0
  2 29  1  0  0  0  0
  3 30  1  0  0  0  0
  4 31  1  0  0  0  0
  5 32  1  0  0  0  0
  6 33  1  0  0  0  0
  7 34  1  0  0  0  0
  8 35  1  0  0  0  0
  9 36  1  0  0  0  0
 18 37  1  0  0  0  0
 18 38  1  0  0  0  0
 19 39  1  0  0  0  0
 19 40  1  0  0  0  0
 22 41  1  0  0  0  0
 24 42  1  0  0  0  0
 24 43  1  0  0  0  0
M  CHG  1  24   1
M  END
> <compound>
VLA-MRT-8c78ee15-1

> <compound_smiles>
c1ccc2c(c1)cncc2N3C(=O)C4(CNCc5c4cc(cc5)Cl)NC3=O

> <enantiomer_smiles>
c1ccc2c(c1)cncc2N3C(=O)C4(CNCc5c4cc(cc5)Cl)NC3=O

> <scaffold>
tetrahydroisoquinoline-5spiro-isoquinoline

> <clash_score>
0

> <docking_score>
-9.199542999267578

> <overlap_score>
1.0

> <MMFF_internal_energy>
132.58135428124456

> <docked_smiles>
c1ccc2c(c1)cncc2N3C(=O)[C@@]4(C[NH2+]Cc5c4cc(cc5)Cl)NC3=O

$$$$
JOH-MSK-1f2dff76-4_1
  -OEChem-12272114573D

 44 48  0     1  0  0  0  0  0999 V2000
    3.3432    2.6279   20.4411 C   0  0  0  0  0  0  0  0  0  0  0  0
    3.8960    1.9291   21.5050 C   0  0  0  0  0  0  0  0  0  0  0  0
    3.7865    2.4205   19.1660 C   0  0  0  0  0  0  0  0  0  0  0  0
    4.8973    1.0233   21.2988 C   0  0  0  0  0  0  0  0  0  0  0  0
   12.0765    0.0316   24.1541 C   0  0  0  0  0  0  0  0  0  0  0  0
   12.9132   -0.6032   23.2569 C   0  0  0  0  0  0  0  0  0  0  0  0
   10.9991   -1.4331   22.0443 C   0  0  0  0  0  0  0  0  0  0  0  0
    5.3278    1.2339   17.6066 C   0  0  0  0  0  0  0  0  0  0  0  0
    6.8438   -0.2892   18.3752 C   0  0  0  0  0  0  0  0  0  0  0  0
    4.8226    1.4906   18.9054 C   0  0  0  0  0  0  0  0  0  0  0  0
    5.3982    0.7733   19.9948 C   0  0  0  0  0  0  0  0  0  0  0  0
   10.7040   -0.0625   23.9898 C   0  0  0  0  0  0  0  0  0  0  0  0
   10.1406   -0.7765   22.9250 C   0  0  0  0  0  0  0  0  0  0  0  0
    6.4440   -0.1472   19.6979 C   0  0  0  0  0  0  0  0  0  0  0  0
   12.3683   -1.3298   22.2234 C   0  0  0  0  0  0  0  0  0  0  0  0
    6.9866   -1.9366   21.3580 C   0  0  0  0  0  0  0  0  0  0  0  0
    8.2490    0.0169   21.4271 C   0  0  0  0  0  0  0  0  0  0  0  0
    9.9479    0.5589   24.9534 C   0  0  0  0  0  0  0  0  0  0  0  0
    8.0140   -2.1541   22.4331 C   0  0  0  0  0  0  0  0  0  0  0  0
    7.8721   -0.1194   23.8831 C   0  0  0  0  0  0  0  0  0  0  0  0
    8.6238   -0.7606   22.6929 C   0  0  1  0  0  0  0  0  0  0  0  0
    6.3062    0.3769   17.3421 N   0  0  0  0  0  0  0  0  0  0  0  0
    7.2292   -0.6897   20.7790 N   0  0  0  0  0  0  0  0  0  0  0  0
    8.6609    1.0133   24.4995 N   0  3  0  0  0  0  0  0  0  0  0  0
    6.1208   -2.7597   21.1045 O   0  0  0  0  0  0  0  0  0  0  0  0
    8.7902    1.0602   21.1017 O   0  0  0  0  0  0  0  0  0  0  0  0
   13.4271   -2.1429   21.1100 Cl  0  0  0  0  0  0  0  0  0  0  0  0
    2.5432    3.3510   20.6369 H   0  0  0  0  0  0  0  0  0  0  0  0
    3.5174    2.1137   22.5168 H   0  0  0  0  0  0  0  0  0  0  0  0
    3.3409    2.9743   18.3364 H   0  0  0  0  0  0  0  0  0  0  0  0
    5.3118    0.4895   22.1572 H   0  0  0  0  0  0  0  0  0  0  0  0
   12.5018    0.5941   24.9774 H   0  0  0  0  0  0  0  0  0  0  0  0
   13.9909   -0.5210   23.3817 H   0  0  0  0  0  0  0  0  0  0  0  0
   10.6033   -2.0218   21.2285 H   0  0  0  0  0  0  0  0  0  0  0  0
    4.9141    1.7511   16.7474 H   0  0  0  0  0  0  0  0  0  0  0  0
    7.6445   -0.9764   18.1043 H   0  0  0  0  0  0  0  0  0  0  0  0
    9.7282   -0.0998   25.8318 H   0  0  0  0  0  0  0  0  0  0  0  0
   10.4600    1.4636   25.3695 H   0  0  0  0  0  0  0  0  0  0  0  0
    7.5367   -2.5827   23.3210 H   0  0  0  0  0  0  0  0  0  0  0  0
    8.7432   -2.8799   22.0517 H   0  0  0  0  0  0  0  0  0  0  0  0
    6.8992    0.3096   23.5878 H   0  0  0  0  0  0  0  0  0  0  0  0
    7.6774   -0.8369   24.6969 H   0  0  0  0  0  0  0  0  0  0  0  0
    8.1101    1.4191   25.2671 H   0  0  0  0  0  0  0  0  0  0  0  0
    8.7559    1.7601   23.7989 H   0  0  0  0  0  0  0  0  0  0  0  0
  1  2  1  0  0  0  0
  1  3  2  0  0  0  0
  2  4  2  0  0  0  0
  3 10  1  0  0  0  0
  4 11  1  0  0  0  0
  5  6  1  0  0  0  0
  5 12  2  0  0  0  0
  6 15  2  0  0  0  0
  7 13  2  0  0  0  0
  7 15  1  0  0  0  0
  8 10  2  0  0  0  0
  8 22  1  0  0  0  0
  9 14  1  0  0  0  0
  9 22  2  0  0  0  0
 10 11  1  0  0  0  0
 11 14  2  0  0  0  0
 12 13  1  0  0  0  0
 12 18  1  0  0  0  0
 13 21  1  6  0  0  0
 14 23  1  0  0  0  0
 15 27  1  0  0  0  0
 16 19  1  0  0  0  0
 16 23  1  0  0  0  0
 16 25  2  0  0  0  0
 17 21  1  1  0  0  0
 17 23  1  0  0  0  0
 17 26  2  0  0  0  0
 18 24  1  0  0  0  0
 19 21  1  1  0  0  0
 20 21  1  6  0  0  0
 20 24  1  0  0  0  0
  1 28  1  0  0  0  0
  2 29  1  0  0  0  0
  3 30  1  0  0  0  0
  4 31  1  0  0  0  0
  5 32  1  0  0  0  0
  6 33  1  0  0  0  0
  7 34  1  0  0  0  0
  8 35  1  0  0  0  0
  9 36  1  0  0  0  0
 18 37  1  0  0  0  0
 18 38  1  0  0  0  0
 19 39  1  0  0  0  0
 19 40  1  0  0  0  0
 20 41  1  0  0  0  0
 20 42  1  0  0  0  0
 24 43  1  0  0  0  0
 24 44  1  0  0  0  0
M  CHG  1  24   1
M  END
> <compound>
JOH-MSK-1f2dff76-4

> <compound_smiles>
c1ccc2c(c1)cncc2N3C(=O)C[C@@]4(C3=O)CNCc5c4cc(cc5)Cl

> <enantiomer_smiles>
c1ccc2c(c1)cncc2N3C(=O)C[C@@]4(C3=O)CNCc5c4cc(cc5)Cl

> <scaffold>
tetrahydroisoquinoline-5spiro-isoquinoline

> <clash_score>
0

> <docking_score>
-10.128643035888672

> <overlap_score>
1.0

> <MMFF_internal_energy>
104.88445574425108

> <docked_smiles>
c1ccc2c(c1)cncc2N3C(=O)C[C@@]4(C3=O)C[NH2+]Cc5c4cc(cc5)Cl

$$$$
VLA-UNK-56836b69-2_1
  -OEChem-12272114573D

 41 45  0     1  0  0  0  0  0999 V2000
    3.3432    2.6279   20.4411 C   0  0  0  0  0  0  0  0  0  0  0  0
    3.8960    1.9291   21.5050 C   0  0  0  0  0  0  0  0  0  0  0  0
    3.7865    2.4205   19.1660 C   0  0  0  0  0  0  0  0  0  0  0  0
    4.8973    1.0233   21.2988 C   0  0  0  0  0  0  0  0  0  0  0  0
   10.9991   -1.4331   22.0443 C   0  0  0  0  0  0  0  0  0  0  0  0
   12.0765    0.0316   24.1541 C   0  0  0  0  0  0  0  0  0  0  0  0
    5.3278    1.2339   17.6066 C   0  0  0  0  0  0  0  0  0  0  0  0
    6.8438   -0.2892   18.3752 C   0  0  0  0  0  0  0  0  0  0  0  0
    4.8226    1.4906   18.9054 C   0  0  0  0  0  0  0  0  0  0  0  0
    5.3982    0.7733   19.9948 C   0  0  0  0  0  0  0  0  0  0  0  0
   10.1406   -0.7765   22.9250 C   0  0  0  0  0  0  0  0  0  0  0  0
    6.4440   -0.1472   19.6979 C   0  0  0  0  0  0  0  0  0  0  0  0
   10.7040   -0.0625   23.9898 C   0  0  0  0  0  0  0  0  0  0  0  0
   12.3683   -1.3298   22.2234 C   0  0  0  0  0  0  0  0  0  0  0  0
   12.9132   -0.6032   23.2569 C   0  0  0  0  0  0  0  0  0  0  0  0
    8.2490    0.0169   21.4271 C   0  0  0  0  0  0  0  0  0  0  0  0
    6.9866   -1.9366   21.3580 C   0  0  0  0  0  0  0  0  0  0  0  0
    7.8721   -0.1194   23.8831 C   0  0  0  0  0  0  0  0  0  0  0  0
    8.6609    1.0133   24.4995 C   0  0  0  0  0  0  0  0  0  0  0  0
    8.6238   -0.7606   22.6929 C   0  0  2  0  0  0  0  0  0  0  0  0
    6.3062    0.3769   17.3421 N   0  0  0  0  0  0  0  0  0  0  0  0
    8.0140   -2.1541   22.4331 N   0  0  0  0  0  0  0  0  0  0  0  0
    7.2292   -0.6897   20.7790 N   0  0  0  0  0  0  0  0  0  0  0  0
    8.8039    1.0438   21.0918 O   0  0  0  0  0  0  0  0  0  0  0  0
    6.1326   -2.7708   21.1541 O   0  0  0  0  0  0  0  0  0  0  0  0
    9.9479    0.5589   24.9534 O   0  0  0  0  0  0  0  0  0  0  0  0
   13.3787   -2.1718   21.0744 Cl  0  0  0  0  0  0  0  0  0  0  0  0
   14.6205   -0.4432   23.4839 Cl  0  0  0  0  0  0  0  0  0  0  0  0
    2.5432    3.3510   20.6369 H   0  0  0  0  0  0  0  0  0  0  0  0
    3.5174    2.1137   22.5168 H   0  0  0  0  0  0  0  0  0  0  0  0
    3.3409    2.9743   18.3364 H   0  0  0  0  0  0  0  0  0  0  0  0
    5.3118    0.4895   22.1572 H   0  0  0  0  0  0  0  0  0  0  0  0
   10.5988   -2.0218   21.2292 H   0  0  0  0  0  0  0  0  0  0  0  0
   12.4833    0.6098   24.9801 H   0  0  0  0  0  0  0  0  0  0  0  0
    4.9141    1.7511   16.7474 H   0  0  0  0  0  0  0  0  0  0  0  0
    7.6445   -0.9764   18.1043 H   0  0  0  0  0  0  0  0  0  0  0  0
    7.7107   -0.8891   24.6590 H   0  0  0  0  0  0  0  0  0  0  0  0
    6.8748    0.2362   23.5737 H   0  0  0  0  0  0  0  0  0  0  0  0
    8.8020    1.8522   23.8122 H   0  0  0  0  0  0  0  0  0  0  0  0
    8.1342    1.3969   25.3769 H   0  0  0  0  0  0  0  0  0  0  0  0
    8.2125   -2.9427   22.8511 H   0  0  0  0  0  0  0  0  0  0  0  0
  1  2  1  0  0  0  0
  1  3  2  0  0  0  0
  2  4  2  0  0  0  0
  3  9  1  0  0  0  0
  4 10  1  0  0  0  0
  5 11  2  0  0  0  0
  5 14  1  0  0  0  0
  6 13  2  0  0  0  0
  6 15  1  0  0  0  0
  7  9  2  0  0  0  0
  7 21  1  0  0  0  0
  8 12  1  0  0  0  0
  8 21  2  0  0  0  0
  9 10  1  0  0  0  0
 10 12  2  0  0  0  0
 11 13  1  0  0  0  0
 11 20  1  6  0  0  0
 12 23  1  0  0  0  0
 13 26  1  0  0  0  0
 14 15  2  0  0  0  0
 14 27  1  0  0  0  0
 15 28  1  0  0  0  0
 16 20  1  1  0  0  0
 16 23  1  0  0  0  0
 16 24  2  0  0  0  0
 17 22  1  0  0  0  0
 17 23  1  0  0  0  0
 17 25  2  0  0  0  0
 18 19  1  0  0  0  0
 18 20  1  1  0  0  0
 19 26  1  0  0  0  0
 20 22  1  6  0  0  0
  1 29  1  0  0  0  0
  2 30  1  0  0  0  0
  3 31  1  0  0  0  0
  4 32  1  0  0  0  0
  5 33  1  0  0  0  0
  6 34  1  0  0  0  0
  7 35  1  0  0  0  0
  8 36  1  0  0  0  0
 18 37  1  0  0  0  0
 18 38  1  0  0  0  0
 19 39  1  0  0  0  0
 19 40  1  0  0  0  0
 22 41  1  0  0  0  0
M  END
> <compound>
VLA-UNK-56836b69-2

> <compound_smiles>
c1ccc2c(c1)cncc2N3C(=O)[C@@]4(CCOc5c4cc(c(c5)Cl)Cl)NC3=O

> <enantiomer_smiles>
c1ccc2c(c1)cncc2N3C(=O)[C@@]4(CCOc5c4cc(c(c5)Cl)Cl)NC3=O

> <scaffold>
chromane-5spiro-isoquinoline

> <clash_score>
0

> <docking_score>
-8.409168243408203

> <overlap_score>
1.0

> <MMFF_internal_energy>
76.80442293615471

> <docked_smiles>
c1ccc2c(c1)cncc2N3C(=O)[C@@]4(CCOc5c4cc(c(c5)Cl)Cl)NC3=O

$$$$
BEN-BAS-c2bc0d80-7_1
  -OEChem-12272114573D

 44 48  0     1  0  0  0  0  0999 V2000
    3.3432    2.6279   20.4411 C   0  0  0  0  0  0  0  0  0  0  0  0
    3.8960    1.9291   21.5050 C   0  0  0  0  0  0  0  0  0  0  0  0
    3.7865    2.4205   19.1660 C   0  0  0  0  0  0  0  0  0  0  0  0
    4.8973    1.0233   21.2988 C   0  0  0  0  0  0  0  0  0  0  0  0
   12.0765    0.0316   24.1541 C   0  0  0  0  0  0  0  0  0  0  0  0
   12.9132   -0.6032   23.2569 C   0  0  0  0  0  0  0  0  0  0  0  0
   10.9991   -1.4331   22.0443 C   0  0  0  0  0  0  0  0  0  0  0  0
    5.3278    1.2339   17.6066 C   0  0  0  0  0  0  0  0  0  0  0  0
    6.8438   -0.2892   18.3752 C   0  0  0  0  0  0  0  0  0  0  0  0
    4.8226    1.4906   18.9054 C   0  0  0  0  0  0  0  0  0  0  0  0
    5.3982    0.7733   19.9948 C   0  0  0  0  0  0  0  0  0  0  0  0
   10.1406   -0.7765   22.9250 C   0  0  0  0  0  0  0  0  0  0  0  0
    6.4440   -0.1472   19.6979 C   0  0  0  0  0  0  0  0  0  0  0  0
   10.7040   -0.0625   23.9898 C   0  0  0  0  0  0  0  0  0  0  0  0
   12.3683   -1.3298   22.2234 C   0  0  0  0  0  0  0  0  0  0  0  0
    8.2490    0.0169   21.4271 C   0  0  0  0  0  0  0  0  0  0  0  0
    6.9866   -1.9366   21.3580 C   0  0  0  0  0  0  0  0  0  0  0  0
    7.8721   -0.1194   23.8831 C   0  0  0  0  0  0  0  0  0  0  0  0
    8.6609    1.0133   24.4995 C   0  0  0  0  0  0  0  0  0  0  0  0
    8.6238   -0.7606   22.6929 C   0  0  3  0  0  0  0  0  0  0  0  0
    8.2691   -3.3067   23.1122 C   0  0  0  0  0  0  0  0  0  0  0  0
    6.3062    0.3769   17.3421 N   0  0  0  0  0  0  0  0  0  0  0  0
    7.2292   -0.6897   20.7790 N   0  0  0  0  0  0  0  0  0  0  0  0
    8.0140   -2.1541   22.4331 N   0  0  0  0  0  0  0  0  0  0  0  0
    8.8019    1.0413   21.0848 O   0  0  0  0  0  0  0  0  0  0  0  0
    6.1149   -2.7519   21.1386 O   0  0  0  0  0  0  0  0  0  0  0  0
    9.9479    0.5589   24.9534 O   0  0  0  0  0  0  0  0  0  0  0  0
   13.4268   -2.1467   21.1123 Cl  0  0  0  0  0  0  0  0  0  0  0  0
    2.5432    3.3510   20.6369 H   0  0  0  0  0  0  0  0  0  0  0  0
    3.5174    2.1137   22.5168 H   0  0  0  0  0  0  0  0  0  0  0  0
    3.3409    2.9743   18.3364 H   0  0  0  0  0  0  0  0  0  0  0  0
    5.3118    0.4895   22.1572 H   0  0  0  0  0  0  0  0  0  0  0  0
   12.4998    0.6066   24.9725 H   0  0  0  0  0  0  0  0  0  0  0  0
   13.9909   -0.5152   23.3778 H   0  0  0  0  0  0  0  0  0  0  0  0
   10.6018   -2.0250   21.2303 H   0  0  0  0  0  0  0  0  0  0  0  0
    4.9141    1.7511   16.7474 H   0  0  0  0  0  0  0  0  0  0  0  0
    7.6445   -0.9764   18.1043 H   0  0  0  0  0  0  0  0  0  0  0  0
    7.7130   -0.8751   24.6700 H   0  0  0  0  0  0  0  0  0  0  0  0
    6.8743    0.2348   23.5745 H   0  0  0  0  0  0  0  0  0  0  0  0
    8.8010    1.8562   23.8159 H   0  0  0  0  0  0  0  0  0  0  0  0
    8.1344    1.3959   25.3785 H   0  0  0  0  0  0  0  0  0  0  0  0
    9.0430   -3.8781   22.5788 H   0  0  0  0  0  0  0  0  0  0  0  0
    8.6253   -3.0630   24.1240 H   0  0  0  0  0  0  0  0  0  0  0  0
    7.3513   -3.9090   23.1818 H   0  0  0  0  0  0  0  0  0  0  0  0
  1  2  1  0  0  0  0
  1  3  2  0  0  0  0
  2  4  2  0  0  0  0
  3 10  1  0  0  0  0
  4 11  1  0  0  0  0
  5  6  1  0  0  0  0
  5 14  2  0  0  0  0
  6 15  2  0  0  0  0
  7 12  2  0  0  0  0
  7 15  1  0  0  0  0
  8 10  2  0  0  0  0
  8 22  1  0  0  0  0
  9 13  1  0  0  0  0
  9 22  2  0  0  0  0
 10 11  1  0  0  0  0
 11 13  2  0  0  0  0
 12 14  1  0  0  0  0
 12 20  1  0  0  0  0
 13 23  1  0  0  0  0
 14 27  1  0  0  0  0
 15 28  1  0  0  0  0
 16 20  1  0  0  0  0
 16 23  1  0  0  0  0
 16 25  2  0  0  0  0
 17 23  1  0  0  0  0
 17 24  1  0  0  0  0
 17 26  2  0  0  0  0
 18 19  1  0  0  0  0
 18 20  1  0  0  0  0
 19 27  1  0  0  0  0
 20 24  1  0  0  0  0
 21 24  1  0  0  0  0
  1 29  1  0  0  0  0
  2 30  1  0  0  0  0
  3 31  1  0  0  0  0
  4 32  1  0  0  0  0
  5 33  1  0  0  0  0
  6 34  1  0  0  0  0
  7 35  1  0  0  0  0
  8 36  1  0  0  0  0
  9 37  1  0  0  0  0
 18 38  1  0  0  0  0
 18 39  1  0  0  0  0
 19 40  1  0  0  0  0
 19 41  1  0  0  0  0
 21 42  1  0  0  0  0
 21 43  1  0  0  0  0
 21 44  1  0  0  0  0
M  END
> <compound>
BEN-BAS-c2bc0d80-7

> <compound_smiles>
CN1C(=O)N(C(=O)C12CCOc3c2cc(cc3)Cl)c4cncc5c4cccc5

> <enantiomer_smiles>
CN1C(=O)N(C(=O)C12CCOc3c2cc(cc3)Cl)c4cncc5c4cccc5

> <scaffold>
chromane-5spiro-isoquinoline

> <clash_score>
0

> <docking_score>
-9.505571365356445

> <overlap_score>
1.0

> <MMFF_internal_energy>
72.68920280095864

> <docked_smiles>
CN1C(=O)N(C(=O)[C@@]12CCOc3c2cc(cc3)Cl)c4cncc5c4cccc5

$$$$
EDJ-MED-d4864bdc-3_1
  -OEChem-12272114573D

 45 49  0     1  0  0  0  0  0999 V2000
    3.3432    2.6279   20.4411 C   0  0  0  0  0  0  0  0  0  0  0  0
    3.8960    1.9291   21.5050 C   0  0  0  0  0  0  0  0  0  0  0  0
    3.7865    2.4205   19.1660 C   0  0  0  0  0  0  0  0  0  0  0  0
    4.8973    1.0233   21.2988 C   0  0  0  0  0  0  0  0  0  0  0  0
   12.0765    0.0316   24.1541 C   0  0  0  0  0  0  0  0  0  0  0  0
   12.9132   -0.6032   23.2569 C   0  0  0  0  0  0  0  0  0  0  0  0
   10.9991   -1.4331   22.0443 C   0  0  0  0  0  0  0  0  0  0  0  0
    5.3278    1.2339   17.6066 C   0  0  0  0  0  0  0  0  0  0  0  0
    6.8438   -0.2892   18.3752 C   0  0  0  0  0  0  0  0  0  0  0  0
    4.8226    1.4906   18.9054 C   0  0  0  0  0  0  0  0  0  0  0  0
    5.3982    0.7733   19.9948 C   0  0  0  0  0  0  0  0  0  0  0  0
   10.1406   -0.7765   22.9250 C   0  0  0  0  0  0  0  0  0  0  0  0
    6.4440   -0.1472   19.6979 C   0  0  0  0  0  0  0  0  0  0  0  0
   10.7040   -0.0625   23.9898 C   0  0  0  0  0  0  0  0  0  0  0  0
   12.3683   -1.3298   22.2234 C   0  0  0  0  0  0  0  0  0  0  0  0
    8.2490    0.0169   21.4271 C   0  0  0  0  0  0  0  0  0  0  0  0
    8.0140   -2.1541   22.4331 C   0  0  0  0  0  0  0  0  0  0  0  0
    7.8721   -0.1194   23.8831 C   0  0  0  0  0  0  0  0  0  0  0  0
    6.9866   -1.9366   21.3580 C   0  0  0  0  0  0  0  0  0  0  0  0
    8.6609    1.0133   24.4995 C   0  0  0  0  0  0  0  0  0  0  0  0
    8.6238   -0.7606   22.6929 C   0  0  3  0  0  0  0  0  0  0  0  0
    6.3062    0.3769   17.3421 N   0  0  0  0  0  0  0  0  0  0  0  0
    7.2292   -0.6897   20.7790 N   0  0  0  0  0  0  0  0  0  0  0  0
    8.7559    1.0937   21.1315 O   0  0  0  0  0  0  0  0  0  0  0  0
   10.7450    1.7883   25.4928 O   0  0  0  0  0  0  0  0  0  0  0  0
    9.7102   -0.4301   26.1384 O   0  0  0  0  0  0  0  0  0  0  0  0
    9.9479    0.5589   24.9534 S   0  0  0  0  0  0  0  0  0  0  0  0
   13.4291   -2.1444   21.1126 Cl  0  0  0  0  0  0  0  0  0  0  0  0
    2.5432    3.3510   20.6369 H   0  0  0  0  0  0  0  0  0  0  0  0
    3.5174    2.1137   22.5168 H   0  0  0  0  0  0  0  0  0  0  0  0
    3.3409    2.9743   18.3364 H   0  0  0  0  0  0  0  0  0  0  0  0
    5.3118    0.4895   22.1572 H   0  0  0  0  0  0  0  0  0  0  0  0
   12.5120    0.5953   24.9760 H   0  0  0  0  0  0  0  0  0  0  0  0
   13.9915   -0.5226   23.3833 H   0  0  0  0  0  0  0  0  0  0  0  0
   10.6108   -2.0222   21.2304 H   0  0  0  0  0  0  0  0  0  0  0  0
    4.9141    1.7511   16.7474 H   0  0  0  0  0  0  0  0  0  0  0  0
    7.6445   -0.9764   18.1043 H   0  0  0  0  0  0  0  0  0  0  0  0
    7.5775   -2.6140   23.3286 H   0  0  0  0  0  0  0  0  0  0  0  0
    8.7708   -2.8631   22.0636 H   0  0  0  0  0  0  0  0  0  0  0  0
    7.6611   -0.8658   24.6526 H   0  0  0  0  0  0  0  0  0  0  0  0
    6.9006    0.2556   23.5459 H   0  0  0  0  0  0  0  0  0  0  0  0
    7.0227   -2.7503   20.5949 H   0  0  0  0  0  0  0  0  0  0  0  0
    5.9552   -1.9482   21.7828 H   0  0  0  0  0  0  0  0  0  0  0  0
    8.7031    1.8245   23.7055 H   0  0  0  0  0  0  0  0  0  0  0  0
    7.9987    1.4859   25.2931 H   0  0  0  0  0  0  0  0  0  0  0  0
  1  2  1  0  0  0  0
  1  3  2  0  0  0  0
  2  4  2  0  0  0  0
  3 10  1  0  0  0  0
  4 11  1  0  0  0  0
  5  6  1  0  0  0  0
  5 14  2  0  0  0  0
  6 15  2  0  0  0  0
  7 12  2  0  0  0  0
  7 15  1  0  0  0  0
  8 10  2  0  0  0  0
  8 22  1  0  0  0  0
  9 13  1  0  0  0  0
  9 22  2  0  0  0  0
 10 11  1  0  0  0  0
 11 13  2  0  0  0  0
 12 14  1  0  0  0  0
 12 21  1  0  0  0  0
 13 23  1  0  0  0  0
 14 27  1  0  0  0  0
 15 28  1  0  0  0  0
 16 21  1  0  0  0  0
 16 23  1  0  0  0  0
 16 24  2  0  0  0  0
 17 19  1  0  0  0  0
 17 21  1  0  0  0  0
 18 20  1  0  0  0  0
 18 21  1  0  0  0  0
 19 23  1  0  0  0  0
 20 27  1  0  0  0  0
 25 27  2  0  0  0  0
 26 27  2  0  0  0  0
  1 29  1  0  0  0  0
  2 30  1  0  0  0  0
  3 31  1  0  0  0  0
  4 32  1  0  0  0  0
  5 33  1  0  0  0  0
  6 34  1  0  0  0  0
  7 35  1  0  0  0  0
  8 36  1  0  0  0  0
  9 37  1  0  0  0  0
 17 38  1  0  0  0  0
 17 39  1  0  0  0  0
 18 40  1  0  0  0  0
 18 41  1  0  0  0  0
 19 42  1  0  0  0  0
 19 43  1  0  0  0  0
 20 44  1  0  0  0  0
 20 45  1  0  0  0  0
M  END
> <compound>
EDJ-MED-d4864bdc-3

> <compound_smiles>
c1ccc2c(c1)cncc2N3CCC4(C3=O)CCS(=O)(=O)c5c4cc(cc5)Cl

> <enantiomer_smiles>
c1ccc2c(c1)cncc2N3CCC4(C3=O)CCS(=O)(=O)c5c4cc(cc5)Cl

> <scaffold>
tetralinlike-5spiro-isoquinoline

> <clash_score>
0.7168170439667734

> <docking_score>
-8.942693710327148

> <overlap_score>
0.9900251030921936

> <MMFF_internal_energy>
296.6094651134163

> <docked_smiles>
c1ccc2c(c1)cncc2N3CC[C@@]4(C3=O)CCS(=O)(=O)c5c4cc(cc5)Cl

$$$$
VLA-MRT-8c78ee15-2_1
  -OEChem-12272114573D

 43 47  0     1  0  0  0  0  0999 V2000
    3.3432    2.6279   20.4411 C   0  0  0  0  0  0  0  0  0  0  0  0
    3.8960    1.9291   21.5050 C   0  0  0  0  0  0  0  0  0  0  0  0
    3.7865    2.4205   19.1660 C   0  0  0  0  0  0  0  0  0  0  0  0
    4.8973    1.0233   21.2988 C   0  0  0  0  0  0  0  0  0  0  0  0
   12.0765    0.0316   24.1541 C   0  0  0  0  0  0  0  0  0  0  0  0
   12.9132   -0.6032   23.2569 C   0  0  0  0  0  0  0  0  0  0  0  0
   10.9991   -1.4331   22.0443 C   0  0  0  0  0  0  0  0  0  0  0  0
    5.3278    1.2339   17.6066 C   0  0  0  0  0  0  0  0  0  0  0  0
    6.8438   -0.2892   18.3752 C   0  0  0  0  0  0  0  0  0  0  0  0
    4.8226    1.4906   18.9054 C   0  0  0  0  0  0  0  0  0  0  0  0
    5.3982    0.7733   19.9948 C   0  0  0  0  0  0  0  0  0  0  0  0
   10.7040   -0.0625   23.9898 C   0  0  0  0  0  0  0  0  0  0  0  0
   10.1406   -0.7765   22.9250 C   0  0  0  0  0  0  0  0  0  0  0  0
    6.4440   -0.1472   19.6979 C   0  0  0  0  0  0  0  0  0  0  0  0
   12.3683   -1.3298   22.2234 C   0  0  0  0  0  0  0  0  0  0  0  0
    8.2490    0.0169   21.4271 C   0  0  0  0  0  0  0  0  0  0  0  0
    6.9866   -1.9366   21.3580 C   0  0  0  0  0  0  0  0  0  0  0  0
    9.9479    0.5589   24.9534 C   0  0  0  0  0  0  0  0  0  0  0  0
    7.8721   -0.1194   23.8831 C   0  0  0  0  0  0  0  0  0  0  0  0
    8.6238   -0.7606   22.6929 C   0  0  1  0  0  0  0  0  0  0  0  0
    6.3062    0.3769   17.3421 N   0  0  0  0  0  0  0  0  0  0  0  0
    8.0140   -2.1541   22.4331 N   0  0  0  0  0  0  0  0  0  0  0  0
    7.2292   -0.6897   20.7790 N   0  0  0  0  0  0  0  0  0  0  0  0
    8.6609    1.0133   24.4995 N   0  3  0  0  0  0  0  0  0  0  0  0
    8.7711    1.0691   21.1197 O   0  0  0  0  0  0  0  0  0  0  0  0
    6.1646   -2.7931   21.1190 O   0  0  0  0  0  0  0  0  0  0  0  0
   13.4271   -2.1430   21.1102 Cl  0  0  0  0  0  0  0  0  0  0  0  0
    2.5432    3.3510   20.6369 H   0  0  0  0  0  0  0  0  0  0  0  0
    3.5174    2.1137   22.5168 H   0  0  0  0  0  0  0  0  0  0  0  0
    3.3409    2.9743   18.3364 H   0  0  0  0  0  0  0  0  0  0  0  0
    5.3118    0.4895   22.1572 H   0  0  0  0  0  0  0  0  0  0  0  0
   12.5017    0.5933   24.9785 H   0  0  0  0  0  0  0  0  0  0  0  0
   13.9909   -0.5217   23.3823 H   0  0  0  0  0  0  0  0  0  0  0  0
   10.6052   -2.0228   21.2277 H   0  0  0  0  0  0  0  0  0  0  0  0
    4.9141    1.7511   16.7474 H   0  0  0  0  0  0  0  0  0  0  0  0
    7.6445   -0.9764   18.1043 H   0  0  0  0  0  0  0  0  0  0  0  0
    9.7271   -0.1013   25.8309 H   0  0  0  0  0  0  0  0  0  0  0  0
   10.4606    1.4626   25.3726 H   0  0  0  0  0  0  0  0  0  0  0  0
    6.9038    0.3145   23.5796 H   0  0  0  0  0  0  0  0  0  0  0  0
    7.6852   -0.8359   24.7002 H   0  0  0  0  0  0  0  0  0  0  0  0
    8.2285   -2.9429   22.8423 H   0  0  0  0  0  0  0  0  0  0  0  0
    8.1073    1.4125   25.2687 H   0  0  0  0  0  0  0  0  0  0  0  0
    8.7545    1.7617   23.8012 H   0  0  0  0  0  0  0  0  0  0  0  0
  1  2  1  0  0  0  0
  1  3  2  0  0  0  0
  2  4  2  0  0  0  0
  3 10  1  0  0  0  0
  4 11  1  0  0  0  0
  5  6  1  0  0  0  0
  5 12  2  0  0  0  0
  6 15  2  0  0  0  0
  7 13  2  0  0  0  0
  7 15  1  0  0  0  0
  8 10  2  0  0  0  0
  8 21  1  0  0  0  0
  9 14  1  0  0  0  0
  9 21  2  0  0  0  0
 10 11  1  0  0  0  0
 11 14  2  0  0  0  0
 12 13  1  0  0  0  0
 12 18  1  0  0  0  0
 13 20  1  1  0  0  0
 14 23  1  0  0  0  0
 15 27  1  0  0  0  0
 16 20  1  6  0  0  0
 16 23  1  0  0  0  0
 16 25  2  0  0  0  0
 17 22  1  0  0  0  0
 17 23  1  0  0  0  0
 17 26  2  0  0  0  0
 18 24  1  0  0  0  0
 19 20  1  6  0  0  0
 19 24  1  0  0  0  0
 20 22  1  1  0  0  0
  1 28  1  0  0  0  0
  2 29  1  0  0  0  0
  3 30  1  0  0  0  0
  4 31  1  0  0  0  0
  5 32  1  0  0  0  0
  6 33  1  0  0  0  0
  7 34  1  0  0  0  0
  8 35  1  0  0  0  0
  9 36  1  0  0  0  0
 18 37  1  0  0  0  0
 18 38  1  0  0  0  0
 19 39  1  0  0  0  0
 19 40  1  0  0  0  0
 22 41  1  0  0  0  0
 24 42  1  0  0  0  0
 24 43  1  0  0  0  0
M  CHG  1  24   1
M  END
> <compound>
VLA-MRT-8c78ee15-2

> <compound_smiles>
c1ccc2c(c1)cncc2N3C(=O)[C@]4(CNCc5c4cc(cc5)Cl)NC3=O

> <enantiomer_smiles>
c1ccc2c(c1)cncc2N3C(=O)[C@]4(CNCc5c4cc(cc5)Cl)NC3=O

> <scaffold>
tetrahydroisoquinoline-5spiro-isoquinoline

> <clash_score>
0

> <docking_score>
-9.199512481689453

> <overlap_score>
1.0

> <MMFF_internal_energy>
132.58535121701598

> <docked_smiles>
c1ccc2c(c1)cncc2N3C(=O)[C@@]4(C[NH2+]Cc5c4cc(cc5)Cl)NC3=O

$$$$
VLA-UNK-56836b69-3_1
  -OEChem-12272114573D

 44 48  0     1  0  0  0  0  0999 V2000
    3.3432    2.6279   20.4411 C   0  0  0  0  0  0  0  0  0  0  0  0
    3.8960    1.9291   21.5050 C   0  0  0  0  0  0  0  0  0  0  0  0
    3.7865    2.4205   19.1660 C   0  0  0  0  0  0  0  0  0  0  0  0
    4.8973    1.0233   21.2988 C   0  0  0  0  0  0  0  0  0  0  0  0
   10.9991   -1.4331   22.0443 C   0  0  0  0  0  0  0  0  0  0  0  0
   12.0765    0.0316   24.1541 C   0  0  0  0  0  0  0  0  0  0  0  0
    5.3278    1.2339   17.6066 C   0  0  0  0  0  0  0  0  0  0  0  0
    6.8438   -0.2892   18.3752 C   0  0  0  0  0  0  0  0  0  0  0  0
    4.8226    1.4906   18.9054 C   0  0  0  0  0  0  0  0  0  0  0  0
    5.3982    0.7733   19.9948 C   0  0  0  0  0  0  0  0  0  0  0  0
   10.1406   -0.7765   22.9250 C   0  0  0  0  0  0  0  0  0  0  0  0
    6.4440   -0.1472   19.6979 C   0  0  0  0  0  0  0  0  0  0  0  0
   10.7040   -0.0625   23.9898 C   0  0  0  0  0  0  0  0  0  0  0  0
   12.3683   -1.3298   22.2234 C   0  0  0  0  0  0  0  0  0  0  0  0
   12.9132   -0.6032   23.2569 C   0  0  0  0  0  0  0  0  0  0  0  0
    8.2490    0.0169   21.4271 C   0  0  0  0  0  0  0  0  0  0  0  0
    6.9866   -1.9366   21.3580 C   0  0  0  0  0  0  0  0  0  0  0  0
    7.8721   -0.1194   23.8831 C   0  0  0  0  0  0  0  0  0  0  0  0
    8.6609    1.0133   24.4995 C   0  0  0  0  0  0  0  0  0  0  0  0
    8.6238   -0.7606   22.6929 C   0  0  1  0  0  0  0  0  0  0  0  0
    8.2654   -3.3055   23.1155 C   0  0  0  0  0  0  0  0  0  0  0  0
    6.3062    0.3769   17.3421 N   0  0  0  0  0  0  0  0  0  0  0  0
    7.2292   -0.6897   20.7790 N   0  0  0  0  0  0  0  0  0  0  0  0
    8.0140   -2.1541   22.4331 N   0  0  0  0  0  0  0  0  0  0  0  0
    8.8016    1.0414   21.0849 O   0  0  0  0  0  0  0  0  0  0  0  0
    6.1144   -2.7515   21.1390 O   0  0  0  0  0  0  0  0  0  0  0  0
    9.9479    0.5589   24.9534 O   0  0  0  0  0  0  0  0  0  0  0  0
   13.3783   -2.1729   21.0751 Cl  0  0  0  0  0  0  0  0  0  0  0  0
   14.6204   -0.4420   23.4830 Cl  0  0  0  0  0  0  0  0  0  0  0  0
    2.5432    3.3510   20.6369 H   0  0  0  0  0  0  0  0  0  0  0  0
    3.5174    2.1137   22.5168 H   0  0  0  0  0  0  0  0  0  0  0  0
    3.3409    2.9743   18.3364 H   0  0  0  0  0  0  0  0  0  0  0  0
    5.3118    0.4895   22.1572 H   0  0  0  0  0  0  0  0  0  0  0  0
   10.5985   -2.0240   21.2310 H   0  0  0  0  0  0  0  0  0  0  0  0
   12.4833    0.6111   24.9791 H   0  0  0  0  0  0  0  0  0  0  0  0
    4.9141    1.7511   16.7474 H   0  0  0  0  0  0  0  0  0  0  0  0
    7.6445   -0.9764   18.1043 H   0  0  0  0  0  0  0  0  0  0  0  0
    7.7127   -0.8754   24.6697 H   0  0  0  0  0  0  0  0  0  0  0  0
    6.8745    0.2356   23.5746 H   0  0  0  0  0  0  0  0  0  0  0  0
    8.8010    1.8559   23.8158 H   0  0  0  0  0  0  0  0  0  0  0  0
    8.1340    1.3958   25.3782 H   0  0  0  0  0  0  0  0  0  0  0  0
    9.0374   -3.8808   22.5835 H   0  0  0  0  0  0  0  0  0  0  0  0
    8.6227   -3.0603   24.1265 H   0  0  0  0  0  0  0  0  0  0  0  0
    7.3458   -3.9048   23.1869 H   0  0  0  0  0  0  0  0  0  0  0  0
  1  2  1  0  0  0  0
  1  3  2  0  0  0  0
  2  4  2  0  0  0  0
  3  9  1  0  0  0  0
  4 10  1  0  0  0  0
  5 11  2  0  0  0  0
  5 14  1  0  0  0  0
  6 13  2  0  0  0  0
  6 15  1  0  0  0  0
  7  9  2  0  0  0  0
  7 22  1  0  0  0  0
  8 12  1  0  0  0  0
  8 22  2  0  0  0  0
  9 10  1  0  0  0  0
 10 12  2  0  0  0  0
 11 13  1  0  0  0  0
 11 20  1  1  0  0  0
 12 23  1  0  0  0  0
 13 27  1  0  0  0  0
 14 15  2  0  0  0  0
 14 28  1  0  0  0  0
 15 29  1  0  0  0  0
 16 20  1  1  0  0  0
 16 23  1  0  0  0  0
 16 25  2  0  0  0  0
 17 23  1  0  0  0  0
 17 24  1  0  0  0  0
 17 26  2  0  0  0  0
 18 19  1  0  0  0  0
 18 20  1  6  0  0  0
 19 27  1  0  0  0  0
 20 24  1  6  0  0  0
 21 24  1  0  0  0  0
  1 30  1  0  0  0  0
  2 31  1  0  0  0  0
  3 32  1  0  0  0  0
  4 33  1  0  0  0  0
  5 34  1  0  0  0  0
  6 35  1  0  0  0  0
  7 36  1  0  0  0  0
  8 37  1  0  0  0  0
 18 38  1  0  0  0  0
 18 39  1  0  0  0  0
 19 40  1  0  0  0  0
 19 41  1  0  0  0  0
 21 42  1  0  0  0  0
 21 43  1  0  0  0  0
 21 44  1  0  0  0  0
M  END
> <compound>
VLA-UNK-56836b69-3

> <compound_smiles>
CN1C(=O)N(C(=O)[C@@]12CCOc3c2cc(c(c3)Cl)Cl)c4cncc5c4cccc5

> <enantiomer_smiles>
CN1C(=O)N(C(=O)[C@@]12CCOc3c2cc(c(c3)Cl)Cl)c4cncc5c4cccc5

> <scaffold>
chromane-5spiro-isoquinoline

> <clash_score>
0

> <docking_score>
-8.938606262207031

> <overlap_score>
1.0134243965148926

> <MMFF_internal_energy>
79.63082535150916

> <docked_smiles>
CN1C(=O)N(C(=O)[C@@]12CCOc3c2cc(c(c3)Cl)Cl)c4cncc5c4cccc5

$$$$
VLA-UNK-3a43cd95-3_1
  -OEChem-12272114573D

 42 46  0     1  0  0  0  0  0999 V2000
    3.3432    2.6279   20.4411 C   0  0  0  0  0  0  0  0  0  0  0  0
    3.8960    1.9291   21.5050 C   0  0  0  0  0  0  0  0  0  0  0  0
    3.7865    2.4205   19.1660 C   0  0  0  0  0  0  0  0  0  0  0  0
    4.8973    1.0233   21.2988 C   0  0  0  0  0  0  0  0  0  0  0  0
   10.9991   -1.4331   22.0443 C   0  0  0  0  0  0  0  0  0  0  0  0
   12.0765    0.0316   24.1541 C   0  0  0  0  0  0  0  0  0  0  0  0
    5.3278    1.2339   17.6066 C   0  0  0  0  0  0  0  0  0  0  0  0
    6.8438   -0.2892   18.3752 C   0  0  0  0  0  0  0  0  0  0  0  0
    4.8226    1.4906   18.9054 C   0  0  0  0  0  0  0  0  0  0  0  0
    5.3982    0.7733   19.9948 C   0  0  0  0  0  0  0  0  0  0  0  0
   10.1406   -0.7765   22.9250 C   0  0  0  0  0  0  0  0  0  0  0  0
    6.4440   -0.1472   19.6979 C   0  0  0  0  0  0  0  0  0  0  0  0
   10.7040   -0.0625   23.9898 C   0  0  0  0  0  0  0  0  0  0  0  0
   12.9132   -0.6032   23.2569 C   0  0  0  0  0  0  0  0  0  0  0  0
   12.3683   -1.3298   22.2234 C   0  0  0  0  0  0  0  0  0  0  0  0
    6.9866   -1.9366   21.3580 C   0  0  0  0  0  0  0  0  0  0  0  0
    8.2490    0.0169   21.4271 C   0  0  0  0  0  0  0  0  0  0  0  0
    8.0140   -2.1541   22.4331 C   0  0  0  0  0  0  0  0  0  0  0  0
    7.8721   -0.1194   23.8831 C   0  0  0  0  0  0  0  0  0  0  0  0
    8.6609    1.0133   24.4995 C   0  0  0  0  0  0  0  0  0  0  0  0
    8.6238   -0.7606   22.6929 C   0  0  1  0  0  0  0  0  0  0  0  0
    6.3062    0.3769   17.3421 N   0  0  0  0  0  0  0  0  0  0  0  0
    7.2292   -0.6897   20.7790 N   0  0  0  0  0  0  0  0  0  0  0  0
    6.1214   -2.7615   21.1009 O   0  0  0  0  0  0  0  0  0  0  0  0
    8.7938    1.0567   21.0915 O   0  0  0  0  0  0  0  0  0  0  0  0
    9.9479    0.5589   24.9534 O   0  0  0  0  0  0  0  0  0  0  0  0
   14.2430   -0.4915   23.4005 F   0  0  0  0  0  0  0  0  0  0  0  0
   13.4223   -2.1448   21.1060 Cl  0  0  0  0  0  0  0  0  0  0  0  0
    2.5432    3.3510   20.6369 H   0  0  0  0  0  0  0  0  0  0  0  0
    3.5174    2.1137   22.5168 H   0  0  0  0  0  0  0  0  0  0  0  0
    3.3409    2.9743   18.3364 H   0  0  0  0  0  0  0  0  0  0  0  0
    5.3118    0.4895   22.1572 H   0  0  0  0  0  0  0  0  0  0  0  0
   10.6060   -2.0143   21.2229 H   0  0  0  0  0  0  0  0  0  0  0  0
   12.5013    0.6078   24.9706 H   0  0  0  0  0  0  0  0  0  0  0  0
    4.9141    1.7511   16.7474 H   0  0  0  0  0  0  0  0  0  0  0  0
    7.6445   -0.9764   18.1043 H   0  0  0  0  0  0  0  0  0  0  0  0
    7.5390   -2.5809   23.3258 H   0  0  0  0  0  0  0  0  0  0  0  0
    8.7315   -2.8929   22.0549 H   0  0  0  0  0  0  0  0  0  0  0  0
    7.7070   -0.8827   24.6639 H   0  0  0  0  0  0  0  0  0  0  0  0
    6.8747    0.2420   23.5805 H   0  0  0  0  0  0  0  0  0  0  0  0
    8.7981    1.8574   23.8136 H   0  0  0  0  0  0  0  0  0  0  0  0
    8.1338    1.3972   25.3792 H   0  0  0  0  0  0  0  0  0  0  0  0
  1  2  1  0  0  0  0
  1  3  2  0  0  0  0
  2  4  2  0  0  0  0
  3  9  1  0  0  0  0
  4 10  1  0  0  0  0
  5 11  2  0  0  0  0
  5 15  1  0  0  0  0
  6 13  2  0  0  0  0
  6 14  1  0  0  0  0
  7  9  2  0  0  0  0
  7 22  1  0  0  0  0
  8 12  1  0  0  0  0
  8 22  2  0  0  0  0
  9 10  1  0  0  0  0
 10 12  2  0  0  0  0
 11 13  1  0  0  0  0
 11 21  1  6  0  0  0
 12 23  1  0  0  0  0
 13 26  1  0  0  0  0
 14 15  2  0  0  0  0
 14 27  1  0  0  0  0
 15 28  1  0  0  0  0
 16 18  1  0  0  0  0
 16 23  1  0  0  0  0
 16 24  2  0  0  0  0
 17 21  1  1  0  0  0
 17 23  1  0  0  0  0
 17 25  2  0  0  0  0
 18 21  1  1  0  0  0
 19 20  1  0  0  0  0
 19 21  1  6  0  0  0
 20 26  1  0  0  0  0
  1 29  1  0  0  0  0
  2 30  1  0  0  0  0
  3 31  1  0  0  0  0
  4 32  1  0  0  0  0
  5 33  1  0  0  0  0
  6 34  1  0  0  0  0
  7 35  1  0  0  0  0
  8 36  1  0  0  0  0
 18 37  1  0  0  0  0
 18 38  1  0  0  0  0
 19 39  1  0  0  0  0
 19 40  1  0  0  0  0
 20 41  1  0  0  0  0
 20 42  1  0  0  0  0
M  END
> <compound>
VLA-UNK-3a43cd95-3

> <compound_smiles>
c1ccc2c(c1)cncc2N3C(=O)C[C@@]4(C3=O)CCOc5c4cc(c(c5)F)Cl

> <enantiomer_smiles>
c1ccc2c(c1)cncc2N3C(=O)C[C@@]4(C3=O)CCOc5c4cc(c(c5)F)Cl

> <scaffold>
chromane-5spiro-isoquinoline

> <clash_score>
0

> <docking_score>
-10.342475891113281

> <overlap_score>
1.0090830326080322

> <MMFF_internal_energy>
80.94581580369172

> <docked_smiles>
c1ccc2c(c1)cncc2N3C(=O)C[C@@]4(C3=O)CCOc5c4cc(c(c5)F)Cl

$$$$
VLA-MRT-a639d434-3_1
  -OEChem-12272114573D

 43 47  0     1  0  0  0  0  0999 V2000
    3.3432    2.6279   20.4411 C   0  0  0  0  0  0  0  0  0  0  0  0
    3.8960    1.9291   21.5050 C   0  0  0  0  0  0  0  0  0  0  0  0
    3.7865    2.4205   19.1660 C   0  0  0  0  0  0  0  0  0  0  0  0
    4.8973    1.0233   21.2988 C   0  0  0  0  0  0  0  0  0  0  0  0
   12.0765    0.0316   24.1541 C   0  0  0  0  0  0  0  0  0  0  0  0
   12.9132   -0.6032   23.2569 C   0  0  0  0  0  0  0  0  0  0  0  0
   10.9991   -1.4331   22.0443 C   0  0  0  0  0  0  0  0  0  0  0  0
    5.3278    1.2339   17.6066 C   0  0  0  0  0  0  0  0  0  0  0  0
    6.8438   -0.2892   18.3752 C   0  0  0  0  0  0  0  0  0  0  0  0
    4.8226    1.4906   18.9054 C   0  0  0  0  0  0  0  0  0  0  0  0
    5.3982    0.7733   19.9948 C   0  0  0  0  0  0  0  0  0  0  0  0
   10.7040   -0.0625   23.9898 C   0  0  0  0  0  0  0  0  0  0  0  0
   10.1406   -0.7765   22.9250 C   0  0  0  0  0  0  0  0  0  0  0  0
    6.4440   -0.1472   19.6979 C   0  0  0  0  0  0  0  0  0  0  0  0
   12.3683   -1.3298   22.2234 C   0  0  0  0  0  0  0  0  0  0  0  0
    8.2490    0.0169   21.4271 C   0  0  0  0  0  0  0  0  0  0  0  0
    6.9866   -1.9366   21.3580 C   0  0  0  0  0  0  0  0  0  0  0  0
    9.9479    0.5589   24.9534 C   0  0  0  0  0  0  0  0  0  0  0  0
    7.8721   -0.1194   23.8831 C   0  0  0  0  0  0  0  0  0  0  0  0
    8.6238   -0.7606   22.6929 C   0  0  2  0  0  0  0  0  0  0  0  0
    6.3062    0.3769   17.3421 N   0  0  0  0  0  0  0  0  0  0  0  0
    8.0140   -2.1541   22.4331 N   0  0  0  0  0  0  0  0  0  0  0  0
    7.2292   -0.6897   20.7790 N   0  0  0  0  0  0  0  0  0  0  0  0
    8.6609    1.0133   24.4995 N   0  3  0  0  0  0  0  0  0  0  0  0
    8.8033    1.0450   21.0958 O   0  0  0  0  0  0  0  0  0  0  0  0
    6.1325   -2.7706   21.1545 O   0  0  0  0  0  0  0  0  0  0  0  0
   13.4281   -2.1417   21.1101 Cl  0  0  0  0  0  0  0  0  0  0  0  0
    2.5432    3.3510   20.6369 H   0  0  0  0  0  0  0  0  0  0  0  0
    3.5174    2.1137   22.5168 H   0  0  0  0  0  0  0  0  0  0  0  0
    3.3409    2.9743   18.3364 H   0  0  0  0  0  0  0  0  0  0  0  0
    5.3118    0.4895   22.1572 H   0  0  0  0  0  0  0  0  0  0  0  0
   12.5017    0.5981   24.9752 H   0  0  0  0  0  0  0  0  0  0  0  0
   13.9908   -0.5181   23.3800 H   0  0  0  0  0  0  0  0  0  0  0  0
   10.6055   -2.0189   21.2248 H   0  0  0  0  0  0  0  0  0  0  0  0
    4.9141    1.7511   16.7474 H   0  0  0  0  0  0  0  0  0  0  0  0
    7.6445   -0.9764   18.1043 H   0  0  0  0  0  0  0  0  0  0  0  0
    9.7442   -0.1130   25.8264 H   0  0  0  0  0  0  0  0  0  0  0  0
   10.4415    1.4701   25.3782 H   0  0  0  0  0  0  0  0  0  0  0  0
    6.9029    0.3148   23.5864 H   0  0  0  0  0  0  0  0  0  0  0  0
    7.6890   -0.8406   24.6979 H   0  0  0  0  0  0  0  0  0  0  0  0
    8.2129   -2.9428   22.8504 H   0  0  0  0  0  0  0  0  0  0  0  0
    8.1112    1.4092   25.2724 H   0  0  0  0  0  0  0  0  0  0  0  0
    8.7482    1.7640   23.8023 H   0  0  0  0  0  0  0  0  0  0  0  0
  1  2  1  0  0  0  0
  1  3  2  0  0  0  0
  2  4  2  0  0  0  0
  3 10  1  0  0  0  0
  4 11  1  0  0  0  0
  5  6  1  0  0  0  0
  5 12  2  0  0  0  0
  6 15  2  0  0  0  0
  7 13  2  0  0  0  0
  7 15  1  0  0  0  0
  8 10  2  0  0  0  0
  8 21  1  0  0  0  0
  9 14  1  0  0  0  0
  9 21  2  0  0  0  0
 10 11  1  0  0  0  0
 11 14  2  0  0  0  0
 12 13  1  0  0  0  0
 12 18  1  0  0  0  0
 13 20  1  6  0  0  0
 14 23  1  0  0  0  0
 15 27  1  0  0  0  0
 16 20  1  1  0  0  0
 16 23  1  0  0  0  0
 16 25  2  0  0  0  0
 17 22  1  0  0  0  0
 17 23  1  0  0  0  0
 17 26  2  0  0  0  0
 18 24  1  0  0  0  0
 19 20  1  1  0  0  0
 19 24  1  0  0  0  0
 20 22  1  6  0  0  0
  1 28  1  0  0  0  0
  2 29  1  0  0  0  0
  3 30  1  0  0  0  0
  4 31  1  0  0  0  0
  5 32  1  0  0  0  0
  6 33  1  0  0  0  0
  7 34  1  0  0  0  0
  8 35  1  0  0  0  0
  9 36  1  0  0  0  0
 18 37  1  0  0  0  0
 18 38  1  0  0  0  0
 19 39  1  0  0  0  0
 19 40  1  0  0  0  0
 22 41  1  0  0  0  0
 24 42  1  0  0  0  0
 24 43  1  0  0  0  0
M  CHG  1  24   1
M  END
> <compound>
VLA-MRT-a639d434-3

> <compound_smiles>
c1ccc2c(c1)cncc2N3C(=O)[C@@]4(CNCc5c4cc(cc5)Cl)NC3=O

> <enantiomer_smiles>
c1ccc2c(c1)cncc2N3C(=O)[C@@]4(CNCc5c4cc(cc5)Cl)NC3=O

> <scaffold>
tetrahydroisoquinoline-5spiro-isoquinoline

> <clash_score>
0

> <docking_score>
-9.221054077148438

> <overlap_score>
1.0

> <MMFF_internal_energy>
133.06549641287785

> <docked_smiles>
c1ccc2c(c1)cncc2N3C(=O)[C@@]4(C[NH2+]Cc5c4cc(cc5)Cl)NC3=O

$$$$
JOH-MSK-1f2dff76-3_1
  -OEChem-12272114573D

 44 48  0     1  0  0  0  0  0999 V2000
    3.3432    2.6279   20.4411 C   0  0  0  0  0  0  0  0  0  0  0  0
    3.8960    1.9291   21.5050 C   0  0  0  0  0  0  0  0  0  0  0  0
    3.7865    2.4205   19.1660 C   0  0  0  0  0  0  0  0  0  0  0  0
    4.8973    1.0233   21.2988 C   0  0  0  0  0  0  0  0  0  0  0  0
   12.0765    0.0316   24.1541 C   0  0  0  0  0  0  0  0  0  0  0  0
   12.9132   -0.6032   23.2569 C   0  0  0  0  0  0  0  0  0  0  0  0
   10.9991   -1.4331   22.0443 C   0  0  0  0  0  0  0  0  0  0  0  0
    5.3278    1.2339   17.6066 C   0  0  0  0  0  0  0  0  0  0  0  0
    6.8438   -0.2892   18.3752 C   0  0  0  0  0  0  0  0  0  0  0  0
    4.8226    1.4906   18.9054 C   0  0  0  0  0  0  0  0  0  0  0  0
    5.3982    0.7733   19.9948 C   0  0  0  0  0  0  0  0  0  0  0  0
   10.7040   -0.0625   23.9898 C   0  0  0  0  0  0  0  0  0  0  0  0
   10.1406   -0.7765   22.9250 C   0  0  0  0  0  0  0  0  0  0  0  0
    6.4440   -0.1472   19.6979 C   0  0  0  0  0  0  0  0  0  0  0  0
   12.3683   -1.3298   22.2234 C   0  0  0  0  0  0  0  0  0  0  0  0
    6.9866   -1.9366   21.3580 C   0  0  0  0  0  0  0  0  0  0  0  0
    8.2490    0.0169   21.4271 C   0  0  0  0  0  0  0  0  0  0  0  0
    9.9479    0.5589   24.9534 C   0  0  0  0  0  0  0  0  0  0  0  0
    8.0140   -2.1541   22.4331 C   0  0  0  0  0  0  0  0  0  0  0  0
    7.8721   -0.1194   23.8831 C   0  0  0  0  0  0  0  0  0  0  0  0
    8.6238   -0.7606   22.6929 C   0  0  2  0  0  0  0  0  0  0  0  0
    6.3062    0.3769   17.3421 N   0  0  0  0  0  0  0  0  0  0  0  0
    7.2292   -0.6897   20.7790 N   0  0  0  0  0  0  0  0  0  0  0  0
    8.6609    1.0133   24.4995 N   0  3  0  0  0  0  0  0  0  0  0  0
    6.1266   -2.7638   21.0978 O   0  0  0  0  0  0  0  0  0  0  0  0
    8.7847    1.0642   21.1054 O   0  0  0  0  0  0  0  0  0  0  0  0
   13.4272   -2.1399   21.1078 Cl  0  0  0  0  0  0  0  0  0  0  0  0
    2.5432    3.3510   20.6369 H   0  0  0  0  0  0  0  0  0  0  0  0
    3.5174    2.1137   22.5168 H   0  0  0  0  0  0  0  0  0  0  0  0
    3.3409    2.9743   18.3364 H   0  0  0  0  0  0  0  0  0  0  0  0
    5.3118    0.4895   22.1572 H   0  0  0  0  0  0  0  0  0  0  0  0
   12.5015    0.5976   24.9753 H   0  0  0  0  0  0  0  0  0  0  0  0
   13.9910   -0.5172   23.3789 H   0  0  0  0  0  0  0  0  0  0  0  0
   10.6032   -2.0166   21.2249 H   0  0  0  0  0  0  0  0  0  0  0  0
    4.9141    1.7511   16.7474 H   0  0  0  0  0  0  0  0  0  0  0  0
    7.6445   -0.9764   18.1043 H   0  0  0  0  0  0  0  0  0  0  0  0
    9.7419   -0.1140   25.8245 H   0  0  0  0  0  0  0  0  0  0  0  0
   10.4415    1.4689   25.3796 H   0  0  0  0  0  0  0  0  0  0  0  0
    7.4953   -2.5681   23.3070 H   0  0  0  0  0  0  0  0  0  0  0  0
    8.7550   -2.8869   22.0955 H   0  0  0  0  0  0  0  0  0  0  0  0
    6.8995    0.3081   23.5892 H   0  0  0  0  0  0  0  0  0  0  0  0
    7.6790   -0.8376   24.6984 H   0  0  0  0  0  0  0  0  0  0  0  0
    8.1114    1.4066   25.2746 H   0  0  0  0  0  0  0  0  0  0  0  0
    8.7483    1.7688   23.8077 H   0  0  0  0  0  0  0  0  0  0  0  0
  1  2  1  0  0  0  0
  1  3  2  0  0  0  0
  2  4  2  0  0  0  0
  3 10  1  0  0  0  0
  4 11  1  0  0  0  0
  5  6  1  0  0  0  0
  5 12  2  0  0  0  0
  6 15  2  0  0  0  0
  7 13  2  0  0  0  0
  7 15  1  0  0  0  0
  8 10  2  0  0  0  0
  8 22  1  0  0  0  0
  9 14  1  0  0  0  0
  9 22  2  0  0  0  0
 10 11  1  0  0  0  0
 11 14  2  0  0  0  0
 12 13  1  0  0  0  0
 12 18  1  0  0  0  0
 13 21  1  1  0  0  0
 14 23  1  0  0  0  0
 15 27  1  0  0  0  0
 16 19  1  0  0  0  0
 16 23  1  0  0  0  0
 16 25  2  0  0  0  0
 17 21  1  6  0  0  0
 17 23  1  0  0  0  0
 17 26  2  0  0  0  0
 18 24  1  0  0  0  0
 19 21  1  6  0  0  0
 20 21  1  1  0  0  0
 20 24  1  0  0  0  0
  1 28  1  0  0  0  0
  2 29  1  0  0  0  0
  3 30  1  0  0  0  0
  4 31  1  0  0  0  0
  5 32  1  0  0  0  0
  6 33  1  0  0  0  0
  7 34  1  0  0  0  0
  8 35  1  0  0  0  0
  9 36  1  0  0  0  0
 18 37  1  0  0  0  0
 18 38  1  0  0  0  0
 19 39  1  0  0  0  0
 19 40  1  0  0  0  0
 20 41  1  0  0  0  0
 20 42  1  0  0  0  0
 24 43  1  0  0  0  0
 24 44  1  0  0  0  0
M  CHG  1  24   1
M  END
> <compound>
JOH-MSK-1f2dff76-3

> <compound_smiles>
c1ccc2c(c1)cncc2N3C(=O)C[C@]4(C3=O)CNCc5c4cc(cc5)Cl

> <enantiomer_smiles>
c1ccc2c(c1)cncc2N3C(=O)C[C@]4(C3=O)CNCc5c4cc(cc5)Cl

> <scaffold>
tetrahydroisoquinoline-5spiro-isoquinoline

> <clash_score>
0

> <docking_score>
-10.125946044921875

> <overlap_score>
1.0

> <MMFF_internal_energy>
104.83630244393856

> <docked_smiles>
c1ccc2c(c1)cncc2N3C(=O)C[C@@]4(C3=O)C[NH2+]Cc5c4cc(cc5)Cl

$$$$
EDJ-MED-94fddcec-4_1
  -OEChem-12272114573D

 45 49  0     1  0  0  0  0  0999 V2000
    3.3432    2.6279   20.4411 C   0  0  0  0  0  0  0  0  0  0  0  0
    3.8960    1.9291   21.5050 C   0  0  0  0  0  0  0  0  0  0  0  0
    3.7865    2.4205   19.1660 C   0  0  0  0  0  0  0  0  0  0  0  0
    4.8973    1.0233   21.2988 C   0  0  0  0  0  0  0  0  0  0  0  0
   12.0765    0.0316   24.1541 C   0  0  0  0  0  0  0  0  0  0  0  0
   12.9132   -0.6032   23.2569 C   0  0  0  0  0  0  0  0  0  0  0  0
   10.9991   -1.4331   22.0443 C   0  0  0  0  0  0  0  0  0  0  0  0
    5.3278    1.2339   17.6066 C   0  0  0  0  0  0  0  0  0  0  0  0
    6.8438   -0.2892   18.3752 C   0  0  0  0  0  0  0  0  0  0  0  0
    4.8226    1.4906   18.9054 C   0  0  0  0  0  0  0  0  0  0  0  0
    5.3982    0.7733   19.9948 C   0  0  0  0  0  0  0  0  0  0  0  0
   10.1406   -0.7765   22.9250 C   0  0  0  0  0  0  0  0  0  0  0  0
    6.4440   -0.1472   19.6979 C   0  0  0  0  0  0  0  0  0  0  0  0
   10.7040   -0.0625   23.9898 C   0  0  0  0  0  0  0  0  0  0  0  0
   12.3683   -1.3298   22.2234 C   0  0  0  0  0  0  0  0  0  0  0  0
    8.2490    0.0169   21.4271 C   0  0  0  0  0  0  0  0  0  0  0  0
    8.0140   -2.1541   22.4331 C   0  0  0  0  0  0  0  0  0  0  0  0
    7.8721   -0.1194   23.8831 C   0  0  0  0  0  0  0  0  0  0  0  0
    6.9866   -1.9366   21.3580 C   0  0  0  0  0  0  0  0  0  0  0  0
    8.6609    1.0133   24.4995 C   0  0  0  0  0  0  0  0  0  0  0  0
    8.6238   -0.7606   22.6929 C   0  0  3  0  0  0  0  0  0  0  0  0
    6.3062    0.3769   17.3421 N   0  0  0  0  0  0  0  0  0  0  0  0
    7.2292   -0.6897   20.7790 N   0  0  0  0  0  0  0  0  0  0  0  0
    8.7559    1.0937   21.1315 O   0  0  0  0  0  0  0  0  0  0  0  0
   10.7450    1.7883   25.4928 O   0  0  0  0  0  0  0  0  0  0  0  0
    9.7102   -0.4301   26.1384 O   0  0  0  0  0  0  0  0  0  0  0  0
    9.9479    0.5589   24.9534 S   0  0  0  0  0  0  0  0  0  0  0  0
   13.4291   -2.1444   21.1126 Cl  0  0  0  0  0  0  0  0  0  0  0  0
    2.5432    3.3510   20.6369 H   0  0  0  0  0  0  0  0  0  0  0  0
    3.5174    2.1137   22.5168 H   0  0  0  0  0  0  0  0  0  0  0  0
    3.3409    2.9743   18.3364 H   0  0  0  0  0  0  0  0  0  0  0  0
    5.3118    0.4895   22.1572 H   0  0  0  0  0  0  0  0  0  0  0  0
   12.5120    0.5953   24.9760 H   0  0  0  0  0  0  0  0  0  0  0  0
   13.9915   -0.5226   23.3833 H   0  0  0  0  0  0  0  0  0  0  0  0
   10.6108   -2.0222   21.2304 H   0  0  0  0  0  0  0  0  0  0  0  0
    4.9141    1.7511   16.7474 H   0  0  0  0  0  0  0  0  0  0  0  0
    7.6445   -0.9764   18.1043 H   0  0  0  0  0  0  0  0  0  0  0  0
    7.5775   -2.6140   23.3286 H   0  0  0  0  0  0  0  0  0  0  0  0
    8.7708   -2.8631   22.0636 H   0  0  0  0  0  0  0  0  0  0  0  0
    7.6611   -0.8658   24.6526 H   0  0  0  0  0  0  0  0  0  0  0  0
    6.9006    0.2556   23.5459 H   0  0  0  0  0  0  0  0  0  0  0  0
    7.0227   -2.7503   20.5949 H   0  0  0  0  0  0  0  0  0  0  0  0
    5.9552   -1.9482   21.7828 H   0  0  0  0  0  0  0  0  0  0  0  0
    8.7031    1.8245   23.7055 H   0  0  0  0  0  0  0  0  0  0  0  0
    7.9987    1.4859   25.2931 H   0  0  0  0  0  0  0  0  0  0  0  0
  1  2  1  0  0  0  0
  1  3  2  0  0  0  0
  2  4  2  0  0  0  0
  3 10  1  0  0  0  0
  4 11  1  0  0  0  0
  5  6  1  0  0  0  0
  5 14  2  0  0  0  0
  6 15  2  0  0  0  0
  7 12  2  0  0  0  0
  7 15  1  0  0  0  0
  8 10  2  0  0  0  0
  8 22  1  0  0  0  0
  9 13  1  0  0  0  0
  9 22  2  0  0  0  0
 10 11  1  0  0  0  0
 11 13  2  0  0  0  0
 12 14  1  0  0  0  0
 12 21  1  0  0  0  0
 13 23  1  0  0  0  0
 14 27  1  0  0  0  0
 15 28  1  0  0  0  0
 16 21  1  0  0  0  0
 16 23  1  0  0  0  0
 16 24  2  0  0  0  0
 17 19  1  0  0  0  0
 17 21  1  0  0  0  0
 18 20  1  0  0  0  0
 18 21  1  0  0  0  0
 19 23  1  0  0  0  0
 20 27  1  0  0  0  0
 25 27  2  0  0  0  0
 26 27  2  0  0  0  0
  1 29  1  0  0  0  0
  2 30  1  0  0  0  0
  3 31  1  0  0  0  0
  4 32  1  0  0  0  0
  5 33  1  0  0  0  0
  6 34  1  0  0  0  0
  7 35  1  0  0  0  0
  8 36  1  0  0  0  0
  9 37  1  0  0  0  0
 17 38  1  0  0  0  0
 17 39  1  0  0  0  0
 18 40  1  0  0  0  0
 18 41  1  0  0  0  0
 19 42  1  0  0  0  0
 19 43  1  0  0  0  0
 20 44  1  0  0  0  0
 20 45  1  0  0  0  0
M  END
> <compound>
EDJ-MED-94fddcec-4

> <compound_smiles>
c1ccc2c(c1)cncc2N3CCC4(C3=O)CCS(=O)(=O)c5c4cc(cc5)Cl

> <enantiomer_smiles>
c1ccc2c(c1)cncc2N3CCC4(C3=O)CCS(=O)(=O)c5c4cc(cc5)Cl

> <scaffold>
tetralinlike-5spiro-isoquinoline

> <clash_score>
0.7168170439667734

> <docking_score>
-8.942693710327148

> <overlap_score>
0.9900251030921936

> <MMFF_internal_energy>
296.6094651134163

> <docked_smiles>
c1ccc2c(c1)cncc2N3CC[C@@]4(C3=O)CCS(=O)(=O)c5c4cc(cc5)Cl

$$$$
VLA-UNK-3a43cd95-1_1
  -OEChem-12272114573D

 41 45  0     1  0  0  0  0  0999 V2000
    3.3432    2.6279   20.4411 C   0  0  0  0  0  0  0  0  0  0  0  0
    3.8960    1.9291   21.5050 C   0  0  0  0  0  0  0  0  0  0  0  0
    3.7865    2.4205   19.1660 C   0  0  0  0  0  0  0  0  0  0  0  0
    4.8973    1.0233   21.2988 C   0  0  0  0  0  0  0  0  0  0  0  0
   10.9991   -1.4331   22.0443 C   0  0  0  0  0  0  0  0  0  0  0  0
   12.0765    0.0316   24.1541 C   0  0  0  0  0  0  0  0  0  0  0  0
    5.3278    1.2339   17.6066 C   0  0  0  0  0  0  0  0  0  0  0  0
    6.8438   -0.2892   18.3752 C   0  0  0  0  0  0  0  0  0  0  0  0
    4.8226    1.4906   18.9054 C   0  0  0  0  0  0  0  0  0  0  0  0
    5.3982    0.7733   19.9948 C   0  0  0  0  0  0  0  0  0  0  0  0
   10.1406   -0.7765   22.9250 C   0  0  0  0  0  0  0  0  0  0  0  0
    6.4440   -0.1472   19.6979 C   0  0  0  0  0  0  0  0  0  0  0  0
   10.7040   -0.0625   23.9898 C   0  0  0  0  0  0  0  0  0  0  0  0
   12.9132   -0.6032   23.2569 C   0  0  0  0  0  0  0  0  0  0  0  0
   12.3683   -1.3298   22.2234 C   0  0  0  0  0  0  0  0  0  0  0  0
    8.2490    0.0169   21.4271 C   0  0  0  0  0  0  0  0  0  0  0  0
    6.9866   -1.9366   21.3580 C   0  0  0  0  0  0  0  0  0  0  0  0
    7.8721   -0.1194   23.8831 C   0  0  0  0  0  0  0  0  0  0  0  0
    8.6609    1.0133   24.4995 C   0  0  0  0  0  0  0  0  0  0  0  0
    8.6238   -0.7606   22.6929 C   0  0  2  0  0  0  0  0  0  0  0  0
    6.3062    0.3769   17.3421 N   0  0  0  0  0  0  0  0  0  0  0  0
    8.0140   -2.1541   22.4331 N   0  0  0  0  0  0  0  0  0  0  0  0
    7.2292   -0.6897   20.7790 N   0  0  0  0  0  0  0  0  0  0  0  0
    8.8036    1.0441   21.0921 O   0  0  0  0  0  0  0  0  0  0  0  0
    6.1327   -2.7708   21.1544 O   0  0  0  0  0  0  0  0  0  0  0  0
    9.9479    0.5589   24.9534 O   0  0  0  0  0  0  0  0  0  0  0  0
   14.2427   -0.4976   23.4047 F   0  0  0  0  0  0  0  0  0  0  0  0
   13.4216   -2.1488   21.1082 Cl  0  0  0  0  0  0  0  0  0  0  0  0
    2.5432    3.3510   20.6369 H   0  0  0  0  0  0  0  0  0  0  0  0
    3.5174    2.1137   22.5168 H   0  0  0  0  0  0  0  0  0  0  0  0
    3.3409    2.9743   18.3364 H   0  0  0  0  0  0  0  0  0  0  0  0
    5.3118    0.4895   22.1572 H   0  0  0  0  0  0  0  0  0  0  0  0
   10.6016   -2.0221   21.2282 H   0  0  0  0  0  0  0  0  0  0  0  0
   12.4999    0.6043   24.9740 H   0  0  0  0  0  0  0  0  0  0  0  0
    4.9141    1.7511   16.7474 H   0  0  0  0  0  0  0  0  0  0  0  0
    7.6445   -0.9764   18.1043 H   0  0  0  0  0  0  0  0  0  0  0  0
    7.7108   -0.8890   24.6592 H   0  0  0  0  0  0  0  0  0  0  0  0
    6.8748    0.2366   23.5739 H   0  0  0  0  0  0  0  0  0  0  0  0
    8.8019    1.8522   23.8123 H   0  0  0  0  0  0  0  0  0  0  0  0
    8.1342    1.3967   25.3770 H   0  0  0  0  0  0  0  0  0  0  0  0
    8.2122   -2.9422   22.8521 H   0  0  0  0  0  0  0  0  0  0  0  0
  1  2  1  0  0  0  0
  1  3  2  0  0  0  0
  2  4  2  0  0  0  0
  3  9  1  0  0  0  0
  4 10  1  0  0  0  0
  5 11  2  0  0  0  0
  5 15  1  0  0  0  0
  6 13  2  0  0  0  0
  6 14  1  0  0  0  0
  7  9  2  0  0  0  0
  7 21  1  0  0  0  0
  8 12  1  0  0  0  0
  8 21  2  0  0  0  0
  9 10  1  0  0  0  0
 10 12  2  0  0  0  0
 11 13  1  0  0  0  0
 11 20  1  6  0  0  0
 12 23  1  0  0  0  0
 13 26  1  0  0  0  0
 14 15  2  0  0  0  0
 14 27  1  0  0  0  0
 15 28  1  0  0  0  0
 16 20  1  1  0  0  0
 16 23  1  0  0  0  0
 16 24  2  0  0  0  0
 17 22  1  0  0  0  0
 17 23  1  0  0  0  0
 17 25  2  0  0  0  0
 18 19  1  0  0  0  0
 18 20  1  1  0  0  0
 19 26  1  0  0  0  0
 20 22  1  6  0  0  0
  1 29  1  0  0  0  0
  2 30  1  0  0  0  0
  3 31  1  0  0  0  0
  4 32  1  0  0  0  0
  5 33  1  0  0  0  0
  6 34  1  0  0  0  0
  7 35  1  0  0  0  0
  8 36  1  0  0  0  0
 18 37  1  0  0  0  0
 18 38  1  0  0  0  0
 19 39  1  0  0  0  0
 19 40  1  0  0  0  0
 22 41  1  0  0  0  0
M  END
> <compound>
VLA-UNK-3a43cd95-1

> <compound_smiles>
c1ccc2c(c1)cncc2N3C(=O)[C@@]4(CCOc5c4cc(c(c5)F)Cl)NC3=O

> <enantiomer_smiles>
c1ccc2c(c1)cncc2N3C(=O)[C@@]4(CCOc5c4cc(c(c5)F)Cl)NC3=O

> <scaffold>
chromane-5spiro-isoquinoline

> <clash_score>
0

> <docking_score>
-9.432394027709961

> <overlap_score>
1.009229063987732

> <MMFF_internal_energy>
74.69586153215889

> <docked_smiles>
c1ccc2c(c1)cncc2N3C(=O)[C@@]4(CCOc5c4cc(c(c5)F)Cl)NC3=O

$$$$
VLA-UNK-56836b69-5_1
  -OEChem-12272114573D

 41 45  0     1  0  0  0  0  0999 V2000
    3.3432    2.6279   20.4411 C   0  0  0  0  0  0  0  0  0  0  0  0
    3.8960    1.9291   21.5050 C   0  0  0  0  0  0  0  0  0  0  0  0
    3.7865    2.4205   19.1660 C   0  0  0  0  0  0  0  0  0  0  0  0
    4.8973    1.0233   21.2988 C   0  0  0  0  0  0  0  0  0  0  0  0
   10.9991   -1.4331   22.0443 C   0  0  0  0  0  0  0  0  0  0  0  0
   12.0765    0.0316   24.1541 C   0  0  0  0  0  0  0  0  0  0  0  0
    5.3278    1.2339   17.6066 C   0  0  0  0  0  0  0  0  0  0  0  0
    6.8438   -0.2892   18.3752 C   0  0  0  0  0  0  0  0  0  0  0  0
    4.8226    1.4906   18.9054 C   0  0  0  0  0  0  0  0  0  0  0  0
    5.3982    0.7733   19.9948 C   0  0  0  0  0  0  0  0  0  0  0  0
   10.1406   -0.7765   22.9250 C   0  0  0  0  0  0  0  0  0  0  0  0
   10.7040   -0.0625   23.9898 C   0  0  0  0  0  0  0  0  0  0  0  0
    6.4440   -0.1472   19.6979 C   0  0  0  0  0  0  0  0  0  0  0  0
   12.3683   -1.3298   22.2234 C   0  0  0  0  0  0  0  0  0  0  0  0
   12.9132   -0.6032   23.2569 C   0  0  0  0  0  0  0  0  0  0  0  0
    8.6609    1.0133   24.4995 C   0  0  0  0  0  0  0  0  0  0  0  0
    8.2490    0.0169   21.4271 C   0  0  0  0  0  0  0  0  0  0  0  0
    6.9866   -1.9366   21.3580 C   0  0  0  0  0  0  0  0  0  0  0  0
    7.8721   -0.1194   23.8831 C   0  0  0  0  0  0  0  0  0  0  0  0
    8.6238   -0.7606   22.6929 C   0  0  2  0  0  0  0  0  0  0  0  0
    6.3062    0.3769   17.3421 N   0  0  0  0  0  0  0  0  0  0  0  0
    9.9479    0.5589   24.9534 N   0  0  0  0  0  0  0  0  0  0  0  0
    8.0140   -2.1541   22.4331 N   0  0  0  0  0  0  0  0  0  0  0  0
    7.2292   -0.6897   20.7790 N   0  0  0  0  0  0  0  0  0  0  0  0
    8.2476    2.1088   24.6779 O   0  0  0  0  0  0  0  0  0  0  0  0
    8.8033    1.0443   21.0969 O   0  0  0  0  0  0  0  0  0  0  0  0
    6.1315   -2.7698   21.1559 O   0  0  0  0  0  0  0  0  0  0  0  0
   13.3785   -2.1571   21.0638 Cl  0  0  0  0  0  0  0  0  0  0  0  0
   14.6206   -0.4403   23.4812 Cl  0  0  0  0  0  0  0  0  0  0  0  0
    2.5432    3.3510   20.6369 H   0  0  0  0  0  0  0  0  0  0  0  0
    3.5174    2.1137   22.5168 H   0  0  0  0  0  0  0  0  0  0  0  0
    3.3409    2.9743   18.3364 H   0  0  0  0  0  0  0  0  0  0  0  0
    5.3118    0.4895   22.1572 H   0  0  0  0  0  0  0  0  0  0  0  0
   10.6018   -2.0091   21.2184 H   0  0  0  0  0  0  0  0  0  0  0  0
   12.4892    0.5984   24.9870 H   0  0  0  0  0  0  0  0  0  0  0  0
    4.9141    1.7511   16.7474 H   0  0  0  0  0  0  0  0  0  0  0  0
    7.6445   -0.9764   18.1043 H   0  0  0  0  0  0  0  0  0  0  0  0
    7.7303   -0.8549   24.6713 H   0  0  0  0  0  0  0  0  0  0  0  0
    6.9061    0.2626   23.5691 H   0  0  0  0  0  0  0  0  0  0  0  0
   10.2090    0.6980   25.8481 H   0  0  0  0  0  0  0  0  0  0  0  0
    8.2163   -2.9436   22.8463 H   0  0  0  0  0  0  0  0  0  0  0  0
  1  2  1  0  0  0  0
  1  3  2  0  0  0  0
  2  4  2  0  0  0  0
  3  9  1  0  0  0  0
  4 10  1  0  0  0  0
  5 11  2  0  0  0  0
  5 14  1  0  0  0  0
  6 12  2  0  0  0  0
  6 15  1  0  0  0  0
  7  9  2  0  0  0  0
  7 21  1  0  0  0  0
  8 13  1  0  0  0  0
  8 21  2  0  0  0  0
  9 10  1  0  0  0  0
 10 13  2  0  0  0  0
 11 12  1  0  0  0  0
 11 20  1  6  0  0  0
 12 22  1  0  0  0  0
 13 24  1  0  0  0  0
 14 15  2  0  0  0  0
 14 28  1  0  0  0  0
 15 29  1  0  0  0  0
 16 19  1  0  0  0  0
 16 22  1  0  0  0  0
 16 25  2  0  0  0  0
 17 20  1  1  0  0  0
 17 24  1  0  0  0  0
 17 26  2  0  0  0  0
 18 23  1  0  0  0  0
 18 24  1  0  0  0  0
 18 27  2  0  0  0  0
 19 20  1  1  0  0  0
 20 23  1  6  0  0  0
  1 30  1  0  0  0  0
  2 31  1  0  0  0  0
  3 32  1  0  0  0  0
  4 33  1  0  0  0  0
  5 34  1  0  0  0  0
  6 35  1  0  0  0  0
  7 36  1  0  0  0  0
  8 37  1  0  0  0  0
 19 38  1  0  0  0  0
 19 39  1  0  0  0  0
 22 40  1  0  0  0  0
 23 41  1  0  0  0  0
M  END
> <compound>
VLA-UNK-56836b69-5

> <compound_smiles>
c1ccc2c(c1)cncc2N3C(=O)[C@@]4(CC(=O)Nc5c4cc(c(c5)Cl)Cl)NC3=O

> <enantiomer_smiles>
c1ccc2c(c1)cncc2N3C(=O)[C@@]4(CC(=O)Nc5c4cc(c(c5)Cl)Cl)NC3=O

> <scaffold>
tetralinlike-5spiro-isoquinoline

> <clash_score>
0

> <docking_score>
-9.28255844116211

> <overlap_score>
1.0152134895324707

> <MMFF_internal_energy>
72.47502407127666

> <docked_smiles>
c1ccc2c(c1)cncc2N3C(=O)[C@@]4(CC(=O)Nc5c4cc(c(c5)Cl)Cl)NC3=O

$$$$
JOH-MSK-51c67e7d-1_1
  -OEChem-12272114573D

 47 51  0     1  0  0  0  0  0999 V2000
    3.3432    2.6279   20.4411 C   0  0  0  0  0  0  0  0  0  0  0  0
    3.8960    1.9291   21.5050 C   0  0  0  0  0  0  0  0  0  0  0  0
    3.7865    2.4205   19.1660 C   0  0  0  0  0  0  0  0  0  0  0  0
    4.8973    1.0233   21.2988 C   0  0  0  0  0  0  0  0  0  0  0  0
   12.0765    0.0316   24.1541 C   0  0  0  0  0  0  0  0  0  0  0  0
   12.9132   -0.6032   23.2569 C   0  0  0  0  0  0  0  0  0  0  0  0
   10.9991   -1.4331   22.0443 C   0  0  0  0  0  0  0  0  0  0  0  0
    5.3278    1.2339   17.6066 C   0  0  0  0  0  0  0  0  0  0  0  0
    6.8438   -0.2892   18.3752 C   0  0  0  0  0  0  0  0  0  0  0  0
    4.8226    1.4906   18.9054 C   0  0  0  0  0  0  0  0  0  0  0  0
    5.3982    0.7733   19.9948 C   0  0  0  0  0  0  0  0  0  0  0  0
   10.7040   -0.0625   23.9898 C   0  0  0  0  0  0  0  0  0  0  0  0
   10.1406   -0.7765   22.9250 C   0  0  0  0  0  0  0  0  0  0  0  0
    6.4440   -0.1472   19.6979 C   0  0  0  0  0  0  0  0  0  0  0  0
   12.3683   -1.3298   22.2234 C   0  0  0  0  0  0  0  0  0  0  0  0
    6.9866   -1.9366   21.3580 C   0  0  0  0  0  0  0  0  0  0  0  0
    8.2490    0.0169   21.4271 C   0  0  0  0  0  0  0  0  0  0  0  0
    9.9479    0.5589   24.9534 C   0  0  0  0  0  0  0  0  0  0  0  0
    8.0140   -2.1541   22.4331 C   0  0  0  0  0  0  0  0  0  0  0  0
    7.8721   -0.1194   23.8831 C   0  0  0  0  0  0  0  0  0  0  0  0
    8.6238   -0.7606   22.6929 C   0  0  1  0  0  0  0  0  0  0  0  0
    8.7398    2.1984   23.5627 C   0  0  0  0  0  0  0  0  0  0  0  0
    6.3062    0.3769   17.3421 N   0  0  0  0  0  0  0  0  0  0  0  0
    7.2292   -0.6897   20.7790 N   0  0  0  0  0  0  0  0  0  0  0  0
    8.6609    1.0133   24.4995 N   0  3  2  0  0  0  0  0  0  0  0  0
    6.1173   -2.7566   21.1102 O   0  0  0  0  0  0  0  0  0  0  0  0
    8.7900    1.0562   21.0974 O   0  0  0  0  0  0  0  0  0  0  0  0
   13.4283   -2.1446   21.1125 Cl  0  0  0  0  0  0  0  0  0  0  0  0
    2.5432    3.3510   20.6369 H   0  0  0  0  0  0  0  0  0  0  0  0
    3.5174    2.1137   22.5168 H   0  0  0  0  0  0  0  0  0  0  0  0
    3.3409    2.9743   18.3364 H   0  0  0  0  0  0  0  0  0  0  0  0
    5.3118    0.4895   22.1572 H   0  0  0  0  0  0  0  0  0  0  0  0
   12.5032    0.5918   24.9781 H   0  0  0  0  0  0  0  0  0  0  0  0
   13.9914   -0.5219   23.3826 H   0  0  0  0  0  0  0  0  0  0  0  0
   10.6136   -2.0222   21.2272 H   0  0  0  0  0  0  0  0  0  0  0  0
    4.9141    1.7511   16.7474 H   0  0  0  0  0  0  0  0  0  0  0  0
    7.6445   -0.9764   18.1043 H   0  0  0  0  0  0  0  0  0  0  0  0
    9.7370   -0.1148   25.8247 H   0  0  0  0  0  0  0  0  0  0  0  0
   10.4767    1.4538   25.3759 H   0  0  0  0  0  0  0  0  0  0  0  0
    7.5530   -2.5990   23.3180 H   0  0  0  0  0  0  0  0  0  0  0  0
    8.7495   -2.8591   22.0313 H   0  0  0  0  0  0  0  0  0  0  0  0
    6.9002    0.3015   23.5758 H   0  0  0  0  0  0  0  0  0  0  0  0
    7.6931   -0.8554   24.6832 H   0  0  0  0  0  0  0  0  0  0  0  0
    9.2946    1.8789   22.6786 H   0  0  0  0  0  0  0  0  0  0  0  0
    7.7269    2.5089   23.2997 H   0  0  0  0  0  0  0  0  0  0  0  0
    9.2690    2.9930   24.0920 H   0  0  0  0  0  0  0  0  0  0  0  0
    8.1085    1.3445   25.3129 H   0  0  0  0  0  0  0  0  0  0  0  0
  1  2  1  0  0  0  0
  1  3  2  0  0  0  0
  2  4  2  0  0  0  0
  3 10  1  0  0  0  0
  4 11  1  0  0  0  0
  5  6  2  0  0  0  0
  5 12  1  0  0  0  0
  6 15  1  0  0  0  0
  7 13  1  0  0  0  0
  7 15  2  0  0  0  0
  8 10  2  0  0  0  0
  8 23  1  0  0  0  0
  9 14  1  0  0  0  0
  9 23  2  0  0  0  0
 10 11  1  0  0  0  0
 11 14  2  0  0  0  0
 12 13  2  0  0  0  0
 12 18  1  0  0  0  0
 13 21  1  1  0  0  0
 14 24  1  0  0  0  0
 15 28  1  0  0  0  0
 16 19  1  0  0  0  0
 16 24  1  0  0  0  0
 16 26  2  0  0  0  0
 17 21  1  6  0  0  0
 17 24  1  0  0  0  0
 17 27  2  0  0  0  0
 18 25  1  0  0  0  0
 19 21  1  6  0  0  0
 20 21  1  1  0  0  0
 20 25  1  0  0  0  0
 22 25  1  1  0  0  0
  1 29  1  0  0  0  0
  2 30  1  0  0  0  0
  3 31  1  0  0  0  0
  4 32  1  0  0  0  0
  5 33  1  0  0  0  0
  6 34  1  0  0  0  0
  7 35  1  0  0  0  0
  8 36  1  0  0  0  0
  9 37  1  0  0  0  0
 18 38  1  0  0  0  0
 18 39  1  0  0  0  0
 19 40  1  0  0  0  0
 19 41  1  0  0  0  0
 20 42  1  0  0  0  0
 20 43  1  0  0  0  0
 22 44  1  0  0  0  0
 22 45  1  0  0  0  0
 22 46  1  0  0  0  0
 25 47  1  0  0  0  0
M  CHG  1  25   1
M  END
> <compound>
JOH-MSK-51c67e7d-1

> <compound_smiles>
CN1Cc2ccc(cc2[C@@]3(C1)CC(=O)N(C3=O)c4cncc5c4cccc5)Cl

> <enantiomer_smiles>
C[N@@]1Cc2ccc(cc2[C@@]3(C1)CC(=O)N(C3=O)c4cncc5c4cccc5)Cl

> <scaffold>
tetrahydroisoquinoline-5spiro-isoquinoline

> <clash_score>
0

> <docking_score>
-9.997032165527344

> <overlap_score>
1.0

> <MMFF_internal_energy>
122.66087331592895

> <docked_smiles>
C[N@@H+]1Cc2ccc(cc2[C@]3(C1)CC(=O)N(C3=O)c4cncc5c4cccc5)Cl

$$$$
JOH-MSK-51c67e7d-2_1
  -OEChem-12272114573D

 47 51  0     1  0  0  0  0  0999 V2000
    3.3432    2.6279   20.4411 C   0  0  0  0  0  0  0  0  0  0  0  0
    3.8960    1.9291   21.5050 C   0  0  0  0  0  0  0  0  0  0  0  0
    3.7865    2.4205   19.1660 C   0  0  0  0  0  0  0  0  0  0  0  0
    4.8973    1.0233   21.2988 C   0  0  0  0  0  0  0  0  0  0  0  0
   12.0765    0.0316   24.1541 C   0  0  0  0  0  0  0  0  0  0  0  0
   12.9132   -0.6032   23.2569 C   0  0  0  0  0  0  0  0  0  0  0  0
   10.9991   -1.4331   22.0443 C   0  0  0  0  0  0  0  0  0  0  0  0
    5.3278    1.2339   17.6066 C   0  0  0  0  0  0  0  0  0  0  0  0
    6.8438   -0.2892   18.3752 C   0  0  0  0  0  0  0  0  0  0  0  0
    4.8226    1.4906   18.9054 C   0  0  0  0  0  0  0  0  0  0  0  0
    5.3982    0.7733   19.9948 C   0  0  0  0  0  0  0  0  0  0  0  0
   10.7040   -0.0625   23.9898 C   0  0  0  0  0  0  0  0  0  0  0  0
   10.1406   -0.7765   22.9250 C   0  0  0  0  0  0  0  0  0  0  0  0
    6.4440   -0.1472   19.6979 C   0  0  0  0  0  0  0  0  0  0  0  0
   12.3683   -1.3298   22.2234 C   0  0  0  0  0  0  0  0  0  0  0  0
    6.9866   -1.9366   21.3580 C   0  0  0  0  0  0  0  0  0  0  0  0
    8.2490    0.0169   21.4271 C   0  0  0  0  0  0  0  0  0  0  0  0
    9.9479    0.5589   24.9534 C   0  0  0  0  0  0  0  0  0  0  0  0
    8.0140   -2.1541   22.4331 C   0  0  0  0  0  0  0  0  0  0  0  0
    7.8721   -0.1194   23.8831 C   0  0  0  0  0  0  0  0  0  0  0  0
    8.6238   -0.7606   22.6929 C   0  0  2  0  0  0  0  0  0  0  0  0
    8.7402    2.1970   23.5600 C   0  0  0  0  0  0  0  0  0  0  0  0
    6.3062    0.3769   17.3421 N   0  0  0  0  0  0  0  0  0  0  0  0
    7.2292   -0.6897   20.7790 N   0  0  0  0  0  0  0  0  0  0  0  0
    8.6609    1.0133   24.4995 N   0  3  2  0  0  0  0  0  0  0  0  0
    6.1201   -2.7590   21.1053 O   0  0  0  0  0  0  0  0  0  0  0  0
    8.7903    1.0598   21.1011 O   0  0  0  0  0  0  0  0  0  0  0  0
   13.4274   -2.1420   21.1095 Cl  0  0  0  0  0  0  0  0  0  0  0  0
    2.5432    3.3510   20.6369 H   0  0  0  0  0  0  0  0  0  0  0  0
    3.5174    2.1137   22.5168 H   0  0  0  0  0  0  0  0  0  0  0  0
    3.3409    2.9743   18.3364 H   0  0  0  0  0  0  0  0  0  0  0  0
    5.3118    0.4895   22.1572 H   0  0  0  0  0  0  0  0  0  0  0  0
   12.5018    0.5943   24.9770 H   0  0  0  0  0  0  0  0  0  0  0  0
   13.9911   -0.5198   23.3807 H   0  0  0  0  0  0  0  0  0  0  0  0
   10.6035   -2.0218   21.2286 H   0  0  0  0  0  0  0  0  0  0  0  0
    4.9141    1.7511   16.7474 H   0  0  0  0  0  0  0  0  0  0  0  0
    7.6445   -0.9764   18.1043 H   0  0  0  0  0  0  0  0  0  0  0  0
    9.7382   -0.1143   25.8247 H   0  0  0  0  0  0  0  0  0  0  0  0
   10.4771    1.4541   25.3732 H   0  0  0  0  0  0  0  0  0  0  0  0
    7.5348   -2.5824   23.3200 H   0  0  0  0  0  0  0  0  0  0  0  0
    8.7429   -2.8805   22.0523 H   0  0  0  0  0  0  0  0  0  0  0  0
    6.8947    0.2998   23.5814 H   0  0  0  0  0  0  0  0  0  0  0  0
    7.6777   -0.8561   24.6824 H   0  0  0  0  0  0  0  0  0  0  0  0
    9.2903    1.8737   22.6744 H   0  0  0  0  0  0  0  0  0  0  0  0
    7.7276    2.5114   23.3003 H   0  0  0  0  0  0  0  0  0  0  0  0
    9.2748    2.9904   24.0860 H   0  0  0  0  0  0  0  0  0  0  0  0
    8.1122    1.3497   25.3130 H   0  0  0  0  0  0  0  0  0  0  0  0
  1  2  1  0  0  0  0
  1  3  2  0  0  0  0
  2  4  2  0  0  0  0
  3 10  1  0  0  0  0
  4 11  1  0  0  0  0
  5  6  2  0  0  0  0
  5 12  1  0  0  0  0
  6 15  1  0  0  0  0
  7 13  1  0  0  0  0
  7 15  2  0  0  0  0
  8 10  2  0  0  0  0
  8 23  1  0  0  0  0
  9 14  1  0  0  0  0
  9 23  2  0  0  0  0
 10 11  1  0  0  0  0
 11 14  2  0  0  0  0
 12 13  2  0  0  0  0
 12 18  1  0  0  0  0
 13 21  1  6  0  0  0
 14 24  1  0  0  0  0
 15 28  1  0  0  0  0
 16 19  1  0  0  0  0
 16 24  1  0  0  0  0
 16 26  2  0  0  0  0
 17 21  1  1  0  0  0
 17 24  1  0  0  0  0
 17 27  2  0  0  0  0
 18 25  1  0  0  0  0
 19 21  1  1  0  0  0
 20 21  1  6  0  0  0
 20 25  1  0  0  0  0
 22 25  1  1  0  0  0
  1 29  1  0  0  0  0
  2 30  1  0  0  0  0
  3 31  1  0  0  0  0
  4 32  1  0  0  0  0
  5 33  1  0  0  0  0
  6 34  1  0  0  0  0
  7 35  1  0  0  0  0
  8 36  1  0  0  0  0
  9 37  1  0  0  0  0
 18 38  1  0  0  0  0
 18 39  1  0  0  0  0
 19 40  1  0  0  0  0
 19 41  1  0  0  0  0
 20 42  1  0  0  0  0
 20 43  1  0  0  0  0
 22 44  1  0  0  0  0
 22 45  1  0  0  0  0
 22 46  1  0  0  0  0
 25 47  1  0  0  0  0
M  CHG  1  25   1
M  END
> <compound>
JOH-MSK-51c67e7d-2

> <compound_smiles>
CN1Cc2ccc(cc2[C@]3(C1)CC(=O)N(C3=O)c4cncc5c4cccc5)Cl

> <enantiomer_smiles>
C[N@@]1Cc2ccc(cc2[C@]3(C1)CC(=O)N(C3=O)c4cncc5c4cccc5)Cl

> <scaffold>
tetrahydroisoquinoline-5spiro-isoquinoline

> <clash_score>
0

> <docking_score>
-9.998977661132812

> <overlap_score>
1.0

> <MMFF_internal_energy>
123.12671409695068

> <docked_smiles>
C[N@@H+]1Cc2ccc(cc2[C@]3(C1)CC(=O)N(C3=O)c4cncc5c4cccc5)Cl

$$$$
ALP-POS-41e2080f-1_1
  -OEChem-12272114573D

 45 49  0     1  0  0  0  0  0999 V2000
    3.3432    2.6279   20.4411 C   0  0  0  0  0  0  0  0  0  0  0  0
    3.8960    1.9291   21.5050 C   0  0  0  0  0  0  0  0  0  0  0  0
    3.7865    2.4205   19.1660 C   0  0  0  0  0  0  0  0  0  0  0  0
    4.8973    1.0233   21.2988 C   0  0  0  0  0  0  0  0  0  0  0  0
   12.0765    0.0316   24.1541 C   0  0  0  0  0  0  0  0  0  0  0  0
   12.9132   -0.6032   23.2569 C   0  0  0  0  0  0  0  0  0  0  0  0
   10.9991   -1.4331   22.0443 C   0  0  0  0  0  0  0  0  0  0  0  0
    5.3278    1.2339   17.6066 C   0  0  0  0  0  0  0  0  0  0  0  0
    6.8438   -0.2892   18.3752 C   0  0  0  0  0  0  0  0  0  0  0  0
    4.8226    1.4906   18.9054 C   0  0  0  0  0  0  0  0  0  0  0  0
    5.3982    0.7733   19.9948 C   0  0  0  0  0  0  0  0  0  0  0  0
   10.1406   -0.7765   22.9250 C   0  0  0  0  0  0  0  0  0  0  0  0
    6.4440   -0.1472   19.6979 C   0  0  0  0  0  0  0  0  0  0  0  0
   10.7040   -0.0625   23.9898 C   0  0  0  0  0  0  0  0  0  0  0  0
   12.3683   -1.3298   22.2234 C   0  0  0  0  0  0  0  0  0  0  0  0
    8.2490    0.0169   21.4271 C   0  0  0  0  0  0  0  0  0  0  0  0
    8.0140   -2.1541   22.4331 C   0  0  0  0  0  0  0  0  0  0  0  0
    7.8721   -0.1194   23.8831 C   0  0  0  0  0  0  0  0  0  0  0  0
    6.9866   -1.9366   21.3580 C   0  0  0  0  0  0  0  0  0  0  0  0
    8.6609    1.0133   24.4995 C   0  0  0  0  0  0  0  0  0  0  0  0
    8.6238   -0.7606   22.6929 C   0  0  3  0  0  0  0  0  0  0  0  0
    6.3062    0.3769   17.3421 N   0  0  0  0  0  0  0  0  0  0  0  0
    7.2292   -0.6897   20.7790 N   0  0  0  0  0  0  0  0  0  0  0  0
    8.7559    1.0937   21.1315 O   0  0  0  0  0  0  0  0  0  0  0  0
   10.7450    1.7883   25.4928 O   0  0  0  0  0  0  0  0  0  0  0  0
    9.7102   -0.4301   26.1384 O   0  0  0  0  0  0  0  0  0  0  0  0
    9.9479    0.5589   24.9534 S   0  0  0  0  0  0  0  0  0  0  0  0
   13.4291   -2.1444   21.1126 Cl  0  0  0  0  0  0  0  0  0  0  0  0
    2.5432    3.3510   20.6369 H   0  0  0  0  0  0  0  0  0  0  0  0
    3.5174    2.1137   22.5168 H   0  0  0  0  0  0  0  0  0  0  0  0
    3.3409    2.9743   18.3364 H   0  0  0  0  0  0  0  0  0  0  0  0
    5.3118    0.4895   22.1572 H   0  0  0  0  0  0  0  0  0  0  0  0
   12.5120    0.5953   24.9760 H   0  0  0  0  0  0  0  0  0  0  0  0
   13.9915   -0.5226   23.3833 H   0  0  0  0  0  0  0  0  0  0  0  0
   10.6108   -2.0222   21.2304 H   0  0  0  0  0  0  0  0  0  0  0  0
    4.9141    1.7511   16.7474 H   0  0  0  0  0  0  0  0  0  0  0  0
    7.6445   -0.9764   18.1043 H   0  0  0  0  0  0  0  0  0  0  0  0
    7.5775   -2.6140   23.3286 H   0  0  0  0  0  0  0  0  0  0  0  0
    8.7708   -2.8631   22.0636 H   0  0  0  0  0  0  0  0  0  0  0  0
    7.6611   -0.8658   24.6526 H   0  0  0  0  0  0  0  0  0  0  0  0
    6.9006    0.2556   23.5459 H   0  0  0  0  0  0  0  0  0  0  0  0
    7.0227   -2.7503   20.5949 H   0  0  0  0  0  0  0  0  0  0  0  0
    5.9552   -1.9482   21.7828 H   0  0  0  0  0  0  0  0  0  0  0  0
    8.7031    1.8245   23.7055 H   0  0  0  0  0  0  0  0  0  0  0  0
    7.9987    1.4859   25.2931 H   0  0  0  0  0  0  0  0  0  0  0  0
  1  2  1  0  0  0  0
  1  3  2  0  0  0  0
  2  4  2  0  0  0  0
  3 10  1  0  0  0  0
  4 11  1  0  0  0  0
  5  6  1  0  0  0  0
  5 14  2  0  0  0  0
  6 15  2  0  0  0  0
  7 12  2  0  0  0  0
  7 15  1  0  0  0  0
  8 10  2  0  0  0  0
  8 22  1  0  0  0  0
  9 13  1  0  0  0  0
  9 22  2  0  0  0  0
 10 11  1  0  0  0  0
 11 13  2  0  0  0  0
 12 14  1  0  0  0  0
 12 21  1  0  0  0  0
 13 23  1  0  0  0  0
 14 27  1  0  0  0  0
 15 28  1  0  0  0  0
 16 21  1  0  0  0  0
 16 23  1  0  0  0  0
 16 24  2  0  0  0  0
 17 19  1  0  0  0  0
 17 21  1  0  0  0  0
 18 20  1  0  0  0  0
 18 21  1  0  0  0  0
 19 23  1  0  0  0  0
 20 27  1  0  0  0  0
 25 27  2  0  0  0  0
 26 27  2  0  0  0  0
  1 29  1  0  0  0  0
  2 30  1  0  0  0  0
  3 31  1  0  0  0  0
  4 32  1  0  0  0  0
  5 33  1  0  0  0  0
  6 34  1  0  0  0  0
  7 35  1  0  0  0  0
  8 36  1  0  0  0  0
  9 37  1  0  0  0  0
 17 38  1  0  0  0  0
 17 39  1  0  0  0  0
 18 40  1  0  0  0  0
 18 41  1  0  0  0  0
 19 42  1  0  0  0  0
 19 43  1  0  0  0  0
 20 44  1  0  0  0  0
 20 45  1  0  0  0  0
M  END
> <compound>
ALP-POS-41e2080f-1

> <compound_smiles>
c1ccc2c(c1)cncc2N3CCC4(C3=O)CCS(=O)(=O)c5c4cc(cc5)Cl

> <enantiomer_smiles>
c1ccc2c(c1)cncc2N3CCC4(C3=O)CCS(=O)(=O)c5c4cc(cc5)Cl

> <scaffold>
tetralinlike-5spiro-isoquinoline

> <clash_score>
0.7168170439667734

> <docking_score>
-8.942693710327148

> <overlap_score>
0.9900251030921936

> <MMFF_internal_energy>
296.6094651134163

> <docked_smiles>
c1ccc2c(c1)cncc2N3CC[C@@]4(C3=O)CCS(=O)(=O)c5c4cc(cc5)Cl

$$$$
JOH-MSK-51c67e7d-1_2
  -OEChem-12272114573D

 47 51  0     1  0  0  0  0  0999 V2000
    3.3432    2.6279   20.4411 C   0  0  0  0  0  0  0  0  0  0  0  0
    3.8960    1.9291   21.5050 C   0  0  0  0  0  0  0  0  0  0  0  0
    3.7865    2.4205   19.1660 C   0  0  0  0  0  0  0  0  0  0  0  0
    4.8973    1.0233   21.2988 C   0  0  0  0  0  0  0  0  0  0  0  0
   12.0765    0.0316   24.1541 C   0  0  0  0  0  0  0  0  0  0  0  0
   12.9132   -0.6032   23.2569 C   0  0  0  0  0  0  0  0  0  0  0  0
   10.9991   -1.4331   22.0443 C   0  0  0  0  0  0  0  0  0  0  0  0
    5.3278    1.2339   17.6066 C   0  0  0  0  0  0  0  0  0  0  0  0
    6.8438   -0.2892   18.3752 C   0  0  0  0  0  0  0  0  0  0  0  0
    4.8226    1.4906   18.9054 C   0  0  0  0  0  0  0  0  0  0  0  0
    5.3982    0.7733   19.9948 C   0  0  0  0  0  0  0  0  0  0  0  0
   10.7040   -0.0625   23.9898 C   0  0  0  0  0  0  0  0  0  0  0  0
   10.1406   -0.7765   22.9250 C   0  0  0  0  0  0  0  0  0  0  0  0
    6.4440   -0.1472   19.6979 C   0  0  0  0  0  0  0  0  0  0  0  0
   12.3683   -1.3298   22.2234 C   0  0  0  0  0  0  0  0  0  0  0  0
    6.9866   -1.9366   21.3580 C   0  0  0  0  0  0  0  0  0  0  0  0
    8.2490    0.0169   21.4271 C   0  0  0  0  0  0  0  0  0  0  0  0
    9.9479    0.5589   24.9534 C   0  0  0  0  0  0  0  0  0  0  0  0
    8.0140   -2.1541   22.4331 C   0  0  0  0  0  0  0  0  0  0  0  0
    7.8721   -0.1194   23.8831 C   0  0  0  0  0  0  0  0  0  0  0  0
    8.6238   -0.7606   22.6929 C   0  0  1  0  0  0  0  0  0  0  0  0
    7.8590    1.7139   25.5748 C   0  0  0  0  0  0  0  0  0  0  0  0
    6.3062    0.3769   17.3421 N   0  0  0  0  0  0  0  0  0  0  0  0
    7.2292   -0.6897   20.7790 N   0  0  0  0  0  0  0  0  0  0  0  0
    8.6609    1.0133   24.4995 N   0  3  1  0  0  0  0  0  0  0  0  0
    6.1269   -2.7640   21.0978 O   0  0  0  0  0  0  0  0  0  0  0  0
    8.7849    1.0640   21.1052 O   0  0  0  0  0  0  0  0  0  0  0  0
   13.4270   -2.1433   21.1101 Cl  0  0  0  0  0  0  0  0  0  0  0  0
    2.5432    3.3510   20.6369 H   0  0  0  0  0  0  0  0  0  0  0  0
    3.5174    2.1137   22.5168 H   0  0  0  0  0  0  0  0  0  0  0  0
    3.3409    2.9743   18.3364 H   0  0  0  0  0  0  0  0  0  0  0  0
    5.3118    0.4895   22.1572 H   0  0  0  0  0  0  0  0  0  0  0  0
   12.5021    0.5970   24.9750 H   0  0  0  0  0  0  0  0  0  0  0  0
   13.9911   -0.5178   23.3792 H   0  0  0  0  0  0  0  0  0  0  0  0
   10.6036   -2.0172   21.2251 H   0  0  0  0  0  0  0  0  0  0  0  0
    4.9141    1.7511   16.7474 H   0  0  0  0  0  0  0  0  0  0  0  0
    7.6445   -0.9764   18.1043 H   0  0  0  0  0  0  0  0  0  0  0  0
    9.7617   -0.1197   25.8266 H   0  0  0  0  0  0  0  0  0  0  0  0
   10.4572    1.4668   25.3691 H   0  0  0  0  0  0  0  0  0  0  0  0
    7.4960   -2.5683   23.3070 H   0  0  0  0  0  0  0  0  0  0  0  0
    8.7534   -2.8877   22.0940 H   0  0  0  0  0  0  0  0  0  0  0  0
    6.8966    0.2933   23.5705 H   0  0  0  0  0  0  0  0  0  0  0  0
    7.6744   -0.8475   24.6911 H   0  0  0  0  0  0  0  0  0  0  0  0
    7.6742    0.9879   26.3686 H   0  0  0  0  0  0  0  0  0  0  0  0
    8.4649    2.5465   25.9375 H   0  0  0  0  0  0  0  0  0  0  0  0
    6.9219    2.0696   25.1424 H   0  0  0  0  0  0  0  0  0  0  0  0
    8.7936    1.7239   23.7554 H   0  0  0  0  0  0  0  0  0  0  0  0
  1  2  1  0  0  0  0
  1  3  2  0  0  0  0
  2  4  2  0  0  0  0
  3 10  1  0  0  0  0
  4 11  1  0  0  0  0
  5  6  2  0  0  0  0
  5 12  1  0  0  0  0
  6 15  1  0  0  0  0
  7 13  1  0  0  0  0
  7 15  2  0  0  0  0
  8 10  2  0  0  0  0
  8 23  1  0  0  0  0
  9 14  1  0  0  0  0
  9 23  2  0  0  0  0
 10 11  1  0  0  0  0
 11 14  2  0  0  0  0
 12 13  2  0  0  0  0
 12 18  1  0  0  0  0
 13 21  1  1  0  0  0
 14 24  1  0  0  0  0
 15 28  1  0  0  0  0
 16 19  1  0  0  0  0
 16 24  1  0  0  0  0
 16 26  2  0  0  0  0
 17 21  1  6  0  0  0
 17 24  1  0  0  0  0
 17 27  2  0  0  0  0
 18 25  1  0  0  0  0
 19 21  1  6  0  0  0
 20 21  1  1  0  0  0
 20 25  1  0  0  0  0
 22 25  1  6  0  0  0
  1 29  1  0  0  0  0
  2 30  1  0  0  0  0
  3 31  1  0  0  0  0
  4 32  1  0  0  0  0
  5 33  1  0  0  0  0
  6 34  1  0  0  0  0
  7 35  1  0  0  0  0
  8 36  1  0  0  0  0
  9 37  1  0  0  0  0
 18 38  1  0  0  0  0
 18 39  1  0  0  0  0
 19 40  1  0  0  0  0
 19 41  1  0  0  0  0
 20 42  1  0  0  0  0
 20 43  1  0  0  0  0
 22 44  1  0  0  0  0
 22 45  1  0  0  0  0
 22 46  1  0  0  0  0
 25 47  1  0  0  0  0
M  CHG  1  25   1
M  END
> <compound>
JOH-MSK-51c67e7d-1

> <compound_smiles>
CN1Cc2ccc(cc2[C@@]3(C1)CC(=O)N(C3=O)c4cncc5c4cccc5)Cl

> <enantiomer_smiles>
C[N@]1Cc2ccc(cc2[C@@]3(C1)CC(=O)N(C3=O)c4cncc5c4cccc5)Cl

> <scaffold>
tetrahydroisoquinoline-5spiro-isoquinoline

> <clash_score>
0

> <docking_score>
-10.03515911102295

> <overlap_score>
1.0

> <MMFF_internal_energy>
110.69357986096298

> <docked_smiles>
C[N@H+]1Cc2ccc(cc2[C@]3(C1)CC(=O)N(C3=O)c4cncc5c4cccc5)Cl

$$$$
JOH-MSK-51c67e7d-2_2
  -OEChem-12272114573D

 47 51  0     1  0  0  0  0  0999 V2000
    3.3432    2.6279   20.4411 C   0  0  0  0  0  0  0  0  0  0  0  0
    3.8960    1.9291   21.5050 C   0  0  0  0  0  0  0  0  0  0  0  0
    3.7865    2.4205   19.1660 C   0  0  0  0  0  0  0  0  0  0  0  0
    4.8973    1.0233   21.2988 C   0  0  0  0  0  0  0  0  0  0  0  0
   12.0765    0.0316   24.1541 C   0  0  0  0  0  0  0  0  0  0  0  0
   12.9132   -0.6032   23.2569 C   0  0  0  0  0  0  0  0  0  0  0  0
   10.9991   -1.4331   22.0443 C   0  0  0  0  0  0  0  0  0  0  0  0
    5.3278    1.2339   17.6066 C   0  0  0  0  0  0  0  0  0  0  0  0
    6.8438   -0.2892   18.3752 C   0  0  0  0  0  0  0  0  0  0  0  0
    4.8226    1.4906   18.9054 C   0  0  0  0  0  0  0  0  0  0  0  0
    5.3982    0.7733   19.9948 C   0  0  0  0  0  0  0  0  0  0  0  0
   10.7040   -0.0625   23.9898 C   0  0  0  0  0  0  0  0  0  0  0  0
   10.1406   -0.7765   22.9250 C   0  0  0  0  0  0  0  0  0  0  0  0
    6.4440   -0.1472   19.6979 C   0  0  0  0  0  0  0  0  0  0  0  0
   12.3683   -1.3298   22.2234 C   0  0  0  0  0  0  0  0  0  0  0  0
    6.9866   -1.9366   21.3580 C   0  0  0  0  0  0  0  0  0  0  0  0
    8.2490    0.0169   21.4271 C   0  0  0  0  0  0  0  0  0  0  0  0
    9.9479    0.5589   24.9534 C   0  0  0  0  0  0  0  0  0  0  0  0
    8.0140   -2.1541   22.4331 C   0  0  0  0  0  0  0  0  0  0  0  0
    7.8721   -0.1194   23.8831 C   0  0  0  0  0  0  0  0  0  0  0  0
    8.6238   -0.7606   22.6929 C   0  0  2  0  0  0  0  0  0  0  0  0
    7.8605    1.7162   25.5734 C   0  0  0  0  0  0  0  0  0  0  0  0
    6.3062    0.3769   17.3421 N   0  0  0  0  0  0  0  0  0  0  0  0
    7.2292   -0.6897   20.7790 N   0  0  0  0  0  0  0  0  0  0  0  0
    8.6609    1.0133   24.4995 N   0  3  1  0  0  0  0  0  0  0  0  0
    6.1315   -2.7666   21.0944 O   0  0  0  0  0  0  0  0  0  0  0  0
    8.7792    1.0643   21.1054 O   0  0  0  0  0  0  0  0  0  0  0  0
   13.4283   -2.1409   21.1098 Cl  0  0  0  0  0  0  0  0  0  0  0  0
    2.5432    3.3510   20.6369 H   0  0  0  0  0  0  0  0  0  0  0  0
    3.5174    2.1137   22.5168 H   0  0  0  0  0  0  0  0  0  0  0  0
    3.3409    2.9743   18.3364 H   0  0  0  0  0  0  0  0  0  0  0  0
    5.3118    0.4895   22.1572 H   0  0  0  0  0  0  0  0  0  0  0  0
   12.5031    0.5982   24.9737 H   0  0  0  0  0  0  0  0  0  0  0  0
   13.9914   -0.5172   23.3792 H   0  0  0  0  0  0  0  0  0  0  0  0
   10.6138   -2.0183   21.2243 H   0  0  0  0  0  0  0  0  0  0  0  0
    4.9141    1.7511   16.7474 H   0  0  0  0  0  0  0  0  0  0  0  0
    7.6445   -0.9764   18.1043 H   0  0  0  0  0  0  0  0  0  0  0  0
    9.7619   -0.1182   25.8282 H   0  0  0  0  0  0  0  0  0  0  0  0
   10.4564    1.4677   25.3690 H   0  0  0  0  0  0  0  0  0  0  0  0
    7.4812   -2.5426   23.3076 H   0  0  0  0  0  0  0  0  0  0  0  0
    8.7485   -2.8978   22.1153 H   0  0  0  0  0  0  0  0  0  0  0  0
    6.9066    0.3033   23.5614 H   0  0  0  0  0  0  0  0  0  0  0  0
    7.6804   -0.8477   24.6883 H   0  0  0  0  0  0  0  0  0  0  0  0
    7.6795    0.9935   26.3711 H   0  0  0  0  0  0  0  0  0  0  0  0
    8.4648    2.5522   25.9307 H   0  0  0  0  0  0  0  0  0  0  0  0
    6.9214    2.0672   25.1413 H   0  0  0  0  0  0  0  0  0  0  0  0
    8.7918    1.7195   23.7507 H   0  0  0  0  0  0  0  0  0  0  0  0
  1  2  1  0  0  0  0
  1  3  2  0  0  0  0
  2  4  2  0  0  0  0
  3 10  1  0  0  0  0
  4 11  1  0  0  0  0
  5  6  2  0  0  0  0
  5 12  1  0  0  0  0
  6 15  1  0  0  0  0
  7 13  1  0  0  0  0
  7 15  2  0  0  0  0
  8 10  2  0  0  0  0
  8 23  1  0  0  0  0
  9 14  1  0  0  0  0
  9 23  2  0  0  0  0
 10 11  1  0  0  0  0
 11 14  2  0  0  0  0
 12 13  2  0  0  0  0
 12 18  1  0  0  0  0
 13 21  1  6  0  0  0
 14 24  1  0  0  0  0
 15 28  1  0  0  0  0
 16 19  1  0  0  0  0
 16 24  1  0  0  0  0
 16 26  2  0  0  0  0
 17 21  1  1  0  0  0
 17 24  1  0  0  0  0
 17 27  2  0  0  0  0
 18 25  1  0  0  0  0
 19 21  1  1  0  0  0
 20 21  1  6  0  0  0
 20 25  1  0  0  0  0
 22 25  1  6  0  0  0
  1 29  1  0  0  0  0
  2 30  1  0  0  0  0
  3 31  1  0  0  0  0
  4 32  1  0  0  0  0
  5 33  1  0  0  0  0
  6 34  1  0  0  0  0
  7 35  1  0  0  0  0
  8 36  1  0  0  0  0
  9 37  1  0  0  0  0
 18 38  1  0  0  0  0
 18 39  1  0  0  0  0
 19 40  1  0  0  0  0
 19 41  1  0  0  0  0
 20 42  1  0  0  0  0
 20 43  1  0  0  0  0
 22 44  1  0  0  0  0
 22 45  1  0  0  0  0
 22 46  1  0  0  0  0
 25 47  1  0  0  0  0
M  CHG  1  25   1
M  END
> <compound>
JOH-MSK-51c67e7d-2

> <compound_smiles>
CN1Cc2ccc(cc2[C@]3(C1)CC(=O)N(C3=O)c4cncc5c4cccc5)Cl

> <enantiomer_smiles>
C[N@]1Cc2ccc(cc2[C@]3(C1)CC(=O)N(C3=O)c4cncc5c4cccc5)Cl

> <scaffold>
tetrahydroisoquinoline-5spiro-isoquinoline

> <clash_score>
0

> <docking_score>
-10.030231475830078

> <overlap_score>
1.0

> <MMFF_internal_energy>
110.71089479773441

> <docked_smiles>
C[N@H+]1Cc2ccc(cc2[C@]3(C1)CC(=O)N(C3=O)c4cncc5c4cccc5)Cl

$$$$
EDJ-MED-7587a9ee-3_2
  -OEChem-12272114573D

 50 54  0     1  0  0  0  0  0999 V2000
    3.3432    2.6279   20.4411 C   0  0  0  0  0  0  0  0  0  0  0  0
    3.8960    1.9291   21.5050 C   0  0  0  0  0  0  0  0  0  0  0  0
    3.7865    2.4205   19.1660 C   0  0  0  0  0  0  0  0  0  0  0  0
    4.8973    1.0233   21.2988 C   0  0  0  0  0  0  0  0  0  0  0  0
   12.0765    0.0316   24.1541 C   0  0  0  0  0  0  0  0  0  0  0  0
   12.9132   -0.6032   23.2569 C   0  0  0  0  0  0  0  0  0  0  0  0
   10.9991   -1.4331   22.0443 C   0  0  0  0  0  0  0  0  0  0  0  0
    5.3278    1.2339   17.6066 C   0  0  0  0  0  0  0  0  0  0  0  0
    6.8438   -0.2892   18.3752 C   0  0  0  0  0  0  0  0  0  0  0  0
    4.8226    1.4906   18.9054 C   0  0  0  0  0  0  0  0  0  0  0  0
    5.3982    0.7733   19.9948 C   0  0  0  0  0  0  0  0  0  0  0  0
   10.7040   -0.0625   23.9898 C   0  0  0  0  0  0  0  0  0  0  0  0
   10.1406   -0.7765   22.9250 C   0  0  0  0  0  0  0  0  0  0  0  0
    6.4440   -0.1472   19.6979 C   0  0  0  0  0  0  0  0  0  0  0  0
   12.3683   -1.3298   22.2234 C   0  0  0  0  0  0  0  0  0  0  0  0
    8.2490    0.0169   21.4271 C   0  0  0  0  0  0  0  0  0  0  0  0
    9.9479    0.5589   24.9534 C   0  0  0  0  0  0  0  0  0  0  0  0
    8.0140   -2.1541   22.4331 C   0  0  0  0  0  0  0  0  0  0  0  0
    6.9866   -1.9366   21.3580 C   0  0  0  0  0  0  0  0  0  0  0  0
    7.8721   -0.1194   23.8831 C   0  0  0  0  0  0  0  0  0  0  0  0
    8.6238   -0.7606   22.6929 C   0  0  3  0  0  0  0  0  0  0  0  0
    6.3364    0.9902   25.7507 C   0  0  0  0  0  0  0  0  0  0  0  0
    6.3062    0.3769   17.3421 N   0  0  0  0  0  0  0  0  0  0  0  0
    7.2292   -0.6897   20.7790 N   0  0  0  0  0  0  0  0  0  0  0  0
    8.6609    1.0133   24.4995 N   0  0  1  0  0  0  0  0  0  0  0  0
    8.8299    1.0397   21.0799 O   0  0  0  0  0  0  0  0  0  0  0  0
    7.3733    3.2146   24.8540 O   0  0  0  0  0  0  0  0  0  0  0  0
    8.4455    2.0808   26.8416 O   0  0  0  0  0  0  0  0  0  0  0  0
    7.7708    2.0177   25.5632 S   0  0  0  0  0  0  0  0  0  0  0  0
   13.4272   -2.1411   21.1086 Cl  0  0  0  0  0  0  0  0  0  0  0  0
    2.5432    3.3510   20.6369 H   0  0  0  0  0  0  0  0  0  0  0  0
    3.5174    2.1137   22.5168 H   0  0  0  0  0  0  0  0  0  0  0  0
    3.3409    2.9743   18.3364 H   0  0  0  0  0  0  0  0  0  0  0  0
    5.3118    0.4895   22.1572 H   0  0  0  0  0  0  0  0  0  0  0  0
   12.5024    0.5995   24.9735 H   0  0  0  0  0  0  0  0  0  0  0  0
   13.9910   -0.5177   23.3793 H   0  0  0  0  0  0  0  0  0  0  0  0
   10.6036   -2.0162   21.2241 H   0  0  0  0  0  0  0  0  0  0  0  0
    4.9141    1.7511   16.7474 H   0  0  0  0  0  0  0  0  0  0  0  0
    7.6445   -0.9764   18.1043 H   0  0  0  0  0  0  0  0  0  0  0  0
    9.7849   -0.1194   25.8306 H   0  0  0  0  0  0  0  0  0  0  0  0
   10.4793    1.4568   25.3613 H   0  0  0  0  0  0  0  0  0  0  0  0
    7.5152   -2.5456   23.3338 H   0  0  0  0  0  0  0  0  0  0  0  0
    8.7649   -2.9030   22.1434 H   0  0  0  0  0  0  0  0  0  0  0  0
    7.0587   -2.7248   20.5721 H   0  0  0  0  0  0  0  0  0  0  0  0
    5.9518   -1.9952   21.7720 H   0  0  0  0  0  0  0  0  0  0  0  0
    6.8867    0.2641   23.5642 H   0  0  0  0  0  0  0  0  0  0  0  0
    7.6652   -0.8660   24.6733 H   0  0  0  0  0  0  0  0  0  0  0  0
    5.6355    1.4954   26.4171 H   0  0  0  0  0  0  0  0  0  0  0  0
    5.8888    0.8409   24.7669 H   0  0  0  0  0  0  0  0  0  0  0  0
    6.6497    0.0362   26.1773 H   0  0  0  0  0  0  0  0  0  0  0  0
  1  2  1  0  0  0  0
  1  3  2  0  0  0  0
  2  4  2  0  0  0  0
  3 10  1  0  0  0  0
  4 11  1  0  0  0  0
  5  6  2  0  0  0  0
  5 12  1  0  0  0  0
  6 15  1  0  0  0  0
  7 13  1  0  0  0  0
  7 15  2  0  0  0  0
  8 10  2  0  0  0  0
  8 23  1  0  0  0  0
  9 14  1  0  0  0  0
  9 23  2  0  0  0  0
 10 11  1  0  0  0  0
 11 14  2  0  0  0  0
 12 13  2  0  0  0  0
 12 17  1  0  0  0  0
 13 21  1  0  0  0  0
 14 24  1  0  0  0  0
 15 30  1  0  0  0  0
 16 21  1  0  0  0  0
 16 24  1  0  0  0  0
 16 26  2  0  0  0  0
 17 25  1  0  0  0  0
 18 19  1  0  0  0  0
 18 21  1  0  0  0  0
 19 24  1  0  0  0  0
 20 21  1  0  0  0  0
 20 25  1  0  0  0  0
 22 29  1  0  0  0  0
 25 29  1  6  0  0  0
 27 29  2  0  0  0  0
 28 29  2  0  0  0  0
  1 31  1  0  0  0  0
  2 32  1  0  0  0  0
  3 33  1  0  0  0  0
  4 34  1  0  0  0  0
  5 35  1  0  0  0  0
  6 36  1  0  0  0  0
  7 37  1  0  0  0  0
  8 38  1  0  0  0  0
  9 39  1  0  0  0  0
 17 40  1  0  0  0  0
 17 41  1  0  0  0  0
 18 42  1  0  0  0  0
 18 43  1  0  0  0  0
 19 44  1  0  0  0  0
 19 45  1  0  0  0  0
 20 46  1  0  0  0  0
 20 47  1  0  0  0  0
 22 48  1  0  0  0  0
 22 49  1  0  0  0  0
 22 50  1  0  0  0  0
M  END
> <compound>
EDJ-MED-7587a9ee-3

> <compound_smiles>
CS(=O)(=O)N1Cc2ccc(cc2C3(C1)CCN(C3=O)c4cncc5c4cccc5)Cl

> <enantiomer_smiles>
CS(=O)(=O)[N@]1Cc2ccc(cc2C3(C1)CCN(C3=O)c4cncc5c4cccc5)Cl

> <scaffold>
tetrahydroisoquinoline-5spiro-isoquinoline

> <clash_score>
0

> <docking_score>
-9.180587768554688

> <overlap_score>
0.9789311289787292

> <MMFF_internal_energy>
105.49736544646133

> <docked_smiles>
CS(=O)(=O)[N@]1Cc2ccc(cc2[C@]3(C1)CCN(C3=O)c4cncc5c4cccc5)Cl

$$$$
EDJ-MED-7587a9ee-3_1
  -OEChem-12272114573D

 50 54  0     1  0  0  0  0  0999 V2000
    3.3432    2.6279   20.4411 C   0  0  0  0  0  0  0  0  0  0  0  0
    3.8960    1.9291   21.5050 C   0  0  0  0  0  0  0  0  0  0  0  0
    3.7865    2.4205   19.1660 C   0  0  0  0  0  0  0  0  0  0  0  0
    4.8973    1.0233   21.2988 C   0  0  0  0  0  0  0  0  0  0  0  0
   12.0765    0.0316   24.1541 C   0  0  0  0  0  0  0  0  0  0  0  0
   12.9132   -0.6032   23.2569 C   0  0  0  0  0  0  0  0  0  0  0  0
   10.9991   -1.4331   22.0443 C   0  0  0  0  0  0  0  0  0  0  0  0
    5.3278    1.2339   17.6066 C   0  0  0  0  0  0  0  0  0  0  0  0
    6.8438   -0.2892   18.3752 C   0  0  0  0  0  0  0  0  0  0  0  0
    4.8226    1.4906   18.9054 C   0  0  0  0  0  0  0  0  0  0  0  0
    5.3982    0.7733   19.9948 C   0  0  0  0  0  0  0  0  0  0  0  0
   10.7040   -0.0625   23.9898 C   0  0  0  0  0  0  0  0  0  0  0  0
   10.1406   -0.7765   22.9250 C   0  0  0  0  0  0  0  0  0  0  0  0
    6.4440   -0.1472   19.6979 C   0  0  0  0  0  0  0  0  0  0  0  0
   12.3683   -1.3298   22.2234 C   0  0  0  0  0  0  0  0  0  0  0  0
    8.2490    0.0169   21.4271 C   0  0  0  0  0  0  0  0  0  0  0  0
    9.9479    0.5589   24.9534 C   0  0  0  0  0  0  0  0  0  0  0  0
    8.0140   -2.1541   22.4331 C   0  0  0  0  0  0  0  0  0  0  0  0
    6.9866   -1.9366   21.3580 C   0  0  0  0  0  0  0  0  0  0  0  0
    7.8721   -0.1194   23.8831 C   0  0  0  0  0  0  0  0  0  0  0  0
    8.6238   -0.7606   22.6929 C   0  0  3  0  0  0  0  0  0  0  0  0
    7.7837    3.0954   25.7558 C   0  0  0  0  0  0  0  0  0  0  0  0
    6.3062    0.3769   17.3421 N   0  0  0  0  0  0  0  0  0  0  0  0
    7.2292   -0.6897   20.7790 N   0  0  0  0  0  0  0  0  0  0  0  0
    8.6609    1.0133   24.4995 N   0  0  2  0  0  0  0  0  0  0  0  0
    8.8191    1.0385   21.0718 O   0  0  0  0  0  0  0  0  0  0  0  0
    7.1905    2.6408   23.2521 O   0  0  0  0  0  0  0  0  0  0  0  0
    9.5621    3.2760   23.8499 O   0  0  0  0  0  0  0  0  0  0  0  0
    8.3267    2.5839   24.1459 S   0  0  0  0  0  0  0  0  0  0  0  0
   13.4275   -2.1421   21.1097 Cl  0  0  0  0  0  0  0  0  0  0  0  0
    2.5432    3.3510   20.6369 H   0  0  0  0  0  0  0  0  0  0  0  0
    3.5174    2.1137   22.5168 H   0  0  0  0  0  0  0  0  0  0  0  0
    3.3409    2.9743   18.3364 H   0  0  0  0  0  0  0  0  0  0  0  0
    5.3118    0.4895   22.1572 H   0  0  0  0  0  0  0  0  0  0  0  0
   12.5015    0.5938   24.9776 H   0  0  0  0  0  0  0  0  0  0  0  0
   13.9911   -0.5212   23.3814 H   0  0  0  0  0  0  0  0  0  0  0  0
   10.6037   -2.0228   21.2288 H   0  0  0  0  0  0  0  0  0  0  0  0
    4.9141    1.7511   16.7474 H   0  0  0  0  0  0  0  0  0  0  0  0
    7.6445   -0.9764   18.1043 H   0  0  0  0  0  0  0  0  0  0  0  0
    9.7578   -0.1285   25.8173 H   0  0  0  0  0  0  0  0  0  0  0  0
   10.4928    1.4393   25.3829 H   0  0  0  0  0  0  0  0  0  0  0  0
    7.5801   -2.6060   23.3366 H   0  0  0  0  0  0  0  0  0  0  0  0
    8.7749   -2.8608   22.0657 H   0  0  0  0  0  0  0  0  0  0  0  0
    7.0227   -2.7506   20.5953 H   0  0  0  0  0  0  0  0  0  0  0  0
    5.9554   -1.9484   21.7833 H   0  0  0  0  0  0  0  0  0  0  0  0
    6.8886    0.2771   23.5668 H   0  0  0  0  0  0  0  0  0  0  0  0
    7.6579   -0.8709   24.6635 H   0  0  0  0  0  0  0  0  0  0  0  0
    7.5128    4.1513   25.7085 H   0  0  0  0  0  0  0  0  0  0  0  0
    6.9195    2.4911   26.0359 H   0  0  0  0  0  0  0  0  0  0  0  0
    8.6025    2.9418   26.4602 H   0  0  0  0  0  0  0  0  0  0  0  0
  1  2  1  0  0  0  0
  1  3  2  0  0  0  0
  2  4  2  0  0  0  0
  3 10  1  0  0  0  0
  4 11  1  0  0  0  0
  5  6  2  0  0  0  0
  5 12  1  0  0  0  0
  6 15  1  0  0  0  0
  7 13  1  0  0  0  0
  7 15  2  0  0  0  0
  8 10  2  0  0  0  0
  8 23  1  0  0  0  0
  9 14  1  0  0  0  0
  9 23  2  0  0  0  0
 10 11  1  0  0  0  0
 11 14  2  0  0  0  0
 12 13  2  0  0  0  0
 12 17  1  0  0  0  0
 13 21  1  0  0  0  0
 14 24  1  0  0  0  0
 15 30  1  0  0  0  0
 16 21  1  0  0  0  0
 16 24  1  0  0  0  0
 16 26  2  0  0  0  0
 17 25  1  0  0  0  0
 18 19  1  0  0  0  0
 18 21  1  0  0  0  0
 19 24  1  0  0  0  0
 20 21  1  0  0  0  0
 20 25  1  0  0  0  0
 22 29  1  0  0  0  0
 25 29  1  1  0  0  0
 27 29  2  0  0  0  0
 28 29  2  0  0  0  0
  1 31  1  0  0  0  0
  2 32  1  0  0  0  0
  3 33  1  0  0  0  0
  4 34  1  0  0  0  0
  5 35  1  0  0  0  0
  6 36  1  0  0  0  0
  7 37  1  0  0  0  0
  8 38  1  0  0  0  0
  9 39  1  0  0  0  0
 17 40  1  0  0  0  0
 17 41  1  0  0  0  0
 18 42  1  0  0  0  0
 18 43  1  0  0  0  0
 19 44  1  0  0  0  0
 19 45  1  0  0  0  0
 20 46  1  0  0  0  0
 20 47  1  0  0  0  0
 22 48  1  0  0  0  0
 22 49  1  0  0  0  0
 22 50  1  0  0  0  0
M  END
> <compound>
EDJ-MED-7587a9ee-3

> <compound_smiles>
CS(=O)(=O)N1Cc2ccc(cc2C3(C1)CCN(C3=O)c4cncc5c4cccc5)Cl

> <enantiomer_smiles>
CS(=O)(=O)[N@@]1Cc2ccc(cc2C3(C1)CCN(C3=O)c4cncc5c4cccc5)Cl

> <scaffold>
tetrahydroisoquinoline-5spiro-isoquinoline

> <clash_score>
0

> <docking_score>
-9.194294929504395

> <overlap_score>
0.9802638292312622

> <MMFF_internal_energy>
90.15118509004688

> <docked_smiles>
CS(=O)(=O)[N@@]1Cc2ccc(cc2[C@]3(C1)CCN(C3=O)c4cncc5c4cccc5)Cl

$$$$
ALP-POS-4483ae88-1_1
  -OEChem-12272114573D

 44 48  0     1  0  0  0  0  0999 V2000
    3.3432    2.6279   20.4411 C   0  0  0  0  0  0  0  0  0  0  0  0
    3.8960    1.9291   21.5050 C   0  0  0  0  0  0  0  0  0  0  0  0
    3.7865    2.4205   19.1660 C   0  0  0  0  0  0  0  0  0  0  0  0
    4.8973    1.0233   21.2988 C   0  0  0  0  0  0  0  0  0  0  0  0
   12.0765    0.0316   24.1541 C   0  0  0  0  0  0  0  0  0  0  0  0
   12.9132   -0.6032   23.2569 C   0  0  0  0  0  0  0  0  0  0  0  0
   10.9991   -1.4331   22.0443 C   0  0  0  0  0  0  0  0  0  0  0  0
    5.3278    1.2339   17.6066 C   0  0  0  0  0  0  0  0  0  0  0  0
    6.8438   -0.2892   18.3752 C   0  0  0  0  0  0  0  0  0  0  0  0
    4.8226    1.4906   18.9054 C   0  0  0  0  0  0  0  0  0  0  0  0
    5.3982    0.7733   19.9948 C   0  0  0  0  0  0  0  0  0  0  0  0
   10.1406   -0.7765   22.9250 C   0  0  0  0  0  0  0  0  0  0  0  0
    6.4440   -0.1472   19.6979 C   0  0  0  0  0  0  0  0  0  0  0  0
   10.7040   -0.0625   23.9898 C   0  0  0  0  0  0  0  0  0  0  0  0
   12.3683   -1.3298   22.2234 C   0  0  0  0  0  0  0  0  0  0  0  0
    8.2490    0.0169   21.4271 C   0  0  0  0  0  0  0  0  0  0  0  0
    8.0140   -2.1541   22.4331 C   0  0  0  0  0  0  0  0  0  0  0  0
    6.9866   -1.9366   21.3580 C   0  0  0  0  0  0  0  0  0  0  0  0
    7.8721   -0.1194   23.8831 C   0  0  0  0  0  0  0  0  0  0  0  0
    8.6238   -0.7606   22.6929 C   0  0  3  0  0  0  0  0  0  0  0  0
    6.3062    0.3769   17.3421 N   0  0  0  0  0  0  0  0  0  0  0  0
    8.6609    1.0133   24.4995 N   0  0  0  0  0  0  0  0  0  0  0  0
    7.2292   -0.6897   20.7790 N   0  0  0  0  0  0  0  0  0  0  0  0
    8.8290    1.0395   21.0789 O   0  0  0  0  0  0  0  0  0  0  0  0
   10.7088    1.8104   25.5187 O   0  0  0  0  0  0  0  0  0  0  0  0
    9.7262   -0.4361   26.1448 O   0  0  0  0  0  0  0  0  0  0  0  0
    9.9479    0.5589   24.9534 S   0  0  0  0  0  0  0  0  0  0  0  0
   13.4287   -2.1371   21.1072 Cl  0  0  0  0  0  0  0  0  0  0  0  0
    2.5432    3.3510   20.6369 H   0  0  0  0  0  0  0  0  0  0  0  0
    3.5174    2.1137   22.5168 H   0  0  0  0  0  0  0  0  0  0  0  0
    3.3409    2.9743   18.3364 H   0  0  0  0  0  0  0  0  0  0  0  0
    5.3118    0.4895   22.1572 H   0  0  0  0  0  0  0  0  0  0  0  0
   12.5109    0.5943   24.9779 H   0  0  0  0  0  0  0  0  0  0  0  0
   13.9912   -0.5160   23.3787 H   0  0  0  0  0  0  0  0  0  0  0  0
   10.6095   -2.0123   21.2230 H   0  0  0  0  0  0  0  0  0  0  0  0
    4.9141    1.7511   16.7474 H   0  0  0  0  0  0  0  0  0  0  0  0
    7.6445   -0.9764   18.1043 H   0  0  0  0  0  0  0  0  0  0  0  0
    7.5133   -2.5498   23.3303 H   0  0  0  0  0  0  0  0  0  0  0  0
    8.7619   -2.9048   22.1430 H   0  0  0  0  0  0  0  0  0  0  0  0
    7.0583   -2.7252   20.5725 H   0  0  0  0  0  0  0  0  0  0  0  0
    5.9518   -1.9949   21.7717 H   0  0  0  0  0  0  0  0  0  0  0  0
    6.8906    0.2867   23.5903 H   0  0  0  0  0  0  0  0  0  0  0  0
    7.6592   -0.8565   24.6760 H   0  0  0  0  0  0  0  0  0  0  0  0
    8.4428    1.9138   24.0253 H   0  0  0  0  0  0  0  0  0  0  0  0
  1  2  1  0  0  0  0
  1  3  2  0  0  0  0
  2  4  2  0  0  0  0
  3 10  1  0  0  0  0
  4 11  1  0  0  0  0
  5  6  1  0  0  0  0
  5 14  2  0  0  0  0
  6 15  2  0  0  0  0
  7 12  2  0  0  0  0
  7 15  1  0  0  0  0
  8 10  2  0  0  0  0
  8 21  1  0  0  0  0
  9 13  1  0  0  0  0
  9 21  2  0  0  0  0
 10 11  1  0  0  0  0
 11 13  2  0  0  0  0
 12 14  1  0  0  0  0
 12 20  1  0  0  0  0
 13 23  1  0  0  0  0
 14 27  1  0  0  0  0
 15 28  1  0  0  0  0
 16 20  1  0  0  0  0
 16 23  1  0  0  0  0
 16 24  2  0  0  0  0
 17 18  1  0  0  0  0
 17 20  1  0  0  0  0
 18 23  1  0  0  0  0
 19 20  1  0  0  0  0
 19 22  1  0  0  0  0
 22 27  1  0  0  0  0
 25 27  2  0  0  0  0
 26 27  2  0  0  0  0
  1 29  1  0  0  0  0
  2 30  1  0  0  0  0
  3 31  1  0  0  0  0
  4 32  1  0  0  0  0
  5 33  1  0  0  0  0
  6 34  1  0  0  0  0
  7 35  1  0  0  0  0
  8 36  1  0  0  0  0
  9 37  1  0  0  0  0
 17 38  1  0  0  0  0
 17 39  1  0  0  0  0
 18 40  1  0  0  0  0
 18 41  1  0  0  0  0
 19 42  1  0  0  0  0
 19 43  1  0  0  0  0
 22 44  1  0  0  0  0
M  END
> <compound>
ALP-POS-4483ae88-1

> <compound_smiles>
c1ccc2c(c1)cncc2N3CCC4(C3=O)CNS(=O)(=O)c5c4cc(cc5)Cl

> <enantiomer_smiles>
c1ccc2c(c1)cncc2N3CCC4(C3=O)CNS(=O)(=O)c5c4cc(cc5)Cl

> <scaffold>
tetralinlike-5spiro-isoquinoline

> <clash_score>
0.7237491235106456

> <docking_score>
-8.87259292602539

> <overlap_score>
0.9897215962409973

> <MMFF_internal_energy>
217.47012809371768

> <docked_smiles>
c1ccc2c(c1)cncc2N3CC[C@@]4(C3=O)CNS(=O)(=O)c5c4cc(cc5)Cl

$$$$
EDJ-MED-f9b78f78-4_1
  -OEChem-12272114573D

 44 48  0     1  0  0  0  0  0999 V2000
    3.3432    2.6279   20.4411 C   0  0  0  0  0  0  0  0  0  0  0  0
    3.8960    1.9291   21.5050 C   0  0  0  0  0  0  0  0  0  0  0  0
    3.7865    2.4205   19.1660 C   0  0  0  0  0  0  0  0  0  0  0  0
    4.8973    1.0233   21.2988 C   0  0  0  0  0  0  0  0  0  0  0  0
   12.0765    0.0316   24.1541 C   0  0  0  0  0  0  0  0  0  0  0  0
   12.9132   -0.6032   23.2569 C   0  0  0  0  0  0  0  0  0  0  0  0
   10.9991   -1.4331   22.0443 C   0  0  0  0  0  0  0  0  0  0  0  0
    5.3278    1.2339   17.6066 C   0  0  0  0  0  0  0  0  0  0  0  0
    6.8438   -0.2892   18.3752 C   0  0  0  0  0  0  0  0  0  0  0  0
    4.8226    1.4906   18.9054 C   0  0  0  0  0  0  0  0  0  0  0  0
    5.3982    0.7733   19.9948 C   0  0  0  0  0  0  0  0  0  0  0  0
   10.1406   -0.7765   22.9250 C   0  0  0  0  0  0  0  0  0  0  0  0
    6.4440   -0.1472   19.6979 C   0  0  0  0  0  0  0  0  0  0  0  0
   10.7040   -0.0625   23.9898 C   0  0  0  0  0  0  0  0  0  0  0  0
   12.3683   -1.3298   22.2234 C   0  0  0  0  0  0  0  0  0  0  0  0
    8.2490    0.0169   21.4271 C   0  0  0  0  0  0  0  0  0  0  0  0
    8.0140   -2.1541   22.4331 C   0  0  0  0  0  0  0  0  0  0  0  0
    6.9866   -1.9366   21.3580 C   0  0  0  0  0  0  0  0  0  0  0  0
    7.8721   -0.1194   23.8831 C   0  0  0  0  0  0  0  0  0  0  0  0
    8.6238   -0.7606   22.6929 C   0  0  3  0  0  0  0  0  0  0  0  0
    6.3062    0.3769   17.3421 N   0  0  0  0  0  0  0  0  0  0  0  0
    8.6609    1.0133   24.4995 N   0  0  0  0  0  0  0  0  0  0  0  0
    7.2292   -0.6897   20.7790 N   0  0  0  0  0  0  0  0  0  0  0  0
    8.8290    1.0395   21.0789 O   0  0  0  0  0  0  0  0  0  0  0  0
   10.7088    1.8104   25.5187 O   0  0  0  0  0  0  0  0  0  0  0  0
    9.7262   -0.4361   26.1448 O   0  0  0  0  0  0  0  0  0  0  0  0
    9.9479    0.5589   24.9534 S   0  0  0  0  0  0  0  0  0  0  0  0
   13.4287   -2.1371   21.1072 Cl  0  0  0  0  0  0  0  0  0  0  0  0
    2.5432    3.3510   20.6369 H   0  0  0  0  0  0  0  0  0  0  0  0
    3.5174    2.1137   22.5168 H   0  0  0  0  0  0  0  0  0  0  0  0
    3.3409    2.9743   18.3364 H   0  0  0  0  0  0  0  0  0  0  0  0
    5.3118    0.4895   22.1572 H   0  0  0  0  0  0  0  0  0  0  0  0
   12.5109    0.5943   24.9779 H   0  0  0  0  0  0  0  0  0  0  0  0
   13.9912   -0.5160   23.3787 H   0  0  0  0  0  0  0  0  0  0  0  0
   10.6095   -2.0123   21.2230 H   0  0  0  0  0  0  0  0  0  0  0  0
    4.9141    1.7511   16.7474 H   0  0  0  0  0  0  0  0  0  0  0  0
    7.6445   -0.9764   18.1043 H   0  0  0  0  0  0  0  0  0  0  0  0
    7.5133   -2.5498   23.3303 H   0  0  0  0  0  0  0  0  0  0  0  0
    8.7619   -2.9048   22.1430 H   0  0  0  0  0  0  0  0  0  0  0  0
    7.0583   -2.7252   20.5725 H   0  0  0  0  0  0  0  0  0  0  0  0
    5.9518   -1.9949   21.7717 H   0  0  0  0  0  0  0  0  0  0  0  0
    6.8906    0.2867   23.5903 H   0  0  0  0  0  0  0  0  0  0  0  0
    7.6592   -0.8565   24.6760 H   0  0  0  0  0  0  0  0  0  0  0  0
    8.4428    1.9138   24.0253 H   0  0  0  0  0  0  0  0  0  0  0  0
  1  2  1  0  0  0  0
  1  3  2  0  0  0  0
  2  4  2  0  0  0  0
  3 10  1  0  0  0  0
  4 11  1  0  0  0  0
  5  6  1  0  0  0  0
  5 14  2  0  0  0  0
  6 15  2  0  0  0  0
  7 12  2  0  0  0  0
  7 15  1  0  0  0  0
  8 10  2  0  0  0  0
  8 21  1  0  0  0  0
  9 13  1  0  0  0  0
  9 21  2  0  0  0  0
 10 11  1  0  0  0  0
 11 13  2  0  0  0  0
 12 14  1  0  0  0  0
 12 20  1  0  0  0  0
 13 23  1  0  0  0  0
 14 27  1  0  0  0  0
 15 28  1  0  0  0  0
 16 20  1  0  0  0  0
 16 23  1  0  0  0  0
 16 24  2  0  0  0  0
 17 18  1  0  0  0  0
 17 20  1  0  0  0  0
 18 23  1  0  0  0  0
 19 20  1  0  0  0  0
 19 22  1  0  0  0  0
 22 27  1  0  0  0  0
 25 27  2  0  0  0  0
 26 27  2  0  0  0  0
  1 29  1  0  0  0  0
  2 30  1  0  0  0  0
  3 31  1  0  0  0  0
  4 32  1  0  0  0  0
  5 33  1  0  0  0  0
  6 34  1  0  0  0  0
  7 35  1  0  0  0  0
  8 36  1  0  0  0  0
  9 37  1  0  0  0  0
 17 38  1  0  0  0  0
 17 39  1  0  0  0  0
 18 40  1  0  0  0  0
 18 41  1  0  0  0  0
 19 42  1  0  0  0  0
 19 43  1  0  0  0  0
 22 44  1  0  0  0  0
M  END
> <compound>
EDJ-MED-f9b78f78-4

> <compound_smiles>
c1ccc2c(c1)cncc2N3CCC4(C3=O)CNS(=O)(=O)c5c4cc(cc5)Cl

> <enantiomer_smiles>
c1ccc2c(c1)cncc2N3CCC4(C3=O)CNS(=O)(=O)c5c4cc(cc5)Cl

> <scaffold>
tetralinlike-5spiro-isoquinoline

> <clash_score>
0.7237491235106456

> <docking_score>
-8.87259292602539

> <overlap_score>
0.9897215962409973

> <MMFF_internal_energy>
217.47012809371768

> <docked_smiles>
c1ccc2c(c1)cncc2N3CC[C@@]4(C3=O)CNS(=O)(=O)c5c4cc(cc5)Cl

$$$$
EDJ-MED-d7486dd1-1_1
  -OEChem-12272114573D

 53 57  0     1  0  0  0  0  0999 V2000
   12.0765    0.0316   24.1541 C   0  0  0  0  0  0  0  0  0  0  0  0
   12.9132   -0.6032   23.2569 C   0  0  0  0  0  0  0  0  0  0  0  0
    3.7865    2.4205   19.1660 C   0  0  0  0  0  0  0  0  0  0  0  0
   10.9991   -1.4331   22.0443 C   0  0  0  0  0  0  0  0  0  0  0  0
    3.8960    1.9291   21.5050 C   0  0  0  0  0  0  0  0  0  0  0  0
    5.3278    1.2339   17.6066 C   0  0  0  0  0  0  0  0  0  0  0  0
    6.8438   -0.2892   18.3752 C   0  0  0  0  0  0  0  0  0  0  0  0
    4.8226    1.4906   18.9054 C   0  0  0  0  0  0  0  0  0  0  0  0
    5.3982    0.7733   19.9948 C   0  0  0  0  0  0  0  0  0  0  0  0
   10.1406   -0.7765   22.9250 C   0  0  0  0  0  0  0  0  0  0  0  0
    4.8973    1.0233   21.2988 C   0  0  0  0  0  0  0  0  0  0  0  0
    6.4440   -0.1472   19.6979 C   0  0  0  0  0  0  0  0  0  0  0  0
   10.7040   -0.0625   23.9898 C   0  0  0  0  0  0  0  0  0  0  0  0
    3.3432    2.6279   20.4411 C   0  0  0  0  0  0  0  0  0  0  0  0
   12.3683   -1.3298   22.2234 C   0  0  0  0  0  0  0  0  0  0  0  0
    8.0140   -2.1541   22.4331 C   0  0  0  0  0  0  0  0  0  0  0  0
    7.8721   -0.1194   23.8831 C   0  0  0  0  0  0  0  0  0  0  0  0
    6.9866   -1.9366   21.3580 C   0  0  0  0  0  0  0  0  0  0  0  0
    8.2490    0.0169   21.4271 C   0  0  0  0  0  0  0  0  0  0  0  0
    8.6609    1.0133   24.4995 C   0  0  0  0  0  0  0  0  0  0  0  0
    8.6238   -0.7606   22.6929 C   0  0  3  0  0  0  0  0  0  0  0  0
    5.4180    0.3291   22.5247 C   0  0  0  0  0  0  0  0  0  0  0  0
    0.5681    2.8274   20.6203 C   0  0  0  0  0  0  0  0  0  0  0  0
    6.3062    0.3769   17.3421 N   0  0  0  0  0  0  0  0  0  0  0  0
    7.2292   -0.6897   20.7790 N   0  0  2  0  0  0  0  0  0  0  0  0
    2.1850    4.2361   22.1288 O   0  0  0  0  0  0  0  0  0  0  0  0
    2.0309    4.7644   19.6706 O   0  0  0  0  0  0  0  0  0  0  0  0
    9.9479    0.5589   24.9534 O   0  0  0  0  0  0  0  0  0  0  0  0
    2.0602    3.7866   20.7497 S   0  0  0  0  0  0  0  0  0  0  0  0
   13.4290   -2.1390   21.1091 Cl  0  0  0  0  0  0  0  0  0  0  0  0
   12.5016    0.5957   24.9778 H   0  0  0  0  0  0  0  0  0  0  0  0
   13.9917   -0.5169   23.3795 H   0  0  0  0  0  0  0  0  0  0  0  0
    3.3474    2.9686   18.3281 H   0  0  0  0  0  0  0  0  0  0  0  0
   10.6184   -2.0173   21.2233 H   0  0  0  0  0  0  0  0  0  0  0  0
    3.5132    2.1141   22.5170 H   0  0  0  0  0  0  0  0  0  0  0  0
    4.9135    1.7515   16.7479 H   0  0  0  0  0  0  0  0  0  0  0  0
    7.6442   -0.9760   18.1022 H   0  0  0  0  0  0  0  0  0  0  0  0
    7.5127   -2.5249   23.3391 H   0  0  0  0  0  0  0  0  0  0  0  0
    8.7591   -2.9059   22.1411 H   0  0  0  0  0  0  0  0  0  0  0  0
    7.6397   -0.8783   24.6509 H   0  0  0  0  0  0  0  0  0  0  0  0
    6.8985    0.2675   23.5282 H   0  0  0  0  0  0  0  0  0  0  0  0
    7.0400   -2.7509   20.5913 H   0  0  0  0  0  0  0  0  0  0  0  0
    5.9566   -2.0159   21.7928 H   0  0  0  0  0  0  0  0  0  0  0  0
    7.8809    1.0374   21.6903 H   0  0  0  0  0  0  0  0  0  0  0  0
    9.1367    0.1868   20.7694 H   0  0  0  0  0  0  0  0  0  0  0  0
    8.8459    1.7850   23.7508 H   0  0  0  0  0  0  0  0  0  0  0  0
    8.1397    1.4832   25.3352 H   0  0  0  0  0  0  0  0  0  0  0  0
    4.8469   -0.5864   22.7089 H   0  0  0  0  0  0  0  0  0  0  0  0
    6.4770    0.0697   22.4197 H   0  0  0  0  0  0  0  0  0  0  0  0
    5.3308    0.9820   23.4002 H   0  0  0  0  0  0  0  0  0  0  0  0
   -0.2819    3.4863   20.8042 H   0  0  0  0  0  0  0  0  0  0  0  0
    0.5153    2.4067   19.6150 H   0  0  0  0  0  0  0  0  0  0  0  0
    0.6042    2.0323   21.3664 H   0  0  0  0  0  0  0  0  0  0  0  0
  1  2  1  0  0  0  0
  1 13  2  0  0  0  0
  2 15  2  0  0  0  0
  3  8  2  0  0  0  0
  3 14  1  0  0  0  0
  4 10  2  0  0  0  0
  4 15  1  0  0  0  0
  5 11  1  0  0  0  0
  5 14  2  0  0  0  0
  6  8  1  0  0  0  0
  6 24  2  0  0  0  0
  7 12  2  0  0  0  0
  7 24  1  0  0  0  0
  8  9  1  0  0  0  0
  9 11  2  0  0  0  0
  9 12  1  0  0  0  0
 10 13  1  0  0  0  0
 10 21  1  0  0  0  0
 11 22  1  0  0  0  0
 12 25  1  1  0  0  0
 13 28  1  0  0  0  0
 14 29  1  0  0  0  0
 15 30  1  0  0  0  0
 16 18  1  0  0  0  0
 16 21  1  0  0  0  0
 17 20  1  0  0  0  0
 17 21  1  0  0  0  0
 18 25  1  0  0  0  0
 19 21  1  0  0  0  0
 19 25  1  0  0  0  0
 20 28  1  0  0  0  0
 23 29  1  0  0  0  0
 26 29  2  0  0  0  0
 27 29  2  0  0  0  0
  1 31  1  0  0  0  0
  2 32  1  0  0  0  0
  3 33  1  0  0  0  0
  4 34  1  0  0  0  0
  5 35  1  0  0  0  0
  6 36  1  0  0  0  0
  7 37  1  0  0  0  0
 16 38  1  0  0  0  0
 16 39  1  0  0  0  0
 17 40  1  0  0  0  0
 17 41  1  0  0  0  0
 18 42  1  0  0  0  0
 18 43  1  0  0  0  0
 19 44  1  0  0  0  0
 19 45  1  0  0  0  0
 20 46  1  0  0  0  0
 20 47  1  0  0  0  0
 22 48  1  0  0  0  0
 22 49  1  0  0  0  0
 22 50  1  0  0  0  0
 23 51  1  0  0  0  0
 23 52  1  0  0  0  0
 23 53  1  0  0  0  0
M  END
> <compound>
EDJ-MED-d7486dd1-1

> <compound_smiles>
Cc1cc(cc2c1c(cnc2)N3CCC4(C3)CCOc5c4cc(cc5)Cl)S(=O)(=O)C

> <enantiomer_smiles>
Cc1cc(cc2c1c(cnc2)[N@@]3CCC4(C3)CCOc5c4cc(cc5)Cl)S(=O)(=O)C

> <scaffold>
chromane-5spiro-isoquinoline

> <clash_score>
0

> <docking_score>
-9.301262855529785

> <overlap_score>
0.9610289931297302

> <MMFF_internal_energy>
259.9668262431426

> <docked_smiles>
Cc1cc(cc2c1c(cnc2)N3CC[C@@]4(C3)CCOc5c4cc(cc5)Cl)S(=O)(=O)C

$$$$
PET-UNK-aa57768f-3_1
  -OEChem-12272114573D

 48 52  0     1  0  0  0  0  0999 V2000
    7.6767    2.9225   21.8689 C   0  0  0  0  0  0  0  0  0  0  0  0
    7.9357    2.6458   23.0082 C   0  0  0  0  0  0  0  0  0  0  0  0
    3.3432    2.6279   20.4411 C   0  0  0  0  0  0  0  0  0  0  0  0
    3.8960    1.9291   21.5050 C   0  0  0  0  0  0  0  0  0  0  0  0
    3.7865    2.4205   19.1660 C   0  0  0  0  0  0  0  0  0  0  0  0
    4.8973    1.0233   21.2988 C   0  0  0  0  0  0  0  0  0  0  0  0
   12.0765    0.0316   24.1541 C   0  0  0  0  0  0  0  0  0  0  0  0
   12.9132   -0.6032   23.2569 C   0  0  0  0  0  0  0  0  0  0  0  0
   10.9991   -1.4331   22.0443 C   0  0  0  0  0  0  0  0  0  0  0  0
    5.3278    1.2339   17.6066 C   0  0  0  0  0  0  0  0  0  0  0  0
    6.8438   -0.2892   18.3752 C   0  0  0  0  0  0  0  0  0  0  0  0
    4.8226    1.4906   18.9054 C   0  0  0  0  0  0  0  0  0  0  0  0
    5.3982    0.7733   19.9948 C   0  0  0  0  0  0  0  0  0  0  0  0
   10.7040   -0.0625   23.9898 C   0  0  0  0  0  0  0  0  0  0  0  0
   10.1406   -0.7765   22.9250 C   0  0  0  0  0  0  0  0  0  0  0  0
    6.4440   -0.1472   19.6979 C   0  0  0  0  0  0  0  0  0  0  0  0
   12.3683   -1.3298   22.2234 C   0  0  0  0  0  0  0  0  0  0  0  0
    9.9479    0.5589   24.9534 C   0  0  0  0  0  0  0  0  0  0  0  0
    8.2490    0.0169   21.4271 C   0  0  0  0  0  0  0  0  0  0  0  0
    8.0140   -2.1541   22.4331 C   0  0  0  0  0  0  0  0  0  0  0  0
    6.9866   -1.9366   21.3580 C   0  0  0  0  0  0  0  0  0  0  0  0
    7.8721   -0.1194   23.8831 C   0  0  0  0  0  0  0  0  0  0  0  0
    8.6238   -0.7606   22.6929 C   0  0  1  0  0  0  0  0  0  0  0  0
    8.2499    2.3131   24.3998 C   0  0  0  0  0  0  0  0  0  0  0  0
    6.3062    0.3769   17.3421 N   0  0  0  0  0  0  0  0  0  0  0  0
    7.2292   -0.6897   20.7790 N   0  0  0  0  0  0  0  0  0  0  0  0
    8.6609    1.0133   24.4995 N   0  0  0  0  0  0  0  0  0  0  0  0
   10.3177    0.7179   26.1139 O   0  0  0  0  0  0  0  0  0  0  0  0
    8.8305    1.0394   21.0805 O   0  0  0  0  0  0  0  0  0  0  0  0
   13.4275   -2.1467   21.1135 Cl  0  0  0  0  0  0  0  0  0  0  0  0
    7.4467    3.1674   20.8584 H   0  0  0  0  0  0  0  0  0  0  0  0
    2.5432    3.3510   20.6369 H   0  0  0  0  0  0  0  0  0  0  0  0
    3.5174    2.1137   22.5168 H   0  0  0  0  0  0  0  0  0  0  0  0
    3.3409    2.9743   18.3364 H   0  0  0  0  0  0  0  0  0  0  0  0
    5.3118    0.4895   22.1572 H   0  0  0  0  0  0  0  0  0  0  0  0
   12.5172    0.5961   24.9720 H   0  0  0  0  0  0  0  0  0  0  0  0
   13.9905   -0.5226   23.3828 H   0  0  0  0  0  0  0  0  0  0  0  0
   10.6129   -2.0250   21.2273 H   0  0  0  0  0  0  0  0  0  0  0  0
    4.9141    1.7511   16.7474 H   0  0  0  0  0  0  0  0  0  0  0  0
    7.6445   -0.9764   18.1043 H   0  0  0  0  0  0  0  0  0  0  0  0
    7.5112   -2.5276   23.3391 H   0  0  0  0  0  0  0  0  0  0  0  0
    8.7578   -2.9102   22.1437 H   0  0  0  0  0  0  0  0  0  0  0  0
    7.0588   -2.7253   20.5720 H   0  0  0  0  0  0  0  0  0  0  0  0
    5.9512   -1.9962   21.7710 H   0  0  0  0  0  0  0  0  0  0  0  0
    6.9201    0.3181   23.5737 H   0  0  0  0  0  0  0  0  0  0  0  0
    7.6662   -0.8544   24.6622 H   0  0  0  0  0  0  0  0  0  0  0  0
    7.3739    2.4724   25.0361 H   0  0  0  0  0  0  0  0  0  0  0  0
    9.0477    2.9646   24.7707 H   0  0  0  0  0  0  0  0  0  0  0  0
  1  2  3  0  0  0  0
  2 24  1  0  0  0  0
  3  4  1  0  0  0  0
  3  5  2  0  0  0  0
  4  6  2  0  0  0  0
  5 12  1  0  0  0  0
  6 13  1  0  0  0  0
  7  8  2  0  0  0  0
  7 14  1  0  0  0  0
  8 17  1  0  0  0  0
  9 15  1  0  0  0  0
  9 17  2  0  0  0  0
 10 12  2  0  0  0  0
 10 25  1  0  0  0  0
 11 16  1  0  0  0  0
 11 25  2  0  0  0  0
 12 13  1  0  0  0  0
 13 16  2  0  0  0  0
 14 15  2  0  0  0  0
 14 18  1  0  0  0  0
 15 23  1  1  0  0  0
 16 26  1  0  0  0  0
 17 30  1  0  0  0  0
 18 27  1  0  0  0  0
 18 28  2  0  0  0  0
 19 23  1  1  0  0  0
 19 26  1  0  0  0  0
 19 29  2  0  0  0  0
 20 21  1  0  0  0  0
 20 23  1  6  0  0  0
 21 26  1  0  0  0  0
 22 23  1  6  0  0  0
 22 27  1  0  0  0  0
 24 27  1  0  0  0  0
  1 31  1  0  0  0  0
  3 32  1  0  0  0  0
  4 33  1  0  0  0  0
  5 34  1  0  0  0  0
  6 35  1  0  0  0  0
  7 36  1  0  0  0  0
  8 37  1  0  0  0  0
  9 38  1  0  0  0  0
 10 39  1  0  0  0  0
 11 40  1  0  0  0  0
 20 41  1  0  0  0  0
 20 42  1  0  0  0  0
 21 43  1  0  0  0  0
 21 44  1  0  0  0  0
 22 45  1  0  0  0  0
 22 46  1  0  0  0  0
 24 47  1  0  0  0  0
 24 48  1  0  0  0  0
M  END
> <compound>
PET-UNK-aa57768f-3

> <compound_smiles>
C#CCN1C[C@]2(CCN(C2=O)c3cncc4c3cccc4)c5cc(ccc5C1=O)Cl

> <enantiomer_smiles>
C#CCN1C[C@]2(CCN(C2=O)c3cncc4c3cccc4)c5cc(ccc5C1=O)Cl

> <scaffold>
tetrahydroisoquinoline-5spiro-isoquinoline

> <clash_score>
0

> <docking_score>
-8.997787475585938

> <overlap_score>
1.0

> <MMFF_internal_energy>
162.65012745267168

> <docked_smiles>
C#CCN1C[C@]2(CCN(C2=O)c3cncc4c3cccc4)c5cc(ccc5C1=O)Cl

$$$$
EDJ-MED-8bb691af-1_1
  -OEChem-12272114573D

 56 60  0     1  0  0  0  0  0999 V2000
    3.3432    2.6279   20.4411 C   0  0  0  0  0  0  0  0  0  0  0  0
    3.8960    1.9291   21.5050 C   0  0  0  0  0  0  0  0  0  0  0  0
    3.7865    2.4205   19.1660 C   0  0  0  0  0  0  0  0  0  0  0  0
    4.8973    1.0233   21.2988 C   0  0  0  0  0  0  0  0  0  0  0  0
   12.0765    0.0316   24.1541 C   0  0  0  0  0  0  0  0  0  0  0  0
   12.9132   -0.6032   23.2569 C   0  0  0  0  0  0  0  0  0  0  0  0
   10.9991   -1.4331   22.0443 C   0  0  0  0  0  0  0  0  0  0  0  0
    5.3278    1.2339   17.6066 C   0  0  0  0  0  0  0  0  0  0  0  0
    6.8438   -0.2892   18.3752 C   0  0  0  0  0  0  0  0  0  0  0  0
    4.8226    1.4906   18.9054 C   0  0  0  0  0  0  0  0  0  0  0  0
    5.3982    0.7733   19.9948 C   0  0  0  0  0  0  0  0  0  0  0  0
   10.7040   -0.0625   23.9898 C   0  0  0  0  0  0  0  0  0  0  0  0
   10.1406   -0.7765   22.9250 C   0  0  0  0  0  0  0  0  0  0  0  0
    6.4440   -0.1472   19.6979 C   0  0  0  0  0  0  0  0  0  0  0  0
   12.3683   -1.3298   22.2234 C   0  0  0  0  0  0  0  0  0  0  0  0
    7.4378    2.9605   23.5051 C   0  0  0  0  0  0  0  0  0  0  0  0
    9.9479    0.5589   24.9534 C   0  0  0  0  0  0  0  0  0  0  0  0
    8.0140   -2.1541   22.4331 C   0  0  0  0  0  0  0  0  0  0  0  0
    6.9866   -1.9366   21.3580 C   0  0  0  0  0  0  0  0  0  0  0  0
    8.2490    0.0169   21.4271 C   0  0  0  0  0  0  0  0  0  0  0  0
    7.8721   -0.1194   23.8831 C   0  0  0  0  0  0  0  0  0  0  0  0
    8.6238   -0.7606   22.6929 C   0  0  3  0  0  0  0  0  0  0  0  0
    6.4207    4.9636   22.4608 C   0  0  0  0  0  0  0  0  0  0  0  0
    8.7388    2.2003   23.5653 C   0  0  0  0  0  0  0  0  0  0  0  0
    6.3062    0.3769   17.3421 N   0  0  0  0  0  0  0  0  0  0  0  0
    7.2292   -0.6897   20.7790 N   0  0  1  0  0  0  0  0  0  0  0  0
    7.5350    4.0733   22.6831 N   0  0  0  0  0  0  0  0  0  0  0  0
    8.6609    1.0133   24.4995 N   0  3  2  0  0  0  0  0  0  0  0  0
    6.4284    2.6186   24.1153 O   0  0  0  0  0  0  0  0  0  0  0  0
   13.4289   -2.1420   21.1114 Cl  0  0  0  0  0  0  0  0  0  0  0  0
    2.5434    3.3513   20.6369 H   0  0  0  0  0  0  0  0  0  0  0  0
    3.5178    2.1138   22.5169 H   0  0  0  0  0  0  0  0  0  0  0  0
    3.3410    2.9744   18.3364 H   0  0  0  0  0  0  0  0  0  0  0  0
    5.3113    0.4888   22.1570 H   0  0  0  0  0  0  0  0  0  0  0  0
   12.5035    0.5995   24.9720 H   0  0  0  0  0  0  0  0  0  0  0  0
   13.9918   -0.5155   23.3780 H   0  0  0  0  0  0  0  0  0  0  0  0
   10.6215   -2.0217   21.2260 H   0  0  0  0  0  0  0  0  0  0  0  0
    4.9138    1.7514   16.7477 H   0  0  0  0  0  0  0  0  0  0  0  0
    7.6447   -0.9761   18.1049 H   0  0  0  0  0  0  0  0  0  0  0  0
    9.7396   -0.1079   25.8261 H   0  0  0  0  0  0  0  0  0  0  0  0
   10.4766    1.4563   25.3598 H   0  0  0  0  0  0  0  0  0  0  0  0
    7.5114   -2.5254   23.3382 H   0  0  0  0  0  0  0  0  0  0  0  0
    8.7583   -2.9066   22.1416 H   0  0  0  0  0  0  0  0  0  0  0  0
    7.0398   -2.7508   20.5910 H   0  0  0  0  0  0  0  0  0  0  0  0
    5.9564   -2.0160   21.7925 H   0  0  0  0  0  0  0  0  0  0  0  0
    7.8783    1.0370   21.6886 H   0  0  0  0  0  0  0  0  0  0  0  0
    9.1361    0.1909   20.7696 H   0  0  0  0  0  0  0  0  0  0  0  0
    6.8900    0.2916   23.5821 H   0  0  0  0  0  0  0  0  0  0  0  0
    7.6913   -0.8575   24.6853 H   0  0  0  0  0  0  0  0  0  0  0  0
    5.8569    4.6323   21.5762 H   0  0  0  0  0  0  0  0  0  0  0  0
    5.7613    4.9525   23.3411 H   0  0  0  0  0  0  0  0  0  0  0  0
    6.7947    5.9848   22.2957 H   0  0  0  0  0  0  0  0  0  0  0  0
    9.5367    2.8377   23.9563 H   0  0  0  0  0  0  0  0  0  0  0  0
    9.0046    1.8218   22.5744 H   0  0  0  0  0  0  0  0  0  0  0  0
    8.4210    4.2913   22.2362 H   0  0  0  0  0  0  0  0  0  0  0  0
    8.1114    1.3463   25.3133 H   0  0  0  0  0  0  0  0  0  0  0  0
  1  2  1  0  0  0  0
  1  3  2  0  0  0  0
  2  4  2  0  0  0  0
  3 10  1  0  0  0  0
  4 11  1  0  0  0  0
  5  6  2  0  0  0  0
  5 12  1  0  0  0  0
  6 15  1  0  0  0  0
  7 13  1  0  0  0  0
  7 15  2  0  0  0  0
  8 10  2  0  0  0  0
  8 25  1  0  0  0  0
  9 14  1  0  0  0  0
  9 25  2  0  0  0  0
 10 11  1  0  0  0  0
 11 14  2  0  0  0  0
 12 13  2  0  0  0  0
 12 17  1  0  0  0  0
 13 22  1  0  0  0  0
 14 26  1  1  0  0  0
 15 30  1  0  0  0  0
 16 24  1  0  0  0  0
 16 27  1  0  0  0  0
 16 29  2  0  0  0  0
 17 28  1  0  0  0  0
 18 19  1  0  0  0  0
 18 22  1  0  0  0  0
 19 26  1  0  0  0  0
 20 22  1  0  0  0  0
 20 26  1  0  0  0  0
 21 22  1  0  0  0  0
 21 28  1  0  0  0  0
 23 27  1  0  0  0  0
 24 28  1  1  0  0  0
  1 31  1  0  0  0  0
  2 32  1  0  0  0  0
  3 33  1  0  0  0  0
  4 34  1  0  0  0  0
  5 35  1  0  0  0  0
  6 36  1  0  0  0  0
  7 37  1  0  0  0  0
  8 38  1  0  0  0  0
  9 39  1  0  0  0  0
 17 40  1  0  0  0  0
 17 41  1  0  0  0  0
 18 42  1  0  0  0  0
 18 43  1  0  0  0  0
 19 44  1  0  0  0  0
 19 45  1  0  0  0  0
 20 46  1  0  0  0  0
 20 47  1  0  0  0  0
 21 48  1  0  0  0  0
 21 49  1  0  0  0  0
 23 50  1  0  0  0  0
 23 51  1  0  0  0  0
 23 52  1  0  0  0  0
 24 53  1  0  0  0  0
 24 54  1  0  0  0  0
 27 55  1  0  0  0  0
 28 56  1  0  0  0  0
M  CHG  1  28   1
M  END
> <compound>
EDJ-MED-8bb691af-1

> <compound_smiles>
CNC(=O)CN1Cc2ccc(cc2C3(C1)CCN(C3)c4cncc5c4cccc5)Cl

> <enantiomer_smiles>
CNC(=O)C[N@@]1Cc2ccc(cc2C3(C1)CC[N@@](C3)c4cncc5c4cccc5)Cl

> <scaffold>
tetrahydroisoquinoline-5spiro-isoquinoline

> <clash_score>
0

> <docking_score>
-8.901742935180664

> <overlap_score>
0.9528087973594666

> <MMFF_internal_energy>
186.35272319094813

> <docked_smiles>
CNC(=O)C[N@@H+]1Cc2ccc(cc2[C@]3(C1)CCN(C3)c4cncc5c4cccc5)Cl

$$$$
EDJ-MED-d7486dd1-1_2
  -OEChem-12272114573D

 53 57  0     1  0  0  0  0  0999 V2000
   12.0765    0.0316   24.1541 C   0  0  0  0  0  0  0  0  0  0  0  0
   12.9132   -0.6032   23.2569 C   0  0  0  0  0  0  0  0  0  0  0  0
    3.7865    2.4205   19.1660 C   0  0  0  0  0  0  0  0  0  0  0  0
   10.9991   -1.4331   22.0443 C   0  0  0  0  0  0  0  0  0  0  0  0
    3.8960    1.9291   21.5050 C   0  0  0  0  0  0  0  0  0  0  0  0
    5.3278    1.2339   17.6066 C   0  0  0  0  0  0  0  0  0  0  0  0
    6.8438   -0.2892   18.3752 C   0  0  0  0  0  0  0  0  0  0  0  0
    4.8226    1.4906   18.9054 C   0  0  0  0  0  0  0  0  0  0  0  0
    5.3982    0.7733   19.9948 C   0  0  0  0  0  0  0  0  0  0  0  0
   10.1406   -0.7765   22.9250 C   0  0  0  0  0  0  0  0  0  0  0  0
    4.8973    1.0233   21.2988 C   0  0  0  0  0  0  0  0  0  0  0  0
    6.4440   -0.1472   19.6979 C   0  0  0  0  0  0  0  0  0  0  0  0
   10.7040   -0.0625   23.9898 C   0  0  0  0  0  0  0  0  0  0  0  0
    3.3432    2.6279   20.4411 C   0  0  0  0  0  0  0  0  0  0  0  0
   12.3683   -1.3298   22.2234 C   0  0  0  0  0  0  0  0  0  0  0  0
    8.0140   -2.1541   22.4331 C   0  0  0  0  0  0  0  0  0  0  0  0
    7.8721   -0.1194   23.8831 C   0  0  0  0  0  0  0  0  0  0  0  0
    6.9866   -1.9366   21.3580 C   0  0  0  0  0  0  0  0  0  0  0  0
    8.2490    0.0169   21.4271 C   0  0  0  0  0  0  0  0  0  0  0  0
    8.6609    1.0133   24.4995 C   0  0  0  0  0  0  0  0  0  0  0  0
    8.6238   -0.7606   22.6929 C   0  0  3  0  0  0  0  0  0  0  0  0
    5.4180    0.3291   22.5247 C   0  0  0  0  0  0  0  0  0  0  0  0
    0.5679    2.8277   20.6203 C   0  0  0  0  0  0  0  0  0  0  0  0
    6.3062    0.3769   17.3421 N   0  0  0  0  0  0  0  0  0  0  0  0
    7.2292   -0.6897   20.7790 N   0  0  1  0  0  0  0  0  0  0  0  0
    2.1854    4.2357   22.1289 O   0  0  0  0  0  0  0  0  0  0  0  0
    2.0309    4.7648   19.6709 O   0  0  0  0  0  0  0  0  0  0  0  0
    9.9479    0.5589   24.9534 O   0  0  0  0  0  0  0  0  0  0  0  0
    2.0602    3.7866   20.7497 S   0  0  0  0  0  0  0  0  0  0  0  0
   13.4289   -2.1391   21.1090 Cl  0  0  0  0  0  0  0  0  0  0  0  0
   12.5016    0.5964   24.9773 H   0  0  0  0  0  0  0  0  0  0  0  0
   13.9917   -0.5169   23.3795 H   0  0  0  0  0  0  0  0  0  0  0  0
    3.3474    2.9686   18.3281 H   0  0  0  0  0  0  0  0  0  0  0  0
   10.6184   -2.0172   21.2233 H   0  0  0  0  0  0  0  0  0  0  0  0
    3.5132    2.1141   22.5170 H   0  0  0  0  0  0  0  0  0  0  0  0
    4.9135    1.7515   16.7479 H   0  0  0  0  0  0  0  0  0  0  0  0
    7.6442   -0.9760   18.1022 H   0  0  0  0  0  0  0  0  0  0  0  0
    7.5122   -2.5241   23.3393 H   0  0  0  0  0  0  0  0  0  0  0  0
    8.7590   -2.9064   22.1421 H   0  0  0  0  0  0  0  0  0  0  0  0
    7.6392   -0.8782   24.6507 H   0  0  0  0  0  0  0  0  0  0  0  0
    6.8990    0.2679   23.5277 H   0  0  0  0  0  0  0  0  0  0  0  0
    7.0396   -2.7509   20.5913 H   0  0  0  0  0  0  0  0  0  0  0  0
    5.9566   -2.0156   21.7931 H   0  0  0  0  0  0  0  0  0  0  0  0
    7.8805    1.0371   21.6910 H   0  0  0  0  0  0  0  0  0  0  0  0
    9.1366    0.1876   20.7695 H   0  0  0  0  0  0  0  0  0  0  0  0
    8.8457    1.7853   23.7513 H   0  0  0  0  0  0  0  0  0  0  0  0
    8.1398    1.4823   25.3357 H   0  0  0  0  0  0  0  0  0  0  0  0
    4.8469   -0.5864   22.7089 H   0  0  0  0  0  0  0  0  0  0  0  0
    6.4770    0.0697   22.4197 H   0  0  0  0  0  0  0  0  0  0  0  0
    5.3308    0.9820   23.4002 H   0  0  0  0  0  0  0  0  0  0  0  0
   -0.2820    3.4868   20.8047 H   0  0  0  0  0  0  0  0  0  0  0  0
    0.5148    2.4073   19.6150 H   0  0  0  0  0  0  0  0  0  0  0  0
    0.6040    2.0324   21.3663 H   0  0  0  0  0  0  0  0  0  0  0  0
  1  2  1  0  0  0  0
  1 13  2  0  0  0  0
  2 15  2  0  0  0  0
  3  8  2  0  0  0  0
  3 14  1  0  0  0  0
  4 10  2  0  0  0  0
  4 15  1  0  0  0  0
  5 11  1  0  0  0  0
  5 14  2  0  0  0  0
  6  8  1  0  0  0  0
  6 24  2  0  0  0  0
  7 12  2  0  0  0  0
  7 24  1  0  0  0  0
  8  9  1  0  0  0  0
  9 11  2  0  0  0  0
  9 12  1  0  0  0  0
 10 13  1  0  0  0  0
 10 21  1  0  0  0  0
 11 22  1  0  0  0  0
 12 25  1  6  0  0  0
 13 28  1  0  0  0  0
 14 29  1  0  0  0  0
 15 30  1  0  0  0  0
 16 18  1  0  0  0  0
 16 21  1  0  0  0  0
 17 20  1  0  0  0  0
 17 21  1  0  0  0  0
 18 25  1  0  0  0  0
 19 21  1  0  0  0  0
 19 25  1  0  0  0  0
 20 28  1  0  0  0  0
 23 29  1  0  0  0  0
 26 29  2  0  0  0  0
 27 29  2  0  0  0  0
  1 31  1  0  0  0  0
  2 32  1  0  0  0  0
  3 33  1  0  0  0  0
  4 34  1  0  0  0  0
  5 35  1  0  0  0  0
  6 36  1  0  0  0  0
  7 37  1  0  0  0  0
 16 38  1  0  0  0  0
 16 39  1  0  0  0  0
 17 40  1  0  0  0  0
 17 41  1  0  0  0  0
 18 42  1  0  0  0  0
 18 43  1  0  0  0  0
 19 44  1  0  0  0  0
 19 45  1  0  0  0  0
 20 46  1  0  0  0  0
 20 47  1  0  0  0  0
 22 48  1  0  0  0  0
 22 49  1  0  0  0  0
 22 50  1  0  0  0  0
 23 51  1  0  0  0  0
 23 52  1  0  0  0  0
 23 53  1  0  0  0  0
M  END
> <compound>
EDJ-MED-d7486dd1-1

> <compound_smiles>
Cc1cc(cc2c1c(cnc2)N3CCC4(C3)CCOc5c4cc(cc5)Cl)S(=O)(=O)C

> <enantiomer_smiles>
Cc1cc(cc2c1c(cnc2)[N@]3CCC4(C3)CCOc5c4cc(cc5)Cl)S(=O)(=O)C

> <scaffold>
chromane-5spiro-isoquinoline

> <clash_score>
0

> <docking_score>
-9.301591873168945

> <overlap_score>
0.9610289931297302

> <MMFF_internal_energy>
260.052049927251

> <docked_smiles>
Cc1cc(cc2c1c(cnc2)N3CC[C@@]4(C3)CCOc5c4cc(cc5)Cl)S(=O)(=O)C

$$$$
EDJ-MED-8bb691af-1_2
  -OEChem-12272114573D

 56 60  0     1  0  0  0  0  0999 V2000
    3.3432    2.6279   20.4411 C   0  0  0  0  0  0  0  0  0  0  0  0
    3.8960    1.9291   21.5050 C   0  0  0  0  0  0  0  0  0  0  0  0
    3.7865    2.4205   19.1660 C   0  0  0  0  0  0  0  0  0  0  0  0
    4.8973    1.0233   21.2988 C   0  0  0  0  0  0  0  0  0  0  0  0
   12.0765    0.0316   24.1541 C   0  0  0  0  0  0  0  0  0  0  0  0
   12.9132   -0.6032   23.2569 C   0  0  0  0  0  0  0  0  0  0  0  0
   10.9991   -1.4331   22.0443 C   0  0  0  0  0  0  0  0  0  0  0  0
    5.3278    1.2339   17.6066 C   0  0  0  0  0  0  0  0  0  0  0  0
    6.8438   -0.2892   18.3752 C   0  0  0  0  0  0  0  0  0  0  0  0
    4.8226    1.4906   18.9054 C   0  0  0  0  0  0  0  0  0  0  0  0
    5.3982    0.7733   19.9948 C   0  0  0  0  0  0  0  0  0  0  0  0
   10.7040   -0.0625   23.9898 C   0  0  0  0  0  0  0  0  0  0  0  0
   10.1406   -0.7765   22.9250 C   0  0  0  0  0  0  0  0  0  0  0  0
    6.4440   -0.1472   19.6979 C   0  0  0  0  0  0  0  0  0  0  0  0
   12.3683   -1.3298   22.2234 C   0  0  0  0  0  0  0  0  0  0  0  0
    6.7877    2.6072   24.9943 C   0  0  0  0  0  0  0  0  0  0  0  0
    9.9479    0.5589   24.9534 C   0  0  0  0  0  0  0  0  0  0  0  0
    8.0140   -2.1541   22.4331 C   0  0  0  0  0  0  0  0  0  0  0  0
    6.9866   -1.9366   21.3580 C   0  0  0  0  0  0  0  0  0  0  0  0
    8.2490    0.0169   21.4271 C   0  0  0  0  0  0  0  0  0  0  0  0
    7.8721   -0.1194   23.8831 C   0  0  0  0  0  0  0  0  0  0  0  0
    8.6238   -0.7606   22.6929 C   0  0  3  0  0  0  0  0  0  0  0  0
    6.5018    4.5971   23.5464 C   0  0  0  0  0  0  0  0  0  0  0  0
    7.8615    1.7196   25.5715 C   0  0  0  0  0  0  0  0  0  0  0  0
    6.3062    0.3769   17.3421 N   0  0  0  0  0  0  0  0  0  0  0  0
    7.2292   -0.6897   20.7790 N   0  0  1  0  0  0  0  0  0  0  0  0
    7.3270    3.6169   24.2114 N   0  0  0  0  0  0  0  0  0  0  0  0
    8.6609    1.0133   24.4995 N   0  3  1  0  0  0  0  0  0  0  0  0
    5.5893    2.4386   25.2032 O   0  0  0  0  0  0  0  0  0  0  0  0
   13.4291   -2.1402   21.1103 Cl  0  0  0  0  0  0  0  0  0  0  0  0
    2.5434    3.3513   20.6369 H   0  0  0  0  0  0  0  0  0  0  0  0
    3.5178    2.1138   22.5169 H   0  0  0  0  0  0  0  0  0  0  0  0
    3.3410    2.9744   18.3364 H   0  0  0  0  0  0  0  0  0  0  0  0
    5.3113    0.4888   22.1570 H   0  0  0  0  0  0  0  0  0  0  0  0
   12.5033    0.5908   24.9780 H   0  0  0  0  0  0  0  0  0  0  0  0
   13.9917   -0.5227   23.3831 H   0  0  0  0  0  0  0  0  0  0  0  0
   10.6217   -2.0195   21.2243 H   0  0  0  0  0  0  0  0  0  0  0  0
    4.9138    1.7514   16.7477 H   0  0  0  0  0  0  0  0  0  0  0  0
    7.6447   -0.9761   18.1049 H   0  0  0  0  0  0  0  0  0  0  0  0
    9.7566   -0.1269   25.8158 H   0  0  0  0  0  0  0  0  0  0  0  0
   10.4536    1.4629   25.3743 H   0  0  0  0  0  0  0  0  0  0  0  0
    7.5763   -2.6112   23.3302 H   0  0  0  0  0  0  0  0  0  0  0  0
    8.7839   -2.8434   22.0568 H   0  0  0  0  0  0  0  0  0  0  0  0
    7.0305   -2.7730   20.6129 H   0  0  0  0  0  0  0  0  0  0  0  0
    5.9525   -1.9849   21.7851 H   0  0  0  0  0  0  0  0  0  0  0  0
    7.9599    1.0715   21.6589 H   0  0  0  0  0  0  0  0  0  0  0  0
    9.1277    0.1015   20.7437 H   0  0  0  0  0  0  0  0  0  0  0  0
    6.9024    0.3025   23.5624 H   0  0  0  0  0  0  0  0  0  0  0  0
    7.6666   -0.8506   24.6876 H   0  0  0  0  0  0  0  0  0  0  0  0
    6.2560    4.2440   22.5340 H   0  0  0  0  0  0  0  0  0  0  0  0
    5.5740    4.7440   24.1187 H   0  0  0  0  0  0  0  0  0  0  0  0
    7.0465    5.5504   23.4799 H   0  0  0  0  0  0  0  0  0  0  0  0
    7.4171    0.9308   26.1848 H   0  0  0  0  0  0  0  0  0  0  0  0
    8.5664    2.3105   26.1629 H   0  0  0  0  0  0  0  0  0  0  0  0
    8.3355    3.6925   24.1145 H   0  0  0  0  0  0  0  0  0  0  0  0
    8.7941    1.7203   23.7530 H   0  0  0  0  0  0  0  0  0  0  0  0
  1  2  1  0  0  0  0
  1  3  2  0  0  0  0
  2  4  2  0  0  0  0
  3 10  1  0  0  0  0
  4 11  1  0  0  0  0
  5  6  2  0  0  0  0
  5 12  1  0  0  0  0
  6 15  1  0  0  0  0
  7 13  1  0  0  0  0
  7 15  2  0  0  0  0
  8 10  2  0  0  0  0
  8 25  1  0  0  0  0
  9 14  1  0  0  0  0
  9 25  2  0  0  0  0
 10 11  1  0  0  0  0
 11 14  2  0  0  0  0
 12 13  2  0  0  0  0
 12 17  1  0  0  0  0
 13 22  1  0  0  0  0
 14 26  1  1  0  0  0
 15 30  1  0  0  0  0
 16 24  1  0  0  0  0
 16 27  1  0  0  0  0
 16 29  2  0  0  0  0
 17 28  1  0  0  0  0
 18 19  1  0  0  0  0
 18 22  1  0  0  0  0
 19 26  1  0  0  0  0
 20 22  1  0  0  0  0
 20 26  1  0  0  0  0
 21 22  1  0  0  0  0
 21 28  1  0  0  0  0
 23 27  1  0  0  0  0
 24 28  1  6  0  0  0
  1 31  1  0  0  0  0
  2 32  1  0  0  0  0
  3 33  1  0  0  0  0
  4 34  1  0  0  0  0
  5 35  1  0  0  0  0
  6 36  1  0  0  0  0
  7 37  1  0  0  0  0
  8 38  1  0  0  0  0
  9 39  1  0  0  0  0
 17 40  1  0  0  0  0
 17 41  1  0  0  0  0
 18 42  1  0  0  0  0
 18 43  1  0  0  0  0
 19 44  1  0  0  0  0
 19 45  1  0  0  0  0
 20 46  1  0  0  0  0
 20 47  1  0  0  0  0
 21 48  1  0  0  0  0
 21 49  1  0  0  0  0
 23 50  1  0  0  0  0
 23 51  1  0  0  0  0
 23 52  1  0  0  0  0
 24 53  1  0  0  0  0
 24 54  1  0  0  0  0
 27 55  1  0  0  0  0
 28 56  1  0  0  0  0
M  CHG  1  28   1
M  END
> <compound>
EDJ-MED-8bb691af-1

> <compound_smiles>
CNC(=O)CN1Cc2ccc(cc2C3(C1)CCN(C3)c4cncc5c4cccc5)Cl

> <enantiomer_smiles>
CNC(=O)C[N@]1Cc2ccc(cc2C3(C1)CC[N@@](C3)c4cncc5c4cccc5)Cl

> <scaffold>
tetrahydroisoquinoline-5spiro-isoquinoline

> <clash_score>
0

> <docking_score>
-8.416128158569336

> <overlap_score>
0.950281023979187

> <MMFF_internal_energy>
180.36017284718088

> <docked_smiles>
CNC(=O)C[N@H+]1Cc2ccc(cc2[C@]3(C1)CCN(C3)c4cncc5c4cccc5)Cl

$$$$
PET-UNK-aa57768f-9_1
  -OEChem-12272114573D

 48 52  0     1  0  0  0  0  0999 V2000
    7.6764    2.9477   21.8765 C   0  0  0  0  0  0  0  0  0  0  0  0
    7.9352    2.6595   23.0130 C   0  0  0  0  0  0  0  0  0  0  0  0
    3.3432    2.6279   20.4411 C   0  0  0  0  0  0  0  0  0  0  0  0
    3.8960    1.9291   21.5050 C   0  0  0  0  0  0  0  0  0  0  0  0
    3.7865    2.4205   19.1660 C   0  0  0  0  0  0  0  0  0  0  0  0
    4.8973    1.0233   21.2988 C   0  0  0  0  0  0  0  0  0  0  0  0
   12.0765    0.0316   24.1541 C   0  0  0  0  0  0  0  0  0  0  0  0
   12.9132   -0.6032   23.2569 C   0  0  0  0  0  0  0  0  0  0  0  0
   10.9991   -1.4331   22.0443 C   0  0  0  0  0  0  0  0  0  0  0  0
    5.3278    1.2339   17.6066 C   0  0  0  0  0  0  0  0  0  0  0  0
    6.8438   -0.2892   18.3752 C   0  0  0  0  0  0  0  0  0  0  0  0
    4.8226    1.4906   18.9054 C   0  0  0  0  0  0  0  0  0  0  0  0
    5.3982    0.7733   19.9948 C   0  0  0  0  0  0  0  0  0  0  0  0
   10.7040   -0.0625   23.9898 C   0  0  0  0  0  0  0  0  0  0  0  0
   10.1406   -0.7765   22.9250 C   0  0  0  0  0  0  0  0  0  0  0  0
    6.4440   -0.1472   19.6979 C   0  0  0  0  0  0  0  0  0  0  0  0
   12.3683   -1.3298   22.2234 C   0  0  0  0  0  0  0  0  0  0  0  0
    9.9479    0.5589   24.9534 C   0  0  0  0  0  0  0  0  0  0  0  0
    8.2490    0.0169   21.4271 C   0  0  0  0  0  0  0  0  0  0  0  0
    8.0140   -2.1541   22.4331 C   0  0  0  0  0  0  0  0  0  0  0  0
    6.9866   -1.9366   21.3580 C   0  0  0  0  0  0  0  0  0  0  0  0
    7.8721   -0.1194   23.8831 C   0  0  0  0  0  0  0  0  0  0  0  0
    8.6238   -0.7606   22.6929 C   0  0  3  0  0  0  0  0  0  0  0  0
    8.2493    2.3129   24.4012 C   0  0  0  0  0  0  0  0  0  0  0  0
    6.3062    0.3769   17.3421 N   0  0  0  0  0  0  0  0  0  0  0  0
    7.2292   -0.6897   20.7790 N   0  0  0  0  0  0  0  0  0  0  0  0
    8.6609    1.0133   24.4995 N   0  0  0  0  0  0  0  0  0  0  0  0
   10.3174    0.7178   26.1141 O   0  0  0  0  0  0  0  0  0  0  0  0
    8.8304    1.0394   21.0805 O   0  0  0  0  0  0  0  0  0  0  0  0
   13.4274   -2.1468   21.1135 Cl  0  0  0  0  0  0  0  0  0  0  0  0
    7.4465    3.2028   20.8685 H   0  0  0  0  0  0  0  0  0  0  0  0
    2.5432    3.3510   20.6369 H   0  0  0  0  0  0  0  0  0  0  0  0
    3.5174    2.1137   22.5168 H   0  0  0  0  0  0  0  0  0  0  0  0
    3.3409    2.9743   18.3364 H   0  0  0  0  0  0  0  0  0  0  0  0
    5.3118    0.4895   22.1572 H   0  0  0  0  0  0  0  0  0  0  0  0
   12.5172    0.5967   24.9716 H   0  0  0  0  0  0  0  0  0  0  0  0
   13.9905   -0.5221   23.3825 H   0  0  0  0  0  0  0  0  0  0  0  0
   10.6130   -2.0249   21.2272 H   0  0  0  0  0  0  0  0  0  0  0  0
    4.9141    1.7511   16.7474 H   0  0  0  0  0  0  0  0  0  0  0  0
    7.6445   -0.9764   18.1043 H   0  0  0  0  0  0  0  0  0  0  0  0
    7.5109   -2.5277   23.3390 H   0  0  0  0  0  0  0  0  0  0  0  0
    8.7574   -2.9105   22.1433 H   0  0  0  0  0  0  0  0  0  0  0  0
    7.0586   -2.7257   20.5724 H   0  0  0  0  0  0  0  0  0  0  0  0
    5.9512   -1.9959   21.7711 H   0  0  0  0  0  0  0  0  0  0  0  0
    6.9203    0.3183   23.5735 H   0  0  0  0  0  0  0  0  0  0  0  0
    7.6659   -0.8543   24.6622 H   0  0  0  0  0  0  0  0  0  0  0  0
    7.3730    2.4655   25.0389 H   0  0  0  0  0  0  0  0  0  0  0  0
    9.0468    2.9607   24.7789 H   0  0  0  0  0  0  0  0  0  0  0  0
  1  2  3  0  0  0  0
  2 24  1  0  0  0  0
  3  4  1  0  0  0  0
  3  5  2  0  0  0  0
  4  6  2  0  0  0  0
  5 12  1  0  0  0  0
  6 13  1  0  0  0  0
  7  8  2  0  0  0  0
  7 14  1  0  0  0  0
  8 17  1  0  0  0  0
  9 15  1  0  0  0  0
  9 17  2  0  0  0  0
 10 12  2  0  0  0  0
 10 25  1  0  0  0  0
 11 16  1  0  0  0  0
 11 25  2  0  0  0  0
 12 13  1  0  0  0  0
 13 16  2  0  0  0  0
 14 15  2  0  0  0  0
 14 18  1  0  0  0  0
 15 23  1  0  0  0  0
 16 26  1  0  0  0  0
 17 30  1  0  0  0  0
 18 27  1  0  0  0  0
 18 28  2  0  0  0  0
 19 23  1  0  0  0  0
 19 26  1  0  0  0  0
 19 29  2  0  0  0  0
 20 21  1  0  0  0  0
 20 23  1  0  0  0  0
 21 26  1  0  0  0  0
 22 23  1  0  0  0  0
 22 27  1  0  0  0  0
 24 27  1  0  0  0  0
  1 31  1  0  0  0  0
  3 32  1  0  0  0  0
  4 33  1  0  0  0  0
  5 34  1  0  0  0  0
  6 35  1  0  0  0  0
  7 36  1  0  0  0  0
  8 37  1  0  0  0  0
  9 38  1  0  0  0  0
 10 39  1  0  0  0  0
 11 40  1  0  0  0  0
 20 41  1  0  0  0  0
 20 42  1  0  0  0  0
 21 43  1  0  0  0  0
 21 44  1  0  0  0  0
 22 45  1  0  0  0  0
 22 46  1  0  0  0  0
 24 47  1  0  0  0  0
 24 48  1  0  0  0  0
M  END
> <compound>
PET-UNK-aa57768f-9

> <compound_smiles>
C#CCN1CC2(CCN(C2=O)c3cncc4c3cccc4)c5cc(ccc5C1=O)Cl

> <enantiomer_smiles>
C#CCN1CC2(CCN(C2=O)c3cncc4c3cccc4)c5cc(ccc5C1=O)Cl

> <scaffold>
tetrahydroisoquinoline-5spiro-isoquinoline

> <clash_score>
0

> <docking_score>
-8.993364334106445

> <overlap_score>
1.0

> <MMFF_internal_energy>
161.4539946143282

> <docked_smiles>
C#CCN1C[C@]2(CCN(C2=O)c3cncc4c3cccc4)c5cc(ccc5C1=O)Cl

$$$$
EDJ-MED-8bb691af-1_3
  -OEChem-12272114573D

 56 60  0     1  0  0  0  0  0999 V2000
    3.3432    2.6279   20.4411 C   0  0  0  0  0  0  0  0  0  0  0  0
    3.8960    1.9291   21.5050 C   0  0  0  0  0  0  0  0  0  0  0  0
    3.7865    2.4205   19.1660 C   0  0  0  0  0  0  0  0  0  0  0  0
    4.8973    1.0233   21.2988 C   0  0  0  0  0  0  0  0  0  0  0  0
   12.0765    0.0316   24.1541 C   0  0  0  0  0  0  0  0  0  0  0  0
   12.9132   -0.6032   23.2569 C   0  0  0  0  0  0  0  0  0  0  0  0
   10.9991   -1.4331   22.0443 C   0  0  0  0  0  0  0  0  0  0  0  0
    5.3278    1.2339   17.6066 C   0  0  0  0  0  0  0  0  0  0  0  0
    6.8438   -0.2892   18.3752 C   0  0  0  0  0  0  0  0  0  0  0  0
    4.8226    1.4906   18.9054 C   0  0  0  0  0  0  0  0  0  0  0  0
    5.3982    0.7733   19.9948 C   0  0  0  0  0  0  0  0  0  0  0  0
   10.7040   -0.0625   23.9898 C   0  0  0  0  0  0  0  0  0  0  0  0
   10.1406   -0.7765   22.9250 C   0  0  0  0  0  0  0  0  0  0  0  0
    6.4440   -0.1472   19.6979 C   0  0  0  0  0  0  0  0  0  0  0  0
   12.3683   -1.3298   22.2234 C   0  0  0  0  0  0  0  0  0  0  0  0
    7.4229    2.9356   23.5303 C   0  0  0  0  0  0  0  0  0  0  0  0
    9.9479    0.5589   24.9534 C   0  0  0  0  0  0  0  0  0  0  0  0
    8.0140   -2.1541   22.4331 C   0  0  0  0  0  0  0  0  0  0  0  0
    6.9866   -1.9366   21.3580 C   0  0  0  0  0  0  0  0  0  0  0  0
    8.2490    0.0169   21.4271 C   0  0  0  0  0  0  0  0  0  0  0  0
    7.8721   -0.1194   23.8831 C   0  0  0  0  0  0  0  0  0  0  0  0
    8.6238   -0.7606   22.6929 C   0  0  3  0  0  0  0  0  0  0  0  0
    6.3497    4.9222   22.5109 C   0  0  0  0  0  0  0  0  0  0  0  0
    8.7390    2.2003   23.5654 C   0  0  0  0  0  0  0  0  0  0  0  0
    6.3062    0.3769   17.3421 N   0  0  0  0  0  0  0  0  0  0  0  0
    7.2292   -0.6897   20.7790 N   0  0  2  0  0  0  0  0  0  0  0  0
    7.4845    4.0527   22.7108 N   0  0  0  0  0  0  0  0  0  0  0  0
    8.6609    1.0133   24.4995 N   0  3  2  0  0  0  0  0  0  0  0  0
    6.4309    2.5724   24.1567 O   0  0  0  0  0  0  0  0  0  0  0  0
   13.4288   -2.1417   21.1113 Cl  0  0  0  0  0  0  0  0  0  0  0  0
    2.5434    3.3513   20.6369 H   0  0  0  0  0  0  0  0  0  0  0  0
    3.5178    2.1138   22.5169 H   0  0  0  0  0  0  0  0  0  0  0  0
    3.3410    2.9744   18.3364 H   0  0  0  0  0  0  0  0  0  0  0  0
    5.3113    0.4888   22.1570 H   0  0  0  0  0  0  0  0  0  0  0  0
   12.5035    0.5994   24.9721 H   0  0  0  0  0  0  0  0  0  0  0  0
   13.9917   -0.5157   23.3780 H   0  0  0  0  0  0  0  0  0  0  0  0
   10.6213   -2.0218   21.2261 H   0  0  0  0  0  0  0  0  0  0  0  0
    4.9138    1.7514   16.7477 H   0  0  0  0  0  0  0  0  0  0  0  0
    7.6447   -0.9761   18.1049 H   0  0  0  0  0  0  0  0  0  0  0  0
    9.7395   -0.1080   25.8263 H   0  0  0  0  0  0  0  0  0  0  0  0
   10.4762    1.4566   25.3602 H   0  0  0  0  0  0  0  0  0  0  0  0
    7.5115   -2.5252   23.3382 H   0  0  0  0  0  0  0  0  0  0  0  0
    8.7584   -2.9064   22.1412 H   0  0  0  0  0  0  0  0  0  0  0  0
    7.0396   -2.7510   20.5913 H   0  0  0  0  0  0  0  0  0  0  0  0
    5.9564   -2.0157   21.7927 H   0  0  0  0  0  0  0  0  0  0  0  0
    7.8788    1.0371   21.6884 H   0  0  0  0  0  0  0  0  0  0  0  0
    9.1360    0.1903   20.7693 H   0  0  0  0  0  0  0  0  0  0  0  0
    6.8905    0.2924   23.5812 H   0  0  0  0  0  0  0  0  0  0  0  0
    7.6902   -0.8570   24.6855 H   0  0  0  0  0  0  0  0  0  0  0  0
    5.7771    4.5831   21.6351 H   0  0  0  0  0  0  0  0  0  0  0  0
    5.7060    4.8956   23.4025 H   0  0  0  0  0  0  0  0  0  0  0  0
    6.7013    5.9510   22.3431 H   0  0  0  0  0  0  0  0  0  0  0  0
    9.5313    2.8516   23.9448 H   0  0  0  0  0  0  0  0  0  0  0  0
    8.9948    1.8301   22.5687 H   0  0  0  0  0  0  0  0  0  0  0  0
    8.3583    4.2891   22.2495 H   0  0  0  0  0  0  0  0  0  0  0  0
    8.1115    1.3465   25.3132 H   0  0  0  0  0  0  0  0  0  0  0  0
  1  2  1  0  0  0  0
  1  3  2  0  0  0  0
  2  4  2  0  0  0  0
  3 10  1  0  0  0  0
  4 11  1  0  0  0  0
  5  6  2  0  0  0  0
  5 12  1  0  0  0  0
  6 15  1  0  0  0  0
  7 13  1  0  0  0  0
  7 15  2  0  0  0  0
  8 10  2  0  0  0  0
  8 25  1  0  0  0  0
  9 14  1  0  0  0  0
  9 25  2  0  0  0  0
 10 11  1  0  0  0  0
 11 14  2  0  0  0  0
 12 13  2  0  0  0  0
 12 17  1  0  0  0  0
 13 22  1  0  0  0  0
 14 26  1  6  0  0  0
 15 30  1  0  0  0  0
 16 24  1  0  0  0  0
 16 27  1  0  0  0  0
 16 29  2  0  0  0  0
 17 28  1  0  0  0  0
 18 19  1  0  0  0  0
 18 22  1  0  0  0  0
 19 26  1  0  0  0  0
 20 22  1  0  0  0  0
 20 26  1  0  0  0  0
 21 22  1  0  0  0  0
 21 28  1  0  0  0  0
 23 27  1  0  0  0  0
 24 28  1  1  0  0  0
  1 31  1  0  0  0  0
  2 32  1  0  0  0  0
  3 33  1  0  0  0  0
  4 34  1  0  0  0  0
  5 35  1  0  0  0  0
  6 36  1  0  0  0  0
  7 37  1  0  0  0  0
  8 38  1  0  0  0  0
  9 39  1  0  0  0  0
 17 40  1  0  0  0  0
 17 41  1  0  0  0  0
 18 42  1  0  0  0  0
 18 43  1  0  0  0  0
 19 44  1  0  0  0  0
 19 45  1  0  0  0  0
 20 46  1  0  0  0  0
 20 47  1  0  0  0  0
 21 48  1  0  0  0  0
 21 49  1  0  0  0  0
 23 50  1  0  0  0  0
 23 51  1  0  0  0  0
 23 52  1  0  0  0  0
 24 53  1  0  0  0  0
 24 54  1  0  0  0  0
 27 55  1  0  0  0  0
 28 56  1  0  0  0  0
M  CHG  1  28   1
M  END
> <compound>
EDJ-MED-8bb691af-1

> <compound_smiles>
CNC(=O)CN1Cc2ccc(cc2C3(C1)CCN(C3)c4cncc5c4cccc5)Cl

> <enantiomer_smiles>
CNC(=O)C[N@@]1Cc2ccc(cc2C3(C1)CC[N@](C3)c4cncc5c4cccc5)Cl

> <scaffold>
tetrahydroisoquinoline-5spiro-isoquinoline

> <clash_score>
0

> <docking_score>
-8.87073040008545

> <overlap_score>
0.9529569745063782

> <MMFF_internal_energy>
186.42323544275007

> <docked_smiles>
CNC(=O)C[N@@H+]1Cc2ccc(cc2[C@]3(C1)CCN(C3)c4cncc5c4cccc5)Cl

$$$$
PET-UNK-aa57768f-2_1
  -OEChem-12272114573D

 47 51  0     1  0  0  0  0  0999 V2000
    8.8944    3.3221   24.2851 C   0  0  0  0  0  0  0  0  0  0  0  0
    3.3432    2.6279   20.4411 C   0  0  0  0  0  0  0  0  0  0  0  0
    3.8960    1.9291   21.5050 C   0  0  0  0  0  0  0  0  0  0  0  0
    3.7865    2.4205   19.1660 C   0  0  0  0  0  0  0  0  0  0  0  0
    4.8973    1.0233   21.2988 C   0  0  0  0  0  0  0  0  0  0  0  0
   12.0765    0.0316   24.1541 C   0  0  0  0  0  0  0  0  0  0  0  0
   12.9132   -0.6032   23.2569 C   0  0  0  0  0  0  0  0  0  0  0  0
   10.9991   -1.4331   22.0443 C   0  0  0  0  0  0  0  0  0  0  0  0
    5.3278    1.2339   17.6066 C   0  0  0  0  0  0  0  0  0  0  0  0
    6.8438   -0.2892   18.3752 C   0  0  0  0  0  0  0  0  0  0  0  0
    4.8226    1.4906   18.9054 C   0  0  0  0  0  0  0  0  0  0  0  0
    5.3982    0.7733   19.9948 C   0  0  0  0  0  0  0  0  0  0  0  0
   10.7040   -0.0625   23.9898 C   0  0  0  0  0  0  0  0  0  0  0  0
   10.1406   -0.7765   22.9250 C   0  0  0  0  0  0  0  0  0  0  0  0
    6.4440   -0.1472   19.6979 C   0  0  0  0  0  0  0  0  0  0  0  0
   12.3683   -1.3298   22.2234 C   0  0  0  0  0  0  0  0  0  0  0  0
    9.9479    0.5589   24.9534 C   0  0  0  0  0  0  0  0  0  0  0  0
    8.2490    0.0169   21.4271 C   0  0  0  0  0  0  0  0  0  0  0  0
    8.0140   -2.1541   22.4331 C   0  0  0  0  0  0  0  0  0  0  0  0
    6.9866   -1.9366   21.3580 C   0  0  0  0  0  0  0  0  0  0  0  0
    7.8721   -0.1194   23.8831 C   0  0  0  0  0  0  0  0  0  0  0  0
    8.6238   -0.7606   22.6929 C   0  0  1  0  0  0  0  0  0  0  0  0
    8.0826    2.2156   24.7886 C   0  0  0  0  0  0  0  0  0  0  0  0
    9.5362    4.2027   23.8864 N   0  0  0  0  0  0  0  0  0  0  0  0
    6.3062    0.3769   17.3421 N   0  0  0  0  0  0  0  0  0  0  0  0
    7.2292   -0.6897   20.7790 N   0  0  0  0  0  0  0  0  0  0  0  0
    8.6609    1.0133   24.4995 N   0  0  0  0  0  0  0  0  0  0  0  0
   10.3239    0.7391   26.1070 O   0  0  0  0  0  0  0  0  0  0  0  0
    8.7577    1.0931   21.1284 O   0  0  0  0  0  0  0  0  0  0  0  0
   13.4275   -2.1467   21.1136 Cl  0  0  0  0  0  0  0  0  0  0  0  0
    2.5432    3.3510   20.6369 H   0  0  0  0  0  0  0  0  0  0  0  0
    3.5174    2.1137   22.5168 H   0  0  0  0  0  0  0  0  0  0  0  0
    3.3409    2.9743   18.3364 H   0  0  0  0  0  0  0  0  0  0  0  0
    5.3118    0.4895   22.1572 H   0  0  0  0  0  0  0  0  0  0  0  0
   12.5172    0.5961   24.9720 H   0  0  0  0  0  0  0  0  0  0  0  0
   13.9905   -0.5226   23.3828 H   0  0  0  0  0  0  0  0  0  0  0  0
   10.6129   -2.0250   21.2273 H   0  0  0  0  0  0  0  0  0  0  0  0
    4.9141    1.7511   16.7474 H   0  0  0  0  0  0  0  0  0  0  0  0
    7.6445   -0.9764   18.1043 H   0  0  0  0  0  0  0  0  0  0  0  0
    7.5111   -2.5277   23.3391 H   0  0  0  0  0  0  0  0  0  0  0  0
    8.7578   -2.9102   22.1436 H   0  0  0  0  0  0  0  0  0  0  0  0
    7.0587   -2.7253   20.5720 H   0  0  0  0  0  0  0  0  0  0  0  0
    5.9511   -1.9962   21.7710 H   0  0  0  0  0  0  0  0  0  0  0  0
    6.9201    0.3181   23.5737 H   0  0  0  0  0  0  0  0  0  0  0  0
    7.6662   -0.8543   24.6623 H   0  0  0  0  0  0  0  0  0  0  0  0
    7.9779    2.2665   25.8762 H   0  0  0  0  0  0  0  0  0  0  0  0
    7.0829    2.2267   24.3451 H   0  0  0  0  0  0  0  0  0  0  0  0
  1 23  1  0  0  0  0
  1 24  3  0  0  0  0
  2  3  1  0  0  0  0
  2  4  2  0  0  0  0
  3  5  2  0  0  0  0
  4 11  1  0  0  0  0
  5 12  1  0  0  0  0
  6  7  1  0  0  0  0
  6 13  2  0  0  0  0
  7 16  2  0  0  0  0
  8 14  2  0  0  0  0
  8 16  1  0  0  0  0
  9 11  2  0  0  0  0
  9 25  1  0  0  0  0
 10 15  1  0  0  0  0
 10 25  2  0  0  0  0
 11 12  1  0  0  0  0
 12 15  2  0  0  0  0
 13 14  1  0  0  0  0
 13 17  1  0  0  0  0
 14 22  1  6  0  0  0
 15 26  1  0  0  0  0
 16 30  1  0  0  0  0
 17 27  1  0  0  0  0
 17 28  2  0  0  0  0
 18 22  1  1  0  0  0
 18 26  1  0  0  0  0
 18 29  2  0  0  0  0
 19 20  1  0  0  0  0
 19 22  1  1  0  0  0
 20 26  1  0  0  0  0
 21 22  1  6  0  0  0
 21 27  1  0  0  0  0
 23 27  1  0  0  0  0
  2 31  1  0  0  0  0
  3 32  1  0  0  0  0
  4 33  1  0  0  0  0
  5 34  1  0  0  0  0
  6 35  1  0  0  0  0
  7 36  1  0  0  0  0
  8 37  1  0  0  0  0
  9 38  1  0  0  0  0
 10 39  1  0  0  0  0
 19 40  1  0  0  0  0
 19 41  1  0  0  0  0
 20 42  1  0  0  0  0
 20 43  1  0  0  0  0
 21 44  1  0  0  0  0
 21 45  1  0  0  0  0
 23 46  1  0  0  0  0
 23 47  1  0  0  0  0
M  END
> <compound>
PET-UNK-aa57768f-2

> <compound_smiles>
c1ccc2c(c1)cncc2N3CC[C@@]4(C3=O)CN(C(=O)c5c4cc(cc5)Cl)CC#N

> <enantiomer_smiles>
c1ccc2c(c1)cncc2N3CC[C@@]4(C3=O)CN(C(=O)c5c4cc(cc5)Cl)CC#N

> <scaffold>
tetrahydroisoquinoline-5spiro-isoquinoline

> <clash_score>
0

> <docking_score>
-8.702963829040527

> <overlap_score>
1.0

> <MMFF_internal_energy>
162.62863060298864

> <docked_smiles>
c1ccc2c(c1)cncc2N3CC[C@@]4(C3=O)CN(C(=O)c5c4cc(cc5)Cl)CC#N

$$$$
EDJ-MED-8bb691af-1_4
  -OEChem-12272114573D

 56 60  0     1  0  0  0  0  0999 V2000
    3.3432    2.6279   20.4411 C   0  0  0  0  0  0  0  0  0  0  0  0
    3.8960    1.9291   21.5050 C   0  0  0  0  0  0  0  0  0  0  0  0
    3.7865    2.4205   19.1660 C   0  0  0  0  0  0  0  0  0  0  0  0
    4.8973    1.0233   21.2988 C   0  0  0  0  0  0  0  0  0  0  0  0
   12.0765    0.0316   24.1541 C   0  0  0  0  0  0  0  0  0  0  0  0
   12.9132   -0.6032   23.2569 C   0  0  0  0  0  0  0  0  0  0  0  0
   10.9991   -1.4331   22.0443 C   0  0  0  0  0  0  0  0  0  0  0  0
    5.3278    1.2339   17.6066 C   0  0  0  0  0  0  0  0  0  0  0  0
    6.8438   -0.2892   18.3752 C   0  0  0  0  0  0  0  0  0  0  0  0
    4.8226    1.4906   18.9054 C   0  0  0  0  0  0  0  0  0  0  0  0
    5.3982    0.7733   19.9948 C   0  0  0  0  0  0  0  0  0  0  0  0
   10.7040   -0.0625   23.9898 C   0  0  0  0  0  0  0  0  0  0  0  0
   10.1406   -0.7765   22.9250 C   0  0  0  0  0  0  0  0  0  0  0  0
    6.4440   -0.1472   19.6979 C   0  0  0  0  0  0  0  0  0  0  0  0
   12.3683   -1.3298   22.2234 C   0  0  0  0  0  0  0  0  0  0  0  0
    8.3062    3.1457   25.7782 C   0  0  0  0  0  0  0  0  0  0  0  0
    9.9479    0.5589   24.9534 C   0  0  0  0  0  0  0  0  0  0  0  0
    8.0140   -2.1541   22.4331 C   0  0  0  0  0  0  0  0  0  0  0  0
    6.9866   -1.9366   21.3580 C   0  0  0  0  0  0  0  0  0  0  0  0
    8.2490    0.0169   21.4271 C   0  0  0  0  0  0  0  0  0  0  0  0
    7.8721   -0.1194   23.8831 C   0  0  0  0  0  0  0  0  0  0  0  0
    8.6238   -0.7606   22.6929 C   0  0  3  0  0  0  0  0  0  0  0  0
    9.3364    5.0408   24.5597 C   0  0  0  0  0  0  0  0  0  0  0  0
    7.8612    1.7197   25.5715 C   0  0  0  0  0  0  0  0  0  0  0  0
    6.3062    0.3769   17.3421 N   0  0  0  0  0  0  0  0  0  0  0  0
    7.2292   -0.6897   20.7790 N   0  0  2  0  0  0  0  0  0  0  0  0
    8.8402    3.6865   24.6182 N   0  0  0  0  0  0  0  0  0  0  0  0
    8.6609    1.0133   24.4995 N   0  3  1  0  0  0  0  0  0  0  0  0
    8.1988    3.7368   26.8493 O   0  0  0  0  0  0  0  0  0  0  0  0
   13.4290   -2.1409   21.1107 Cl  0  0  0  0  0  0  0  0  0  0  0  0
    2.5434    3.3513   20.6369 H   0  0  0  0  0  0  0  0  0  0  0  0
    3.5178    2.1138   22.5169 H   0  0  0  0  0  0  0  0  0  0  0  0
    3.3410    2.9744   18.3364 H   0  0  0  0  0  0  0  0  0  0  0  0
    5.3113    0.4888   22.1570 H   0  0  0  0  0  0  0  0  0  0  0  0
   12.5034    0.5908   24.9780 H   0  0  0  0  0  0  0  0  0  0  0  0
   13.9916   -0.5230   23.3833 H   0  0  0  0  0  0  0  0  0  0  0  0
   10.6215   -2.0194   21.2244 H   0  0  0  0  0  0  0  0  0  0  0  0
    4.9138    1.7514   16.7477 H   0  0  0  0  0  0  0  0  0  0  0  0
    7.6447   -0.9761   18.1049 H   0  0  0  0  0  0  0  0  0  0  0  0
    9.7569   -0.1261   25.8165 H   0  0  0  0  0  0  0  0  0  0  0  0
   10.4539    1.4629   25.3736 H   0  0  0  0  0  0  0  0  0  0  0  0
    7.5763   -2.6110   23.3302 H   0  0  0  0  0  0  0  0  0  0  0  0
    8.7841   -2.8434   22.0573 H   0  0  0  0  0  0  0  0  0  0  0  0
    7.0307   -2.7730   20.6130 H   0  0  0  0  0  0  0  0  0  0  0  0
    5.9527   -1.9849   21.7856 H   0  0  0  0  0  0  0  0  0  0  0  0
    7.9596    1.0715   21.6587 H   0  0  0  0  0  0  0  0  0  0  0  0
    9.1275    0.1017   20.7436 H   0  0  0  0  0  0  0  0  0  0  0  0
    6.9021    0.3022   23.5628 H   0  0  0  0  0  0  0  0  0  0  0  0
    7.6673   -0.8507   24.6876 H   0  0  0  0  0  0  0  0  0  0  0  0
    8.5279    5.7146   24.2400 H   0  0  0  0  0  0  0  0  0  0  0  0
    9.6937    5.3435   25.5550 H   0  0  0  0  0  0  0  0  0  0  0  0
   10.1662    5.0964   23.8397 H   0  0  0  0  0  0  0  0  0  0  0  0
    6.8181    1.6879   25.2447 H   0  0  0  0  0  0  0  0  0  0  0  0
    7.9898    1.1436   26.4921 H   0  0  0  0  0  0  0  0  0  0  0  0
    8.9104    3.1124   23.7828 H   0  0  0  0  0  0  0  0  0  0  0  0
    8.7939    1.7204   23.7530 H   0  0  0  0  0  0  0  0  0  0  0  0
  1  2  1  0  0  0  0
  1  3  2  0  0  0  0
  2  4  2  0  0  0  0
  3 10  1  0  0  0  0
  4 11  1  0  0  0  0
  5  6  2  0  0  0  0
  5 12  1  0  0  0  0
  6 15  1  0  0  0  0
  7 13  1  0  0  0  0
  7 15  2  0  0  0  0
  8 10  2  0  0  0  0
  8 25  1  0  0  0  0
  9 14  1  0  0  0  0
  9 25  2  0  0  0  0
 10 11  1  0  0  0  0
 11 14  2  0  0  0  0
 12 13  2  0  0  0  0
 12 17  1  0  0  0  0
 13 22  1  0  0  0  0
 14 26  1  6  0  0  0
 15 30  1  0  0  0  0
 16 24  1  0  0  0  0
 16 27  1  0  0  0  0
 16 29  2  0  0  0  0
 17 28  1  0  0  0  0
 18 19  1  0  0  0  0
 18 22  1  0  0  0  0
 19 26  1  0  0  0  0
 20 22  1  0  0  0  0
 20 26  1  0  0  0  0
 21 22  1  0  0  0  0
 21 28  1  0  0  0  0
 23 27  1  0  0  0  0
 24 28  1  6  0  0  0
  1 31  1  0  0  0  0
  2 32  1  0  0  0  0
  3 33  1  0  0  0  0
  4 34  1  0  0  0  0
  5 35  1  0  0  0  0
  6 36  1  0  0  0  0
  7 37  1  0  0  0  0
  8 38  1  0  0  0  0
  9 39  1  0  0  0  0
 17 40  1  0  0  0  0
 17 41  1  0  0  0  0
 18 42  1  0  0  0  0
 18 43  1  0  0  0  0
 19 44  1  0  0  0  0
 19 45  1  0  0  0  0
 20 46  1  0  0  0  0
 20 47  1  0  0  0  0
 21 48  1  0  0  0  0
 21 49  1  0  0  0  0
 23 50  1  0  0  0  0
 23 51  1  0  0  0  0
 23 52  1  0  0  0  0
 24 53  1  0  0  0  0
 24 54  1  0  0  0  0
 27 55  1  0  0  0  0
 28 56  1  0  0  0  0
M  CHG  1  28   1
M  END
> <compound>
EDJ-MED-8bb691af-1

> <compound_smiles>
CNC(=O)CN1Cc2ccc(cc2C3(C1)CCN(C3)c4cncc5c4cccc5)Cl

> <enantiomer_smiles>
CNC(=O)C[N@]1Cc2ccc(cc2C3(C1)CC[N@](C3)c4cncc5c4cccc5)Cl

> <scaffold>
tetrahydroisoquinoline-5spiro-isoquinoline

> <clash_score>
0

> <docking_score>
-8.422021865844727

> <overlap_score>
0.9505748152732849

> <MMFF_internal_energy>
197.26366780757908

> <docked_smiles>
CNC(=O)C[N@H+]1Cc2ccc(cc2[C@]3(C1)CCN(C3)c4cncc5c4cccc5)Cl

$$$$
PET-UNK-aa57768f-8_1
  -OEChem-12272114573D

 47 51  0     1  0  0  0  0  0999 V2000
    8.8864    3.3281   24.2910 C   0  0  0  0  0  0  0  0  0  0  0  0
    3.3432    2.6279   20.4411 C   0  0  0  0  0  0  0  0  0  0  0  0
    3.8960    1.9291   21.5050 C   0  0  0  0  0  0  0  0  0  0  0  0
    3.7865    2.4205   19.1660 C   0  0  0  0  0  0  0  0  0  0  0  0
    4.8973    1.0233   21.2988 C   0  0  0  0  0  0  0  0  0  0  0  0
   12.0765    0.0316   24.1541 C   0  0  0  0  0  0  0  0  0  0  0  0
   12.9132   -0.6032   23.2569 C   0  0  0  0  0  0  0  0  0  0  0  0
   10.9991   -1.4331   22.0443 C   0  0  0  0  0  0  0  0  0  0  0  0
    5.3278    1.2339   17.6066 C   0  0  0  0  0  0  0  0  0  0  0  0
    6.8438   -0.2892   18.3752 C   0  0  0  0  0  0  0  0  0  0  0  0
    4.8226    1.4906   18.9054 C   0  0  0  0  0  0  0  0  0  0  0  0
    5.3982    0.7733   19.9948 C   0  0  0  0  0  0  0  0  0  0  0  0
   10.7040   -0.0625   23.9898 C   0  0  0  0  0  0  0  0  0  0  0  0
   10.1406   -0.7765   22.9250 C   0  0  0  0  0  0  0  0  0  0  0  0
    6.4440   -0.1472   19.6979 C   0  0  0  0  0  0  0  0  0  0  0  0
   12.3683   -1.3298   22.2234 C   0  0  0  0  0  0  0  0  0  0  0  0
    9.9479    0.5589   24.9534 C   0  0  0  0  0  0  0  0  0  0  0  0
    8.2490    0.0169   21.4271 C   0  0  0  0  0  0  0  0  0  0  0  0
    8.0140   -2.1541   22.4331 C   0  0  0  0  0  0  0  0  0  0  0  0
    6.9866   -1.9366   21.3580 C   0  0  0  0  0  0  0  0  0  0  0  0
    7.8721   -0.1194   23.8831 C   0  0  0  0  0  0  0  0  0  0  0  0
    8.6238   -0.7606   22.6929 C   0  0  3  0  0  0  0  0  0  0  0  0
    8.0820    2.2149   24.7916 C   0  0  0  0  0  0  0  0  0  0  0  0
    9.5223    4.2141   23.8946 N   0  0  0  0  0  0  0  0  0  0  0  0
    6.3062    0.3769   17.3421 N   0  0  0  0  0  0  0  0  0  0  0  0
    7.2292   -0.6897   20.7790 N   0  0  0  0  0  0  0  0  0  0  0  0
    8.6609    1.0133   24.4995 N   0  0  0  0  0  0  0  0  0  0  0  0
   10.3242    0.7397   26.1069 O   0  0  0  0  0  0  0  0  0  0  0  0
    8.7573    1.0932   21.1285 O   0  0  0  0  0  0  0  0  0  0  0  0
   13.4274   -2.1468   21.1136 Cl  0  0  0  0  0  0  0  0  0  0  0  0
    2.5432    3.3510   20.6369 H   0  0  0  0  0  0  0  0  0  0  0  0
    3.5174    2.1137   22.5168 H   0  0  0  0  0  0  0  0  0  0  0  0
    3.3409    2.9743   18.3364 H   0  0  0  0  0  0  0  0  0  0  0  0
    5.3118    0.4895   22.1572 H   0  0  0  0  0  0  0  0  0  0  0  0
   12.5172    0.5967   24.9716 H   0  0  0  0  0  0  0  0  0  0  0  0
   13.9905   -0.5221   23.3825 H   0  0  0  0  0  0  0  0  0  0  0  0
   10.6130   -2.0249   21.2272 H   0  0  0  0  0  0  0  0  0  0  0  0
    4.9141    1.7511   16.7474 H   0  0  0  0  0  0  0  0  0  0  0  0
    7.6445   -0.9764   18.1043 H   0  0  0  0  0  0  0  0  0  0  0  0
    7.5109   -2.5277   23.3390 H   0  0  0  0  0  0  0  0  0  0  0  0
    8.7574   -2.9105   22.1432 H   0  0  0  0  0  0  0  0  0  0  0  0
    7.0586   -2.7257   20.5724 H   0  0  0  0  0  0  0  0  0  0  0  0
    5.9512   -1.9959   21.7711 H   0  0  0  0  0  0  0  0  0  0  0  0
    6.9203    0.3184   23.5736 H   0  0  0  0  0  0  0  0  0  0  0  0
    7.6659   -0.8543   24.6622 H   0  0  0  0  0  0  0  0  0  0  0  0
    7.9770    2.2623   25.8793 H   0  0  0  0  0  0  0  0  0  0  0  0
    7.0823    2.2205   24.3481 H   0  0  0  0  0  0  0  0  0  0  0  0
  1 23  1  0  0  0  0
  1 24  3  0  0  0  0
  2  3  1  0  0  0  0
  2  4  2  0  0  0  0
  3  5  2  0  0  0  0
  4 11  1  0  0  0  0
  5 12  1  0  0  0  0
  6  7  1  0  0  0  0
  6 13  2  0  0  0  0
  7 16  2  0  0  0  0
  8 14  2  0  0  0  0
  8 16  1  0  0  0  0
  9 11  2  0  0  0  0
  9 25  1  0  0  0  0
 10 15  1  0  0  0  0
 10 25  2  0  0  0  0
 11 12  1  0  0  0  0
 12 15  2  0  0  0  0
 13 14  1  0  0  0  0
 13 17  1  0  0  0  0
 14 22  1  0  0  0  0
 15 26  1  0  0  0  0
 16 30  1  0  0  0  0
 17 27  1  0  0  0  0
 17 28  2  0  0  0  0
 18 22  1  0  0  0  0
 18 26  1  0  0  0  0
 18 29  2  0  0  0  0
 19 20  1  0  0  0  0
 19 22  1  0  0  0  0
 20 26  1  0  0  0  0
 21 22  1  0  0  0  0
 21 27  1  0  0  0  0
 23 27  1  0  0  0  0
  2 31  1  0  0  0  0
  3 32  1  0  0  0  0
  4 33  1  0  0  0  0
  5 34  1  0  0  0  0
  6 35  1  0  0  0  0
  7 36  1  0  0  0  0
  8 37  1  0  0  0  0
  9 38  1  0  0  0  0
 10 39  1  0  0  0  0
 19 40  1  0  0  0  0
 19 41  1  0  0  0  0
 20 42  1  0  0  0  0
 20 43  1  0  0  0  0
 21 44  1  0  0  0  0
 21 45  1  0  0  0  0
 23 46  1  0  0  0  0
 23 47  1  0  0  0  0
M  END
> <compound>
PET-UNK-aa57768f-8

> <compound_smiles>
c1ccc2c(c1)cncc2N3CCC4(C3=O)CN(C(=O)c5c4cc(cc5)Cl)CC#N

> <enantiomer_smiles>
c1ccc2c(c1)cncc2N3CCC4(C3=O)CN(C(=O)c5c4cc(cc5)Cl)CC#N

> <scaffold>
tetrahydroisoquinoline-5spiro-isoquinoline

> <clash_score>
0

> <docking_score>
-8.70266342163086

> <overlap_score>
1.0

> <MMFF_internal_energy>
162.5230452744556

> <docked_smiles>
c1ccc2c(c1)cncc2N3CC[C@@]4(C3=O)CN(C(=O)c5c4cc(cc5)Cl)CC#N

$$$$
VLA-MRT-8c78ee15-4_1
  -OEChem-12272114573D

 50 54  0     1  0  0  0  0  0999 V2000
    3.3432    2.6279   20.4411 C   0  0  0  0  0  0  0  0  0  0  0  0
    3.8960    1.9291   21.5050 C   0  0  0  0  0  0  0  0  0  0  0  0
    3.7865    2.4205   19.1660 C   0  0  0  0  0  0  0  0  0  0  0  0
    4.8973    1.0233   21.2988 C   0  0  0  0  0  0  0  0  0  0  0  0
   12.0765    0.0316   24.1541 C   0  0  0  0  0  0  0  0  0  0  0  0
   12.9132   -0.6032   23.2569 C   0  0  0  0  0  0  0  0  0  0  0  0
   10.9991   -1.4331   22.0443 C   0  0  0  0  0  0  0  0  0  0  0  0
    5.3278    1.2339   17.6066 C   0  0  0  0  0  0  0  0  0  0  0  0
    6.8438   -0.2892   18.3752 C   0  0  0  0  0  0  0  0  0  0  0  0
    4.8226    1.4906   18.9054 C   0  0  0  0  0  0  0  0  0  0  0  0
    5.3982    0.7733   19.9948 C   0  0  0  0  0  0  0  0  0  0  0  0
   10.7040   -0.0625   23.9898 C   0  0  0  0  0  0  0  0  0  0  0  0
   10.1406   -0.7765   22.9250 C   0  0  0  0  0  0  0  0  0  0  0  0
    6.4440   -0.1472   19.6979 C   0  0  0  0  0  0  0  0  0  0  0  0
   12.3683   -1.3298   22.2234 C   0  0  0  0  0  0  0  0  0  0  0  0
    8.2490    0.0169   21.4271 C   0  0  0  0  0  0  0  0  0  0  0  0
    6.9866   -1.9366   21.3580 C   0  0  0  0  0  0  0  0  0  0  0  0
    7.3734    2.6545   23.1211 C   0  0  0  0  0  0  0  0  0  0  0  0
    9.9479    0.5589   24.9534 C   0  0  0  0  0  0  0  0  0  0  0  0
    7.8721   -0.1194   23.8831 C   0  0  0  0  0  0  0  0  0  0  0  0
    8.6238   -0.7606   22.6929 C   0  0  1  0  0  0  0  0  0  0  0  0
    8.7391    2.1984   23.5627 C   0  0  0  0  0  0  0  0  0  0  0  0
    6.3062    0.3769   17.3421 N   0  0  0  0  0  0  0  0  0  0  0  0
    8.0140   -2.1541   22.4331 N   0  0  0  0  0  0  0  0  0  0  0  0
    7.2292   -0.6897   20.7790 N   0  0  0  0  0  0  0  0  0  0  0  0
    7.3928    3.2162   21.8628 N   0  0  0  0  0  0  0  0  0  0  0  0
    8.6609    1.0133   24.4995 N   0  3  1  0  0  0  0  0  0  0  0  0
    8.7720    1.0685   21.1194 O   0  0  0  0  0  0  0  0  0  0  0  0
    6.1645   -2.7933   21.1193 O   0  0  0  0  0  0  0  0  0  0  0  0
    6.3593    2.5381   23.8029 O   0  0  0  0  0  0  0  0  0  0  0  0
   13.4273   -2.1431   21.1103 Cl  0  0  0  0  0  0  0  0  0  0  0  0
    2.5432    3.3510   20.6369 H   0  0  0  0  0  0  0  0  0  0  0  0
    3.5174    2.1137   22.5168 H   0  0  0  0  0  0  0  0  0  0  0  0
    3.3409    2.9743   18.3364 H   0  0  0  0  0  0  0  0  0  0  0  0
    5.3118    0.4895   22.1572 H   0  0  0  0  0  0  0  0  0  0  0  0
   12.5018    0.5941   24.9776 H   0  0  0  0  0  0  0  0  0  0  0  0
   13.9910   -0.5206   23.3814 H   0  0  0  0  0  0  0  0  0  0  0  0
   10.6057   -2.0225   21.2275 H   0  0  0  0  0  0  0  0  0  0  0  0
    4.9141    1.7511   16.7474 H   0  0  0  0  0  0  0  0  0  0  0  0
    7.6445   -0.9764   18.1043 H   0  0  0  0  0  0  0  0  0  0  0  0
    9.7380   -0.1145   25.8251 H   0  0  0  0  0  0  0  0  0  0  0  0
   10.4771    1.4544   25.3733 H   0  0  0  0  0  0  0  0  0  0  0  0
    6.8991    0.3043   23.5729 H   0  0  0  0  0  0  0  0  0  0  0  0
    7.6858   -0.8552   24.6859 H   0  0  0  0  0  0  0  0  0  0  0  0
    9.2593    3.0038   24.0886 H   0  0  0  0  0  0  0  0  0  0  0  0
    9.3261    1.8641   22.7027 H   0  0  0  0  0  0  0  0  0  0  0  0
    8.2284   -2.9430   22.8422 H   0  0  0  0  0  0  0  0  0  0  0  0
    8.2575    3.2890   21.3370 H   0  0  0  0  0  0  0  0  0  0  0  0
    6.5551    3.5748   21.4156 H   0  0  0  0  0  0  0  0  0  0  0  0
    8.1080    1.3437   25.3133 H   0  0  0  0  0  0  0  0  0  0  0  0
  1  2  1  0  0  0  0
  1  3  2  0  0  0  0
  2  4  2  0  0  0  0
  3 10  1  0  0  0  0
  4 11  1  0  0  0  0
  5  6  1  0  0  0  0
  5 12  2  0  0  0  0
  6 15  2  0  0  0  0
  7 13  2  0  0  0  0
  7 15  1  0  0  0  0
  8 10  2  0  0  0  0
  8 23  1  0  0  0  0
  9 14  1  0  0  0  0
  9 23  2  0  0  0  0
 10 11  1  0  0  0  0
 11 14  2  0  0  0  0
 12 13  1  0  0  0  0
 12 19  1  0  0  0  0
 13 21  1  1  0  0  0
 14 25  1  0  0  0  0
 15 31  1  0  0  0  0
 16 21  1  6  0  0  0
 16 25  1  0  0  0  0
 16 28  2  0  0  0  0
 17 24  1  0  0  0  0
 17 25  1  0  0  0  0
 17 29  2  0  0  0  0
 18 22  1  0  0  0  0
 18 26  1  0  0  0  0
 18 30  2  0  0  0  0
 19 27  1  0  0  0  0
 20 21  1  6  0  0  0
 20 27  1  0  0  0  0
 21 24  1  1  0  0  0
 22 27  1  1  0  0  0
  1 32  1  0  0  0  0
  2 33  1  0  0  0  0
  3 34  1  0  0  0  0
  4 35  1  0  0  0  0
  5 36  1  0  0  0  0
  6 37  1  0  0  0  0
  7 38  1  0  0  0  0
  8 39  1  0  0  0  0
  9 40  1  0  0  0  0
 19 41  1  0  0  0  0
 19 42  1  0  0  0  0
 20 43  1  0  0  0  0
 20 44  1  0  0  0  0
 22 45  1  0  0  0  0
 22 46  1  0  0  0  0
 24 47  1  0  0  0  0
 26 48  1  0  0  0  0
 26 49  1  0  0  0  0
 27 50  1  0  0  0  0
M  CHG  1  27   1
M  END
> <compound>
VLA-MRT-8c78ee15-4

> <compound_smiles>
c1ccc2c(c1)cncc2N3C(=O)[C@]4(CN(Cc5c4cc(cc5)Cl)CC(=O)N)NC3=O

> <enantiomer_smiles>
c1ccc2c(c1)cncc2N3C(=O)[C@]4(C[N@@](Cc5c4cc(cc5)Cl)CC(=O)N)NC3=O

> <scaffold>
tetrahydroisoquinoline-5spiro-isoquinoline

> <clash_score>
0

> <docking_score>
-8.820293426513672

> <overlap_score>
1.0

> <MMFF_internal_energy>
158.94821745516552

> <docked_smiles>
c1ccc2c(c1)cncc2N3C(=O)[C@@]4(C[N@@H+](Cc5c4cc(cc5)Cl)CC(=O)N)NC3=O

$$$$
VLA-MRT-8c78ee15-4_2
  -OEChem-12272114573D

 50 54  0     1  0  0  0  0  0999 V2000
    3.3432    2.6279   20.4411 C   0  0  0  0  0  0  0  0  0  0  0  0
    3.8960    1.9291   21.5050 C   0  0  0  0  0  0  0  0  0  0  0  0
    3.7865    2.4205   19.1660 C   0  0  0  0  0  0  0  0  0  0  0  0
    4.8973    1.0233   21.2988 C   0  0  0  0  0  0  0  0  0  0  0  0
   12.0765    0.0316   24.1541 C   0  0  0  0  0  0  0  0  0  0  0  0
   12.9132   -0.6032   23.2569 C   0  0  0  0  0  0  0  0  0  0  0  0
   10.9991   -1.4331   22.0443 C   0  0  0  0  0  0  0  0  0  0  0  0
    5.3278    1.2339   17.6066 C   0  0  0  0  0  0  0  0  0  0  0  0
    6.8438   -0.2892   18.3752 C   0  0  0  0  0  0  0  0  0  0  0  0
    4.8226    1.4906   18.9054 C   0  0  0  0  0  0  0  0  0  0  0  0
    5.3982    0.7733   19.9948 C   0  0  0  0  0  0  0  0  0  0  0  0
   10.7040   -0.0625   23.9898 C   0  0  0  0  0  0  0  0  0  0  0  0
   10.1406   -0.7765   22.9250 C   0  0  0  0  0  0  0  0  0  0  0  0
    6.4440   -0.1472   19.6979 C   0  0  0  0  0  0  0  0  0  0  0  0
   12.3683   -1.3298   22.2234 C   0  0  0  0  0  0  0  0  0  0  0  0
    8.2490    0.0169   21.4271 C   0  0  0  0  0  0  0  0  0  0  0  0
    6.9866   -1.9366   21.3580 C   0  0  0  0  0  0  0  0  0  0  0  0
    8.2937    3.1471   25.7704 C   0  0  0  0  0  0  0  0  0  0  0  0
    9.9479    0.5589   24.9534 C   0  0  0  0  0  0  0  0  0  0  0  0
    7.8721   -0.1194   23.8831 C   0  0  0  0  0  0  0  0  0  0  0  0
    8.6238   -0.7606   22.6929 C   0  0  1  0  0  0  0  0  0  0  0  0
    7.8589    1.7191   25.5704 C   0  0  0  0  0  0  0  0  0  0  0  0
    6.3062    0.3769   17.3421 N   0  0  0  0  0  0  0  0  0  0  0  0
    8.0140   -2.1541   22.4331 N   0  0  0  0  0  0  0  0  0  0  0  0
    7.2292   -0.6897   20.7790 N   0  0  0  0  0  0  0  0  0  0  0  0
    8.8061    3.7024   24.6178 N   0  0  0  0  0  0  0  0  0  0  0  0
    8.6609    1.0133   24.4995 N   0  3  2  0  0  0  0  0  0  0  0  0
    8.7736    1.0692   21.1227 O   0  0  0  0  0  0  0  0  0  0  0  0
    6.1653   -2.7940   21.1185 O   0  0  0  0  0  0  0  0  0  0  0  0
    8.2010    3.7478   26.8368 O   0  0  0  0  0  0  0  0  0  0  0  0
   13.4276   -2.1408   21.1090 Cl  0  0  0  0  0  0  0  0  0  0  0  0
    2.5432    3.3510   20.6369 H   0  0  0  0  0  0  0  0  0  0  0  0
    3.5174    2.1137   22.5168 H   0  0  0  0  0  0  0  0  0  0  0  0
    3.3409    2.9743   18.3364 H   0  0  0  0  0  0  0  0  0  0  0  0
    5.3118    0.4895   22.1572 H   0  0  0  0  0  0  0  0  0  0  0  0
   12.5020    0.5983   24.9747 H   0  0  0  0  0  0  0  0  0  0  0  0
   13.9910   -0.5165   23.3787 H   0  0  0  0  0  0  0  0  0  0  0  0
   10.6052   -2.0178   21.2242 H   0  0  0  0  0  0  0  0  0  0  0  0
    4.9141    1.7511   16.7474 H   0  0  0  0  0  0  0  0  0  0  0  0
    7.6445   -0.9764   18.1043 H   0  0  0  0  0  0  0  0  0  0  0  0
    9.7606   -0.1217   25.8240 H   0  0  0  0  0  0  0  0  0  0  0  0
   10.4570    1.4658   25.3703 H   0  0  0  0  0  0  0  0  0  0  0  0
    6.8912    0.2858   23.5687 H   0  0  0  0  0  0  0  0  0  0  0  0
    7.6718   -0.8524   24.6884 H   0  0  0  0  0  0  0  0  0  0  0  0
    6.8117    1.6788   25.2582 H   0  0  0  0  0  0  0  0  0  0  0  0
    8.0045    1.1438   26.4890 H   0  0  0  0  0  0  0  0  0  0  0  0
    8.2294   -2.9438   22.8434 H   0  0  0  0  0  0  0  0  0  0  0  0
    8.8608    3.1649   23.7591 H   0  0  0  0  0  0  0  0  0  0  0  0
    9.1448    4.6586   24.5803 H   0  0  0  0  0  0  0  0  0  0  0  0
    8.7902    1.7157   23.7462 H   0  0  0  0  0  0  0  0  0  0  0  0
  1  2  1  0  0  0  0
  1  3  2  0  0  0  0
  2  4  2  0  0  0  0
  3 10  1  0  0  0  0
  4 11  1  0  0  0  0
  5  6  1  0  0  0  0
  5 12  2  0  0  0  0
  6 15  2  0  0  0  0
  7 13  2  0  0  0  0
  7 15  1  0  0  0  0
  8 10  2  0  0  0  0
  8 23  1  0  0  0  0
  9 14  1  0  0  0  0
  9 23  2  0  0  0  0
 10 11  1  0  0  0  0
 11 14  2  0  0  0  0
 12 13  1  0  0  0  0
 12 19  1  0  0  0  0
 13 21  1  1  0  0  0
 14 25  1  0  0  0  0
 15 31  1  0  0  0  0
 16 21  1  6  0  0  0
 16 25  1  0  0  0  0
 16 28  2  0  0  0  0
 17 24  1  0  0  0  0
 17 25  1  0  0  0  0
 17 29  2  0  0  0  0
 18 22  1  0  0  0  0
 18 26  1  0  0  0  0
 18 30  2  0  0  0  0
 19 27  1  0  0  0  0
 20 21  1  6  0  0  0
 20 27  1  0  0  0  0
 21 24  1  1  0  0  0
 22 27  1  6  0  0  0
  1 32  1  0  0  0  0
  2 33  1  0  0  0  0
  3 34  1  0  0  0  0
  4 35  1  0  0  0  0
  5 36  1  0  0  0  0
  6 37  1  0  0  0  0
  7 38  1  0  0  0  0
  8 39  1  0  0  0  0
  9 40  1  0  0  0  0
 19 41  1  0  0  0  0
 19 42  1  0  0  0  0
 20 43  1  0  0  0  0
 20 44  1  0  0  0  0
 22 45  1  0  0  0  0
 22 46  1  0  0  0  0
 24 47  1  0  0  0  0
 26 48  1  0  0  0  0
 26 49  1  0  0  0  0
 27 50  1  0  0  0  0
M  CHG  1  27   1
M  END
> <compound>
VLA-MRT-8c78ee15-4

> <compound_smiles>
c1ccc2c(c1)cncc2N3C(=O)[C@]4(CN(Cc5c4cc(cc5)Cl)CC(=O)N)NC3=O

> <enantiomer_smiles>
c1ccc2c(c1)cncc2N3C(=O)[C@]4(C[N@](Cc5c4cc(cc5)Cl)CC(=O)N)NC3=O

> <scaffold>
tetrahydroisoquinoline-5spiro-isoquinoline

> <clash_score>
0

> <docking_score>
-8.547643661499023

> <overlap_score>
1.0

> <MMFF_internal_energy>
168.0570497234144

> <docked_smiles>
c1ccc2c(c1)cncc2N3C(=O)[C@@]4(C[N@H+](Cc5c4cc(cc5)Cl)CC(=O)N)NC3=O

$$$$
VLA-MRT-a639d434-2_1
  -OEChem-12272114573D

 50 54  0     1  0  0  0  0  0999 V2000
    3.3432    2.6279   20.4411 C   0  0  0  0  0  0  0  0  0  0  0  0
    3.8960    1.9291   21.5050 C   0  0  0  0  0  0  0  0  0  0  0  0
    3.7865    2.4205   19.1660 C   0  0  0  0  0  0  0  0  0  0  0  0
    4.8973    1.0233   21.2988 C   0  0  0  0  0  0  0  0  0  0  0  0
   12.0765    0.0316   24.1541 C   0  0  0  0  0  0  0  0  0  0  0  0
   12.9132   -0.6032   23.2569 C   0  0  0  0  0  0  0  0  0  0  0  0
   10.9991   -1.4331   22.0443 C   0  0  0  0  0  0  0  0  0  0  0  0
    5.3278    1.2339   17.6066 C   0  0  0  0  0  0  0  0  0  0  0  0
    6.8438   -0.2892   18.3752 C   0  0  0  0  0  0  0  0  0  0  0  0
    4.8226    1.4906   18.9054 C   0  0  0  0  0  0  0  0  0  0  0  0
    5.3982    0.7733   19.9948 C   0  0  0  0  0  0  0  0  0  0  0  0
   10.7040   -0.0625   23.9898 C   0  0  0  0  0  0  0  0  0  0  0  0
   10.1406   -0.7765   22.9250 C   0  0  0  0  0  0  0  0  0  0  0  0
    6.4440   -0.1472   19.6979 C   0  0  0  0  0  0  0  0  0  0  0  0
   12.3683   -1.3298   22.2234 C   0  0  0  0  0  0  0  0  0  0  0  0
    8.2490    0.0169   21.4271 C   0  0  0  0  0  0  0  0  0  0  0  0
    6.9866   -1.9366   21.3580 C   0  0  0  0  0  0  0  0  0  0  0  0
    7.3630    2.6393   23.1296 C   0  0  0  0  0  0  0  0  0  0  0  0
    9.9479    0.5589   24.9534 C   0  0  0  0  0  0  0  0  0  0  0  0
    7.8721   -0.1194   23.8831 C   0  0  0  0  0  0  0  0  0  0  0  0
    8.6238   -0.7606   22.6929 C   0  0  2  0  0  0  0  0  0  0  0  0
    8.7363    2.1998   23.5644 C   0  0  0  0  0  0  0  0  0  0  0  0
    6.3062    0.3769   17.3421 N   0  0  0  0  0  0  0  0  0  0  0  0
    8.0140   -2.1541   22.4331 N   0  0  0  0  0  0  0  0  0  0  0  0
    7.2292   -0.6897   20.7790 N   0  0  0  0  0  0  0  0  0  0  0  0
    7.3692    3.1996   21.8704 N   0  0  0  0  0  0  0  0  0  0  0  0
    8.6609    1.0133   24.4995 N   0  3  1  0  0  0  0  0  0  0  0  0
    8.8058    1.0452   21.0986 O   0  0  0  0  0  0  0  0  0  0  0  0
    6.1317   -2.7702   21.1555 O   0  0  0  0  0  0  0  0  0  0  0  0
    6.3540    2.5120   23.8169 O   0  0  0  0  0  0  0  0  0  0  0  0
   13.4271   -2.1436   21.1106 Cl  0  0  0  0  0  0  0  0  0  0  0  0
    2.5432    3.3510   20.6369 H   0  0  0  0  0  0  0  0  0  0  0  0
    3.5174    2.1137   22.5168 H   0  0  0  0  0  0  0  0  0  0  0  0
    3.3409    2.9743   18.3364 H   0  0  0  0  0  0  0  0  0  0  0  0
    5.3118    0.4895   22.1572 H   0  0  0  0  0  0  0  0  0  0  0  0
   12.5014    0.5934   24.9783 H   0  0  0  0  0  0  0  0  0  0  0  0
   13.9910   -0.5222   23.3825 H   0  0  0  0  0  0  0  0  0  0  0  0
   10.6050   -2.0224   21.2277 H   0  0  0  0  0  0  0  0  0  0  0  0
    4.9141    1.7511   16.7474 H   0  0  0  0  0  0  0  0  0  0  0  0
    7.6445   -0.9764   18.1043 H   0  0  0  0  0  0  0  0  0  0  0  0
    9.7386   -0.1135   25.8252 H   0  0  0  0  0  0  0  0  0  0  0  0
   10.4773    1.4547   25.3706 H   0  0  0  0  0  0  0  0  0  0  0  0
    6.8917    0.2956   23.5778 H   0  0  0  0  0  0  0  0  0  0  0  0
    7.6711   -0.8618   24.6791 H   0  0  0  0  0  0  0  0  0  0  0  0
    9.2498    3.0119   24.0864 H   0  0  0  0  0  0  0  0  0  0  0  0
    9.3225    1.8712   22.7017 H   0  0  0  0  0  0  0  0  0  0  0  0
    8.2144   -2.9452   22.8482 H   0  0  0  0  0  0  0  0  0  0  0  0
    8.2301    3.2818   21.3400 H   0  0  0  0  0  0  0  0  0  0  0  0
    6.5249    3.5479   21.4273 H   0  0  0  0  0  0  0  0  0  0  0  0
    8.1051    1.3401   25.3130 H   0  0  0  0  0  0  0  0  0  0  0  0
  1  2  1  0  0  0  0
  1  3  2  0  0  0  0
  2  4  2  0  0  0  0
  3 10  1  0  0  0  0
  4 11  1  0  0  0  0
  5  6  1  0  0  0  0
  5 12  2  0  0  0  0
  6 15  2  0  0  0  0
  7 13  2  0  0  0  0
  7 15  1  0  0  0  0
  8 10  2  0  0  0  0
  8 23  1  0  0  0  0
  9 14  1  0  0  0  0
  9 23  2  0  0  0  0
 10 11  1  0  0  0  0
 11 14  2  0  0  0  0
 12 13  1  0  0  0  0
 12 19  1  0  0  0  0
 13 21  1  6  0  0  0
 14 25  1  0  0  0  0
 15 31  1  0  0  0  0
 16 21  1  1  0  0  0
 16 25  1  0  0  0  0
 16 28  2  0  0  0  0
 17 24  1  0  0  0  0
 17 25  1  0  0  0  0
 17 29  2  0  0  0  0
 18 22  1  0  0  0  0
 18 26  1  0  0  0  0
 18 30  2  0  0  0  0
 19 27  1  0  0  0  0
 20 21  1  1  0  0  0
 20 27  1  0  0  0  0
 21 24  1  6  0  0  0
 22 27  1  1  0  0  0
  1 32  1  0  0  0  0
  2 33  1  0  0  0  0
  3 34  1  0  0  0  0
  4 35  1  0  0  0  0
  5 36  1  0  0  0  0
  6 37  1  0  0  0  0
  7 38  1  0  0  0  0
  8 39  1  0  0  0  0
  9 40  1  0  0  0  0
 19 41  1  0  0  0  0
 19 42  1  0  0  0  0
 20 43  1  0  0  0  0
 20 44  1  0  0  0  0
 22 45  1  0  0  0  0
 22 46  1  0  0  0  0
 24 47  1  0  0  0  0
 26 48  1  0  0  0  0
 26 49  1  0  0  0  0
 27 50  1  0  0  0  0
M  CHG  1  27   1
M  END
> <compound>
VLA-MRT-a639d434-2

> <compound_smiles>
c1ccc2c(c1)cncc2N3C(=O)[C@@]4(CN(Cc5c4cc(cc5)Cl)CC(=O)N)NC3=O

> <enantiomer_smiles>
c1ccc2c(c1)cncc2N3C(=O)[C@@]4(C[N@@](Cc5c4cc(cc5)Cl)CC(=O)N)NC3=O

> <scaffold>
tetrahydroisoquinoline-5spiro-isoquinoline

> <clash_score>
0

> <docking_score>
-8.842716217041016

> <overlap_score>
1.0

> <MMFF_internal_energy>
158.4187027448066

> <docked_smiles>
c1ccc2c(c1)cncc2N3C(=O)[C@@]4(C[N@@H+](Cc5c4cc(cc5)Cl)CC(=O)N)NC3=O

$$$$
EDJ-MED-8bb691af-3_1
  -OEChem-12272114573D

 55 59  0     1  0  0  0  0  0999 V2000
    3.3432    2.6279   20.4411 C   0  0  0  0  0  0  0  0  0  0  0  0
    3.8960    1.9291   21.5050 C   0  0  0  0  0  0  0  0  0  0  0  0
    3.7865    2.4205   19.1660 C   0  0  0  0  0  0  0  0  0  0  0  0
    4.8973    1.0233   21.2988 C   0  0  0  0  0  0  0  0  0  0  0  0
   12.0765    0.0316   24.1541 C   0  0  0  0  0  0  0  0  0  0  0  0
   12.9132   -0.6032   23.2569 C   0  0  0  0  0  0  0  0  0  0  0  0
   10.9991   -1.4331   22.0443 C   0  0  0  0  0  0  0  0  0  0  0  0
    5.3278    1.2339   17.6066 C   0  0  0  0  0  0  0  0  0  0  0  0
    6.8438   -0.2892   18.3752 C   0  0  0  0  0  0  0  0  0  0  0  0
    4.8226    1.4906   18.9054 C   0  0  0  0  0  0  0  0  0  0  0  0
    5.3982    0.7733   19.9948 C   0  0  0  0  0  0  0  0  0  0  0  0
   10.7040   -0.0625   23.9898 C   0  0  0  0  0  0  0  0  0  0  0  0
   10.1406   -0.7765   22.9250 C   0  0  0  0  0  0  0  0  0  0  0  0
    6.4440   -0.1472   19.6979 C   0  0  0  0  0  0  0  0  0  0  0  0
   12.3683   -1.3298   22.2234 C   0  0  0  0  0  0  0  0  0  0  0  0
    6.9866   -1.9366   21.3580 C   0  0  0  0  0  0  0  0  0  0  0  0
    7.4397    2.9608   23.5003 C   0  0  0  0  0  0  0  0  0  0  0  0
    9.9479    0.5589   24.9534 C   0  0  0  0  0  0  0  0  0  0  0  0
    8.0140   -2.1541   22.4331 C   0  0  0  0  0  0  0  0  0  0  0  0
    8.2490    0.0169   21.4271 C   0  0  0  0  0  0  0  0  0  0  0  0
    7.8721   -0.1194   23.8831 C   0  0  0  0  0  0  0  0  0  0  0  0
    8.6238   -0.7606   22.6929 C   0  0  3  0  0  0  0  0  0  0  0  0
    6.4102    4.9337   22.4116 C   0  0  0  0  0  0  0  0  0  0  0  0
    8.7400    2.1995   23.5633 C   0  0  0  0  0  0  0  0  0  0  0  0
    6.3062    0.3769   17.3421 N   0  0  0  0  0  0  0  0  0  0  0  0
    7.2292   -0.6897   20.7790 N   0  0  0  0  0  0  0  0  0  0  0  0
    7.5261    4.0478   22.6435 N   0  0  0  0  0  0  0  0  0  0  0  0
    8.6609    1.0133   24.4995 N   0  3  2  0  0  0  0  0  0  0  0  0
    6.0911   -2.7466   21.1370 O   0  0  0  0  0  0  0  0  0  0  0  0
    6.4392    2.6400   24.1363 O   0  0  0  0  0  0  0  0  0  0  0  0
   13.4286   -2.1424   21.1114 Cl  0  0  0  0  0  0  0  0  0  0  0  0
    2.5432    3.3510   20.6369 H   0  0  0  0  0  0  0  0  0  0  0  0
    3.5174    2.1137   22.5168 H   0  0  0  0  0  0  0  0  0  0  0  0
    3.3409    2.9743   18.3364 H   0  0  0  0  0  0  0  0  0  0  0  0
    5.3118    0.4895   22.1572 H   0  0  0  0  0  0  0  0  0  0  0  0
   12.5030    0.5958   24.9749 H   0  0  0  0  0  0  0  0  0  0  0  0
   13.9917   -0.5193   23.3804 H   0  0  0  0  0  0  0  0  0  0  0  0
   10.6208   -2.0220   21.2261 H   0  0  0  0  0  0  0  0  0  0  0  0
    4.9141    1.7511   16.7474 H   0  0  0  0  0  0  0  0  0  0  0  0
    7.6445   -0.9764   18.1043 H   0  0  0  0  0  0  0  0  0  0  0  0
    9.7383   -0.1100   25.8261 H   0  0  0  0  0  0  0  0  0  0  0  0
   10.4768    1.4557   25.3647 H   0  0  0  0  0  0  0  0  0  0  0  0
    7.4865   -2.5417   23.3125 H   0  0  0  0  0  0  0  0  0  0  0  0
    8.7515   -2.8944   22.1055 H   0  0  0  0  0  0  0  0  0  0  0  0
    7.8516    1.0238   21.6763 H   0  0  0  0  0  0  0  0  0  0  0  0
    9.1171    0.1801   20.7524 H   0  0  0  0  0  0  0  0  0  0  0  0
    6.8923    0.2944   23.5797 H   0  0  0  0  0  0  0  0  0  0  0  0
    7.6875   -0.8577   24.6840 H   0  0  0  0  0  0  0  0  0  0  0  0
    5.8320    4.5771   21.5465 H   0  0  0  0  0  0  0  0  0  0  0  0
    5.7647    4.9509   23.3021 H   0  0  0  0  0  0  0  0  0  0  0  0
    6.7837    5.9485   22.2098 H   0  0  0  0  0  0  0  0  0  0  0  0
    9.5451    2.8466   23.9222 H   0  0  0  0  0  0  0  0  0  0  0  0
    8.9895    1.7905   22.5803 H   0  0  0  0  0  0  0  0  0  0  0  0
    8.4054    4.2500   22.1764 H   0  0  0  0  0  0  0  0  0  0  0  0
    8.1103    1.3483   25.3131 H   0  0  0  0  0  0  0  0  0  0  0  0
  1  2  1  0  0  0  0
  1  3  2  0  0  0  0
  2  4  2  0  0  0  0
  3 10  1  0  0  0  0
  4 11  1  0  0  0  0
  5  6  2  0  0  0  0
  5 12  1  0  0  0  0
  6 15  1  0  0  0  0
  7 13  1  0  0  0  0
  7 15  2  0  0  0  0
  8 10  2  0  0  0  0
  8 25  1  0  0  0  0
  9 14  1  0  0  0  0
  9 25  2  0  0  0  0
 10 11  1  0  0  0  0
 11 14  2  0  0  0  0
 12 13  2  0  0  0  0
 12 18  1  0  0  0  0
 13 22  1  0  0  0  0
 14 26  1  0  0  0  0
 15 31  1  0  0  0  0
 16 19  1  0  0  0  0
 16 26  1  0  0  0  0
 16 29  2  0  0  0  0
 17 24  1  0  0  0  0
 17 27  1  0  0  0  0
 17 30  2  0  0  0  0
 18 28  1  0  0  0  0
 19 22  1  0  0  0  0
 20 22  1  0  0  0  0
 20 26  1  0  0  0  0
 21 22  1  0  0  0  0
 21 28  1  0  0  0  0
 23 27  1  0  0  0  0
 24 28  1  1  0  0  0
  1 32  1  0  0  0  0
  2 33  1  0  0  0  0
  3 34  1  0  0  0  0
  4 35  1  0  0  0  0
  5 36  1  0  0  0  0
  6 37  1  0  0  0  0
  7 38  1  0  0  0  0
  8 39  1  0  0  0  0
  9 40  1  0  0  0  0
 18 41  1  0  0  0  0
 18 42  1  0  0  0  0
 19 43  1  0  0  0  0
 19 44  1  0  0  0  0
 20 45  1  0  0  0  0
 20 46  1  0  0  0  0
 21 47  1  0  0  0  0
 21 48  1  0  0  0  0
 23 49  1  0  0  0  0
 23 50  1  0  0  0  0
 23 51  1  0  0  0  0
 24 52  1  0  0  0  0
 24 53  1  0  0  0  0
 27 54  1  0  0  0  0
 28 55  1  0  0  0  0
M  CHG  1  28   1
M  END
> <compound>
EDJ-MED-8bb691af-3

> <compound_smiles>
CNC(=O)CN1Cc2ccc(cc2C3(C1)CC(=O)N(C3)c4cncc5c4cccc5)Cl

> <enantiomer_smiles>
CNC(=O)C[N@@]1Cc2ccc(cc2C3(C1)CC(=O)N(C3)c4cncc5c4cccc5)Cl

> <scaffold>
tetrahydroisoquinoline-5spiro-isoquinoline

> <clash_score>
0

> <docking_score>
-9.040205955505371

> <overlap_score>
0.9782865047454834

> <MMFF_internal_energy>
159.180434900404

> <docked_smiles>
CNC(=O)C[N@@H+]1Cc2ccc(cc2[C@]3(C1)CC(=O)N(C3)c4cncc5c4cccc5)Cl

$$$$
VLA-MRT-a639d434-2_2
  -OEChem-12272114573D

 50 54  0     1  0  0  0  0  0999 V2000
    3.3432    2.6279   20.4411 C   0  0  0  0  0  0  0  0  0  0  0  0
    3.8960    1.9291   21.5050 C   0  0  0  0  0  0  0  0  0  0  0  0
    3.7865    2.4205   19.1660 C   0  0  0  0  0  0  0  0  0  0  0  0
    4.8973    1.0233   21.2988 C   0  0  0  0  0  0  0  0  0  0  0  0
   12.0765    0.0316   24.1541 C   0  0  0  0  0  0  0  0  0  0  0  0
   12.9132   -0.6032   23.2569 C   0  0  0  0  0  0  0  0  0  0  0  0
   10.9991   -1.4331   22.0443 C   0  0  0  0  0  0  0  0  0  0  0  0
    5.3278    1.2339   17.6066 C   0  0  0  0  0  0  0  0  0  0  0  0
    6.8438   -0.2892   18.3752 C   0  0  0  0  0  0  0  0  0  0  0  0
    4.8226    1.4906   18.9054 C   0  0  0  0  0  0  0  0  0  0  0  0
    5.3982    0.7733   19.9948 C   0  0  0  0  0  0  0  0  0  0  0  0
   10.7040   -0.0625   23.9898 C   0  0  0  0  0  0  0  0  0  0  0  0
   10.1406   -0.7765   22.9250 C   0  0  0  0  0  0  0  0  0  0  0  0
    6.4440   -0.1472   19.6979 C   0  0  0  0  0  0  0  0  0  0  0  0
   12.3683   -1.3298   22.2234 C   0  0  0  0  0  0  0  0  0  0  0  0
    8.2490    0.0169   21.4271 C   0  0  0  0  0  0  0  0  0  0  0  0
    6.9866   -1.9366   21.3580 C   0  0  0  0  0  0  0  0  0  0  0  0
    8.3157    3.1397   25.7614 C   0  0  0  0  0  0  0  0  0  0  0  0
    9.9479    0.5589   24.9534 C   0  0  0  0  0  0  0  0  0  0  0  0
    7.8721   -0.1194   23.8831 C   0  0  0  0  0  0  0  0  0  0  0  0
    8.6238   -0.7606   22.6929 C   0  0  2  0  0  0  0  0  0  0  0  0
    7.8601    1.7167   25.5728 C   0  0  0  0  0  0  0  0  0  0  0  0
    6.3062    0.3769   17.3421 N   0  0  0  0  0  0  0  0  0  0  0  0
    8.0140   -2.1541   22.4331 N   0  0  0  0  0  0  0  0  0  0  0  0
    7.2292   -0.6897   20.7790 N   0  0  0  0  0  0  0  0  0  0  0  0
    8.8152    3.6858   24.5988 N   0  0  0  0  0  0  0  0  0  0  0  0
    8.6609    1.0133   24.4995 N   0  3  2  0  0  0  0  0  0  0  0  0
    8.8026    1.0454   21.0959 O   0  0  0  0  0  0  0  0  0  0  0  0
    6.1321   -2.7703   21.1545 O   0  0  0  0  0  0  0  0  0  0  0  0
    8.2486    3.7443   26.8276 O   0  0  0  0  0  0  0  0  0  0  0  0
   13.4273   -2.1412   21.1090 Cl  0  0  0  0  0  0  0  0  0  0  0  0
    2.5432    3.3510   20.6369 H   0  0  0  0  0  0  0  0  0  0  0  0
    3.5174    2.1137   22.5168 H   0  0  0  0  0  0  0  0  0  0  0  0
    3.3409    2.9743   18.3364 H   0  0  0  0  0  0  0  0  0  0  0  0
    5.3118    0.4895   22.1572 H   0  0  0  0  0  0  0  0  0  0  0  0
   12.5017    0.5987   24.9745 H   0  0  0  0  0  0  0  0  0  0  0  0
   13.9911   -0.5179   23.3794 H   0  0  0  0  0  0  0  0  0  0  0  0
   10.6060   -2.0175   21.2238 H   0  0  0  0  0  0  0  0  0  0  0  0
    4.9141    1.7511   16.7474 H   0  0  0  0  0  0  0  0  0  0  0  0
    7.6445   -0.9764   18.1043 H   0  0  0  0  0  0  0  0  0  0  0  0
    9.7623   -0.1191   25.8276 H   0  0  0  0  0  0  0  0  0  0  0  0
   10.4576    1.4675   25.3683 H   0  0  0  0  0  0  0  0  0  0  0  0
    6.9002    0.3004   23.5669 H   0  0  0  0  0  0  0  0  0  0  0  0
    7.6840   -0.8508   24.6909 H   0  0  0  0  0  0  0  0  0  0  0  0
    6.8073    1.6884   25.2786 H   0  0  0  0  0  0  0  0  0  0  0  0
    8.0144    1.1421   26.4904 H   0  0  0  0  0  0  0  0  0  0  0  0
    8.2119   -2.9426   22.8512 H   0  0  0  0  0  0  0  0  0  0  0  0
    8.8486    3.1454   23.7407 H   0  0  0  0  0  0  0  0  0  0  0  0
    9.1648    4.6376   24.5528 H   0  0  0  0  0  0  0  0  0  0  0  0
    8.7923    1.7186   23.7498 H   0  0  0  0  0  0  0  0  0  0  0  0
  1  2  1  0  0  0  0
  1  3  2  0  0  0  0
  2  4  2  0  0  0  0
  3 10  1  0  0  0  0
  4 11  1  0  0  0  0
  5  6  1  0  0  0  0
  5 12  2  0  0  0  0
  6 15  2  0  0  0  0
  7 13  2  0  0  0  0
  7 15  1  0  0  0  0
  8 10  2  0  0  0  0
  8 23  1  0  0  0  0
  9 14  1  0  0  0  0
  9 23  2  0  0  0  0
 10 11  1  0  0  0  0
 11 14  2  0  0  0  0
 12 13  1  0  0  0  0
 12 19  1  0  0  0  0
 13 21  1  6  0  0  0
 14 25  1  0  0  0  0
 15 31  1  0  0  0  0
 16 21  1  1  0  0  0
 16 25  1  0  0  0  0
 16 28  2  0  0  0  0
 17 24  1  0  0  0  0
 17 25  1  0  0  0  0
 17 29  2  0  0  0  0
 18 22  1  0  0  0  0
 18 26  1  0  0  0  0
 18 30  2  0  0  0  0
 19 27  1  0  0  0  0
 20 21  1  1  0  0  0
 20 27  1  0  0  0  0
 21 24  1  6  0  0  0
 22 27  1  6  0  0  0
  1 32  1  0  0  0  0
  2 33  1  0  0  0  0
  3 34  1  0  0  0  0
  4 35  1  0  0  0  0
  5 36  1  0  0  0  0
  6 37  1  0  0  0  0
  7 38  1  0  0  0  0
  8 39  1  0  0  0  0
  9 40  1  0  0  0  0
 19 41  1  0  0  0  0
 19 42  1  0  0  0  0
 20 43  1  0  0  0  0
 20 44  1  0  0  0  0
 22 45  1  0  0  0  0
 22 46  1  0  0  0  0
 24 47  1  0  0  0  0
 26 48  1  0  0  0  0
 26 49  1  0  0  0  0
 27 50  1  0  0  0  0
M  CHG  1  27   1
M  END
> <compound>
VLA-MRT-a639d434-2

> <compound_smiles>
c1ccc2c(c1)cncc2N3C(=O)[C@@]4(CN(Cc5c4cc(cc5)Cl)CC(=O)N)NC3=O

> <enantiomer_smiles>
c1ccc2c(c1)cncc2N3C(=O)[C@@]4(C[N@](Cc5c4cc(cc5)Cl)CC(=O)N)NC3=O

> <scaffold>
tetrahydroisoquinoline-5spiro-isoquinoline

> <clash_score>
0

> <docking_score>
-8.551678657531738

> <overlap_score>
1.0

> <MMFF_internal_energy>
169.95191985289628

> <docked_smiles>
c1ccc2c(c1)cncc2N3C(=O)[C@@]4(C[N@H+](Cc5c4cc(cc5)Cl)CC(=O)N)NC3=O

$$$$
EDJ-MED-8bb691af-3_2
  -OEChem-12272114573D

 55 59  0     1  0  0  0  0  0999 V2000
    3.3432    2.6279   20.4411 C   0  0  0  0  0  0  0  0  0  0  0  0
    3.8960    1.9291   21.5050 C   0  0  0  0  0  0  0  0  0  0  0  0
    3.7865    2.4205   19.1660 C   0  0  0  0  0  0  0  0  0  0  0  0
    4.8973    1.0233   21.2988 C   0  0  0  0  0  0  0  0  0  0  0  0
   12.0765    0.0316   24.1541 C   0  0  0  0  0  0  0  0  0  0  0  0
   12.9132   -0.6032   23.2569 C   0  0  0  0  0  0  0  0  0  0  0  0
   10.9991   -1.4331   22.0443 C   0  0  0  0  0  0  0  0  0  0  0  0
    5.3278    1.2339   17.6066 C   0  0  0  0  0  0  0  0  0  0  0  0
    6.8438   -0.2892   18.3752 C   0  0  0  0  0  0  0  0  0  0  0  0
    4.8226    1.4906   18.9054 C   0  0  0  0  0  0  0  0  0  0  0  0
    5.3982    0.7733   19.9948 C   0  0  0  0  0  0  0  0  0  0  0  0
   10.7040   -0.0625   23.9898 C   0  0  0  0  0  0  0  0  0  0  0  0
   10.1406   -0.7765   22.9250 C   0  0  0  0  0  0  0  0  0  0  0  0
    6.4440   -0.1472   19.6979 C   0  0  0  0  0  0  0  0  0  0  0  0
   12.3683   -1.3298   22.2234 C   0  0  0  0  0  0  0  0  0  0  0  0
    6.9866   -1.9366   21.3580 C   0  0  0  0  0  0  0  0  0  0  0  0
    8.3047    3.1440   25.7803 C   0  0  0  0  0  0  0  0  0  0  0  0
    9.9479    0.5589   24.9534 C   0  0  0  0  0  0  0  0  0  0  0  0
    8.0140   -2.1541   22.4331 C   0  0  0  0  0  0  0  0  0  0  0  0
    8.2490    0.0169   21.4271 C   0  0  0  0  0  0  0  0  0  0  0  0
    7.8721   -0.1194   23.8831 C   0  0  0  0  0  0  0  0  0  0  0  0
    8.6238   -0.7606   22.6929 C   0  0  3  0  0  0  0  0  0  0  0  0
    9.3374    5.0385   24.5630 C   0  0  0  0  0  0  0  0  0  0  0  0
    7.8607    1.7177   25.5736 C   0  0  0  0  0  0  0  0  0  0  0  0
    6.3062    0.3769   17.3421 N   0  0  0  0  0  0  0  0  0  0  0  0
    7.2292   -0.6897   20.7790 N   0  0  0  0  0  0  0  0  0  0  0  0
    8.8415    3.6841   24.6213 N   0  0  0  0  0  0  0  0  0  0  0  0
    8.6609    1.0133   24.4995 N   0  3  1  0  0  0  0  0  0  0  0  0
    6.1519   -2.7894   21.0695 O   0  0  0  0  0  0  0  0  0  0  0  0
    8.1944    3.7359   26.8507 O   0  0  0  0  0  0  0  0  0  0  0  0
   13.4289   -2.1396   21.1097 Cl  0  0  0  0  0  0  0  0  0  0  0  0
    2.5432    3.3510   20.6369 H   0  0  0  0  0  0  0  0  0  0  0  0
    3.5174    2.1137   22.5168 H   0  0  0  0  0  0  0  0  0  0  0  0
    3.3409    2.9743   18.3364 H   0  0  0  0  0  0  0  0  0  0  0  0
    5.3118    0.4895   22.1572 H   0  0  0  0  0  0  0  0  0  0  0  0
   12.5033    0.5947   24.9755 H   0  0  0  0  0  0  0  0  0  0  0  0
   13.9916   -0.5196   23.3808 H   0  0  0  0  0  0  0  0  0  0  0  0
   10.6210   -2.0184   21.2234 H   0  0  0  0  0  0  0  0  0  0  0  0
    4.9141    1.7511   16.7474 H   0  0  0  0  0  0  0  0  0  0  0  0
    7.6445   -0.9764   18.1043 H   0  0  0  0  0  0  0  0  0  0  0  0
    9.7587   -0.1236   25.8203 H   0  0  0  0  0  0  0  0  0  0  0  0
   10.4546    1.4647   25.3723 H   0  0  0  0  0  0  0  0  0  0  0  0
    7.5441   -2.5921   23.3200 H   0  0  0  0  0  0  0  0  0  0  0  0
    8.7544   -2.8590   22.0368 H   0  0  0  0  0  0  0  0  0  0  0  0
    7.9395    1.0624   21.6437 H   0  0  0  0  0  0  0  0  0  0  0  0
    9.1079    0.0832   20.7257 H   0  0  0  0  0  0  0  0  0  0  0  0
    6.9013    0.3002   23.5636 H   0  0  0  0  0  0  0  0  0  0  0  0
    7.6697   -0.8506   24.6880 H   0  0  0  0  0  0  0  0  0  0  0  0
    8.5295    5.7118   24.2407 H   0  0  0  0  0  0  0  0  0  0  0  0
    9.6921    5.3421   25.5591 H   0  0  0  0  0  0  0  0  0  0  0  0
   10.1690    5.0938   23.8451 H   0  0  0  0  0  0  0  0  0  0  0  0
    6.8184    1.6853   25.2442 H   0  0  0  0  0  0  0  0  0  0  0  0
    7.9871    1.1424   26.4949 H   0  0  0  0  0  0  0  0  0  0  0  0
    8.9140    3.1094   23.7865 H   0  0  0  0  0  0  0  0  0  0  0  0
    8.7924    1.7218   23.7528 H   0  0  0  0  0  0  0  0  0  0  0  0
  1  2  1  0  0  0  0
  1  3  2  0  0  0  0
  2  4  2  0  0  0  0
  3 10  1  0  0  0  0
  4 11  1  0  0  0  0
  5  6  2  0  0  0  0
  5 12  1  0  0  0  0
  6 15  1  0  0  0  0
  7 13  1  0  0  0  0
  7 15  2  0  0  0  0
  8 10  2  0  0  0  0
  8 25  1  0  0  0  0
  9 14  1  0  0  0  0
  9 25  2  0  0  0  0
 10 11  1  0  0  0  0
 11 14  2  0  0  0  0
 12 13  2  0  0  0  0
 12 18  1  0  0  0  0
 13 22  1  0  0  0  0
 14 26  1  0  0  0  0
 15 31  1  0  0  0  0
 16 19  1  0  0  0  0
 16 26  1  0  0  0  0
 16 29  2  0  0  0  0
 17 24  1  0  0  0  0
 17 27  1  0  0  0  0
 17 30  2  0  0  0  0
 18 28  1  0  0  0  0
 19 22  1  0  0  0  0
 20 22  1  0  0  0  0
 20 26  1  0  0  0  0
 21 22  1  0  0  0  0
 21 28  1  0  0  0  0
 23 27  1  0  0  0  0
 24 28  1  6  0  0  0
  1 32  1  0  0  0  0
  2 33  1  0  0  0  0
  3 34  1  0  0  0  0
  4 35  1  0  0  0  0
  5 36  1  0  0  0  0
  6 37  1  0  0  0  0
  7 38  1  0  0  0  0
  8 39  1  0  0  0  0
  9 40  1  0  0  0  0
 18 41  1  0  0  0  0
 18 42  1  0  0  0  0
 19 43  1  0  0  0  0
 19 44  1  0  0  0  0
 20 45  1  0  0  0  0
 20 46  1  0  0  0  0
 21 47  1  0  0  0  0
 21 48  1  0  0  0  0
 23 49  1  0  0  0  0
 23 50  1  0  0  0  0
 23 51  1  0  0  0  0
 24 52  1  0  0  0  0
 24 53  1  0  0  0  0
 27 54  1  0  0  0  0
 28 55  1  0  0  0  0
M  CHG  1  28   1
M  END
> <compound>
EDJ-MED-8bb691af-3

> <compound_smiles>
CNC(=O)CN1Cc2ccc(cc2C3(C1)CC(=O)N(C3)c4cncc5c4cccc5)Cl

> <enantiomer_smiles>
CNC(=O)C[N@]1Cc2ccc(cc2C3(C1)CC(=O)N(C3)c4cncc5c4cccc5)Cl

> <scaffold>
tetrahydroisoquinoline-5spiro-isoquinoline

> <clash_score>
0

> <docking_score>
-8.403302192687988

> <overlap_score>
0.9760086536407471

> <MMFF_internal_energy>
170.81828872147858

> <docked_smiles>
CNC(=O)C[N@H+]1Cc2ccc(cc2[C@]3(C1)CC(=O)N(C3)c4cncc5c4cccc5)Cl

$$$$
EDJ-MED-8bb691af-4_2
  -OEChem-12272114573D

 55 59  0     1  0  0  0  0  0999 V2000
    3.3432    2.6279   20.4411 C   0  0  0  0  0  0  0  0  0  0  0  0
    3.8960    1.9291   21.5050 C   0  0  0  0  0  0  0  0  0  0  0  0
    3.7865    2.4205   19.1660 C   0  0  0  0  0  0  0  0  0  0  0  0
    4.8973    1.0233   21.2988 C   0  0  0  0  0  0  0  0  0  0  0  0
   12.0765    0.0316   24.1541 C   0  0  0  0  0  0  0  0  0  0  0  0
   12.9132   -0.6032   23.2569 C   0  0  0  0  0  0  0  0  0  0  0  0
   10.9991   -1.4331   22.0443 C   0  0  0  0  0  0  0  0  0  0  0  0
    5.3278    1.2339   17.6066 C   0  0  0  0  0  0  0  0  0  0  0  0
    6.8438   -0.2892   18.3752 C   0  0  0  0  0  0  0  0  0  0  0  0
    4.8226    1.4906   18.9054 C   0  0  0  0  0  0  0  0  0  0  0  0
    5.3982    0.7733   19.9948 C   0  0  0  0  0  0  0  0  0  0  0  0
   10.7040   -0.0625   23.9898 C   0  0  0  0  0  0  0  0  0  0  0  0
   10.1406   -0.7765   22.9250 C   0  0  0  0  0  0  0  0  0  0  0  0
    6.4440   -0.1472   19.6979 C   0  0  0  0  0  0  0  0  0  0  0  0
   12.3683   -1.3298   22.2234 C   0  0  0  0  0  0  0  0  0  0  0  0
    8.2490    0.0169   21.4271 C   0  0  0  0  0  0  0  0  0  0  0  0
    6.7919    2.5950   24.9761 C   0  0  0  0  0  0  0  0  0  0  0  0
    9.9479    0.5589   24.9534 C   0  0  0  0  0  0  0  0  0  0  0  0
    8.0140   -2.1541   22.4331 C   0  0  0  0  0  0  0  0  0  0  0  0
    6.9866   -1.9366   21.3580 C   0  0  0  0  0  0  0  0  0  0  0  0
    7.8721   -0.1194   23.8831 C   0  0  0  0  0  0  0  0  0  0  0  0
    8.6238   -0.7606   22.6929 C   0  0  3  0  0  0  0  0  0  0  0  0
    6.5186    4.5422   23.4690 C   0  0  0  0  0  0  0  0  0  0  0  0
    7.8596    1.7144   25.5749 C   0  0  0  0  0  0  0  0  0  0  0  0
    6.3062    0.3769   17.3421 N   0  0  0  0  0  0  0  0  0  0  0  0
    7.2292   -0.6897   20.7790 N   0  0  0  0  0  0  0  0  0  0  0  0
    7.3373    3.5744   24.1596 N   0  0  0  0  0  0  0  0  0  0  0  0
    8.6609    1.0133   24.4995 N   0  3  1  0  0  0  0  0  0  0  0  0
    8.8286    1.0402   21.0803 O   0  0  0  0  0  0  0  0  0  0  0  0
    5.5929    2.4454   25.1962 O   0  0  0  0  0  0  0  0  0  0  0  0
   13.4270   -2.1443   21.1108 Cl  0  0  0  0  0  0  0  0  0  0  0  0
    2.5432    3.3510   20.6369 H   0  0  0  0  0  0  0  0  0  0  0  0
    3.5174    2.1137   22.5168 H   0  0  0  0  0  0  0  0  0  0  0  0
    3.3409    2.9743   18.3364 H   0  0  0  0  0  0  0  0  0  0  0  0
    5.3118    0.4895   22.1572 H   0  0  0  0  0  0  0  0  0  0  0  0
   12.5021    0.5962   24.9756 H   0  0  0  0  0  0  0  0  0  0  0  0
   13.9911   -0.5171   23.3786 H   0  0  0  0  0  0  0  0  0  0  0  0
   10.6045   -2.0170   21.2248 H   0  0  0  0  0  0  0  0  0  0  0  0
    4.9141    1.7511   16.7474 H   0  0  0  0  0  0  0  0  0  0  0  0
    7.6445   -0.9764   18.1043 H   0  0  0  0  0  0  0  0  0  0  0  0
    9.7608   -0.1211   25.8247 H   0  0  0  0  0  0  0  0  0  0  0  0
   10.4565    1.4661   25.3705 H   0  0  0  0  0  0  0  0  0  0  0  0
    7.5144   -2.5472   23.3327 H   0  0  0  0  0  0  0  0  0  0  0  0
    8.7599   -2.9065   22.1418 H   0  0  0  0  0  0  0  0  0  0  0  0
    7.0582   -2.7244   20.5716 H   0  0  0  0  0  0  0  0  0  0  0  0
    5.9516   -1.9958   21.7713 H   0  0  0  0  0  0  0  0  0  0  0  0
    6.8955    0.2929   23.5757 H   0  0  0  0  0  0  0  0  0  0  0  0
    7.6774   -0.8491   24.6905 H   0  0  0  0  0  0  0  0  0  0  0  0
    6.2637    4.1608   22.4692 H   0  0  0  0  0  0  0  0  0  0  0  0
    5.5955    4.7165   24.0413 H   0  0  0  0  0  0  0  0  0  0  0  0
    7.0728    5.4873   23.3704 H   0  0  0  0  0  0  0  0  0  0  0  0
    7.4105    0.9495   26.2145 H   0  0  0  0  0  0  0  0  0  0  0  0
    8.5738    2.3157   26.1441 H   0  0  0  0  0  0  0  0  0  0  0  0
    8.3460    3.6364   24.0553 H   0  0  0  0  0  0  0  0  0  0  0  0
    8.7930    1.7233   23.7554 H   0  0  0  0  0  0  0  0  0  0  0  0
  1  2  1  0  0  0  0
  1  3  2  0  0  0  0
  2  4  2  0  0  0  0
  3 10  1  0  0  0  0
  4 11  1  0  0  0  0
  5  6  2  0  0  0  0
  5 12  1  0  0  0  0
  6 15  1  0  0  0  0
  7 13  1  0  0  0  0
  7 15  2  0  0  0  0
  8 10  2  0  0  0  0
  8 25  1  0  0  0  0
  9 14  1  0  0  0  0
  9 25  2  0  0  0  0
 10 11  1  0  0  0  0
 11 14  2  0  0  0  0
 12 13  2  0  0  0  0
 12 18  1  0  0  0  0
 13 22  1  0  0  0  0
 14 26  1  0  0  0  0
 15 31  1  0  0  0  0
 16 22  1  0  0  0  0
 16 26  1  0  0  0  0
 16 29  2  0  0  0  0
 17 24  1  0  0  0  0
 17 27  1  0  0  0  0
 17 30  2  0  0  0  0
 18 28  1  0  0  0  0
 19 20  1  0  0  0  0
 19 22  1  0  0  0  0
 20 26  1  0  0  0  0
 21 22  1  0  0  0  0
 21 28  1  0  0  0  0
 23 27  1  0  0  0  0
 24 28  1  6  0  0  0
  1 32  1  0  0  0  0
  2 33  1  0  0  0  0
  3 34  1  0  0  0  0
  4 35  1  0  0  0  0
  5 36  1  0  0  0  0
  6 37  1  0  0  0  0
  7 38  1  0  0  0  0
  8 39  1  0  0  0  0
  9 40  1  0  0  0  0
 18 41  1  0  0  0  0
 18 42  1  0  0  0  0
 19 43  1  0  0  0  0
 19 44  1  0  0  0  0
 20 45  1  0  0  0  0
 20 46  1  0  0  0  0
 21 47  1  0  0  0  0
 21 48  1  0  0  0  0
 23 49  1  0  0  0  0
 23 50  1  0  0  0  0
 23 51  1  0  0  0  0
 24 52  1  0  0  0  0
 24 53  1  0  0  0  0
 27 54  1  0  0  0  0
 28 55  1  0  0  0  0
M  CHG  1  28   1
M  END
> <compound>
EDJ-MED-8bb691af-4

> <compound_smiles>
CNC(=O)CN1Cc2ccc(cc2C3(C1)CCN(C3=O)c4cncc5c4cccc5)Cl

> <enantiomer_smiles>
CNC(=O)C[N@]1Cc2ccc(cc2C3(C1)CCN(C3=O)c4cncc5c4cccc5)Cl

> <scaffold>
tetrahydroisoquinoline-5spiro-isoquinoline

> <clash_score>
0

> <docking_score>
-9.182597160339355

> <overlap_score>
0.9769039750099182

> <MMFF_internal_energy>
158.92907705938757

> <docked_smiles>
CNC(=O)C[N@H+]1Cc2ccc(cc2[C@]3(C1)CCN(C3=O)c4cncc5c4cccc5)Cl

$$$$
EDJ-MED-8bb691af-7_2
  -OEChem-12272114573D

 54 58  0     1  0  0  0  0  0999 V2000
    3.3432    2.6279   20.4411 C   0  0  0  0  0  0  0  0  0  0  0  0
    3.8960    1.9291   21.5050 C   0  0  0  0  0  0  0  0  0  0  0  0
    3.7865    2.4205   19.1660 C   0  0  0  0  0  0  0  0  0  0  0  0
    4.8973    1.0233   21.2988 C   0  0  0  0  0  0  0  0  0  0  0  0
   12.0765    0.0316   24.1541 C   0  0  0  0  0  0  0  0  0  0  0  0
   12.9132   -0.6032   23.2569 C   0  0  0  0  0  0  0  0  0  0  0  0
   10.9991   -1.4331   22.0443 C   0  0  0  0  0  0  0  0  0  0  0  0
    5.3278    1.2339   17.6066 C   0  0  0  0  0  0  0  0  0  0  0  0
    6.8438   -0.2892   18.3752 C   0  0  0  0  0  0  0  0  0  0  0  0
    4.8226    1.4906   18.9054 C   0  0  0  0  0  0  0  0  0  0  0  0
    5.3982    0.7733   19.9948 C   0  0  0  0  0  0  0  0  0  0  0  0
   10.7040   -0.0625   23.9898 C   0  0  0  0  0  0  0  0  0  0  0  0
   10.1406   -0.7765   22.9250 C   0  0  0  0  0  0  0  0  0  0  0  0
    6.4440   -0.1472   19.6979 C   0  0  0  0  0  0  0  0  0  0  0  0
   12.3683   -1.3298   22.2234 C   0  0  0  0  0  0  0  0  0  0  0  0
    9.9479    0.5589   24.9534 C   0  0  0  0  0  0  0  0  0  0  0  0
    8.4956    3.1965   23.6658 C   0  0  0  0  0  0  0  0  0  0  0  0
    8.0140   -2.1541   22.4331 C   0  0  0  0  0  0  0  0  0  0  0  0
    6.9866   -1.9366   21.3580 C   0  0  0  0  0  0  0  0  0  0  0  0
    8.2490    0.0169   21.4271 C   0  0  0  0  0  0  0  0  0  0  0  0
    7.8721   -0.1194   23.8831 C   0  0  0  0  0  0  0  0  0  0  0  0
    8.6238   -0.7606   22.6929 C   0  0  3  0  0  0  0  0  0  0  0  0
   10.2927    4.8344   23.1169 C   0  0  0  0  0  0  0  0  0  0  0  0
    8.0964    2.2313   24.7526 C   0  0  0  0  0  0  0  0  0  0  0  0
    6.3062    0.3769   17.3421 N   0  0  0  0  0  0  0  0  0  0  0  0
    7.2292   -0.6897   20.7790 N   0  0  2  0  0  0  0  0  0  0  0  0
    8.6609    1.0133   24.4995 N   0  0  0  0  0  0  0  0  0  0  0  0
    9.6759    3.8541   23.9813 N   0  0  0  0  0  0  0  0  0  0  0  0
   10.3195    0.7237   26.1132 O   0  0  0  0  0  0  0  0  0  0  0  0
    7.8453    3.3626   22.6372 O   0  0  0  0  0  0  0  0  0  0  0  0
   13.4282   -2.1461   21.1139 Cl  0  0  0  0  0  0  0  0  0  0  0  0
    2.5434    3.3513   20.6369 H   0  0  0  0  0  0  0  0  0  0  0  0
    3.5178    2.1138   22.5169 H   0  0  0  0  0  0  0  0  0  0  0  0
    3.3410    2.9744   18.3364 H   0  0  0  0  0  0  0  0  0  0  0  0
    5.3113    0.4888   22.1570 H   0  0  0  0  0  0  0  0  0  0  0  0
   12.5182    0.5976   24.9700 H   0  0  0  0  0  0  0  0  0  0  0  0
   13.9908   -0.5209   23.3817 H   0  0  0  0  0  0  0  0  0  0  0  0
   10.6180   -2.0264   21.2285 H   0  0  0  0  0  0  0  0  0  0  0  0
    4.9138    1.7514   16.7477 H   0  0  0  0  0  0  0  0  0  0  0  0
    7.6447   -0.9761   18.1049 H   0  0  0  0  0  0  0  0  0  0  0  0
    7.5158   -2.5255   23.3440 H   0  0  0  0  0  0  0  0  0  0  0  0
    8.7587   -2.9111   22.1431 H   0  0  0  0  0  0  0  0  0  0  0  0
    7.0430   -2.7483   20.5872 H   0  0  0  0  0  0  0  0  0  0  0  0
    5.9557   -2.0206   21.7933 H   0  0  0  0  0  0  0  0  0  0  0  0
    7.8782    1.0371   21.6959 H   0  0  0  0  0  0  0  0  0  0  0  0
    9.1351    0.2004   20.7679 H   0  0  0  0  0  0  0  0  0  0  0  0
    6.9216    0.3149   23.5694 H   0  0  0  0  0  0  0  0  0  0  0  0
    7.6784   -0.8502   24.6677 H   0  0  0  0  0  0  0  0  0  0  0  0
   10.9923    4.3320   22.4326 H   0  0  0  0  0  0  0  0  0  0  0  0
    9.5154    5.3493   22.5333 H   0  0  0  0  0  0  0  0  0  0  0  0
   10.8399    5.5683   23.7267 H   0  0  0  0  0  0  0  0  0  0  0  0
    8.4517    2.5983   25.7201 H   0  0  0  0  0  0  0  0  0  0  0  0
    7.0072    2.1335   24.7802 H   0  0  0  0  0  0  0  0  0  0  0  0
   10.1290    3.6357   24.8639 H   0  0  0  0  0  0  0  0  0  0  0  0
  1  2  1  0  0  0  0
  1  3  2  0  0  0  0
  2  4  2  0  0  0  0
  3 10  1  0  0  0  0
  4 11  1  0  0  0  0
  5  6  2  0  0  0  0
  5 12  1  0  0  0  0
  6 15  1  0  0  0  0
  7 13  1  0  0  0  0
  7 15  2  0  0  0  0
  8 10  2  0  0  0  0
  8 25  1  0  0  0  0
  9 14  1  0  0  0  0
  9 25  2  0  0  0  0
 10 11  1  0  0  0  0
 11 14  2  0  0  0  0
 12 13  2  0  0  0  0
 12 16  1  0  0  0  0
 13 22  1  0  0  0  0
 14 26  1  6  0  0  0
 15 31  1  0  0  0  0
 16 27  1  0  0  0  0
 16 29  2  0  0  0  0
 17 24  1  0  0  0  0
 17 28  1  0  0  0  0
 17 30  2  0  0  0  0
 18 19  1  0  0  0  0
 18 22  1  0  0  0  0
 19 26  1  0  0  0  0
 20 22  1  0  0  0  0
 20 26  1  0  0  0  0
 21 22  1  0  0  0  0
 21 27  1  0  0  0  0
 23 28  1  0  0  0  0
 24 27  1  0  0  0  0
  1 32  1  0  0  0  0
  2 33  1  0  0  0  0
  3 34  1  0  0  0  0
  4 35  1  0  0  0  0
  5 36  1  0  0  0  0
  6 37  1  0  0  0  0
  7 38  1  0  0  0  0
  8 39  1  0  0  0  0
  9 40  1  0  0  0  0
 18 41  1  0  0  0  0
 18 42  1  0  0  0  0
 19 43  1  0  0  0  0
 19 44  1  0  0  0  0
 20 45  1  0  0  0  0
 20 46  1  0  0  0  0
 21 47  1  0  0  0  0
 21 48  1  0  0  0  0
 23 49  1  0  0  0  0
 23 50  1  0  0  0  0
 23 51  1  0  0  0  0
 24 52  1  0  0  0  0
 24 53  1  0  0  0  0
 28 54  1  0  0  0  0
M  END
> <compound>
EDJ-MED-8bb691af-7

> <compound_smiles>
CNC(=O)CN1CC2(CCN(C2)c3cncc4c3cccc4)c5cc(ccc5C1=O)Cl

> <enantiomer_smiles>
CNC(=O)CN1CC2(CC[N@](C2)c3cncc4c3cccc4)c5cc(ccc5C1=O)Cl

> <scaffold>
tetrahydroisoquinoline-5spiro-isoquinoline

> <clash_score>
0

> <docking_score>
-9.213085174560547

> <overlap_score>
0.9634953141212463

> <MMFF_internal_energy>
178.33376854743614

> <docked_smiles>
CNC(=O)CN1C[C@]2(CCN(C2)c3cncc4c3cccc4)c5cc(ccc5C1=O)Cl

$$$$
EDJ-MED-8bb691af-4_1
  -OEChem-12272114573D

 55 59  0     1  0  0  0  0  0999 V2000
    3.3432    2.6279   20.4411 C   0  0  0  0  0  0  0  0  0  0  0  0
    3.8960    1.9291   21.5050 C   0  0  0  0  0  0  0  0  0  0  0  0
    3.7865    2.4205   19.1660 C   0  0  0  0  0  0  0  0  0  0  0  0
    4.8973    1.0233   21.2988 C   0  0  0  0  0  0  0  0  0  0  0  0
   12.0765    0.0316   24.1541 C   0  0  0  0  0  0  0  0  0  0  0  0
   12.9132   -0.6032   23.2569 C   0  0  0  0  0  0  0  0  0  0  0  0
   10.9991   -1.4331   22.0443 C   0  0  0  0  0  0  0  0  0  0  0  0
    5.3278    1.2339   17.6066 C   0  0  0  0  0  0  0  0  0  0  0  0
    6.8438   -0.2892   18.3752 C   0  0  0  0  0  0  0  0  0  0  0  0
    4.8226    1.4906   18.9054 C   0  0  0  0  0  0  0  0  0  0  0  0
    5.3982    0.7733   19.9948 C   0  0  0  0  0  0  0  0  0  0  0  0
   10.7040   -0.0625   23.9898 C   0  0  0  0  0  0  0  0  0  0  0  0
   10.1406   -0.7765   22.9250 C   0  0  0  0  0  0  0  0  0  0  0  0
    6.4440   -0.1472   19.6979 C   0  0  0  0  0  0  0  0  0  0  0  0
   12.3683   -1.3298   22.2234 C   0  0  0  0  0  0  0  0  0  0  0  0
    8.2490    0.0169   21.4271 C   0  0  0  0  0  0  0  0  0  0  0  0
    7.3800    2.6707   23.1135 C   0  0  0  0  0  0  0  0  0  0  0  0
    9.9479    0.5589   24.9534 C   0  0  0  0  0  0  0  0  0  0  0  0
    8.0140   -2.1541   22.4331 C   0  0  0  0  0  0  0  0  0  0  0  0
    6.9866   -1.9366   21.3580 C   0  0  0  0  0  0  0  0  0  0  0  0
    7.8721   -0.1194   23.8831 C   0  0  0  0  0  0  0  0  0  0  0  0
    8.6238   -0.7606   22.6929 C   0  0  3  0  0  0  0  0  0  0  0  0
    6.3064    4.4181   21.7238 C   0  0  0  0  0  0  0  0  0  0  0  0
    8.7403    2.1972   23.5605 C   0  0  0  0  0  0  0  0  0  0  0  0
    6.3062    0.3769   17.3421 N   0  0  0  0  0  0  0  0  0  0  0  0
    7.2292   -0.6897   20.7790 N   0  0  0  0  0  0  0  0  0  0  0  0
    7.4727    3.7787   22.2847 N   0  0  0  0  0  0  0  0  0  0  0  0
    8.6609    1.0133   24.4995 N   0  3  2  0  0  0  0  0  0  0  0  0
    8.7573    1.0936   21.1337 O   0  0  0  0  0  0  0  0  0  0  0  0
    6.3322    2.1271   23.4522 O   0  0  0  0  0  0  0  0  0  0  0  0
   13.4273   -2.1424   21.1098 Cl  0  0  0  0  0  0  0  0  0  0  0  0
    2.5432    3.3510   20.6369 H   0  0  0  0  0  0  0  0  0  0  0  0
    3.5174    2.1137   22.5168 H   0  0  0  0  0  0  0  0  0  0  0  0
    3.3409    2.9743   18.3364 H   0  0  0  0  0  0  0  0  0  0  0  0
    5.3118    0.4895   22.1572 H   0  0  0  0  0  0  0  0  0  0  0  0
   12.5019    0.5946   24.9768 H   0  0  0  0  0  0  0  0  0  0  0  0
   13.9911   -0.5203   23.3811 H   0  0  0  0  0  0  0  0  0  0  0  0
   10.6042   -2.0222   21.2286 H   0  0  0  0  0  0  0  0  0  0  0  0
    4.9141    1.7511   16.7474 H   0  0  0  0  0  0  0  0  0  0  0  0
    7.6445   -0.9764   18.1043 H   0  0  0  0  0  0  0  0  0  0  0  0
    9.7388   -0.1131   25.8254 H   0  0  0  0  0  0  0  0  0  0  0  0
   10.4771    1.4544   25.3711 H   0  0  0  0  0  0  0  0  0  0  0  0
    7.5768   -2.6110   23.3318 H   0  0  0  0  0  0  0  0  0  0  0  0
    8.7734   -2.8622   22.0653 H   0  0  0  0  0  0  0  0  0  0  0  0
    7.0225   -2.7503   20.5949 H   0  0  0  0  0  0  0  0  0  0  0  0
    5.9552   -1.9477   21.7830 H   0  0  0  0  0  0  0  0  0  0  0  0
    6.8958    0.3004   23.5785 H   0  0  0  0  0  0  0  0  0  0  0  0
    7.6733   -0.8520   24.6844 H   0  0  0  0  0  0  0  0  0  0  0  0
    6.0820    3.9763   20.7417 H   0  0  0  0  0  0  0  0  0  0  0  0
    5.4486    4.2710   22.3965 H   0  0  0  0  0  0  0  0  0  0  0  0
    6.4995    5.4946   21.6059 H   0  0  0  0  0  0  0  0  0  0  0  0
    9.2580    2.9867   24.1123 H   0  0  0  0  0  0  0  0  0  0  0  0
    9.3353    1.8814   22.6991 H   0  0  0  0  0  0  0  0  0  0  0  0
    8.3848    4.1756   22.0775 H   0  0  0  0  0  0  0  0  0  0  0  0
    8.1123    1.3501   25.3127 H   0  0  0  0  0  0  0  0  0  0  0  0
  1  2  1  0  0  0  0
  1  3  2  0  0  0  0
  2  4  2  0  0  0  0
  3 10  1  0  0  0  0
  4 11  1  0  0  0  0
  5  6  2  0  0  0  0
  5 12  1  0  0  0  0
  6 15  1  0  0  0  0
  7 13  1  0  0  0  0
  7 15  2  0  0  0  0
  8 10  2  0  0  0  0
  8 25  1  0  0  0  0
  9 14  1  0  0  0  0
  9 25  2  0  0  0  0
 10 11  1  0  0  0  0
 11 14  2  0  0  0  0
 12 13  2  0  0  0  0
 12 18  1  0  0  0  0
 13 22  1  0  0  0  0
 14 26  1  0  0  0  0
 15 31  1  0  0  0  0
 16 22  1  0  0  0  0
 16 26  1  0  0  0  0
 16 29  2  0  0  0  0
 17 24  1  0  0  0  0
 17 27  1  0  0  0  0
 17 30  2  0  0  0  0
 18 28  1  0  0  0  0
 19 20  1  0  0  0  0
 19 22  1  0  0  0  0
 20 26  1  0  0  0  0
 21 22  1  0  0  0  0
 21 28  1  0  0  0  0
 23 27  1  0  0  0  0
 24 28  1  1  0  0  0
  1 32  1  0  0  0  0
  2 33  1  0  0  0  0
  3 34  1  0  0  0  0
  4 35  1  0  0  0  0
  5 36  1  0  0  0  0
  6 37  1  0  0  0  0
  7 38  1  0  0  0  0
  8 39  1  0  0  0  0
  9 40  1  0  0  0  0
 18 41  1  0  0  0  0
 18 42  1  0  0  0  0
 19 43  1  0  0  0  0
 19 44  1  0  0  0  0
 20 45  1  0  0  0  0
 20 46  1  0  0  0  0
 21 47  1  0  0  0  0
 21 48  1  0  0  0  0
 23 49  1  0  0  0  0
 23 50  1  0  0  0  0
 23 51  1  0  0  0  0
 24 52  1  0  0  0  0
 24 53  1  0  0  0  0
 27 54  1  0  0  0  0
 28 55  1  0  0  0  0
M  CHG  1  28   1
M  END
> <compound>
EDJ-MED-8bb691af-4

> <compound_smiles>
CNC(=O)CN1Cc2ccc(cc2C3(C1)CCN(C3=O)c4cncc5c4cccc5)Cl

> <enantiomer_smiles>
CNC(=O)C[N@@]1Cc2ccc(cc2C3(C1)CCN(C3=O)c4cncc5c4cccc5)Cl

> <scaffold>
tetrahydroisoquinoline-5spiro-isoquinoline

> <clash_score>
0

> <docking_score>
-9.898701667785645

> <overlap_score>
0.9816373586654663

> <MMFF_internal_energy>
169.02491069681608

> <docked_smiles>
CNC(=O)C[N@@H+]1Cc2ccc(cc2[C@]3(C1)CCN(C3=O)c4cncc5c4cccc5)Cl

$$$$
EDJ-MED-3656d29d-1_2
  -OEChem-12272114573D

 59 63  0     1  0  0  0  0  0999 V2000
    3.3432    2.6279   20.4411 C   0  0  0  0  0  0  0  0  0  0  0  0
    3.7865    2.4205   19.1660 C   0  0  0  0  0  0  0  0  0  0  0  0
   12.0765    0.0316   24.1541 C   0  0  0  0  0  0  0  0  0  0  0  0
    3.8960    1.9291   21.5050 C   0  0  0  0  0  0  0  0  0  0  0  0
   12.9132   -0.6032   23.2569 C   0  0  0  0  0  0  0  0  0  0  0  0
   10.9991   -1.4331   22.0443 C   0  0  0  0  0  0  0  0  0  0  0  0
    5.3278    1.2339   17.6066 C   0  0  0  0  0  0  0  0  0  0  0  0
    6.8438   -0.2892   18.3752 C   0  0  0  0  0  0  0  0  0  0  0  0
    4.8226    1.4906   18.9054 C   0  0  0  0  0  0  0  0  0  0  0  0
    5.3982    0.7733   19.9948 C   0  0  0  0  0  0  0  0  0  0  0  0
   10.7040   -0.0625   23.9898 C   0  0  0  0  0  0  0  0  0  0  0  0
   10.1406   -0.7765   22.9250 C   0  0  0  0  0  0  0  0  0  0  0  0
    4.8973    1.0233   21.2988 C   0  0  0  0  0  0  0  0  0  0  0  0
    6.4440   -0.1472   19.6979 C   0  0  0  0  0  0  0  0  0  0  0  0
   12.3683   -1.3298   22.2234 C   0  0  0  0  0  0  0  0  0  0  0  0
    7.4378    2.9605   23.5051 C   0  0  0  0  0  0  0  0  0  0  0  0
    9.9479    0.5589   24.9534 C   0  0  0  0  0  0  0  0  0  0  0  0
    8.0140   -2.1541   22.4331 C   0  0  0  0  0  0  0  0  0  0  0  0
    6.9866   -1.9366   21.3580 C   0  0  0  0  0  0  0  0  0  0  0  0
    8.2490    0.0169   21.4271 C   0  0  0  0  0  0  0  0  0  0  0  0
    7.8721   -0.1194   23.8831 C   0  0  0  0  0  0  0  0  0  0  0  0
    8.6238   -0.7606   22.6929 C   0  0  3  0  0  0  0  0  0  0  0  0
    5.4160    0.3280   22.5248 C   0  0  0  0  0  0  0  0  0  0  0  0
    6.4207    4.9636   22.4608 C   0  0  0  0  0  0  0  0  0  0  0  0
    8.7388    2.2003   23.5653 C   0  0  0  0  0  0  0  0  0  0  0  0
    6.3062    0.3769   17.3421 N   0  0  0  0  0  0  0  0  0  0  0  0
    7.2292   -0.6897   20.7790 N   0  0  1  0  0  0  0  0  0  0  0  0
    7.5350    4.0733   22.6831 N   0  0  0  0  0  0  0  0  0  0  0  0
    8.6609    1.0133   24.4995 N   0  3  1  0  0  0  0  0  0  0  0  0
    6.4284    2.6186   24.1153 O   0  0  0  0  0  0  0  0  0  0  0  0
   13.4289   -2.1420   21.1114 Cl  0  0  0  0  0  0  0  0  0  0  0  0
    2.5417    3.3496   20.6364 H   0  0  0  0  0  0  0  0  0  0  0  0
    3.3404    2.9742   18.3366 H   0  0  0  0  0  0  0  0  0  0  0  0
   12.5035    0.5995   24.9720 H   0  0  0  0  0  0  0  0  0  0  0  0
    3.5080    2.1238   22.5126 H   0  0  0  0  0  0  0  0  0  0  0  0
   13.9918   -0.5155   23.3780 H   0  0  0  0  0  0  0  0  0  0  0  0
   10.6215   -2.0217   21.2260 H   0  0  0  0  0  0  0  0  0  0  0  0
    4.9135    1.7509   16.7475 H   0  0  0  0  0  0  0  0  0  0  0  0
    7.6452   -0.9751   18.1031 H   0  0  0  0  0  0  0  0  0  0  0  0
    9.7396   -0.1079   25.8261 H   0  0  0  0  0  0  0  0  0  0  0  0
   10.4766    1.4563   25.3598 H   0  0  0  0  0  0  0  0  0  0  0  0
    7.5114   -2.5254   23.3382 H   0  0  0  0  0  0  0  0  0  0  0  0
    8.7583   -2.9066   22.1416 H   0  0  0  0  0  0  0  0  0  0  0  0
    7.0398   -2.7508   20.5910 H   0  0  0  0  0  0  0  0  0  0  0  0
    5.9564   -2.0160   21.7925 H   0  0  0  0  0  0  0  0  0  0  0  0
    7.8783    1.0370   21.6886 H   0  0  0  0  0  0  0  0  0  0  0  0
    9.1361    0.1909   20.7696 H   0  0  0  0  0  0  0  0  0  0  0  0
    6.8900    0.2916   23.5821 H   0  0  0  0  0  0  0  0  0  0  0  0
    7.6913   -0.8575   24.6853 H   0  0  0  0  0  0  0  0  0  0  0  0
    4.8444   -0.5876   22.7075 H   0  0  0  0  0  0  0  0  0  0  0  0
    6.4752    0.0682   22.4211 H   0  0  0  0  0  0  0  0  0  0  0  0
    5.3279    0.9801   23.4008 H   0  0  0  0  0  0  0  0  0  0  0  0
    5.8569    4.6323   21.5762 H   0  0  0  0  0  0  0  0  0  0  0  0
    5.7613    4.9525   23.3411 H   0  0  0  0  0  0  0  0  0  0  0  0
    6.7947    5.9848   22.2957 H   0  0  0  0  0  0  0  0  0  0  0  0
    9.5367    2.8377   23.9563 H   0  0  0  0  0  0  0  0  0  0  0  0
    9.0046    1.8218   22.5744 H   0  0  0  0  0  0  0  0  0  0  0  0
    8.4210    4.2913   22.2362 H   0  0  0  0  0  0  0  0  0  0  0  0
    8.1114    1.3463   25.3133 H   0  0  0  0  0  0  0  0  0  0  0  0
  1  2  1  0  0  0  0
  1  4  2  0  0  0  0
  2  9  2  0  0  0  0
  3  5  1  0  0  0  0
  3 11  2  0  0  0  0
  4 13  1  0  0  0  0
  5 15  2  0  0  0  0
  6 12  2  0  0  0  0
  6 15  1  0  0  0  0
  7  9  1  0  0  0  0
  7 26  2  0  0  0  0
  8 14  2  0  0  0  0
  8 26  1  0  0  0  0
  9 10  1  0  0  0  0
 10 13  2  0  0  0  0
 10 14  1  0  0  0  0
 11 12  1  0  0  0  0
 11 17  1  0  0  0  0
 12 22  1  0  0  0  0
 13 23  1  0  0  0  0
 14 27  1  6  0  0  0
 15 31  1  0  0  0  0
 16 25  1  0  0  0  0
 16 28  1  0  0  0  0
 16 30  2  0  0  0  0
 17 29  1  0  0  0  0
 18 19  1  0  0  0  0
 18 22  1  0  0  0  0
 19 27  1  0  0  0  0
 20 22  1  0  0  0  0
 20 27  1  0  0  0  0
 21 22  1  0  0  0  0
 21 29  1  0  0  0  0
 24 28  1  0  0  0  0
 25 29  1  1  0  0  0
  1 32  1  0  0  0  0
  2 33  1  0  0  0  0
  3 34  1  0  0  0  0
  4 35  1  0  0  0  0
  5 36  1  0  0  0  0
  6 37  1  0  0  0  0
  7 38  1  0  0  0  0
  8 39  1  0  0  0  0
 17 40  1  0  0  0  0
 17 41  1  0  0  0  0
 18 42  1  0  0  0  0
 18 43  1  0  0  0  0
 19 44  1  0  0  0  0
 19 45  1  0  0  0  0
 20 46  1  0  0  0  0
 20 47  1  0  0  0  0
 21 48  1  0  0  0  0
 21 49  1  0  0  0  0
 23 50  1  0  0  0  0
 23 51  1  0  0  0  0
 23 52  1  0  0  0  0
 24 53  1  0  0  0  0
 24 54  1  0  0  0  0
 24 55  1  0  0  0  0
 25 56  1  0  0  0  0
 25 57  1  0  0  0  0
 28 58  1  0  0  0  0
 29 59  1  0  0  0  0
M  CHG  1  29   1
M  END
> <compound>
EDJ-MED-3656d29d-1

> <compound_smiles>
Cc1cccc2c1c(cnc2)N3CCC4(C3)CN(Cc5c4cc(cc5)Cl)CC(=O)NC

> <enantiomer_smiles>
Cc1cccc2c1c(cnc2)[N@]3CCC4(C3)C[N@@](Cc5c4cc(cc5)Cl)CC(=O)NC

> <scaffold>
tetrahydroisoquinoline-5spiro-isoquinoline

> <clash_score>
0

> <docking_score>
-9.139676094055176

> <overlap_score>
0.9625606536865234

> <MMFF_internal_energy>
286.0732937601556

> <docked_smiles>
Cc1cccc2c1c(cnc2)N3CC[C@@]4(C3)C[N@@H+](Cc5c4cc(cc5)Cl)CC(=O)NC

$$$$
EDJ-MED-8bb691af-7_1
  -OEChem-12272114573D

 54 58  0     1  0  0  0  0  0999 V2000
    3.3432    2.6279   20.4411 C   0  0  0  0  0  0  0  0  0  0  0  0
    3.8960    1.9291   21.5050 C   0  0  0  0  0  0  0  0  0  0  0  0
    3.7865    2.4205   19.1660 C   0  0  0  0  0  0  0  0  0  0  0  0
    4.8973    1.0233   21.2988 C   0  0  0  0  0  0  0  0  0  0  0  0
   12.0765    0.0316   24.1541 C   0  0  0  0  0  0  0  0  0  0  0  0
   12.9132   -0.6032   23.2569 C   0  0  0  0  0  0  0  0  0  0  0  0
   10.9991   -1.4331   22.0443 C   0  0  0  0  0  0  0  0  0  0  0  0
    5.3278    1.2339   17.6066 C   0  0  0  0  0  0  0  0  0  0  0  0
    6.8438   -0.2892   18.3752 C   0  0  0  0  0  0  0  0  0  0  0  0
    4.8226    1.4906   18.9054 C   0  0  0  0  0  0  0  0  0  0  0  0
    5.3982    0.7733   19.9948 C   0  0  0  0  0  0  0  0  0  0  0  0
   10.7040   -0.0625   23.9898 C   0  0  0  0  0  0  0  0  0  0  0  0
   10.1406   -0.7765   22.9250 C   0  0  0  0  0  0  0  0  0  0  0  0
    6.4440   -0.1472   19.6979 C   0  0  0  0  0  0  0  0  0  0  0  0
   12.3683   -1.3298   22.2234 C   0  0  0  0  0  0  0  0  0  0  0  0
    9.9479    0.5589   24.9534 C   0  0  0  0  0  0  0  0  0  0  0  0
    8.4958    3.1952   23.6605 C   0  0  0  0  0  0  0  0  0  0  0  0
    8.0140   -2.1541   22.4331 C   0  0  0  0  0  0  0  0  0  0  0  0
    6.9866   -1.9366   21.3580 C   0  0  0  0  0  0  0  0  0  0  0  0
    8.2490    0.0169   21.4271 C   0  0  0  0  0  0  0  0  0  0  0  0
    7.8721   -0.1194   23.8831 C   0  0  0  0  0  0  0  0  0  0  0  0
    8.6238   -0.7606   22.6929 C   0  0  3  0  0  0  0  0  0  0  0  0
   10.2937    4.8305   23.1061 C   0  0  0  0  0  0  0  0  0  0  0  0
    8.0973    2.2324   24.7497 C   0  0  0  0  0  0  0  0  0  0  0  0
    6.3062    0.3769   17.3421 N   0  0  0  0  0  0  0  0  0  0  0  0
    7.2292   -0.6897   20.7790 N   0  0  1  0  0  0  0  0  0  0  0  0
    8.6609    1.0133   24.4995 N   0  0  0  0  0  0  0  0  0  0  0  0
    9.6771    3.8525   23.9732 N   0  0  0  0  0  0  0  0  0  0  0  0
   10.3197    0.7239   26.1131 O   0  0  0  0  0  0  0  0  0  0  0  0
    7.8443    3.3600   22.6325 O   0  0  0  0  0  0  0  0  0  0  0  0
   13.4281   -2.1461   21.1138 Cl  0  0  0  0  0  0  0  0  0  0  0  0
    2.5434    3.3513   20.6369 H   0  0  0  0  0  0  0  0  0  0  0  0
    3.5178    2.1138   22.5169 H   0  0  0  0  0  0  0  0  0  0  0  0
    3.3410    2.9744   18.3364 H   0  0  0  0  0  0  0  0  0  0  0  0
    5.3113    0.4888   22.1570 H   0  0  0  0  0  0  0  0  0  0  0  0
   12.5182    0.5974   24.9702 H   0  0  0  0  0  0  0  0  0  0  0  0
   13.9908   -0.5208   23.3815 H   0  0  0  0  0  0  0  0  0  0  0  0
   10.6180   -2.0264   21.2286 H   0  0  0  0  0  0  0  0  0  0  0  0
    4.9138    1.7514   16.7477 H   0  0  0  0  0  0  0  0  0  0  0  0
    7.6447   -0.9761   18.1049 H   0  0  0  0  0  0  0  0  0  0  0  0
    7.5157   -2.5255   23.3440 H   0  0  0  0  0  0  0  0  0  0  0  0
    8.7587   -2.9112   22.1431 H   0  0  0  0  0  0  0  0  0  0  0  0
    7.0430   -2.7484   20.5873 H   0  0  0  0  0  0  0  0  0  0  0  0
    5.9557   -2.0207   21.7934 H   0  0  0  0  0  0  0  0  0  0  0  0
    7.8783    1.0371   21.6960 H   0  0  0  0  0  0  0  0  0  0  0  0
    9.1350    0.2003   20.7678 H   0  0  0  0  0  0  0  0  0  0  0  0
    6.9217    0.3148   23.5693 H   0  0  0  0  0  0  0  0  0  0  0  0
    7.6785   -0.8500   24.6678 H   0  0  0  0  0  0  0  0  0  0  0  0
   10.9919    4.3263   22.4218 H   0  0  0  0  0  0  0  0  0  0  0  0
    9.5160    5.3450   22.5226 H   0  0  0  0  0  0  0  0  0  0  0  0
   10.8423    5.5651   23.7138 H   0  0  0  0  0  0  0  0  0  0  0  0
    8.4542    2.6010   25.7160 H   0  0  0  0  0  0  0  0  0  0  0  0
    7.0080    2.1356   24.7789 H   0  0  0  0  0  0  0  0  0  0  0  0
   10.1313    3.6354   24.8556 H   0  0  0  0  0  0  0  0  0  0  0  0
  1  2  1  0  0  0  0
  1  3  2  0  0  0  0
  2  4  2  0  0  0  0
  3 10  1  0  0  0  0
  4 11  1  0  0  0  0
  5  6  2  0  0  0  0
  5 12  1  0  0  0  0
  6 15  1  0  0  0  0
  7 13  1  0  0  0  0
  7 15  2  0  0  0  0
  8 10  2  0  0  0  0
  8 25  1  0  0  0  0
  9 14  1  0  0  0  0
  9 25  2  0  0  0  0
 10 11  1  0  0  0  0
 11 14  2  0  0  0  0
 12 13  2  0  0  0  0
 12 16  1  0  0  0  0
 13 22  1  0  0  0  0
 14 26  1  1  0  0  0
 15 31  1  0  0  0  0
 16 27  1  0  0  0  0
 16 29  2  0  0  0  0
 17 24  1  0  0  0  0
 17 28  1  0  0  0  0
 17 30  2  0  0  0  0
 18 19  1  0  0  0  0
 18 22  1  0  0  0  0
 19 26  1  0  0  0  0
 20 22  1  0  0  0  0
 20 26  1  0  0  0  0
 21 22  1  0  0  0  0
 21 27  1  0  0  0  0
 23 28  1  0  0  0  0
 24 27  1  0  0  0  0
  1 32  1  0  0  0  0
  2 33  1  0  0  0  0
  3 34  1  0  0  0  0
  4 35  1  0  0  0  0
  5 36  1  0  0  0  0
  6 37  1  0  0  0  0
  7 38  1  0  0  0  0
  8 39  1  0  0  0  0
  9 40  1  0  0  0  0
 18 41  1  0  0  0  0
 18 42  1  0  0  0  0
 19 43  1  0  0  0  0
 19 44  1  0  0  0  0
 20 45  1  0  0  0  0
 20 46  1  0  0  0  0
 21 47  1  0  0  0  0
 21 48  1  0  0  0  0
 23 49  1  0  0  0  0
 23 50  1  0  0  0  0
 23 51  1  0  0  0  0
 24 52  1  0  0  0  0
 24 53  1  0  0  0  0
 28 54  1  0  0  0  0
M  END
> <compound>
EDJ-MED-8bb691af-7

> <compound_smiles>
CNC(=O)CN1CC2(CCN(C2)c3cncc4c3cccc4)c5cc(ccc5C1=O)Cl

> <enantiomer_smiles>
CNC(=O)CN1CC2(CC[N@@](C2)c3cncc4c3cccc4)c5cc(ccc5C1=O)Cl

> <scaffold>
tetrahydroisoquinoline-5spiro-isoquinoline

> <clash_score>
0

> <docking_score>
-9.211135864257812

> <overlap_score>
0.9635012149810791

> <MMFF_internal_energy>
178.37567648241756

> <docked_smiles>
CNC(=O)CN1C[C@]2(CCN(C2)c3cncc4c3cccc4)c5cc(ccc5C1=O)Cl

$$$$
MAT-POS-c7726e07-5_2
  -OEChem-12272114573D

 55 59  0     1  0  0  0  0  0999 V2000
    3.3432    2.6279   20.4411 C   0  0  0  0  0  0  0  0  0  0  0  0
    3.8960    1.9291   21.5050 C   0  0  0  0  0  0  0  0  0  0  0  0
    3.7865    2.4205   19.1660 C   0  0  0  0  0  0  0  0  0  0  0  0
    4.8973    1.0233   21.2988 C   0  0  0  0  0  0  0  0  0  0  0  0
   12.0765    0.0316   24.1541 C   0  0  0  0  0  0  0  0  0  0  0  0
   12.9132   -0.6032   23.2569 C   0  0  0  0  0  0  0  0  0  0  0  0
   10.9991   -1.4331   22.0443 C   0  0  0  0  0  0  0  0  0  0  0  0
    5.3278    1.2339   17.6066 C   0  0  0  0  0  0  0  0  0  0  0  0
    6.8438   -0.2892   18.3752 C   0  0  0  0  0  0  0  0  0  0  0  0
    4.8226    1.4906   18.9054 C   0  0  0  0  0  0  0  0  0  0  0  0
    5.3982    0.7733   19.9948 C   0  0  0  0  0  0  0  0  0  0  0  0
   10.7040   -0.0625   23.9898 C   0  0  0  0  0  0  0  0  0  0  0  0
   10.1406   -0.7765   22.9250 C   0  0  0  0  0  0  0  0  0  0  0  0
    6.4440   -0.1472   19.6979 C   0  0  0  0  0  0  0  0  0  0  0  0
   12.3683   -1.3298   22.2234 C   0  0  0  0  0  0  0  0  0  0  0  0
    8.2490    0.0169   21.4271 C   0  0  0  0  0  0  0  0  0  0  0  0
    8.3033    3.1398   25.7821 C   0  0  0  0  0  0  0  0  0  0  0  0
    9.9479    0.5589   24.9534 C   0  0  0  0  0  0  0  0  0  0  0  0
    8.0140   -2.1541   22.4331 C   0  0  0  0  0  0  0  0  0  0  0  0
    6.9866   -1.9366   21.3580 C   0  0  0  0  0  0  0  0  0  0  0  0
    7.8721   -0.1194   23.8831 C   0  0  0  0  0  0  0  0  0  0  0  0
    8.6238   -0.7606   22.6929 C   0  0  2  0  0  0  0  0  0  0  0  0
    9.3391    5.0314   24.5629 C   0  0  0  0  0  0  0  0  0  0  0  0
    7.8597    1.7131   25.5776 C   0  0  0  0  0  0  0  0  0  0  0  0
    6.3062    0.3769   17.3421 N   0  0  0  0  0  0  0  0  0  0  0  0
    7.2292   -0.6897   20.7790 N   0  0  0  0  0  0  0  0  0  0  0  0
    8.8429    3.6772   24.6231 N   0  0  0  0  0  0  0  0  0  0  0  0
    8.6609    1.0133   24.4995 N   0  3  1  0  0  0  0  0  0  0  0  0
    8.7582    1.0927   21.1322 O   0  0  0  0  0  0  0  0  0  0  0  0
    8.1903    3.7343   26.8508 O   0  0  0  0  0  0  0  0  0  0  0  0
   13.4284   -2.1369   21.1069 Cl  0  0  0  0  0  0  0  0  0  0  0  0
    2.5432    3.3510   20.6369 H   0  0  0  0  0  0  0  0  0  0  0  0
    3.5174    2.1137   22.5168 H   0  0  0  0  0  0  0  0  0  0  0  0
    3.3409    2.9743   18.3364 H   0  0  0  0  0  0  0  0  0  0  0  0
    5.3118    0.4895   22.1572 H   0  0  0  0  0  0  0  0  0  0  0  0
   12.5034    0.6047   24.9690 H   0  0  0  0  0  0  0  0  0  0  0  0
   13.9915   -0.5095   23.3735 H   0  0  0  0  0  0  0  0  0  0  0  0
   10.6128   -2.0079   21.2173 H   0  0  0  0  0  0  0  0  0  0  0  0
    4.9141    1.7511   16.7474 H   0  0  0  0  0  0  0  0  0  0  0  0
    7.6445   -0.9764   18.1043 H   0  0  0  0  0  0  0  0  0  0  0  0
    9.7652   -0.1152   25.8338 H   0  0  0  0  0  0  0  0  0  0  0  0
   10.4580    1.4695   25.3677 H   0  0  0  0  0  0  0  0  0  0  0  0
    7.5756   -2.6002   23.3394 H   0  0  0  0  0  0  0  0  0  0  0  0
    8.7528   -2.8832   22.0699 H   0  0  0  0  0  0  0  0  0  0  0  0
    7.0224   -2.7508   20.5944 H   0  0  0  0  0  0  0  0  0  0  0  0
    5.9543   -1.9484   21.7823 H   0  0  0  0  0  0  0  0  0  0  0  0
    6.9009    0.3058   23.5780 H   0  0  0  0  0  0  0  0  0  0  0  0
    7.6838   -0.8462   24.6929 H   0  0  0  0  0  0  0  0  0  0  0  0
    8.5320    5.7040   24.2370 H   0  0  0  0  0  0  0  0  0  0  0  0
    9.6913    5.3374   25.5590 H   0  0  0  0  0  0  0  0  0  0  0  0
   10.1724    5.0850   23.8469 H   0  0  0  0  0  0  0  0  0  0  0  0
    6.8183    1.6799   25.2457 H   0  0  0  0  0  0  0  0  0  0  0  0
    7.9839    1.1399   26.5006 H   0  0  0  0  0  0  0  0  0  0  0  0
    8.9175    3.1006   23.7899 H   0  0  0  0  0  0  0  0  0  0  0  0
    8.7895    1.7237   23.7518 H   0  0  0  0  0  0  0  0  0  0  0  0
  1  2  1  0  0  0  0
  1  3  2  0  0  0  0
  2  4  2  0  0  0  0
  3 10  1  0  0  0  0
  4 11  1  0  0  0  0
  5  6  2  0  0  0  0
  5 12  1  0  0  0  0
  6 15  1  0  0  0  0
  7 13  1  0  0  0  0
  7 15  2  0  0  0  0
  8 10  2  0  0  0  0
  8 25  1  0  0  0  0
  9 14  1  0  0  0  0
  9 25  2  0  0  0  0
 10 11  1  0  0  0  0
 11 14  2  0  0  0  0
 12 13  2  0  0  0  0
 12 18  1  0  0  0  0
 13 22  1  6  0  0  0
 14 26  1  0  0  0  0
 15 31  1  0  0  0  0
 16 22  1  1  0  0  0
 16 26  1  0  0  0  0
 16 29  2  0  0  0  0
 17 24  1  0  0  0  0
 17 27  1  0  0  0  0
 17 30  2  0  0  0  0
 18 28  1  0  0  0  0
 19 20  1  0  0  0  0
 19 22  1  1  0  0  0
 20 26  1  0  0  0  0
 21 22  1  6  0  0  0
 21 28  1  0  0  0  0
 23 27  1  0  0  0  0
 24 28  1  6  0  0  0
  1 32  1  0  0  0  0
  2 33  1  0  0  0  0
  3 34  1  0  0  0  0
  4 35  1  0  0  0  0
  5 36  1  0  0  0  0
  6 37  1  0  0  0  0
  7 38  1  0  0  0  0
  8 39  1  0  0  0  0
  9 40  1  0  0  0  0
 18 41  1  0  0  0  0
 18 42  1  0  0  0  0
 19 43  1  0  0  0  0
 19 44  1  0  0  0  0
 20 45  1  0  0  0  0
 20 46  1  0  0  0  0
 21 47  1  0  0  0  0
 21 48  1  0  0  0  0
 23 49  1  0  0  0  0
 23 50  1  0  0  0  0
 23 51  1  0  0  0  0
 24 52  1  0  0  0  0
 24 53  1  0  0  0  0
 27 54  1  0  0  0  0
 28 55  1  0  0  0  0
M  CHG  1  28   1
M  END
> <compound>
MAT-POS-c7726e07-5

> <compound_smiles>
CNC(=O)CN1Cc2ccc(cc2[C@]3(C1)CCN(C3=O)c4cncc5c4cccc5)Cl

> <enantiomer_smiles>
CNC(=O)C[N@]1Cc2ccc(cc2[C@]3(C1)CCN(C3=O)c4cncc5c4cccc5)Cl

> <scaffold>
tetrahydroisoquinoline-5spiro-isoquinoline

> <clash_score>
0

> <docking_score>
-9.191813468933105

> <overlap_score>
0.9771237373352051

> <MMFF_internal_energy>
174.35559903012003

> <docked_smiles>
CNC(=O)C[N@H+]1Cc2ccc(cc2[C@]3(C1)CCN(C3=O)c4cncc5c4cccc5)Cl

$$$$
EDJ-MED-3656d29d-1_1
  -OEChem-12272114573D

 59 63  0     1  0  0  0  0  0999 V2000
    3.3432    2.6279   20.4411 C   0  0  0  0  0  0  0  0  0  0  0  0
    3.7865    2.4205   19.1660 C   0  0  0  0  0  0  0  0  0  0  0  0
   12.0765    0.0316   24.1541 C   0  0  0  0  0  0  0  0  0  0  0  0
    3.8960    1.9291   21.5050 C   0  0  0  0  0  0  0  0  0  0  0  0
   12.9132   -0.6032   23.2569 C   0  0  0  0  0  0  0  0  0  0  0  0
   10.9991   -1.4331   22.0443 C   0  0  0  0  0  0  0  0  0  0  0  0
    5.3278    1.2339   17.6066 C   0  0  0  0  0  0  0  0  0  0  0  0
    6.8438   -0.2892   18.3752 C   0  0  0  0  0  0  0  0  0  0  0  0
    4.8226    1.4906   18.9054 C   0  0  0  0  0  0  0  0  0  0  0  0
    5.3982    0.7733   19.9948 C   0  0  0  0  0  0  0  0  0  0  0  0
   10.7040   -0.0625   23.9898 C   0  0  0  0  0  0  0  0  0  0  0  0
   10.1406   -0.7765   22.9250 C   0  0  0  0  0  0  0  0  0  0  0  0
    4.8973    1.0233   21.2988 C   0  0  0  0  0  0  0  0  0  0  0  0
    6.4440   -0.1472   19.6979 C   0  0  0  0  0  0  0  0  0  0  0  0
   12.3683   -1.3298   22.2234 C   0  0  0  0  0  0  0  0  0  0  0  0
    7.4229    2.9356   23.5303 C   0  0  0  0  0  0  0  0  0  0  0  0
    9.9479    0.5589   24.9534 C   0  0  0  0  0  0  0  0  0  0  0  0
    8.0140   -2.1541   22.4331 C   0  0  0  0  0  0  0  0  0  0  0  0
    6.9866   -1.9366   21.3580 C   0  0  0  0  0  0  0  0  0  0  0  0
    8.2490    0.0169   21.4271 C   0  0  0  0  0  0  0  0  0  0  0  0
    7.8721   -0.1194   23.8831 C   0  0  0  0  0  0  0  0  0  0  0  0
    8.6238   -0.7606   22.6929 C   0  0  3  0  0  0  0  0  0  0  0  0
    5.4160    0.3280   22.5248 C   0  0  0  0  0  0  0  0  0  0  0  0
    6.3497    4.9222   22.5109 C   0  0  0  0  0  0  0  0  0  0  0  0
    8.7390    2.2003   23.5654 C   0  0  0  0  0  0  0  0  0  0  0  0
    6.3062    0.3769   17.3421 N   0  0  0  0  0  0  0  0  0  0  0  0
    7.2292   -0.6897   20.7790 N   0  0  2  0  0  0  0  0  0  0  0  0
    7.4845    4.0527   22.7108 N   0  0  0  0  0  0  0  0  0  0  0  0
    8.6609    1.0133   24.4995 N   0  3  1  0  0  0  0  0  0  0  0  0
    6.4309    2.5724   24.1567 O   0  0  0  0  0  0  0  0  0  0  0  0
   13.4288   -2.1417   21.1113 Cl  0  0  0  0  0  0  0  0  0  0  0  0
    2.5417    3.3496   20.6364 H   0  0  0  0  0  0  0  0  0  0  0  0
    3.3404    2.9742   18.3366 H   0  0  0  0  0  0  0  0  0  0  0  0
   12.5035    0.5994   24.9721 H   0  0  0  0  0  0  0  0  0  0  0  0
    3.5080    2.1238   22.5126 H   0  0  0  0  0  0  0  0  0  0  0  0
   13.9917   -0.5157   23.3780 H   0  0  0  0  0  0  0  0  0  0  0  0
   10.6213   -2.0218   21.2261 H   0  0  0  0  0  0  0  0  0  0  0  0
    4.9135    1.7509   16.7475 H   0  0  0  0  0  0  0  0  0  0  0  0
    7.6452   -0.9751   18.1031 H   0  0  0  0  0  0  0  0  0  0  0  0
    9.7395   -0.1080   25.8263 H   0  0  0  0  0  0  0  0  0  0  0  0
   10.4762    1.4566   25.3602 H   0  0  0  0  0  0  0  0  0  0  0  0
    7.5115   -2.5252   23.3382 H   0  0  0  0  0  0  0  0  0  0  0  0
    8.7584   -2.9064   22.1412 H   0  0  0  0  0  0  0  0  0  0  0  0
    7.0396   -2.7510   20.5913 H   0  0  0  0  0  0  0  0  0  0  0  0
    5.9564   -2.0157   21.7927 H   0  0  0  0  0  0  0  0  0  0  0  0
    7.8788    1.0371   21.6884 H   0  0  0  0  0  0  0  0  0  0  0  0
    9.1360    0.1903   20.7693 H   0  0  0  0  0  0  0  0  0  0  0  0
    6.8905    0.2924   23.5812 H   0  0  0  0  0  0  0  0  0  0  0  0
    7.6902   -0.8570   24.6855 H   0  0  0  0  0  0  0  0  0  0  0  0
    4.8444   -0.5876   22.7075 H   0  0  0  0  0  0  0  0  0  0  0  0
    6.4752    0.0682   22.4211 H   0  0  0  0  0  0  0  0  0  0  0  0
    5.3279    0.9801   23.4008 H   0  0  0  0  0  0  0  0  0  0  0  0
    5.7771    4.5831   21.6351 H   0  0  0  0  0  0  0  0  0  0  0  0
    5.7060    4.8956   23.4025 H   0  0  0  0  0  0  0  0  0  0  0  0
    6.7013    5.9510   22.3431 H   0  0  0  0  0  0  0  0  0  0  0  0
    9.5313    2.8516   23.9448 H   0  0  0  0  0  0  0  0  0  0  0  0
    8.9948    1.8301   22.5687 H   0  0  0  0  0  0  0  0  0  0  0  0
    8.3583    4.2891   22.2495 H   0  0  0  0  0  0  0  0  0  0  0  0
    8.1115    1.3465   25.3132 H   0  0  0  0  0  0  0  0  0  0  0  0
  1  2  1  0  0  0  0
  1  4  2  0  0  0  0
  2  9  2  0  0  0  0
  3  5  1  0  0  0  0
  3 11  2  0  0  0  0
  4 13  1  0  0  0  0
  5 15  2  0  0  0  0
  6 12  2  0  0  0  0
  6 15  1  0  0  0  0
  7  9  1  0  0  0  0
  7 26  2  0  0  0  0
  8 14  2  0  0  0  0
  8 26  1  0  0  0  0
  9 10  1  0  0  0  0
 10 13  2  0  0  0  0
 10 14  1  0  0  0  0
 11 12  1  0  0  0  0
 11 17  1  0  0  0  0
 12 22  1  0  0  0  0
 13 23  1  0  0  0  0
 14 27  1  1  0  0  0
 15 31  1  0  0  0  0
 16 25  1  0  0  0  0
 16 28  1  0  0  0  0
 16 30  2  0  0  0  0
 17 29  1  0  0  0  0
 18 19  1  0  0  0  0
 18 22  1  0  0  0  0
 19 27  1  0  0  0  0
 20 22  1  0  0  0  0
 20 27  1  0  0  0  0
 21 22  1  0  0  0  0
 21 29  1  0  0  0  0
 24 28  1  0  0  0  0
 25 29  1  1  0  0  0
  1 32  1  0  0  0  0
  2 33  1  0  0  0  0
  3 34  1  0  0  0  0
  4 35  1  0  0  0  0
  5 36  1  0  0  0  0
  6 37  1  0  0  0  0
  7 38  1  0  0  0  0
  8 39  1  0  0  0  0
 17 40  1  0  0  0  0
 17 41  1  0  0  0  0
 18 42  1  0  0  0  0
 18 43  1  0  0  0  0
 19 44  1  0  0  0  0
 19 45  1  0  0  0  0
 20 46  1  0  0  0  0
 20 47  1  0  0  0  0
 21 48  1  0  0  0  0
 21 49  1  0  0  0  0
 23 50  1  0  0  0  0
 23 51  1  0  0  0  0
 23 52  1  0  0  0  0
 24 53  1  0  0  0  0
 24 54  1  0  0  0  0
 24 55  1  0  0  0  0
 25 56  1  0  0  0  0
 25 57  1  0  0  0  0
 28 58  1  0  0  0  0
 29 59  1  0  0  0  0
M  CHG  1  29   1
M  END
> <compound>
EDJ-MED-3656d29d-1

> <compound_smiles>
Cc1cccc2c1c(cnc2)N3CCC4(C3)CN(Cc5c4cc(cc5)Cl)CC(=O)NC

> <enantiomer_smiles>
Cc1cccc2c1c(cnc2)[N@@]3CCC4(C3)C[N@@](Cc5c4cc(cc5)Cl)CC(=O)NC

> <scaffold>
tetrahydroisoquinoline-5spiro-isoquinoline

> <clash_score>
0

> <docking_score>
-9.108660697937012

> <overlap_score>
0.9627062678337097

> <MMFF_internal_energy>
286.5693879970595

> <docked_smiles>
Cc1cccc2c1c(cnc2)N3CC[C@@]4(C3)C[N@@H+](Cc5c4cc(cc5)Cl)CC(=O)NC

$$$$
EDJ-MED-3656d29d-1_4
  -OEChem-12272114573D

 59 63  0     1  0  0  0  0  0999 V2000
    3.3432    2.6279   20.4411 C   0  0  0  0  0  0  0  0  0  0  0  0
    3.7865    2.4205   19.1660 C   0  0  0  0  0  0  0  0  0  0  0  0
   12.0765    0.0316   24.1541 C   0  0  0  0  0  0  0  0  0  0  0  0
    3.8960    1.9291   21.5050 C   0  0  0  0  0  0  0  0  0  0  0  0
   12.9132   -0.6032   23.2569 C   0  0  0  0  0  0  0  0  0  0  0  0
   10.9991   -1.4331   22.0443 C   0  0  0  0  0  0  0  0  0  0  0  0
    5.3278    1.2339   17.6066 C   0  0  0  0  0  0  0  0  0  0  0  0
    6.8438   -0.2892   18.3752 C   0  0  0  0  0  0  0  0  0  0  0  0
    4.8226    1.4906   18.9054 C   0  0  0  0  0  0  0  0  0  0  0  0
    5.3982    0.7733   19.9948 C   0  0  0  0  0  0  0  0  0  0  0  0
   10.7040   -0.0625   23.9898 C   0  0  0  0  0  0  0  0  0  0  0  0
   10.1406   -0.7765   22.9250 C   0  0  0  0  0  0  0  0  0  0  0  0
    4.8973    1.0233   21.2988 C   0  0  0  0  0  0  0  0  0  0  0  0
    6.4440   -0.1472   19.6979 C   0  0  0  0  0  0  0  0  0  0  0  0
   12.3683   -1.3298   22.2234 C   0  0  0  0  0  0  0  0  0  0  0  0
    6.7877    2.6072   24.9943 C   0  0  0  0  0  0  0  0  0  0  0  0
    9.9479    0.5589   24.9534 C   0  0  0  0  0  0  0  0  0  0  0  0
    8.0140   -2.1541   22.4331 C   0  0  0  0  0  0  0  0  0  0  0  0
    6.9866   -1.9366   21.3580 C   0  0  0  0  0  0  0  0  0  0  0  0
    8.2490    0.0169   21.4271 C   0  0  0  0  0  0  0  0  0  0  0  0
    7.8721   -0.1194   23.8831 C   0  0  0  0  0  0  0  0  0  0  0  0
    8.6238   -0.7606   22.6929 C   0  0  3  0  0  0  0  0  0  0  0  0
    5.4160    0.3280   22.5248 C   0  0  0  0  0  0  0  0  0  0  0  0
    6.5018    4.5971   23.5464 C   0  0  0  0  0  0  0  0  0  0  0  0
    7.8615    1.7196   25.5715 C   0  0  0  0  0  0  0  0  0  0  0  0
    6.3062    0.3769   17.3421 N   0  0  0  0  0  0  0  0  0  0  0  0
    7.2292   -0.6897   20.7790 N   0  0  1  0  0  0  0  0  0  0  0  0
    7.3270    3.6169   24.2114 N   0  0  0  0  0  0  0  0  0  0  0  0
    8.6609    1.0133   24.4995 N   0  3  2  0  0  0  0  0  0  0  0  0
    5.5893    2.4386   25.2032 O   0  0  0  0  0  0  0  0  0  0  0  0
   13.4291   -2.1402   21.1103 Cl  0  0  0  0  0  0  0  0  0  0  0  0
    2.5417    3.3496   20.6364 H   0  0  0  0  0  0  0  0  0  0  0  0
    3.3404    2.9742   18.3366 H   0  0  0  0  0  0  0  0  0  0  0  0
   12.5033    0.5908   24.9780 H   0  0  0  0  0  0  0  0  0  0  0  0
    3.5080    2.1238   22.5126 H   0  0  0  0  0  0  0  0  0  0  0  0
   13.9917   -0.5227   23.3831 H   0  0  0  0  0  0  0  0  0  0  0  0
   10.6217   -2.0195   21.2243 H   0  0  0  0  0  0  0  0  0  0  0  0
    4.9135    1.7509   16.7475 H   0  0  0  0  0  0  0  0  0  0  0  0
    7.6452   -0.9751   18.1031 H   0  0  0  0  0  0  0  0  0  0  0  0
    9.7566   -0.1269   25.8158 H   0  0  0  0  0  0  0  0  0  0  0  0
   10.4536    1.4629   25.3743 H   0  0  0  0  0  0  0  0  0  0  0  0
    7.5763   -2.6112   23.3302 H   0  0  0  0  0  0  0  0  0  0  0  0
    8.7839   -2.8434   22.0568 H   0  0  0  0  0  0  0  0  0  0  0  0
    7.0305   -2.7730   20.6129 H   0  0  0  0  0  0  0  0  0  0  0  0
    5.9525   -1.9849   21.7851 H   0  0  0  0  0  0  0  0  0  0  0  0
    7.9599    1.0715   21.6589 H   0  0  0  0  0  0  0  0  0  0  0  0
    9.1277    0.1015   20.7437 H   0  0  0  0  0  0  0  0  0  0  0  0
    6.9024    0.3025   23.5624 H   0  0  0  0  0  0  0  0  0  0  0  0
    7.6666   -0.8506   24.6876 H   0  0  0  0  0  0  0  0  0  0  0  0
    4.8444   -0.5876   22.7075 H   0  0  0  0  0  0  0  0  0  0  0  0
    6.4752    0.0682   22.4211 H   0  0  0  0  0  0  0  0  0  0  0  0
    5.3279    0.9801   23.4008 H   0  0  0  0  0  0  0  0  0  0  0  0
    6.2560    4.2440   22.5340 H   0  0  0  0  0  0  0  0  0  0  0  0
    5.5740    4.7440   24.1187 H   0  0  0  0  0  0  0  0  0  0  0  0
    7.0465    5.5504   23.4799 H   0  0  0  0  0  0  0  0  0  0  0  0
    7.4171    0.9308   26.1848 H   0  0  0  0  0  0  0  0  0  0  0  0
    8.5664    2.3105   26.1629 H   0  0  0  0  0  0  0  0  0  0  0  0
    8.3355    3.6925   24.1145 H   0  0  0  0  0  0  0  0  0  0  0  0
    8.7941    1.7203   23.7530 H   0  0  0  0  0  0  0  0  0  0  0  0
  1  2  1  0  0  0  0
  1  4  2  0  0  0  0
  2  9  2  0  0  0  0
  3  5  1  0  0  0  0
  3 11  2  0  0  0  0
  4 13  1  0  0  0  0
  5 15  2  0  0  0  0
  6 12  2  0  0  0  0
  6 15  1  0  0  0  0
  7  9  1  0  0  0  0
  7 26  2  0  0  0  0
  8 14  2  0  0  0  0
  8 26  1  0  0  0  0
  9 10  1  0  0  0  0
 10 13  2  0  0  0  0
 10 14  1  0  0  0  0
 11 12  1  0  0  0  0
 11 17  1  0  0  0  0
 12 22  1  0  0  0  0
 13 23  1  0  0  0  0
 14 27  1  6  0  0  0
 15 31  1  0  0  0  0
 16 25  1  0  0  0  0
 16 28  1  0  0  0  0
 16 30  2  0  0  0  0
 17 29  1  0  0  0  0
 18 19  1  0  0  0  0
 18 22  1  0  0  0  0
 19 27  1  0  0  0  0
 20 22  1  0  0  0  0
 20 27  1  0  0  0  0
 21 22  1  0  0  0  0
 21 29  1  0  0  0  0
 24 28  1  0  0  0  0
 25 29  1  6  0  0  0
  1 32  1  0  0  0  0
  2 33  1  0  0  0  0
  3 34  1  0  0  0  0
  4 35  1  0  0  0  0
  5 36  1  0  0  0  0
  6 37  1  0  0  0  0
  7 38  1  0  0  0  0
  8 39  1  0  0  0  0
 17 40  1  0  0  0  0
 17 41  1  0  0  0  0
 18 42  1  0  0  0  0
 18 43  1  0  0  0  0
 19 44  1  0  0  0  0
 19 45  1  0  0  0  0
 20 46  1  0  0  0  0
 20 47  1  0  0  0  0
 21 48  1  0  0  0  0
 21 49  1  0  0  0  0
 23 50  1  0  0  0  0
 23 51  1  0  0  0  0
 23 52  1  0  0  0  0
 24 53  1  0  0  0  0
 24 54  1  0  0  0  0
 24 55  1  0  0  0  0
 25 56  1  0  0  0  0
 25 57  1  0  0  0  0
 28 58  1  0  0  0  0
 29 59  1  0  0  0  0
M  CHG  1  29   1
M  END
> <compound>
EDJ-MED-3656d29d-1

> <compound_smiles>
Cc1cccc2c1c(cnc2)N3CCC4(C3)CN(Cc5c4cc(cc5)Cl)CC(=O)NC

> <enantiomer_smiles>
Cc1cccc2c1c(cnc2)[N@]3CCC4(C3)C[N@](Cc5c4cc(cc5)Cl)CC(=O)NC

> <scaffold>
tetrahydroisoquinoline-5spiro-isoquinoline

> <clash_score>
0

> <docking_score>
-8.654059410095215

> <overlap_score>
0.9600729942321777

> <MMFF_internal_energy>
279.3126406915398

> <docked_smiles>
Cc1cccc2c1c(cnc2)N3CC[C@@]4(C3)C[N@H+](Cc5c4cc(cc5)Cl)CC(=O)NC

$$$$
MAT-POS-c7726e07-5_1
  -OEChem-12272114573D

 55 59  0     1  0  0  0  0  0999 V2000
    3.3432    2.6279   20.4411 C   0  0  0  0  0  0  0  0  0  0  0  0
    3.8960    1.9291   21.5050 C   0  0  0  0  0  0  0  0  0  0  0  0
    3.7865    2.4205   19.1660 C   0  0  0  0  0  0  0  0  0  0  0  0
    4.8973    1.0233   21.2988 C   0  0  0  0  0  0  0  0  0  0  0  0
   12.0765    0.0316   24.1541 C   0  0  0  0  0  0  0  0  0  0  0  0
   12.9132   -0.6032   23.2569 C   0  0  0  0  0  0  0  0  0  0  0  0
   10.9991   -1.4331   22.0443 C   0  0  0  0  0  0  0  0  0  0  0  0
    5.3278    1.2339   17.6066 C   0  0  0  0  0  0  0  0  0  0  0  0
    6.8438   -0.2892   18.3752 C   0  0  0  0  0  0  0  0  0  0  0  0
    4.8226    1.4906   18.9054 C   0  0  0  0  0  0  0  0  0  0  0  0
    5.3982    0.7733   19.9948 C   0  0  0  0  0  0  0  0  0  0  0  0
   10.7040   -0.0625   23.9898 C   0  0  0  0  0  0  0  0  0  0  0  0
   10.1406   -0.7765   22.9250 C   0  0  0  0  0  0  0  0  0  0  0  0
    6.4440   -0.1472   19.6979 C   0  0  0  0  0  0  0  0  0  0  0  0
   12.3683   -1.3298   22.2234 C   0  0  0  0  0  0  0  0  0  0  0  0
    8.2490    0.0169   21.4271 C   0  0  0  0  0  0  0  0  0  0  0  0
    7.3809    2.6706   23.1119 C   0  0  0  0  0  0  0  0  0  0  0  0
    9.9479    0.5589   24.9534 C   0  0  0  0  0  0  0  0  0  0  0  0
    8.0140   -2.1541   22.4331 C   0  0  0  0  0  0  0  0  0  0  0  0
    6.9866   -1.9366   21.3580 C   0  0  0  0  0  0  0  0  0  0  0  0
    7.8721   -0.1194   23.8831 C   0  0  0  0  0  0  0  0  0  0  0  0
    8.6238   -0.7606   22.6929 C   0  0  2  0  0  0  0  0  0  0  0  0
    6.3084    4.4172   21.7203 C   0  0  0  0  0  0  0  0  0  0  0  0
    8.7407    2.1970   23.5599 C   0  0  0  0  0  0  0  0  0  0  0  0
    6.3062    0.3769   17.3421 N   0  0  0  0  0  0  0  0  0  0  0  0
    7.2292   -0.6897   20.7790 N   0  0  0  0  0  0  0  0  0  0  0  0
    7.4743    3.7779   22.2822 N   0  0  0  0  0  0  0  0  0  0  0  0
    8.6609    1.0133   24.4995 N   0  3  2  0  0  0  0  0  0  0  0  0
    8.7579    1.0933   21.1338 O   0  0  0  0  0  0  0  0  0  0  0  0
    6.3326    2.1276   23.4506 O   0  0  0  0  0  0  0  0  0  0  0  0
   13.4271   -2.1421   21.1093 Cl  0  0  0  0  0  0  0  0  0  0  0  0
    2.5432    3.3510   20.6369 H   0  0  0  0  0  0  0  0  0  0  0  0
    3.5174    2.1137   22.5168 H   0  0  0  0  0  0  0  0  0  0  0  0
    3.3409    2.9743   18.3364 H   0  0  0  0  0  0  0  0  0  0  0  0
    5.3118    0.4895   22.1572 H   0  0  0  0  0  0  0  0  0  0  0  0
   12.5020    0.5946   24.9767 H   0  0  0  0  0  0  0  0  0  0  0  0
   13.9911   -0.5207   23.3813 H   0  0  0  0  0  0  0  0  0  0  0  0
   10.6043   -2.0219   21.2284 H   0  0  0  0  0  0  0  0  0  0  0  0
    4.9141    1.7511   16.7474 H   0  0  0  0  0  0  0  0  0  0  0  0
    7.6445   -0.9764   18.1043 H   0  0  0  0  0  0  0  0  0  0  0  0
    9.7385   -0.1133   25.8250 H   0  0  0  0  0  0  0  0  0  0  0  0
   10.4773    1.4543   25.3712 H   0  0  0  0  0  0  0  0  0  0  0  0
    7.5776   -2.6117   23.3317 H   0  0  0  0  0  0  0  0  0  0  0  0
    8.7734   -2.8616   22.0643 H   0  0  0  0  0  0  0  0  0  0  0  0
    7.0224   -2.7504   20.5951 H   0  0  0  0  0  0  0  0  0  0  0  0
    5.9556   -1.9471   21.7834 H   0  0  0  0  0  0  0  0  0  0  0  0
    6.8958    0.3002   23.5784 H   0  0  0  0  0  0  0  0  0  0  0  0
    7.6736   -0.8519   24.6845 H   0  0  0  0  0  0  0  0  0  0  0  0
    6.0843    3.9746   20.7385 H   0  0  0  0  0  0  0  0  0  0  0  0
    5.4503    4.2709   22.3928 H   0  0  0  0  0  0  0  0  0  0  0  0
    6.5019    5.4935   21.6016 H   0  0  0  0  0  0  0  0  0  0  0  0
    9.2585    2.9868   24.1113 H   0  0  0  0  0  0  0  0  0  0  0  0
    9.3360    1.8802   22.6990 H   0  0  0  0  0  0  0  0  0  0  0  0
    8.3865    4.1743   22.0751 H   0  0  0  0  0  0  0  0  0  0  0  0
    8.1121    1.3501   25.3124 H   0  0  0  0  0  0  0  0  0  0  0  0
  1  2  1  0  0  0  0
  1  3  2  0  0  0  0
  2  4  2  0  0  0  0
  3 10  1  0  0  0  0
  4 11  1  0  0  0  0
  5  6  2  0  0  0  0
  5 12  1  0  0  0  0
  6 15  1  0  0  0  0
  7 13  1  0  0  0  0
  7 15  2  0  0  0  0
  8 10  2  0  0  0  0
  8 25  1  0  0  0  0
  9 14  1  0  0  0  0
  9 25  2  0  0  0  0
 10 11  1  0  0  0  0
 11 14  2  0  0  0  0
 12 13  2  0  0  0  0
 12 18  1  0  0  0  0
 13 22  1  6  0  0  0
 14 26  1  0  0  0  0
 15 31  1  0  0  0  0
 16 22  1  1  0  0  0
 16 26  1  0  0  0  0
 16 29  2  0  0  0  0
 17 24  1  0  0  0  0
 17 27  1  0  0  0  0
 17 30  2  0  0  0  0
 18 28  1  0  0  0  0
 19 20  1  0  0  0  0
 19 22  1  1  0  0  0
 20 26  1  0  0  0  0
 21 22  1  6  0  0  0
 21 28  1  0  0  0  0
 23 27  1  0  0  0  0
 24 28  1  1  0  0  0
  1 32  1  0  0  0  0
  2 33  1  0  0  0  0
  3 34  1  0  0  0  0
  4 35  1  0  0  0  0
  5 36  1  0  0  0  0
  6 37  1  0  0  0  0
  7 38  1  0  0  0  0
  8 39  1  0  0  0  0
  9 40  1  0  0  0  0
 18 41  1  0  0  0  0
 18 42  1  0  0  0  0
 19 43  1  0  0  0  0
 19 44  1  0  0  0  0
 20 45  1  0  0  0  0
 20 46  1  0  0  0  0
 21 47  1  0  0  0  0
 21 48  1  0  0  0  0
 23 49  1  0  0  0  0
 23 50  1  0  0  0  0
 23 51  1  0  0  0  0
 24 52  1  0  0  0  0
 24 53  1  0  0  0  0
 27 54  1  0  0  0  0
 28 55  1  0  0  0  0
M  CHG  1  28   1
M  END
> <compound>
MAT-POS-c7726e07-5

> <compound_smiles>
CNC(=O)CN1Cc2ccc(cc2[C@]3(C1)CCN(C3=O)c4cncc5c4cccc5)Cl

> <enantiomer_smiles>
CNC(=O)C[N@@]1Cc2ccc(cc2[C@]3(C1)CCN(C3=O)c4cncc5c4cccc5)Cl

> <scaffold>
tetrahydroisoquinoline-5spiro-isoquinoline

> <clash_score>
0

> <docking_score>
-9.899530410766602

> <overlap_score>
0.9816420674324036

> <MMFF_internal_energy>
169.04561469915183

> <docked_smiles>
CNC(=O)C[N@@H+]1Cc2ccc(cc2[C@]3(C1)CCN(C3=O)c4cncc5c4cccc5)Cl

$$$$
MAT-POS-c7726e07-6_1
  -OEChem-12272114573D

 55 59  0     1  0  0  0  0  0999 V2000
    3.3432    2.6279   20.4411 C   0  0  0  0  0  0  0  0  0  0  0  0
    3.8960    1.9291   21.5050 C   0  0  0  0  0  0  0  0  0  0  0  0
    3.7865    2.4205   19.1660 C   0  0  0  0  0  0  0  0  0  0  0  0
    4.8973    1.0233   21.2988 C   0  0  0  0  0  0  0  0  0  0  0  0
   12.0765    0.0316   24.1541 C   0  0  0  0  0  0  0  0  0  0  0  0
   12.9132   -0.6032   23.2569 C   0  0  0  0  0  0  0  0  0  0  0  0
   10.9991   -1.4331   22.0443 C   0  0  0  0  0  0  0  0  0  0  0  0
    5.3278    1.2339   17.6066 C   0  0  0  0  0  0  0  0  0  0  0  0
    6.8438   -0.2892   18.3752 C   0  0  0  0  0  0  0  0  0  0  0  0
    4.8226    1.4906   18.9054 C   0  0  0  0  0  0  0  0  0  0  0  0
    5.3982    0.7733   19.9948 C   0  0  0  0  0  0  0  0  0  0  0  0
   10.7040   -0.0625   23.9898 C   0  0  0  0  0  0  0  0  0  0  0  0
   10.1406   -0.7765   22.9250 C   0  0  0  0  0  0  0  0  0  0  0  0
    6.4440   -0.1472   19.6979 C   0  0  0  0  0  0  0  0  0  0  0  0
   12.3683   -1.3298   22.2234 C   0  0  0  0  0  0  0  0  0  0  0  0
    8.2490    0.0169   21.4271 C   0  0  0  0  0  0  0  0  0  0  0  0
    7.4305    2.9384   23.5075 C   0  0  0  0  0  0  0  0  0  0  0  0
    9.9479    0.5589   24.9534 C   0  0  0  0  0  0  0  0  0  0  0  0
    8.0140   -2.1541   22.4331 C   0  0  0  0  0  0  0  0  0  0  0  0
    6.9866   -1.9366   21.3580 C   0  0  0  0  0  0  0  0  0  0  0  0
    7.8721   -0.1194   23.8831 C   0  0  0  0  0  0  0  0  0  0  0  0
    8.6238   -0.7606   22.6929 C   0  0  1  0  0  0  0  0  0  0  0  0
    6.3783    4.9289   22.4740 C   0  0  0  0  0  0  0  0  0  0  0  0
    8.7427    2.1970   23.5584 C   0  0  0  0  0  0  0  0  0  0  0  0
    6.3062    0.3769   17.3421 N   0  0  0  0  0  0  0  0  0  0  0  0
    7.2292   -0.6897   20.7790 N   0  0  0  0  0  0  0  0  0  0  0  0
    7.5067    4.0544   22.6877 N   0  0  0  0  0  0  0  0  0  0  0  0
    8.6609    1.0133   24.4995 N   0  3  2  0  0  0  0  0  0  0  0  0
    8.8277    1.0405   21.0794 O   0  0  0  0  0  0  0  0  0  0  0  0
    6.4297    2.5804   24.1227 O   0  0  0  0  0  0  0  0  0  0  0  0
   13.4283   -2.1462   21.1136 Cl  0  0  0  0  0  0  0  0  0  0  0  0
    2.5432    3.3510   20.6369 H   0  0  0  0  0  0  0  0  0  0  0  0
    3.5174    2.1137   22.5168 H   0  0  0  0  0  0  0  0  0  0  0  0
    3.3409    2.9743   18.3364 H   0  0  0  0  0  0  0  0  0  0  0  0
    5.3118    0.4895   22.1572 H   0  0  0  0  0  0  0  0  0  0  0  0
   12.5030    0.5858   24.9823 H   0  0  0  0  0  0  0  0  0  0  0  0
   13.9914   -0.5292   23.3877 H   0  0  0  0  0  0  0  0  0  0  0  0
   10.6123   -2.0320   21.2348 H   0  0  0  0  0  0  0  0  0  0  0  0
    4.9141    1.7511   16.7474 H   0  0  0  0  0  0  0  0  0  0  0  0
    7.6445   -0.9764   18.1043 H   0  0  0  0  0  0  0  0  0  0  0  0
    9.7363   -0.1174   25.8246 H   0  0  0  0  0  0  0  0  0  0  0  0
   10.4778    1.4523   25.3824 H   0  0  0  0  0  0  0  0  0  0  0  0
    7.5127   -2.5729   23.3177 H   0  0  0  0  0  0  0  0  0  0  0  0
    8.7695   -2.8989   22.1381 H   0  0  0  0  0  0  0  0  0  0  0  0
    7.0569   -2.7254   20.5714 H   0  0  0  0  0  0  0  0  0  0  0  0
    5.9507   -1.9958   21.7714 H   0  0  0  0  0  0  0  0  0  0  0  0
    6.9003    0.3068   23.5771 H   0  0  0  0  0  0  0  0  0  0  0  0
    7.6830   -0.8453   24.6921 H   0  0  0  0  0  0  0  0  0  0  0  0
    5.8142    4.5916   21.5919 H   0  0  0  0  0  0  0  0  0  0  0  0
    5.7242    4.9061   23.3581 H   0  0  0  0  0  0  0  0  0  0  0  0
    6.7365    5.9558   22.3092 H   0  0  0  0  0  0  0  0  0  0  0  0
    9.5336    2.8451   23.9463 H   0  0  0  0  0  0  0  0  0  0  0  0
    9.0083    1.8248   22.5650 H   0  0  0  0  0  0  0  0  0  0  0  0
    8.3868    4.2863   22.2362 H   0  0  0  0  0  0  0  0  0  0  0  0
    8.1069    1.3498   25.3118 H   0  0  0  0  0  0  0  0  0  0  0  0
  1  2  1  0  0  0  0
  1  3  2  0  0  0  0
  2  4  2  0  0  0  0
  3 10  1  0  0  0  0
  4 11  1  0  0  0  0
  5  6  2  0  0  0  0
  5 12  1  0  0  0  0
  6 15  1  0  0  0  0
  7 13  1  0  0  0  0
  7 15  2  0  0  0  0
  8 10  2  0  0  0  0
  8 25  1  0  0  0  0
  9 14  1  0  0  0  0
  9 25  2  0  0  0  0
 10 11  1  0  0  0  0
 11 14  2  0  0  0  0
 12 13  2  0  0  0  0
 12 18  1  0  0  0  0
 13 22  1  1  0  0  0
 14 26  1  0  0  0  0
 15 31  1  0  0  0  0
 16 22  1  6  0  0  0
 16 26  1  0  0  0  0
 16 29  2  0  0  0  0
 17 24  1  0  0  0  0
 17 27  1  0  0  0  0
 17 30  2  0  0  0  0
 18 28  1  0  0  0  0
 19 20  1  0  0  0  0
 19 22  1  6  0  0  0
 20 26  1  0  0  0  0
 21 22  1  1  0  0  0
 21 28  1  0  0  0  0
 23 27  1  0  0  0  0
 24 28  1  1  0  0  0
  1 32  1  0  0  0  0
  2 33  1  0  0  0  0
  3 34  1  0  0  0  0
  4 35  1  0  0  0  0
  5 36  1  0  0  0  0
  6 37  1  0  0  0  0
  7 38  1  0  0  0  0
  8 39  1  0  0  0  0
  9 40  1  0  0  0  0
 18 41  1  0  0  0  0
 18 42  1  0  0  0  0
 19 43  1  0  0  0  0
 19 44  1  0  0  0  0
 20 45  1  0  0  0  0
 20 46  1  0  0  0  0
 21 47  1  0  0  0  0
 21 48  1  0  0  0  0
 23 49  1  0  0  0  0
 23 50  1  0  0  0  0
 23 51  1  0  0  0  0
 24 52  1  0  0  0  0
 24 53  1  0  0  0  0
 27 54  1  0  0  0  0
 28 55  1  0  0  0  0
M  CHG  1  28   1
M  END
> <compound>
MAT-POS-c7726e07-6

> <compound_smiles>
CNC(=O)CN1Cc2ccc(cc2[C@@]3(C1)CCN(C3=O)c4cncc5c4cccc5)Cl

> <enantiomer_smiles>
CNC(=O)C[N@@]1Cc2ccc(cc2[C@@]3(C1)CCN(C3=O)c4cncc5c4cccc5)Cl

> <scaffold>
tetrahydroisoquinoline-5spiro-isoquinoline

> <clash_score>
0

> <docking_score>
-9.634536743164062

> <overlap_score>
0.9793747663497925

> <MMFF_internal_energy>
169.07138437585914

> <docked_smiles>
CNC(=O)C[N@@H+]1Cc2ccc(cc2[C@]3(C1)CCN(C3=O)c4cncc5c4cccc5)Cl

$$$$
LUO-POS-868e8996-12_1
  -OEChem-12272114573D

 55 59  0     1  0  0  0  0  0999 V2000
    3.3432    2.6279   20.4411 C   0  0  0  0  0  0  0  0  0  0  0  0
    3.8960    1.9291   21.5050 C   0  0  0  0  0  0  0  0  0  0  0  0
    3.7865    2.4205   19.1660 C   0  0  0  0  0  0  0  0  0  0  0  0
    4.8973    1.0233   21.2988 C   0  0  0  0  0  0  0  0  0  0  0  0
   12.0765    0.0316   24.1541 C   0  0  0  0  0  0  0  0  0  0  0  0
   12.9132   -0.6032   23.2569 C   0  0  0  0  0  0  0  0  0  0  0  0
   10.9991   -1.4331   22.0443 C   0  0  0  0  0  0  0  0  0  0  0  0
    5.3278    1.2339   17.6066 C   0  0  0  0  0  0  0  0  0  0  0  0
    6.8438   -0.2892   18.3752 C   0  0  0  0  0  0  0  0  0  0  0  0
    4.8226    1.4906   18.9054 C   0  0  0  0  0  0  0  0  0  0  0  0
    5.3982    0.7733   19.9948 C   0  0  0  0  0  0  0  0  0  0  0  0
   10.7040   -0.0625   23.9898 C   0  0  0  0  0  0  0  0  0  0  0  0
   10.1406   -0.7765   22.9250 C   0  0  0  0  0  0  0  0  0  0  0  0
    6.4440   -0.1472   19.6979 C   0  0  0  0  0  0  0  0  0  0  0  0
   12.3683   -1.3298   22.2234 C   0  0  0  0  0  0  0  0  0  0  0  0
    8.2490    0.0169   21.4271 C   0  0  0  0  0  0  0  0  0  0  0  0
    7.4305    2.9384   23.5075 C   0  0  0  0  0  0  0  0  0  0  0  0
    9.9479    0.5589   24.9534 C   0  0  0  0  0  0  0  0  0  0  0  0
    8.0140   -2.1541   22.4331 C   0  0  0  0  0  0  0  0  0  0  0  0
    6.9866   -1.9366   21.3580 C   0  0  0  0  0  0  0  0  0  0  0  0
    7.8721   -0.1194   23.8831 C   0  0  0  0  0  0  0  0  0  0  0  0
    8.6238   -0.7606   22.6929 C   0  0  1  0  0  0  0  0  0  0  0  0
    6.3783    4.9289   22.4740 C   0  0  0  0  0  0  0  0  0  0  0  0
    8.7427    2.1970   23.5584 C   0  0  0  0  0  0  0  0  0  0  0  0
    6.3062    0.3769   17.3421 N   0  0  0  0  0  0  0  0  0  0  0  0
    7.2292   -0.6897   20.7790 N   0  0  0  0  0  0  0  0  0  0  0  0
    7.5067    4.0544   22.6877 N   0  0  0  0  0  0  0  0  0  0  0  0
    8.6609    1.0133   24.4995 N   0  3  2  0  0  0  0  0  0  0  0  0
    8.8277    1.0405   21.0794 O   0  0  0  0  0  0  0  0  0  0  0  0
    6.4297    2.5804   24.1227 O   0  0  0  0  0  0  0  0  0  0  0  0
   13.4283   -2.1462   21.1136 Cl  0  0  0  0  0  0  0  0  0  0  0  0
    2.5432    3.3510   20.6369 H   0  0  0  0  0  0  0  0  0  0  0  0
    3.5174    2.1137   22.5168 H   0  0  0  0  0  0  0  0  0  0  0  0
    3.3409    2.9743   18.3364 H   0  0  0  0  0  0  0  0  0  0  0  0
    5.3118    0.4895   22.1572 H   0  0  0  0  0  0  0  0  0  0  0  0
   12.5030    0.5858   24.9823 H   0  0  0  0  0  0  0  0  0  0  0  0
   13.9914   -0.5292   23.3877 H   0  0  0  0  0  0  0  0  0  0  0  0
   10.6123   -2.0320   21.2348 H   0  0  0  0  0  0  0  0  0  0  0  0
    4.9141    1.7511   16.7474 H   0  0  0  0  0  0  0  0  0  0  0  0
    7.6445   -0.9764   18.1043 H   0  0  0  0  0  0  0  0  0  0  0  0
    9.7363   -0.1174   25.8246 H   0  0  0  0  0  0  0  0  0  0  0  0
   10.4778    1.4523   25.3824 H   0  0  0  0  0  0  0  0  0  0  0  0
    7.5127   -2.5729   23.3177 H   0  0  0  0  0  0  0  0  0  0  0  0
    8.7695   -2.8989   22.1381 H   0  0  0  0  0  0  0  0  0  0  0  0
    7.0569   -2.7254   20.5714 H   0  0  0  0  0  0  0  0  0  0  0  0
    5.9507   -1.9958   21.7714 H   0  0  0  0  0  0  0  0  0  0  0  0
    6.9003    0.3068   23.5771 H   0  0  0  0  0  0  0  0  0  0  0  0
    7.6830   -0.8453   24.6921 H   0  0  0  0  0  0  0  0  0  0  0  0
    5.8142    4.5916   21.5919 H   0  0  0  0  0  0  0  0  0  0  0  0
    5.7242    4.9061   23.3581 H   0  0  0  0  0  0  0  0  0  0  0  0
    6.7365    5.9558   22.3092 H   0  0  0  0  0  0  0  0  0  0  0  0
    9.5336    2.8451   23.9463 H   0  0  0  0  0  0  0  0  0  0  0  0
    9.0083    1.8248   22.5650 H   0  0  0  0  0  0  0  0  0  0  0  0
    8.3868    4.2863   22.2362 H   0  0  0  0  0  0  0  0  0  0  0  0
    8.1069    1.3498   25.3118 H   0  0  0  0  0  0  0  0  0  0  0  0
  1  2  1  0  0  0  0
  1  3  2  0  0  0  0
  2  4  2  0  0  0  0
  3 10  1  0  0  0  0
  4 11  1  0  0  0  0
  5  6  2  0  0  0  0
  5 12  1  0  0  0  0
  6 15  1  0  0  0  0
  7 13  1  0  0  0  0
  7 15  2  0  0  0  0
  8 10  2  0  0  0  0
  8 25  1  0  0  0  0
  9 14  1  0  0  0  0
  9 25  2  0  0  0  0
 10 11  1  0  0  0  0
 11 14  2  0  0  0  0
 12 13  2  0  0  0  0
 12 18  1  0  0  0  0
 13 22  1  1  0  0  0
 14 26  1  0  0  0  0
 15 31  1  0  0  0  0
 16 22  1  6  0  0  0
 16 26  1  0  0  0  0
 16 29  2  0  0  0  0
 17 24  1  0  0  0  0
 17 27  1  0  0  0  0
 17 30  2  0  0  0  0
 18 28  1  0  0  0  0
 19 20  1  0  0  0  0
 19 22  1  6  0  0  0
 20 26  1  0  0  0  0
 21 22  1  1  0  0  0
 21 28  1  0  0  0  0
 23 27  1  0  0  0  0
 24 28  1  1  0  0  0
  1 32  1  0  0  0  0
  2 33  1  0  0  0  0
  3 34  1  0  0  0  0
  4 35  1  0  0  0  0
  5 36  1  0  0  0  0
  6 37  1  0  0  0  0
  7 38  1  0  0  0  0
  8 39  1  0  0  0  0
  9 40  1  0  0  0  0
 18 41  1  0  0  0  0
 18 42  1  0  0  0  0
 19 43  1  0  0  0  0
 19 44  1  0  0  0  0
 20 45  1  0  0  0  0
 20 46  1  0  0  0  0
 21 47  1  0  0  0  0
 21 48  1  0  0  0  0
 23 49  1  0  0  0  0
 23 50  1  0  0  0  0
 23 51  1  0  0  0  0
 24 52  1  0  0  0  0
 24 53  1  0  0  0  0
 27 54  1  0  0  0  0
 28 55  1  0  0  0  0
M  CHG  1  28   1
M  END
> <compound>
LUO-POS-868e8996-12

> <compound_smiles>
CNC(=O)CN1Cc2ccc(cc2[C@@]3(C1)CCN(C3=O)c4cncc5c4cccc5)Cl

> <enantiomer_smiles>
CNC(=O)C[N@@]1Cc2ccc(cc2[C@@]3(C1)CCN(C3=O)c4cncc5c4cccc5)Cl

> <scaffold>
tetrahydroisoquinoline-5spiro-isoquinoline

> <clash_score>
0

> <docking_score>
-9.634536743164062

> <overlap_score>
0.9793747663497925

> <MMFF_internal_energy>
169.07138437585914

> <docked_smiles>
CNC(=O)C[N@@H+]1Cc2ccc(cc2[C@]3(C1)CCN(C3=O)c4cncc5c4cccc5)Cl

$$$$
EDJ-MED-3656d29d-1_3
  -OEChem-12272114573D

 59 63  0     1  0  0  0  0  0999 V2000
    3.3432    2.6279   20.4411 C   0  0  0  0  0  0  0  0  0  0  0  0
    3.7865    2.4205   19.1660 C   0  0  0  0  0  0  0  0  0  0  0  0
   12.0765    0.0316   24.1541 C   0  0  0  0  0  0  0  0  0  0  0  0
    3.8960    1.9291   21.5050 C   0  0  0  0  0  0  0  0  0  0  0  0
   12.9132   -0.6032   23.2569 C   0  0  0  0  0  0  0  0  0  0  0  0
   10.9991   -1.4331   22.0443 C   0  0  0  0  0  0  0  0  0  0  0  0
    5.3278    1.2339   17.6066 C   0  0  0  0  0  0  0  0  0  0  0  0
    6.8438   -0.2892   18.3752 C   0  0  0  0  0  0  0  0  0  0  0  0
    4.8226    1.4906   18.9054 C   0  0  0  0  0  0  0  0  0  0  0  0
    5.3982    0.7733   19.9948 C   0  0  0  0  0  0  0  0  0  0  0  0
   10.7040   -0.0625   23.9898 C   0  0  0  0  0  0  0  0  0  0  0  0
   10.1406   -0.7765   22.9250 C   0  0  0  0  0  0  0  0  0  0  0  0
    4.8973    1.0233   21.2988 C   0  0  0  0  0  0  0  0  0  0  0  0
    6.4440   -0.1472   19.6979 C   0  0  0  0  0  0  0  0  0  0  0  0
   12.3683   -1.3298   22.2234 C   0  0  0  0  0  0  0  0  0  0  0  0
    8.3062    3.1457   25.7782 C   0  0  0  0  0  0  0  0  0  0  0  0
    9.9479    0.5589   24.9534 C   0  0  0  0  0  0  0  0  0  0  0  0
    8.0140   -2.1541   22.4331 C   0  0  0  0  0  0  0  0  0  0  0  0
    6.9866   -1.9366   21.3580 C   0  0  0  0  0  0  0  0  0  0  0  0
    8.2490    0.0169   21.4271 C   0  0  0  0  0  0  0  0  0  0  0  0
    7.8721   -0.1194   23.8831 C   0  0  0  0  0  0  0  0  0  0  0  0
    8.6238   -0.7606   22.6929 C   0  0  3  0  0  0  0  0  0  0  0  0
    5.4160    0.3280   22.5248 C   0  0  0  0  0  0  0  0  0  0  0  0
    9.3364    5.0408   24.5597 C   0  0  0  0  0  0  0  0  0  0  0  0
    7.8612    1.7197   25.5715 C   0  0  0  0  0  0  0  0  0  0  0  0
    6.3062    0.3769   17.3421 N   0  0  0  0  0  0  0  0  0  0  0  0
    7.2292   -0.6897   20.7790 N   0  0  2  0  0  0  0  0  0  0  0  0
    8.8402    3.6865   24.6182 N   0  0  0  0  0  0  0  0  0  0  0  0
    8.6609    1.0133   24.4995 N   0  3  2  0  0  0  0  0  0  0  0  0
    8.1988    3.7368   26.8493 O   0  0  0  0  0  0  0  0  0  0  0  0
   13.4290   -2.1409   21.1107 Cl  0  0  0  0  0  0  0  0  0  0  0  0
    2.5417    3.3496   20.6364 H   0  0  0  0  0  0  0  0  0  0  0  0
    3.3404    2.9742   18.3366 H   0  0  0  0  0  0  0  0  0  0  0  0
   12.5034    0.5908   24.9780 H   0  0  0  0  0  0  0  0  0  0  0  0
    3.5080    2.1238   22.5126 H   0  0  0  0  0  0  0  0  0  0  0  0
   13.9916   -0.5230   23.3833 H   0  0  0  0  0  0  0  0  0  0  0  0
   10.6215   -2.0194   21.2244 H   0  0  0  0  0  0  0  0  0  0  0  0
    4.9135    1.7509   16.7475 H   0  0  0  0  0  0  0  0  0  0  0  0
    7.6452   -0.9751   18.1031 H   0  0  0  0  0  0  0  0  0  0  0  0
    9.7569   -0.1261   25.8165 H   0  0  0  0  0  0  0  0  0  0  0  0
   10.4539    1.4629   25.3736 H   0  0  0  0  0  0  0  0  0  0  0  0
    7.5763   -2.6110   23.3302 H   0  0  0  0  0  0  0  0  0  0  0  0
    8.7841   -2.8434   22.0573 H   0  0  0  0  0  0  0  0  0  0  0  0
    7.0307   -2.7730   20.6130 H   0  0  0  0  0  0  0  0  0  0  0  0
    5.9527   -1.9849   21.7856 H   0  0  0  0  0  0  0  0  0  0  0  0
    7.9596    1.0715   21.6587 H   0  0  0  0  0  0  0  0  0  0  0  0
    9.1275    0.1017   20.7436 H   0  0  0  0  0  0  0  0  0  0  0  0
    6.9021    0.3022   23.5628 H   0  0  0  0  0  0  0  0  0  0  0  0
    7.6673   -0.8507   24.6876 H   0  0  0  0  0  0  0  0  0  0  0  0
    4.8444   -0.5876   22.7075 H   0  0  0  0  0  0  0  0  0  0  0  0
    6.4752    0.0682   22.4211 H   0  0  0  0  0  0  0  0  0  0  0  0
    5.3279    0.9801   23.4008 H   0  0  0  0  0  0  0  0  0  0  0  0
    8.5279    5.7146   24.2400 H   0  0  0  0  0  0  0  0  0  0  0  0
    9.6937    5.3435   25.5550 H   0  0  0  0  0  0  0  0  0  0  0  0
   10.1662    5.0964   23.8397 H   0  0  0  0  0  0  0  0  0  0  0  0
    6.8181    1.6879   25.2447 H   0  0  0  0  0  0  0  0  0  0  0  0
    7.9898    1.1436   26.4921 H   0  0  0  0  0  0  0  0  0  0  0  0
    8.9104    3.1124   23.7828 H   0  0  0  0  0  0  0  0  0  0  0  0
    8.7939    1.7204   23.7530 H   0  0  0  0  0  0  0  0  0  0  0  0
  1  2  1  0  0  0  0
  1  4  2  0  0  0  0
  2  9  2  0  0  0  0
  3  5  1  0  0  0  0
  3 11  2  0  0  0  0
  4 13  1  0  0  0  0
  5 15  2  0  0  0  0
  6 12  2  0  0  0  0
  6 15  1  0  0  0  0
  7  9  1  0  0  0  0
  7 26  2  0  0  0  0
  8 14  2  0  0  0  0
  8 26  1  0  0  0  0
  9 10  1  0  0  0  0
 10 13  2  0  0  0  0
 10 14  1  0  0  0  0
 11 12  1  0  0  0  0
 11 17  1  0  0  0  0
 12 22  1  0  0  0  0
 13 23  1  0  0  0  0
 14 27  1  1  0  0  0
 15 31  1  0  0  0  0
 16 25  1  0  0  0  0
 16 28  1  0  0  0  0
 16 30  2  0  0  0  0
 17 29  1  0  0  0  0
 18 19  1  0  0  0  0
 18 22  1  0  0  0  0
 19 27  1  0  0  0  0
 20 22  1  0  0  0  0
 20 27  1  0  0  0  0
 21 22  1  0  0  0  0
 21 29  1  0  0  0  0
 24 28  1  0  0  0  0
 25 29  1  6  0  0  0
  1 32  1  0  0  0  0
  2 33  1  0  0  0  0
  3 34  1  0  0  0  0
  4 35  1  0  0  0  0
  5 36  1  0  0  0  0
  6 37  1  0  0  0  0
  7 38  1  0  0  0  0
  8 39  1  0  0  0  0
 17 40  1  0  0  0  0
 17 41  1  0  0  0  0
 18 42  1  0  0  0  0
 18 43  1  0  0  0  0
 19 44  1  0  0  0  0
 19 45  1  0  0  0  0
 20 46  1  0  0  0  0
 20 47  1  0  0  0  0
 21 48  1  0  0  0  0
 21 49  1  0  0  0  0
 23 50  1  0  0  0  0
 23 51  1  0  0  0  0
 23 52  1  0  0  0  0
 24 53  1  0  0  0  0
 24 54  1  0  0  0  0
 24 55  1  0  0  0  0
 25 56  1  0  0  0  0
 25 57  1  0  0  0  0
 28 58  1  0  0  0  0
 29 59  1  0  0  0  0
M  CHG  1  29   1
M  END
> <compound>
EDJ-MED-3656d29d-1

> <compound_smiles>
Cc1cccc2c1c(cnc2)N3CCC4(C3)CN(Cc5c4cc(cc5)Cl)CC(=O)NC

> <enantiomer_smiles>
Cc1cccc2c1c(cnc2)[N@@]3CCC4(C3)C[N@](Cc5c4cc(cc5)Cl)CC(=O)NC

> <scaffold>
tetrahydroisoquinoline-5spiro-isoquinoline

> <clash_score>
0

> <docking_score>
-8.659954071044922

> <overlap_score>
0.9603874683380127

> <MMFF_internal_energy>
295.07666794619655

> <docked_smiles>
Cc1cccc2c1c(cnc2)N3CC[C@@]4(C3)C[N@H+](Cc5c4cc(cc5)Cl)CC(=O)NC

$$$$
LUO-POS-868e8996-11_1
  -OEChem-12272114573D

 55 59  0     1  0  0  0  0  0999 V2000
    3.3432    2.6279   20.4411 C   0  0  0  0  0  0  0  0  0  0  0  0
    3.8960    1.9291   21.5050 C   0  0  0  0  0  0  0  0  0  0  0  0
    3.7865    2.4205   19.1660 C   0  0  0  0  0  0  0  0  0  0  0  0
    4.8973    1.0233   21.2988 C   0  0  0  0  0  0  0  0  0  0  0  0
   12.0765    0.0316   24.1541 C   0  0  0  0  0  0  0  0  0  0  0  0
   12.9132   -0.6032   23.2569 C   0  0  0  0  0  0  0  0  0  0  0  0
   10.9991   -1.4331   22.0443 C   0  0  0  0  0  0  0  0  0  0  0  0
    5.3278    1.2339   17.6066 C   0  0  0  0  0  0  0  0  0  0  0  0
    6.8438   -0.2892   18.3752 C   0  0  0  0  0  0  0  0  0  0  0  0
    4.8226    1.4906   18.9054 C   0  0  0  0  0  0  0  0  0  0  0  0
    5.3982    0.7733   19.9948 C   0  0  0  0  0  0  0  0  0  0  0  0
   10.7040   -0.0625   23.9898 C   0  0  0  0  0  0  0  0  0  0  0  0
   10.1406   -0.7765   22.9250 C   0  0  0  0  0  0  0  0  0  0  0  0
    6.4440   -0.1472   19.6979 C   0  0  0  0  0  0  0  0  0  0  0  0
   12.3683   -1.3298   22.2234 C   0  0  0  0  0  0  0  0  0  0  0  0
    8.2490    0.0169   21.4271 C   0  0  0  0  0  0  0  0  0  0  0  0
    7.3809    2.6706   23.1119 C   0  0  0  0  0  0  0  0  0  0  0  0
    9.9479    0.5589   24.9534 C   0  0  0  0  0  0  0  0  0  0  0  0
    8.0140   -2.1541   22.4331 C   0  0  0  0  0  0  0  0  0  0  0  0
    6.9866   -1.9366   21.3580 C   0  0  0  0  0  0  0  0  0  0  0  0
    7.8721   -0.1194   23.8831 C   0  0  0  0  0  0  0  0  0  0  0  0
    8.6238   -0.7606   22.6929 C   0  0  2  0  0  0  0  0  0  0  0  0
    6.3084    4.4172   21.7203 C   0  0  0  0  0  0  0  0  0  0  0  0
    8.7407    2.1970   23.5599 C   0  0  0  0  0  0  0  0  0  0  0  0
    6.3062    0.3769   17.3421 N   0  0  0  0  0  0  0  0  0  0  0  0
    7.2292   -0.6897   20.7790 N   0  0  0  0  0  0  0  0  0  0  0  0
    7.4743    3.7779   22.2822 N   0  0  0  0  0  0  0  0  0  0  0  0
    8.6609    1.0133   24.4995 N   0  3  2  0  0  0  0  0  0  0  0  0
    8.7579    1.0933   21.1338 O   0  0  0  0  0  0  0  0  0  0  0  0
    6.3326    2.1276   23.4506 O   0  0  0  0  0  0  0  0  0  0  0  0
   13.4271   -2.1421   21.1093 Cl  0  0  0  0  0  0  0  0  0  0  0  0
    2.5432    3.3510   20.6369 H   0  0  0  0  0  0  0  0  0  0  0  0
    3.5174    2.1137   22.5168 H   0  0  0  0  0  0  0  0  0  0  0  0
    3.3409    2.9743   18.3364 H   0  0  0  0  0  0  0  0  0  0  0  0
    5.3118    0.4895   22.1572 H   0  0  0  0  0  0  0  0  0  0  0  0
   12.5020    0.5946   24.9767 H   0  0  0  0  0  0  0  0  0  0  0  0
   13.9911   -0.5207   23.3813 H   0  0  0  0  0  0  0  0  0  0  0  0
   10.6043   -2.0219   21.2284 H   0  0  0  0  0  0  0  0  0  0  0  0
    4.9141    1.7511   16.7474 H   0  0  0  0  0  0  0  0  0  0  0  0
    7.6445   -0.9764   18.1043 H   0  0  0  0  0  0  0  0  0  0  0  0
    9.7385   -0.1133   25.8250 H   0  0  0  0  0  0  0  0  0  0  0  0
   10.4773    1.4543   25.3712 H   0  0  0  0  0  0  0  0  0  0  0  0
    7.5776   -2.6117   23.3317 H   0  0  0  0  0  0  0  0  0  0  0  0
    8.7734   -2.8616   22.0643 H   0  0  0  0  0  0  0  0  0  0  0  0
    7.0224   -2.7504   20.5951 H   0  0  0  0  0  0  0  0  0  0  0  0
    5.9556   -1.9471   21.7834 H   0  0  0  0  0  0  0  0  0  0  0  0
    6.8958    0.3002   23.5784 H   0  0  0  0  0  0  0  0  0  0  0  0
    7.6736   -0.8519   24.6845 H   0  0  0  0  0  0  0  0  0  0  0  0
    6.0843    3.9746   20.7385 H   0  0  0  0  0  0  0  0  0  0  0  0
    5.4503    4.2709   22.3928 H   0  0  0  0  0  0  0  0  0  0  0  0
    6.5019    5.4935   21.6016 H   0  0  0  0  0  0  0  0  0  0  0  0
    9.2585    2.9868   24.1113 H   0  0  0  0  0  0  0  0  0  0  0  0
    9.3360    1.8802   22.6990 H   0  0  0  0  0  0  0  0  0  0  0  0
    8.3865    4.1743   22.0751 H   0  0  0  0  0  0  0  0  0  0  0  0
    8.1121    1.3501   25.3124 H   0  0  0  0  0  0  0  0  0  0  0  0
  1  2  1  0  0  0  0
  1  3  2  0  0  0  0
  2  4  2  0  0  0  0
  3 10  1  0  0  0  0
  4 11  1  0  0  0  0
  5  6  2  0  0  0  0
  5 12  1  0  0  0  0
  6 15  1  0  0  0  0
  7 13  1  0  0  0  0
  7 15  2  0  0  0  0
  8 10  2  0  0  0  0
  8 25  1  0  0  0  0
  9 14  1  0  0  0  0
  9 25  2  0  0  0  0
 10 11  1  0  0  0  0
 11 14  2  0  0  0  0
 12 13  2  0  0  0  0
 12 18  1  0  0  0  0
 13 22  1  6  0  0  0
 14 26  1  0  0  0  0
 15 31  1  0  0  0  0
 16 22  1  1  0  0  0
 16 26  1  0  0  0  0
 16 29  2  0  0  0  0
 17 24  1  0  0  0  0
 17 27  1  0  0  0  0
 17 30  2  0  0  0  0
 18 28  1  0  0  0  0
 19 20  1  0  0  0  0
 19 22  1  1  0  0  0
 20 26  1  0  0  0  0
 21 22  1  6  0  0  0
 21 28  1  0  0  0  0
 23 27  1  0  0  0  0
 24 28  1  1  0  0  0
  1 32  1  0  0  0  0
  2 33  1  0  0  0  0
  3 34  1  0  0  0  0
  4 35  1  0  0  0  0
  5 36  1  0  0  0  0
  6 37  1  0  0  0  0
  7 38  1  0  0  0  0
  8 39  1  0  0  0  0
  9 40  1  0  0  0  0
 18 41  1  0  0  0  0
 18 42  1  0  0  0  0
 19 43  1  0  0  0  0
 19 44  1  0  0  0  0
 20 45  1  0  0  0  0
 20 46  1  0  0  0  0
 21 47  1  0  0  0  0
 21 48  1  0  0  0  0
 23 49  1  0  0  0  0
 23 50  1  0  0  0  0
 23 51  1  0  0  0  0
 24 52  1  0  0  0  0
 24 53  1  0  0  0  0
 27 54  1  0  0  0  0
 28 55  1  0  0  0  0
M  CHG  1  28   1
M  END
> <compound>
LUO-POS-868e8996-11

> <compound_smiles>
CNC(=O)CN1Cc2ccc(cc2[C@]3(C1)CCN(C3=O)c4cncc5c4cccc5)Cl

> <enantiomer_smiles>
CNC(=O)C[N@@]1Cc2ccc(cc2[C@]3(C1)CCN(C3=O)c4cncc5c4cccc5)Cl

> <scaffold>
tetrahydroisoquinoline-5spiro-isoquinoline

> <clash_score>
0

> <docking_score>
-9.899530410766602

> <overlap_score>
0.9816420674324036

> <MMFF_internal_energy>
169.04561469915183

> <docked_smiles>
CNC(=O)C[N@@H+]1Cc2ccc(cc2[C@]3(C1)CCN(C3=O)c4cncc5c4cccc5)Cl

$$$$
MAT-POS-c7726e07-6_2
  -OEChem-12272114573D

 55 59  0     1  0  0  0  0  0999 V2000
    3.3432    2.6279   20.4411 C   0  0  0  0  0  0  0  0  0  0  0  0
    3.8960    1.9291   21.5050 C   0  0  0  0  0  0  0  0  0  0  0  0
    3.7865    2.4205   19.1660 C   0  0  0  0  0  0  0  0  0  0  0  0
    4.8973    1.0233   21.2988 C   0  0  0  0  0  0  0  0  0  0  0  0
   12.0765    0.0316   24.1541 C   0  0  0  0  0  0  0  0  0  0  0  0
   12.9132   -0.6032   23.2569 C   0  0  0  0  0  0  0  0  0  0  0  0
   10.9991   -1.4331   22.0443 C   0  0  0  0  0  0  0  0  0  0  0  0
    5.3278    1.2339   17.6066 C   0  0  0  0  0  0  0  0  0  0  0  0
    6.8438   -0.2892   18.3752 C   0  0  0  0  0  0  0  0  0  0  0  0
    4.8226    1.4906   18.9054 C   0  0  0  0  0  0  0  0  0  0  0  0
    5.3982    0.7733   19.9948 C   0  0  0  0  0  0  0  0  0  0  0  0
   10.7040   -0.0625   23.9898 C   0  0  0  0  0  0  0  0  0  0  0  0
   10.1406   -0.7765   22.9250 C   0  0  0  0  0  0  0  0  0  0  0  0
    6.4440   -0.1472   19.6979 C   0  0  0  0  0  0  0  0  0  0  0  0
   12.3683   -1.3298   22.2234 C   0  0  0  0  0  0  0  0  0  0  0  0
    8.2490    0.0169   21.4271 C   0  0  0  0  0  0  0  0  0  0  0  0
    6.7834    2.6042   25.0051 C   0  0  0  0  0  0  0  0  0  0  0  0
    9.9479    0.5589   24.9534 C   0  0  0  0  0  0  0  0  0  0  0  0
    8.0140   -2.1541   22.4331 C   0  0  0  0  0  0  0  0  0  0  0  0
    6.9866   -1.9366   21.3580 C   0  0  0  0  0  0  0  0  0  0  0  0
    7.8721   -0.1194   23.8831 C   0  0  0  0  0  0  0  0  0  0  0  0
    8.6238   -0.7606   22.6929 C   0  0  1  0  0  0  0  0  0  0  0  0
    6.4901    4.5844   23.5456 C   0  0  0  0  0  0  0  0  0  0  0  0
    7.8595    1.7145   25.5748 C   0  0  0  0  0  0  0  0  0  0  0  0
    6.3062    0.3769   17.3421 N   0  0  0  0  0  0  0  0  0  0  0  0
    7.2292   -0.6897   20.7790 N   0  0  0  0  0  0  0  0  0  0  0  0
    7.3182    3.6044   24.2071 N   0  0  0  0  0  0  0  0  0  0  0  0
    8.6609    1.0133   24.4995 N   0  3  1  0  0  0  0  0  0  0  0  0
    8.8293    1.0397   21.0797 O   0  0  0  0  0  0  0  0  0  0  0  0
    5.5869    2.4446   25.2314 O   0  0  0  0  0  0  0  0  0  0  0  0
   13.4273   -2.1405   21.1084 Cl  0  0  0  0  0  0  0  0  0  0  0  0
    2.5432    3.3510   20.6369 H   0  0  0  0  0  0  0  0  0  0  0  0
    3.5174    2.1137   22.5168 H   0  0  0  0  0  0  0  0  0  0  0  0
    3.3409    2.9743   18.3364 H   0  0  0  0  0  0  0  0  0  0  0  0
    5.3118    0.4895   22.1572 H   0  0  0  0  0  0  0  0  0  0  0  0
   12.5023    0.5972   24.9751 H   0  0  0  0  0  0  0  0  0  0  0  0
   13.9911   -0.5176   23.3791 H   0  0  0  0  0  0  0  0  0  0  0  0
   10.6043   -2.0166   21.2246 H   0  0  0  0  0  0  0  0  0  0  0  0
    4.9141    1.7511   16.7474 H   0  0  0  0  0  0  0  0  0  0  0  0
    7.6445   -0.9764   18.1043 H   0  0  0  0  0  0  0  0  0  0  0  0
    9.7612   -0.1207   25.8251 H   0  0  0  0  0  0  0  0  0  0  0  0
   10.4567    1.4662   25.3699 H   0  0  0  0  0  0  0  0  0  0  0  0
    7.5143   -2.5477   23.3324 H   0  0  0  0  0  0  0  0  0  0  0  0
    8.7598   -2.9061   22.1415 H   0  0  0  0  0  0  0  0  0  0  0  0
    7.0580   -2.7243   20.5714 H   0  0  0  0  0  0  0  0  0  0  0  0
    5.9517   -1.9955   21.7714 H   0  0  0  0  0  0  0  0  0  0  0  0
    6.8956    0.2929   23.5756 H   0  0  0  0  0  0  0  0  0  0  0  0
    7.6762   -0.8487   24.6907 H   0  0  0  0  0  0  0  0  0  0  0  0
    6.2285    4.2251   22.5394 H   0  0  0  0  0  0  0  0  0  0  0  0
    5.5710    4.7416   24.1291 H   0  0  0  0  0  0  0  0  0  0  0  0
    7.0396    5.5339   23.4643 H   0  0  0  0  0  0  0  0  0  0  0  0
    7.4187    0.9332   26.2002 H   0  0  0  0  0  0  0  0  0  0  0  0
    8.5759    2.3055   26.1519 H   0  0  0  0  0  0  0  0  0  0  0  0
    8.3258    3.6730   24.0960 H   0  0  0  0  0  0  0  0  0  0  0  0
    8.7938    1.7232   23.7556 H   0  0  0  0  0  0  0  0  0  0  0  0
  1  2  1  0  0  0  0
  1  3  2  0  0  0  0
  2  4  2  0  0  0  0
  3 10  1  0  0  0  0
  4 11  1  0  0  0  0
  5  6  2  0  0  0  0
  5 12  1  0  0  0  0
  6 15  1  0  0  0  0
  7 13  1  0  0  0  0
  7 15  2  0  0  0  0
  8 10  2  0  0  0  0
  8 25  1  0  0  0  0
  9 14  1  0  0  0  0
  9 25  2  0  0  0  0
 10 11  1  0  0  0  0
 11 14  2  0  0  0  0
 12 13  2  0  0  0  0
 12 18  1  0  0  0  0
 13 22  1  1  0  0  0
 14 26  1  0  0  0  0
 15 31  1  0  0  0  0
 16 22  1  6  0  0  0
 16 26  1  0  0  0  0
 16 29  2  0  0  0  0
 17 24  1  0  0  0  0
 17 27  1  0  0  0  0
 17 30  2  0  0  0  0
 18 28  1  0  0  0  0
 19 20  1  0  0  0  0
 19 22  1  6  0  0  0
 20 26  1  0  0  0  0
 21 22  1  1  0  0  0
 21 28  1  0  0  0  0
 23 27  1  0  0  0  0
 24 28  1  6  0  0  0
  1 32  1  0  0  0  0
  2 33  1  0  0  0  0
  3 34  1  0  0  0  0
  4 35  1  0  0  0  0
  5 36  1  0  0  0  0
  6 37  1  0  0  0  0
  7 38  1  0  0  0  0
  8 39  1  0  0  0  0
  9 40  1  0  0  0  0
 18 41  1  0  0  0  0
 18 42  1  0  0  0  0
 19 43  1  0  0  0  0
 19 44  1  0  0  0  0
 20 45  1  0  0  0  0
 20 46  1  0  0  0  0
 21 47  1  0  0  0  0
 21 48  1  0  0  0  0
 23 49  1  0  0  0  0
 23 50  1  0  0  0  0
 23 51  1  0  0  0  0
 24 52  1  0  0  0  0
 24 53  1  0  0  0  0
 27 54  1  0  0  0  0
 28 55  1  0  0  0  0
M  CHG  1  28   1
M  END
> <compound>
MAT-POS-c7726e07-6

> <compound_smiles>
CNC(=O)CN1Cc2ccc(cc2[C@@]3(C1)CCN(C3=O)c4cncc5c4cccc5)Cl

> <enantiomer_smiles>
CNC(=O)C[N@]1Cc2ccc(cc2[C@@]3(C1)CCN(C3=O)c4cncc5c4cccc5)Cl

> <scaffold>
tetrahydroisoquinoline-5spiro-isoquinoline

> <clash_score>
0

> <docking_score>
-9.166975021362305

> <overlap_score>
0.9767932295799255

> <MMFF_internal_energy>
158.8405803617997

> <docked_smiles>
CNC(=O)C[N@H+]1Cc2ccc(cc2[C@]3(C1)CCN(C3=O)c4cncc5c4cccc5)Cl

$$$$
LUO-POS-868e8996-12_2
  -OEChem-12272114573D

 55 59  0     1  0  0  0  0  0999 V2000
    3.3432    2.6279   20.4411 C   0  0  0  0  0  0  0  0  0  0  0  0
    3.8960    1.9291   21.5050 C   0  0  0  0  0  0  0  0  0  0  0  0
    3.7865    2.4205   19.1660 C   0  0  0  0  0  0  0  0  0  0  0  0
    4.8973    1.0233   21.2988 C   0  0  0  0  0  0  0  0  0  0  0  0
   12.0765    0.0316   24.1541 C   0  0  0  0  0  0  0  0  0  0  0  0
   12.9132   -0.6032   23.2569 C   0  0  0  0  0  0  0  0  0  0  0  0
   10.9991   -1.4331   22.0443 C   0  0  0  0  0  0  0  0  0  0  0  0
    5.3278    1.2339   17.6066 C   0  0  0  0  0  0  0  0  0  0  0  0
    6.8438   -0.2892   18.3752 C   0  0  0  0  0  0  0  0  0  0  0  0
    4.8226    1.4906   18.9054 C   0  0  0  0  0  0  0  0  0  0  0  0
    5.3982    0.7733   19.9948 C   0  0  0  0  0  0  0  0  0  0  0  0
   10.7040   -0.0625   23.9898 C   0  0  0  0  0  0  0  0  0  0  0  0
   10.1406   -0.7765   22.9250 C   0  0  0  0  0  0  0  0  0  0  0  0
    6.4440   -0.1472   19.6979 C   0  0  0  0  0  0  0  0  0  0  0  0
   12.3683   -1.3298   22.2234 C   0  0  0  0  0  0  0  0  0  0  0  0
    8.2490    0.0169   21.4271 C   0  0  0  0  0  0  0  0  0  0  0  0
    6.7834    2.6042   25.0051 C   0  0  0  0  0  0  0  0  0  0  0  0
    9.9479    0.5589   24.9534 C   0  0  0  0  0  0  0  0  0  0  0  0
    8.0140   -2.1541   22.4331 C   0  0  0  0  0  0  0  0  0  0  0  0
    6.9866   -1.9366   21.3580 C   0  0  0  0  0  0  0  0  0  0  0  0
    7.8721   -0.1194   23.8831 C   0  0  0  0  0  0  0  0  0  0  0  0
    8.6238   -0.7606   22.6929 C   0  0  1  0  0  0  0  0  0  0  0  0
    6.4901    4.5844   23.5456 C   0  0  0  0  0  0  0  0  0  0  0  0
    7.8595    1.7145   25.5748 C   0  0  0  0  0  0  0  0  0  0  0  0
    6.3062    0.3769   17.3421 N   0  0  0  0  0  0  0  0  0  0  0  0
    7.2292   -0.6897   20.7790 N   0  0  0  0  0  0  0  0  0  0  0  0
    7.3182    3.6044   24.2071 N   0  0  0  0  0  0  0  0  0  0  0  0
    8.6609    1.0133   24.4995 N   0  3  1  0  0  0  0  0  0  0  0  0
    8.8293    1.0397   21.0797 O   0  0  0  0  0  0  0  0  0  0  0  0
    5.5869    2.4446   25.2314 O   0  0  0  0  0  0  0  0  0  0  0  0
   13.4273   -2.1405   21.1084 Cl  0  0  0  0  0  0  0  0  0  0  0  0
    2.5432    3.3510   20.6369 H   0  0  0  0  0  0  0  0  0  0  0  0
    3.5174    2.1137   22.5168 H   0  0  0  0  0  0  0  0  0  0  0  0
    3.3409    2.9743   18.3364 H   0  0  0  0  0  0  0  0  0  0  0  0
    5.3118    0.4895   22.1572 H   0  0  0  0  0  0  0  0  0  0  0  0
   12.5023    0.5972   24.9751 H   0  0  0  0  0  0  0  0  0  0  0  0
   13.9911   -0.5176   23.3791 H   0  0  0  0  0  0  0  0  0  0  0  0
   10.6043   -2.0166   21.2246 H   0  0  0  0  0  0  0  0  0  0  0  0
    4.9141    1.7511   16.7474 H   0  0  0  0  0  0  0  0  0  0  0  0
    7.6445   -0.9764   18.1043 H   0  0  0  0  0  0  0  0  0  0  0  0
    9.7612   -0.1207   25.8251 H   0  0  0  0  0  0  0  0  0  0  0  0
   10.4567    1.4662   25.3699 H   0  0  0  0  0  0  0  0  0  0  0  0
    7.5143   -2.5477   23.3324 H   0  0  0  0  0  0  0  0  0  0  0  0
    8.7598   -2.9061   22.1415 H   0  0  0  0  0  0  0  0  0  0  0  0
    7.0580   -2.7243   20.5714 H   0  0  0  0  0  0  0  0  0  0  0  0
    5.9517   -1.9955   21.7714 H   0  0  0  0  0  0  0  0  0  0  0  0
    6.8956    0.2929   23.5756 H   0  0  0  0  0  0  0  0  0  0  0  0
    7.6762   -0.8487   24.6907 H   0  0  0  0  0  0  0  0  0  0  0  0
    6.2285    4.2251   22.5394 H   0  0  0  0  0  0  0  0  0  0  0  0
    5.5710    4.7416   24.1291 H   0  0  0  0  0  0  0  0  0  0  0  0
    7.0396    5.5339   23.4643 H   0  0  0  0  0  0  0  0  0  0  0  0
    7.4187    0.9332   26.2002 H   0  0  0  0  0  0  0  0  0  0  0  0
    8.5759    2.3055   26.1519 H   0  0  0  0  0  0  0  0  0  0  0  0
    8.3258    3.6730   24.0960 H   0  0  0  0  0  0  0  0  0  0  0  0
    8.7938    1.7232   23.7556 H   0  0  0  0  0  0  0  0  0  0  0  0
  1  2  1  0  0  0  0
  1  3  2  0  0  0  0
  2  4  2  0  0  0  0
  3 10  1  0  0  0  0
  4 11  1  0  0  0  0
  5  6  2  0  0  0  0
  5 12  1  0  0  0  0
  6 15  1  0  0  0  0
  7 13  1  0  0  0  0
  7 15  2  0  0  0  0
  8 10  2  0  0  0  0
  8 25  1  0  0  0  0
  9 14  1  0  0  0  0
  9 25  2  0  0  0  0
 10 11  1  0  0  0  0
 11 14  2  0  0  0  0
 12 13  2  0  0  0  0
 12 18  1  0  0  0  0
 13 22  1  1  0  0  0
 14 26  1  0  0  0  0
 15 31  1  0  0  0  0
 16 22  1  6  0  0  0
 16 26  1  0  0  0  0
 16 29  2  0  0  0  0
 17 24  1  0  0  0  0
 17 27  1  0  0  0  0
 17 30  2  0  0  0  0
 18 28  1  0  0  0  0
 19 20  1  0  0  0  0
 19 22  1  6  0  0  0
 20 26  1  0  0  0  0
 21 22  1  1  0  0  0
 21 28  1  0  0  0  0
 23 27  1  0  0  0  0
 24 28  1  6  0  0  0
  1 32  1  0  0  0  0
  2 33  1  0  0  0  0
  3 34  1  0  0  0  0
  4 35  1  0  0  0  0
  5 36  1  0  0  0  0
  6 37  1  0  0  0  0
  7 38  1  0  0  0  0
  8 39  1  0  0  0  0
  9 40  1  0  0  0  0
 18 41  1  0  0  0  0
 18 42  1  0  0  0  0
 19 43  1  0  0  0  0
 19 44  1  0  0  0  0
 20 45  1  0  0  0  0
 20 46  1  0  0  0  0
 21 47  1  0  0  0  0
 21 48  1  0  0  0  0
 23 49  1  0  0  0  0
 23 50  1  0  0  0  0
 23 51  1  0  0  0  0
 24 52  1  0  0  0  0
 24 53  1  0  0  0  0
 27 54  1  0  0  0  0
 28 55  1  0  0  0  0
M  CHG  1  28   1
M  END
> <compound>
LUO-POS-868e8996-12

> <compound_smiles>
CNC(=O)CN1Cc2ccc(cc2[C@@]3(C1)CCN(C3=O)c4cncc5c4cccc5)Cl

> <enantiomer_smiles>
CNC(=O)C[N@]1Cc2ccc(cc2[C@@]3(C1)CCN(C3=O)c4cncc5c4cccc5)Cl

> <scaffold>
tetrahydroisoquinoline-5spiro-isoquinoline

> <clash_score>
0

> <docking_score>
-9.166975021362305

> <overlap_score>
0.9767932295799255

> <MMFF_internal_energy>
158.8405803617997

> <docked_smiles>
CNC(=O)C[N@H+]1Cc2ccc(cc2[C@]3(C1)CCN(C3=O)c4cncc5c4cccc5)Cl

$$$$
LUO-POS-868e8996-11_2
  -OEChem-12272114573D

 55 59  0     1  0  0  0  0  0999 V2000
    3.3432    2.6279   20.4411 C   0  0  0  0  0  0  0  0  0  0  0  0
    3.8960    1.9291   21.5050 C   0  0  0  0  0  0  0  0  0  0  0  0
    3.7865    2.4205   19.1660 C   0  0  0  0  0  0  0  0  0  0  0  0
    4.8973    1.0233   21.2988 C   0  0  0  0  0  0  0  0  0  0  0  0
   12.0765    0.0316   24.1541 C   0  0  0  0  0  0  0  0  0  0  0  0
   12.9132   -0.6032   23.2569 C   0  0  0  0  0  0  0  0  0  0  0  0
   10.9991   -1.4331   22.0443 C   0  0  0  0  0  0  0  0  0  0  0  0
    5.3278    1.2339   17.6066 C   0  0  0  0  0  0  0  0  0  0  0  0
    6.8438   -0.2892   18.3752 C   0  0  0  0  0  0  0  0  0  0  0  0
    4.8226    1.4906   18.9054 C   0  0  0  0  0  0  0  0  0  0  0  0
    5.3982    0.7733   19.9948 C   0  0  0  0  0  0  0  0  0  0  0  0
   10.7040   -0.0625   23.9898 C   0  0  0  0  0  0  0  0  0  0  0  0
   10.1406   -0.7765   22.9250 C   0  0  0  0  0  0  0  0  0  0  0  0
    6.4440   -0.1472   19.6979 C   0  0  0  0  0  0  0  0  0  0  0  0
   12.3683   -1.3298   22.2234 C   0  0  0  0  0  0  0  0  0  0  0  0
    8.2490    0.0169   21.4271 C   0  0  0  0  0  0  0  0  0  0  0  0
    8.3033    3.1398   25.7821 C   0  0  0  0  0  0  0  0  0  0  0  0
    9.9479    0.5589   24.9534 C   0  0  0  0  0  0  0  0  0  0  0  0
    8.0140   -2.1541   22.4331 C   0  0  0  0  0  0  0  0  0  0  0  0
    6.9866   -1.9366   21.3580 C   0  0  0  0  0  0  0  0  0  0  0  0
    7.8721   -0.1194   23.8831 C   0  0  0  0  0  0  0  0  0  0  0  0
    8.6238   -0.7606   22.6929 C   0  0  2  0  0  0  0  0  0  0  0  0
    9.3391    5.0314   24.5629 C   0  0  0  0  0  0  0  0  0  0  0  0
    7.8597    1.7131   25.5776 C   0  0  0  0  0  0  0  0  0  0  0  0
    6.3062    0.3769   17.3421 N   0  0  0  0  0  0  0  0  0  0  0  0
    7.2292   -0.6897   20.7790 N   0  0  0  0  0  0  0  0  0  0  0  0
    8.8429    3.6772   24.6231 N   0  0  0  0  0  0  0  0  0  0  0  0
    8.6609    1.0133   24.4995 N   0  3  1  0  0  0  0  0  0  0  0  0
    8.7582    1.0927   21.1322 O   0  0  0  0  0  0  0  0  0  0  0  0
    8.1903    3.7343   26.8508 O   0  0  0  0  0  0  0  0  0  0  0  0
   13.4284   -2.1369   21.1069 Cl  0  0  0  0  0  0  0  0  0  0  0  0
    2.5432    3.3510   20.6369 H   0  0  0  0  0  0  0  0  0  0  0  0
    3.5174    2.1137   22.5168 H   0  0  0  0  0  0  0  0  0  0  0  0
    3.3409    2.9743   18.3364 H   0  0  0  0  0  0  0  0  0  0  0  0
    5.3118    0.4895   22.1572 H   0  0  0  0  0  0  0  0  0  0  0  0
   12.5034    0.6047   24.9690 H   0  0  0  0  0  0  0  0  0  0  0  0
   13.9915   -0.5095   23.3735 H   0  0  0  0  0  0  0  0  0  0  0  0
   10.6128   -2.0079   21.2173 H   0  0  0  0  0  0  0  0  0  0  0  0
    4.9141    1.7511   16.7474 H   0  0  0  0  0  0  0  0  0  0  0  0
    7.6445   -0.9764   18.1043 H   0  0  0  0  0  0  0  0  0  0  0  0
    9.7652   -0.1152   25.8338 H   0  0  0  0  0  0  0  0  0  0  0  0
   10.4580    1.4695   25.3677 H   0  0  0  0  0  0  0  0  0  0  0  0
    7.5756   -2.6002   23.3394 H   0  0  0  0  0  0  0  0  0  0  0  0
    8.7528   -2.8832   22.0699 H   0  0  0  0  0  0  0  0  0  0  0  0
    7.0224   -2.7508   20.5944 H   0  0  0  0  0  0  0  0  0  0  0  0
    5.9543   -1.9484   21.7823 H   0  0  0  0  0  0  0  0  0  0  0  0
    6.9009    0.3058   23.5780 H   0  0  0  0  0  0  0  0  0  0  0  0
    7.6838   -0.8462   24.6929 H   0  0  0  0  0  0  0  0  0  0  0  0
    8.5320    5.7040   24.2370 H   0  0  0  0  0  0  0  0  0  0  0  0
    9.6913    5.3374   25.5590 H   0  0  0  0  0  0  0  0  0  0  0  0
   10.1724    5.0850   23.8469 H   0  0  0  0  0  0  0  0  0  0  0  0
    6.8183    1.6799   25.2457 H   0  0  0  0  0  0  0  0  0  0  0  0
    7.9839    1.1399   26.5006 H   0  0  0  0  0  0  0  0  0  0  0  0
    8.9175    3.1006   23.7899 H   0  0  0  0  0  0  0  0  0  0  0  0
    8.7895    1.7237   23.7518 H   0  0  0  0  0  0  0  0  0  0  0  0
  1  2  1  0  0  0  0
  1  3  2  0  0  0  0
  2  4  2  0  0  0  0
  3 10  1  0  0  0  0
  4 11  1  0  0  0  0
  5  6  2  0  0  0  0
  5 12  1  0  0  0  0
  6 15  1  0  0  0  0
  7 13  1  0  0  0  0
  7 15  2  0  0  0  0
  8 10  2  0  0  0  0
  8 25  1  0  0  0  0
  9 14  1  0  0  0  0
  9 25  2  0  0  0  0
 10 11  1  0  0  0  0
 11 14  2  0  0  0  0
 12 13  2  0  0  0  0
 12 18  1  0  0  0  0
 13 22  1  6  0  0  0
 14 26  1  0  0  0  0
 15 31  1  0  0  0  0
 16 22  1  1  0  0  0
 16 26  1  0  0  0  0
 16 29  2  0  0  0  0
 17 24  1  0  0  0  0
 17 27  1  0  0  0  0
 17 30  2  0  0  0  0
 18 28  1  0  0  0  0
 19 20  1  0  0  0  0
 19 22  1  1  0  0  0
 20 26  1  0  0  0  0
 21 22  1  6  0  0  0
 21 28  1  0  0  0  0
 23 27  1  0  0  0  0
 24 28  1  6  0  0  0
  1 32  1  0  0  0  0
  2 33  1  0  0  0  0
  3 34  1  0  0  0  0
  4 35  1  0  0  0  0
  5 36  1  0  0  0  0
  6 37  1  0  0  0  0
  7 38  1  0  0  0  0
  8 39  1  0  0  0  0
  9 40  1  0  0  0  0
 18 41  1  0  0  0  0
 18 42  1  0  0  0  0
 19 43  1  0  0  0  0
 19 44  1  0  0  0  0
 20 45  1  0  0  0  0
 20 46  1  0  0  0  0
 21 47  1  0  0  0  0
 21 48  1  0  0  0  0
 23 49  1  0  0  0  0
 23 50  1  0  0  0  0
 23 51  1  0  0  0  0
 24 52  1  0  0  0  0
 24 53  1  0  0  0  0
 27 54  1  0  0  0  0
 28 55  1  0  0  0  0
M  CHG  1  28   1
M  END
> <compound>
LUO-POS-868e8996-11

> <compound_smiles>
CNC(=O)CN1Cc2ccc(cc2[C@]3(C1)CCN(C3=O)c4cncc5c4cccc5)Cl

> <enantiomer_smiles>
CNC(=O)C[N@]1Cc2ccc(cc2[C@]3(C1)CCN(C3=O)c4cncc5c4cccc5)Cl

> <scaffold>
tetrahydroisoquinoline-5spiro-isoquinoline

> <clash_score>
0

> <docking_score>
-9.191813468933105

> <overlap_score>
0.9771237373352051

> <MMFF_internal_energy>
174.35559903012003

> <docked_smiles>
CNC(=O)C[N@H+]1Cc2ccc(cc2[C@]3(C1)CCN(C3=O)c4cncc5c4cccc5)Cl

$$$$
EDJ-MED-7587a9ee-1_1
  -OEChem-12272114573D

 51 55  0     1  0  0  0  0  0999 V2000
    3.3432    2.6279   20.4411 C   0  0  0  0  0  0  0  0  0  0  0  0
    3.8960    1.9291   21.5050 C   0  0  0  0  0  0  0  0  0  0  0  0
    3.7865    2.4205   19.1660 C   0  0  0  0  0  0  0  0  0  0  0  0
    4.8973    1.0233   21.2988 C   0  0  0  0  0  0  0  0  0  0  0  0
   12.0765    0.0316   24.1541 C   0  0  0  0  0  0  0  0  0  0  0  0
   12.9132   -0.6032   23.2569 C   0  0  0  0  0  0  0  0  0  0  0  0
   10.9991   -1.4331   22.0443 C   0  0  0  0  0  0  0  0  0  0  0  0
    5.3278    1.2339   17.6066 C   0  0  0  0  0  0  0  0  0  0  0  0
    6.8438   -0.2892   18.3752 C   0  0  0  0  0  0  0  0  0  0  0  0
    4.8226    1.4906   18.9054 C   0  0  0  0  0  0  0  0  0  0  0  0
    5.3982    0.7733   19.9948 C   0  0  0  0  0  0  0  0  0  0  0  0
   10.7040   -0.0625   23.9898 C   0  0  0  0  0  0  0  0  0  0  0  0
   10.1406   -0.7765   22.9250 C   0  0  0  0  0  0  0  0  0  0  0  0
    6.4440   -0.1472   19.6979 C   0  0  0  0  0  0  0  0  0  0  0  0
   12.3683   -1.3298   22.2234 C   0  0  0  0  0  0  0  0  0  0  0  0
    8.2490    0.0169   21.4271 C   0  0  0  0  0  0  0  0  0  0  0  0
    6.9866   -1.9366   21.3580 C   0  0  0  0  0  0  0  0  0  0  0  0
    9.9479    0.5589   24.9534 C   0  0  0  0  0  0  0  0  0  0  0  0
    7.8721   -0.1194   23.8831 C   0  0  0  0  0  0  0  0  0  0  0  0
    8.6238   -0.7606   22.6929 C   0  0  3  0  0  0  0  0  0  0  0  0
    8.4171   -3.3405   22.9664 C   0  0  0  0  0  0  0  0  0  0  0  0
    8.4075    3.6303   24.9484 C   0  0  0  0  0  0  0  0  0  0  0  0
    6.3062    0.3769   17.3421 N   0  0  0  0  0  0  0  0  0  0  0  0
    7.2292   -0.6897   20.7790 N   0  0  0  0  0  0  0  0  0  0  0  0
    8.0140   -2.1541   22.4331 N   0  0  0  0  0  0  0  0  0  0  0  0
    8.6609    1.0133   24.4995 N   0  0  1  0  0  0  0  0  0  0  0  0
    8.7630    1.0720   21.1180 O   0  0  0  0  0  0  0  0  0  0  0  0
    6.1592   -2.7831   21.0901 O   0  0  0  0  0  0  0  0  0  0  0  0
    7.4173    2.4897   22.8163 O   0  0  0  0  0  0  0  0  0  0  0  0
    9.9252    2.7159   23.0279 O   0  0  0  0  0  0  0  0  0  0  0  0
    8.6239    2.4808   23.6143 S   0  0  0  0  0  0  0  0  0  0  0  0
   13.4269   -2.1423   21.1095 Cl  0  0  0  0  0  0  0  0  0  0  0  0
    2.5432    3.3510   20.6369 H   0  0  0  0  0  0  0  0  0  0  0  0
    3.5174    2.1137   22.5168 H   0  0  0  0  0  0  0  0  0  0  0  0
    3.3409    2.9743   18.3364 H   0  0  0  0  0  0  0  0  0  0  0  0
    5.3118    0.4895   22.1572 H   0  0  0  0  0  0  0  0  0  0  0  0
   12.5022    0.5907   24.9797 H   0  0  0  0  0  0  0  0  0  0  0  0
   13.9909   -0.5235   23.3836 H   0  0  0  0  0  0  0  0  0  0  0  0
   10.6049   -2.0196   21.2256 H   0  0  0  0  0  0  0  0  0  0  0  0
    4.9141    1.7511   16.7474 H   0  0  0  0  0  0  0  0  0  0  0  0
    7.6445   -0.9764   18.1043 H   0  0  0  0  0  0  0  0  0  0  0  0
    9.7584   -0.1303   25.8178 H   0  0  0  0  0  0  0  0  0  0  0  0
   10.4944    1.4374   25.3881 H   0  0  0  0  0  0  0  0  0  0  0  0
    6.8958    0.2920   23.5719 H   0  0  0  0  0  0  0  0  0  0  0  0
    7.6749   -0.8745   24.6642 H   0  0  0  0  0  0  0  0  0  0  0  0
    9.2592   -3.7434   22.3845 H   0  0  0  0  0  0  0  0  0  0  0  0
    8.7350   -3.1780   24.0068 H   0  0  0  0  0  0  0  0  0  0  0  0
    7.5817   -4.0557   22.9456 H   0  0  0  0  0  0  0  0  0  0  0  0
    8.3521    4.6367   24.5302 H   0  0  0  0  0  0  0  0  0  0  0  0
    7.4824    3.3817   25.4706 H   0  0  0  0  0  0  0  0  0  0  0  0
    9.2621    3.5422   25.6208 H   0  0  0  0  0  0  0  0  0  0  0  0
  1  2  1  0  0  0  0
  1  3  2  0  0  0  0
  2  4  2  0  0  0  0
  3 10  1  0  0  0  0
  4 11  1  0  0  0  0
  5  6  1  0  0  0  0
  5 12  2  0  0  0  0
  6 15  2  0  0  0  0
  7 13  2  0  0  0  0
  7 15  1  0  0  0  0
  8 10  2  0  0  0  0
  8 23  1  0  0  0  0
  9 14  1  0  0  0  0
  9 23  2  0  0  0  0
 10 11  1  0  0  0  0
 11 14  2  0  0  0  0
 12 13  1  0  0  0  0
 12 18  1  0  0  0  0
 13 20  1  0  0  0  0
 14 24  1  0  0  0  0
 15 32  1  0  0  0  0
 16 20  1  0  0  0  0
 16 24  1  0  0  0  0
 16 27  2  0  0  0  0
 17 24  1  0  0  0  0
 17 25  1  0  0  0  0
 17 28  2  0  0  0  0
 18 26  1  0  0  0  0
 19 20  1  0  0  0  0
 19 26  1  0  0  0  0
 20 25  1  0  0  0  0
 21 25  1  0  0  0  0
 22 31  1  0  0  0  0
 26 31  1  1  0  0  0
 29 31  2  0  0  0  0
 30 31  2  0  0  0  0
  1 33  1  0  0  0  0
  2 34  1  0  0  0  0
  3 35  1  0  0  0  0
  4 36  1  0  0  0  0
  5 37  1  0  0  0  0
  6 38  1  0  0  0  0
  7 39  1  0  0  0  0
  8 40  1  0  0  0  0
  9 41  1  0  0  0  0
 18 42  1  0  0  0  0
 18 43  1  0  0  0  0
 19 44  1  0  0  0  0
 19 45  1  0  0  0  0
 21 46  1  0  0  0  0
 21 47  1  0  0  0  0
 21 48  1  0  0  0  0
 22 49  1  0  0  0  0
 22 50  1  0  0  0  0
 22 51  1  0  0  0  0
M  END
> <compound>
EDJ-MED-7587a9ee-1

> <compound_smiles>
CN1C(=O)N(C(=O)C12CN(Cc3c2cc(cc3)Cl)S(=O)(=O)C)c4cncc5c4cccc5

> <enantiomer_smiles>
CN1C(=O)N(C(=O)C12C[N@@](Cc3c2cc(cc3)Cl)S(=O)(=O)C)c4cncc5c4cccc5

> <scaffold>
tetrahydroisoquinoline-5spiro-isoquinoline

> <clash_score>
0

> <docking_score>
-8.851251602172852

> <overlap_score>
1.016526222229004

> <MMFF_internal_energy>
76.7677053566668

> <docked_smiles>
CN1C(=O)N(C(=O)[C@@]12C[N@@](Cc3c2cc(cc3)Cl)S(=O)(=O)C)c4cncc5c4cccc5

$$$$
EDJ-MED-7587a9ee-1_2
  -OEChem-12272114573D

 51 55  0     1  0  0  0  0  0999 V2000
    3.3432    2.6279   20.4411 C   0  0  0  0  0  0  0  0  0  0  0  0
    3.8960    1.9291   21.5050 C   0  0  0  0  0  0  0  0  0  0  0  0
    3.7865    2.4205   19.1660 C   0  0  0  0  0  0  0  0  0  0  0  0
    4.8973    1.0233   21.2988 C   0  0  0  0  0  0  0  0  0  0  0  0
   12.0765    0.0316   24.1541 C   0  0  0  0  0  0  0  0  0  0  0  0
   12.9132   -0.6032   23.2569 C   0  0  0  0  0  0  0  0  0  0  0  0
   10.9991   -1.4331   22.0443 C   0  0  0  0  0  0  0  0  0  0  0  0
    5.3278    1.2339   17.6066 C   0  0  0  0  0  0  0  0  0  0  0  0
    6.8438   -0.2892   18.3752 C   0  0  0  0  0  0  0  0  0  0  0  0
    4.8226    1.4906   18.9054 C   0  0  0  0  0  0  0  0  0  0  0  0
    5.3982    0.7733   19.9948 C   0  0  0  0  0  0  0  0  0  0  0  0
   10.7040   -0.0625   23.9898 C   0  0  0  0  0  0  0  0  0  0  0  0
   10.1406   -0.7765   22.9250 C   0  0  0  0  0  0  0  0  0  0  0  0
    6.4440   -0.1472   19.6979 C   0  0  0  0  0  0  0  0  0  0  0  0
   12.3683   -1.3298   22.2234 C   0  0  0  0  0  0  0  0  0  0  0  0
    8.2490    0.0169   21.4271 C   0  0  0  0  0  0  0  0  0  0  0  0
    6.9866   -1.9366   21.3580 C   0  0  0  0  0  0  0  0  0  0  0  0
    9.9479    0.5589   24.9534 C   0  0  0  0  0  0  0  0  0  0  0  0
    7.8721   -0.1194   23.8831 C   0  0  0  0  0  0  0  0  0  0  0  0
    8.6238   -0.7606   22.6929 C   0  0  3  0  0  0  0  0  0  0  0  0
    8.2598   -3.3011   23.1247 C   0  0  0  0  0  0  0  0  0  0  0  0
    6.3256    1.0022   25.7667 C   0  0  0  0  0  0  0  0  0  0  0  0
    6.3062    0.3769   17.3421 N   0  0  0  0  0  0  0  0  0  0  0  0
    7.2292   -0.6897   20.7790 N   0  0  0  0  0  0  0  0  0  0  0  0
    8.0140   -2.1541   22.4331 N   0  0  0  0  0  0  0  0  0  0  0  0
    8.6609    1.0133   24.4995 N   0  0  2  0  0  0  0  0  0  0  0  0
    8.8033    1.0418   21.0877 O   0  0  0  0  0  0  0  0  0  0  0  0
    6.1123   -2.7500   21.1416 O   0  0  0  0  0  0  0  0  0  0  0  0
    7.3835    3.2065   24.8451 O   0  0  0  0  0  0  0  0  0  0  0  0
    8.4460    2.0841   26.8443 O   0  0  0  0  0  0  0  0  0  0  0  0
    7.7694    2.0141   25.5676 S   0  0  0  0  0  0  0  0  0  0  0  0
   13.4272   -2.1393   21.1076 Cl  0  0  0  0  0  0  0  0  0  0  0  0
    2.5432    3.3510   20.6369 H   0  0  0  0  0  0  0  0  0  0  0  0
    3.5174    2.1137   22.5168 H   0  0  0  0  0  0  0  0  0  0  0  0
    3.3409    2.9743   18.3364 H   0  0  0  0  0  0  0  0  0  0  0  0
    5.3118    0.4895   22.1572 H   0  0  0  0  0  0  0  0  0  0  0  0
   12.5021    0.6017   24.9722 H   0  0  0  0  0  0  0  0  0  0  0  0
   13.9909   -0.5140   23.3773 H   0  0  0  0  0  0  0  0  0  0  0  0
   10.6051   -2.0206   21.2263 H   0  0  0  0  0  0  0  0  0  0  0  0
    4.9141    1.7511   16.7474 H   0  0  0  0  0  0  0  0  0  0  0  0
    7.6445   -0.9764   18.1043 H   0  0  0  0  0  0  0  0  0  0  0  0
    9.7886   -0.1158   25.8360 H   0  0  0  0  0  0  0  0  0  0  0  0
   10.4811    1.4581   25.3598 H   0  0  0  0  0  0  0  0  0  0  0  0
    6.8946    0.2738   23.5526 H   0  0  0  0  0  0  0  0  0  0  0  0
    7.6748   -0.8555   24.6824 H   0  0  0  0  0  0  0  0  0  0  0  0
    9.0281   -3.8846   22.5964 H   0  0  0  0  0  0  0  0  0  0  0  0
    8.6196   -3.0496   24.1333 H   0  0  0  0  0  0  0  0  0  0  0  0
    7.3371   -3.8950   23.2021 H   0  0  0  0  0  0  0  0  0  0  0  0
    5.6299    1.5212   26.4278 H   0  0  0  0  0  0  0  0  0  0  0  0
    5.8762    0.8466   24.7848 H   0  0  0  0  0  0  0  0  0  0  0  0
    6.6302    0.0500   26.2034 H   0  0  0  0  0  0  0  0  0  0  0  0
  1  2  1  0  0  0  0
  1  3  2  0  0  0  0
  2  4  2  0  0  0  0
  3 10  1  0  0  0  0
  4 11  1  0  0  0  0
  5  6  1  0  0  0  0
  5 12  2  0  0  0  0
  6 15  2  0  0  0  0
  7 13  2  0  0  0  0
  7 15  1  0  0  0  0
  8 10  2  0  0  0  0
  8 23  1  0  0  0  0
  9 14  1  0  0  0  0
  9 23  2  0  0  0  0
 10 11  1  0  0  0  0
 11 14  2  0  0  0  0
 12 13  1  0  0  0  0
 12 18  1  0  0  0  0
 13 20  1  0  0  0  0
 14 24  1  0  0  0  0
 15 32  1  0  0  0  0
 16 20  1  0  0  0  0
 16 24  1  0  0  0  0
 16 27  2  0  0  0  0
 17 24  1  0  0  0  0
 17 25  1  0  0  0  0
 17 28  2  0  0  0  0
 18 26  1  0  0  0  0
 19 20  1  0  0  0  0
 19 26  1  0  0  0  0
 20 25  1  0  0  0  0
 21 25  1  0  0  0  0
 22 31  1  0  0  0  0
 26 31  1  6  0  0  0
 29 31  2  0  0  0  0
 30 31  2  0  0  0  0
  1 33  1  0  0  0  0
  2 34  1  0  0  0  0
  3 35  1  0  0  0  0
  4 36  1  0  0  0  0
  5 37  1  0  0  0  0
  6 38  1  0  0  0  0
  7 39  1  0  0  0  0
  8 40  1  0  0  0  0
  9 41  1  0  0  0  0
 18 42  1  0  0  0  0
 18 43  1  0  0  0  0
 19 44  1  0  0  0  0
 19 45  1  0  0  0  0
 21 46  1  0  0  0  0
 21 47  1  0  0  0  0
 21 48  1  0  0  0  0
 22 49  1  0  0  0  0
 22 50  1  0  0  0  0
 22 51  1  0  0  0  0
M  END
> <compound>
EDJ-MED-7587a9ee-1

> <compound_smiles>
CN1C(=O)N(C(=O)C12CN(Cc3c2cc(cc3)Cl)S(=O)(=O)C)c4cncc5c4cccc5

> <enantiomer_smiles>
CN1C(=O)N(C(=O)C12C[N@](Cc3c2cc(cc3)Cl)S(=O)(=O)C)c4cncc5c4cccc5

> <scaffold>
tetrahydroisoquinoline-5spiro-isoquinoline

> <clash_score>
0

> <docking_score>
-8.852065086364746

> <overlap_score>
1.01314377784729

> <MMFF_internal_energy>
86.53841584002389

> <docked_smiles>
CN1C(=O)N(C(=O)[C@@]12C[N@](Cc3c2cc(cc3)Cl)S(=O)(=O)C)c4cncc5c4cccc5

$$$$
MAT-POS-2e8b2191-8_1
  -OEChem-12272114573D

 51 55  0     1  0  0  0  0  0999 V2000
    3.3432    2.6279   20.4411 C   0  0  0  0  0  0  0  0  0  0  0  0
    3.8960    1.9291   21.5050 C   0  0  0  0  0  0  0  0  0  0  0  0
    3.7865    2.4205   19.1660 C   0  0  0  0  0  0  0  0  0  0  0  0
    4.8973    1.0233   21.2988 C   0  0  0  0  0  0  0  0  0  0  0  0
   12.0765    0.0316   24.1541 C   0  0  0  0  0  0  0  0  0  0  0  0
   12.9132   -0.6032   23.2569 C   0  0  0  0  0  0  0  0  0  0  0  0
   10.9991   -1.4331   22.0443 C   0  0  0  0  0  0  0  0  0  0  0  0
    5.3278    1.2339   17.6066 C   0  0  0  0  0  0  0  0  0  0  0  0
    6.8438   -0.2892   18.3752 C   0  0  0  0  0  0  0  0  0  0  0  0
    4.8226    1.4906   18.9054 C   0  0  0  0  0  0  0  0  0  0  0  0
    5.3982    0.7733   19.9948 C   0  0  0  0  0  0  0  0  0  0  0  0
   10.7040   -0.0625   23.9898 C   0  0  0  0  0  0  0  0  0  0  0  0
   10.1406   -0.7765   22.9250 C   0  0  0  0  0  0  0  0  0  0  0  0
    6.4440   -0.1472   19.6979 C   0  0  0  0  0  0  0  0  0  0  0  0
   12.3683   -1.3298   22.2234 C   0  0  0  0  0  0  0  0  0  0  0  0
    8.2490    0.0169   21.4271 C   0  0  0  0  0  0  0  0  0  0  0  0
    6.9866   -1.9366   21.3580 C   0  0  0  0  0  0  0  0  0  0  0  0
    9.9479    0.5589   24.9534 C   0  0  0  0  0  0  0  0  0  0  0  0
    7.8721   -0.1194   23.8831 C   0  0  0  0  0  0  0  0  0  0  0  0
    8.6238   -0.7606   22.6929 C   0  0  3  0  0  0  0  0  0  0  0  0
    8.4171   -3.3405   22.9664 C   0  0  0  0  0  0  0  0  0  0  0  0
    8.4075    3.6303   24.9484 C   0  0  0  0  0  0  0  0  0  0  0  0
    6.3062    0.3769   17.3421 N   0  0  0  0  0  0  0  0  0  0  0  0
    7.2292   -0.6897   20.7790 N   0  0  0  0  0  0  0  0  0  0  0  0
    8.0140   -2.1541   22.4331 N   0  0  0  0  0  0  0  0  0  0  0  0
    8.6609    1.0133   24.4995 N   0  0  1  0  0  0  0  0  0  0  0  0
    8.7630    1.0720   21.1180 O   0  0  0  0  0  0  0  0  0  0  0  0
    6.1592   -2.7831   21.0901 O   0  0  0  0  0  0  0  0  0  0  0  0
    7.4173    2.4897   22.8163 O   0  0  0  0  0  0  0  0  0  0  0  0
    9.9252    2.7159   23.0279 O   0  0  0  0  0  0  0  0  0  0  0  0
    8.6239    2.4808   23.6143 S   0  0  0  0  0  0  0  0  0  0  0  0
   13.4269   -2.1423   21.1095 Cl  0  0  0  0  0  0  0  0  0  0  0  0
    2.5432    3.3510   20.6369 H   0  0  0  0  0  0  0  0  0  0  0  0
    3.5174    2.1137   22.5168 H   0  0  0  0  0  0  0  0  0  0  0  0
    3.3409    2.9743   18.3364 H   0  0  0  0  0  0  0  0  0  0  0  0
    5.3118    0.4895   22.1572 H   0  0  0  0  0  0  0  0  0  0  0  0
   12.5022    0.5907   24.9797 H   0  0  0  0  0  0  0  0  0  0  0  0
   13.9909   -0.5235   23.3836 H   0  0  0  0  0  0  0  0  0  0  0  0
   10.6049   -2.0196   21.2256 H   0  0  0  0  0  0  0  0  0  0  0  0
    4.9141    1.7511   16.7474 H   0  0  0  0  0  0  0  0  0  0  0  0
    7.6445   -0.9764   18.1043 H   0  0  0  0  0  0  0  0  0  0  0  0
    9.7584   -0.1303   25.8178 H   0  0  0  0  0  0  0  0  0  0  0  0
   10.4944    1.4374   25.3881 H   0  0  0  0  0  0  0  0  0  0  0  0
    6.8958    0.2920   23.5719 H   0  0  0  0  0  0  0  0  0  0  0  0
    7.6749   -0.8745   24.6642 H   0  0  0  0  0  0  0  0  0  0  0  0
    9.2592   -3.7434   22.3845 H   0  0  0  0  0  0  0  0  0  0  0  0
    8.7350   -3.1780   24.0068 H   0  0  0  0  0  0  0  0  0  0  0  0
    7.5817   -4.0557   22.9456 H   0  0  0  0  0  0  0  0  0  0  0  0
    8.3521    4.6367   24.5302 H   0  0  0  0  0  0  0  0  0  0  0  0
    7.4824    3.3817   25.4706 H   0  0  0  0  0  0  0  0  0  0  0  0
    9.2621    3.5422   25.6208 H   0  0  0  0  0  0  0  0  0  0  0  0
  1  2  1  0  0  0  0
  1  3  2  0  0  0  0
  2  4  2  0  0  0  0
  3 10  1  0  0  0  0
  4 11  1  0  0  0  0
  5  6  1  0  0  0  0
  5 12  2  0  0  0  0
  6 15  2  0  0  0  0
  7 13  2  0  0  0  0
  7 15  1  0  0  0  0
  8 10  2  0  0  0  0
  8 23  1  0  0  0  0
  9 14  1  0  0  0  0
  9 23  2  0  0  0  0
 10 11  1  0  0  0  0
 11 14  2  0  0  0  0
 12 13  1  0  0  0  0
 12 18  1  0  0  0  0
 13 20  1  0  0  0  0
 14 24  1  0  0  0  0
 15 32  1  0  0  0  0
 16 20  1  0  0  0  0
 16 24  1  0  0  0  0
 16 27  2  0  0  0  0
 17 24  1  0  0  0  0
 17 25  1  0  0  0  0
 17 28  2  0  0  0  0
 18 26  1  0  0  0  0
 19 20  1  0  0  0  0
 19 26  1  0  0  0  0
 20 25  1  0  0  0  0
 21 25  1  0  0  0  0
 22 31  1  0  0  0  0
 26 31  1  1  0  0  0
 29 31  2  0  0  0  0
 30 31  2  0  0  0  0
  1 33  1  0  0  0  0
  2 34  1  0  0  0  0
  3 35  1  0  0  0  0
  4 36  1  0  0  0  0
  5 37  1  0  0  0  0
  6 38  1  0  0  0  0
  7 39  1  0  0  0  0
  8 40  1  0  0  0  0
  9 41  1  0  0  0  0
 18 42  1  0  0  0  0
 18 43  1  0  0  0  0
 19 44  1  0  0  0  0
 19 45  1  0  0  0  0
 21 46  1  0  0  0  0
 21 47  1  0  0  0  0
 21 48  1  0  0  0  0
 22 49  1  0  0  0  0
 22 50  1  0  0  0  0
 22 51  1  0  0  0  0
M  END
> <compound>
MAT-POS-2e8b2191-8

> <compound_smiles>
CN1C(=O)N(C(=O)C12CN(Cc3c2cc(cc3)Cl)S(=O)(=O)C)c4cncc5c4cccc5

> <enantiomer_smiles>
CN1C(=O)N(C(=O)C12C[N@@](Cc3c2cc(cc3)Cl)S(=O)(=O)C)c4cncc5c4cccc5

> <scaffold>
tetrahydroisoquinoline-5spiro-isoquinoline

> <clash_score>
0

> <docking_score>
-8.851251602172852

> <overlap_score>
1.016526222229004

> <MMFF_internal_energy>
76.7677053566668

> <docked_smiles>
CN1C(=O)N(C(=O)[C@@]12C[N@@](Cc3c2cc(cc3)Cl)S(=O)(=O)C)c4cncc5c4cccc5

$$$$
VLA-MRT-a639d434-1_1
  -OEChem-12272114573D

 53 57  0     1  0  0  0  0  0999 V2000
    3.3432    2.6279   20.4411 C   0  0  0  0  0  0  0  0  0  0  0  0
    3.8960    1.9291   21.5050 C   0  0  0  0  0  0  0  0  0  0  0  0
    3.7865    2.4205   19.1660 C   0  0  0  0  0  0  0  0  0  0  0  0
    4.8973    1.0233   21.2988 C   0  0  0  0  0  0  0  0  0  0  0  0
   12.0765    0.0316   24.1541 C   0  0  0  0  0  0  0  0  0  0  0  0
   12.9132   -0.6032   23.2569 C   0  0  0  0  0  0  0  0  0  0  0  0
   10.9991   -1.4331   22.0443 C   0  0  0  0  0  0  0  0  0  0  0  0
    5.3278    1.2339   17.6066 C   0  0  0  0  0  0  0  0  0  0  0  0
    6.8438   -0.2892   18.3752 C   0  0  0  0  0  0  0  0  0  0  0  0
    4.8226    1.4906   18.9054 C   0  0  0  0  0  0  0  0  0  0  0  0
    5.3982    0.7733   19.9948 C   0  0  0  0  0  0  0  0  0  0  0  0
   10.7040   -0.0625   23.9898 C   0  0  0  0  0  0  0  0  0  0  0  0
   10.1406   -0.7765   22.9250 C   0  0  0  0  0  0  0  0  0  0  0  0
    6.4440   -0.1472   19.6979 C   0  0  0  0  0  0  0  0  0  0  0  0
   12.3683   -1.3298   22.2234 C   0  0  0  0  0  0  0  0  0  0  0  0
    8.2490    0.0169   21.4271 C   0  0  0  0  0  0  0  0  0  0  0  0
    6.9866   -1.9366   21.3580 C   0  0  0  0  0  0  0  0  0  0  0  0
    7.3736    2.6616   23.1126 C   0  0  0  0  0  0  0  0  0  0  0  0
    9.9479    0.5589   24.9534 C   0  0  0  0  0  0  0  0  0  0  0  0
    7.8721   -0.1194   23.8831 C   0  0  0  0  0  0  0  0  0  0  0  0
    8.6238   -0.7606   22.6929 C   0  0  1  0  0  0  0  0  0  0  0  0
    6.2917    4.3809   21.6944 C   0  0  0  0  0  0  0  0  0  0  0  0
    8.7363    2.1998   23.5644 C   0  0  0  0  0  0  0  0  0  0  0  0
    6.3062    0.3769   17.3421 N   0  0  0  0  0  0  0  0  0  0  0  0
    8.0140   -2.1541   22.4331 N   0  0  0  0  0  0  0  0  0  0  0  0
    7.2292   -0.6897   20.7790 N   0  0  0  0  0  0  0  0  0  0  0  0
    7.4612    3.7547   22.2636 N   0  0  0  0  0  0  0  0  0  0  0  0
    8.6609    1.0133   24.4995 N   0  3  2  0  0  0  0  0  0  0  0  0
    8.8058    1.0452   21.0986 O   0  0  0  0  0  0  0  0  0  0  0  0
    6.1317   -2.7702   21.1555 O   0  0  0  0  0  0  0  0  0  0  0  0
    6.3281    2.1216   23.4639 O   0  0  0  0  0  0  0  0  0  0  0  0
   13.4271   -2.1436   21.1106 Cl  0  0  0  0  0  0  0  0  0  0  0  0
    2.5432    3.3510   20.6369 H   0  0  0  0  0  0  0  0  0  0  0  0
    3.5174    2.1137   22.5168 H   0  0  0  0  0  0  0  0  0  0  0  0
    3.3409    2.9743   18.3364 H   0  0  0  0  0  0  0  0  0  0  0  0
    5.3118    0.4895   22.1572 H   0  0  0  0  0  0  0  0  0  0  0  0
   12.5014    0.5934   24.9783 H   0  0  0  0  0  0  0  0  0  0  0  0
   13.9910   -0.5222   23.3825 H   0  0  0  0  0  0  0  0  0  0  0  0
   10.6050   -2.0224   21.2277 H   0  0  0  0  0  0  0  0  0  0  0  0
    4.9141    1.7511   16.7474 H   0  0  0  0  0  0  0  0  0  0  0  0
    7.6445   -0.9764   18.1043 H   0  0  0  0  0  0  0  0  0  0  0  0
    9.7386   -0.1135   25.8252 H   0  0  0  0  0  0  0  0  0  0  0  0
   10.4773    1.4547   25.3706 H   0  0  0  0  0  0  0  0  0  0  0  0
    6.8917    0.2956   23.5778 H   0  0  0  0  0  0  0  0  0  0  0  0
    7.6711   -0.8618   24.6791 H   0  0  0  0  0  0  0  0  0  0  0  0
    6.0659    3.9208   20.7211 H   0  0  0  0  0  0  0  0  0  0  0  0
    5.4361    4.2438   22.3720 H   0  0  0  0  0  0  0  0  0  0  0  0
    6.4818    5.4555   21.5566 H   0  0  0  0  0  0  0  0  0  0  0  0
    9.2534    3.0004   24.1004 H   0  0  0  0  0  0  0  0  0  0  0  0
    9.3298    1.8699   22.7072 H   0  0  0  0  0  0  0  0  0  0  0  0
    8.2144   -2.9452   22.8482 H   0  0  0  0  0  0  0  0  0  0  0  0
    8.3717    4.1501   22.0468 H   0  0  0  0  0  0  0  0  0  0  0  0
    8.1051    1.3401   25.3130 H   0  0  0  0  0  0  0  0  0  0  0  0
  1  2  1  0  0  0  0
  1  3  2  0  0  0  0
  2  4  2  0  0  0  0
  3 10  1  0  0  0  0
  4 11  1  0  0  0  0
  5  6  2  0  0  0  0
  5 12  1  0  0  0  0
  6 15  1  0  0  0  0
  7 13  1  0  0  0  0
  7 15  2  0  0  0  0
  8 10  2  0  0  0  0
  8 24  1  0  0  0  0
  9 14  1  0  0  0  0
  9 24  2  0  0  0  0
 10 11  1  0  0  0  0
 11 14  2  0  0  0  0
 12 13  2  0  0  0  0
 12 19  1  0  0  0  0
 13 21  1  1  0  0  0
 14 26  1  0  0  0  0
 15 32  1  0  0  0  0
 16 21  1  6  0  0  0
 16 26  1  0  0  0  0
 16 29  2  0  0  0  0
 17 25  1  0  0  0  0
 17 26  1  0  0  0  0
 17 30  2  0  0  0  0
 18 23  1  0  0  0  0
 18 27  1  0  0  0  0
 18 31  2  0  0  0  0
 19 28  1  0  0  0  0
 20 21  1  1  0  0  0
 20 28  1  0  0  0  0
 21 25  1  6  0  0  0
 22 27  1  0  0  0  0
 23 28  1  1  0  0  0
  1 33  1  0  0  0  0
  2 34  1  0  0  0  0
  3 35  1  0  0  0  0
  4 36  1  0  0  0  0
  5 37  1  0  0  0  0
  6 38  1  0  0  0  0
  7 39  1  0  0  0  0
  8 40  1  0  0  0  0
  9 41  1  0  0  0  0
 19 42  1  0  0  0  0
 19 43  1  0  0  0  0
 20 44  1  0  0  0  0
 20 45  1  0  0  0  0
 22 46  1  0  0  0  0
 22 47  1  0  0  0  0
 22 48  1  0  0  0  0
 23 49  1  0  0  0  0
 23 50  1  0  0  0  0
 25 51  1  0  0  0  0
 27 52  1  0  0  0  0
 28 53  1  0  0  0  0
M  CHG  1  28   1
M  END
> <compound>
VLA-MRT-a639d434-1

> <compound_smiles>
CNC(=O)CN1Cc2ccc(cc2[C@@]3(C1)C(=O)N(C(=O)N3)c4cncc5c4cccc5)Cl

> <enantiomer_smiles>
CNC(=O)C[N@@]1Cc2ccc(cc2[C@@]3(C1)C(=O)N(C(=O)N3)c4cncc5c4cccc5)Cl

> <scaffold>
tetrahydroisoquinoline-5spiro-isoquinoline

> <clash_score>
0

> <docking_score>
-9.024639129638672

> <overlap_score>
1.0

> <MMFF_internal_energy>
166.5158905165461

> <docked_smiles>
CNC(=O)C[N@@H+]1Cc2ccc(cc2[C@@]3(C1)C(=O)N(C(=O)N3)c4cncc5c4cccc5)Cl

$$$$
LUO-POS-ed2cfb03-2_2
  -OEChem-12272114573D

 52 56  0     1  0  0  0  0  0999 V2000
    3.3432    2.6279   20.4411 C   0  0  0  0  0  0  0  0  0  0  0  0
    3.8960    1.9291   21.5050 C   0  0  0  0  0  0  0  0  0  0  0  0
    3.7865    2.4205   19.1660 C   0  0  0  0  0  0  0  0  0  0  0  0
    4.8973    1.0233   21.2988 C   0  0  0  0  0  0  0  0  0  0  0  0
   12.0765    0.0316   24.1541 C   0  0  0  0  0  0  0  0  0  0  0  0
   12.9132   -0.6032   23.2569 C   0  0  0  0  0  0  0  0  0  0  0  0
   10.9991   -1.4331   22.0443 C   0  0  0  0  0  0  0  0  0  0  0  0
    5.3278    1.2339   17.6066 C   0  0  0  0  0  0  0  0  0  0  0  0
    6.8438   -0.2892   18.3752 C   0  0  0  0  0  0  0  0  0  0  0  0
    4.8226    1.4906   18.9054 C   0  0  0  0  0  0  0  0  0  0  0  0
    5.3982    0.7733   19.9948 C   0  0  0  0  0  0  0  0  0  0  0  0
   10.7040   -0.0625   23.9898 C   0  0  0  0  0  0  0  0  0  0  0  0
   10.1406   -0.7765   22.9250 C   0  0  0  0  0  0  0  0  0  0  0  0
    6.4440   -0.1472   19.6979 C   0  0  0  0  0  0  0  0  0  0  0  0
   12.3683   -1.3298   22.2234 C   0  0  0  0  0  0  0  0  0  0  0  0
    8.2490    0.0169   21.4271 C   0  0  0  0  0  0  0  0  0  0  0  0
    9.9479    0.5589   24.9534 C   0  0  0  0  0  0  0  0  0  0  0  0
    8.0140   -2.1541   22.4331 C   0  0  0  0  0  0  0  0  0  0  0  0
    6.9866   -1.9366   21.3580 C   0  0  0  0  0  0  0  0  0  0  0  0
    7.8721   -0.1194   23.8831 C   0  0  0  0  0  0  0  0  0  0  0  0
    8.6238   -0.7606   22.6929 C   0  0  3  0  0  0  0  0  0  0  0  0
    7.4893    4.7420   25.4398 C   0  0  0  0  0  0  0  0  0  0  0  0
    6.3062    0.3769   17.3421 N   0  0  0  0  0  0  0  0  0  0  0  0
    7.2292   -0.6897   20.7790 N   0  0  0  0  0  0  0  0  0  0  0  0
    8.6609    1.0133   24.4995 N   0  0  1  0  0  0  0  0  0  0  0  0
    8.3191    3.5736   25.0878 N   0  0  0  0  0  0  0  0  0  0  0  0
    8.8299    1.0397   21.0799 O   0  0  0  0  0  0  0  0  0  0  0  0
    8.2558    1.7655   26.9089 O   0  0  0  0  0  0  0  0  0  0  0  0
    6.3554    1.8987   25.2611 O   0  0  0  0  0  0  0  0  0  0  0  0
    7.7708    2.0177   25.5632 S   0  0  0  0  0  0  0  0  0  0  0  0
   13.4272   -2.1411   21.1086 Cl  0  0  0  0  0  0  0  0  0  0  0  0
    2.5432    3.3510   20.6369 H   0  0  0  0  0  0  0  0  0  0  0  0
    3.5174    2.1137   22.5168 H   0  0  0  0  0  0  0  0  0  0  0  0
    3.3409    2.9743   18.3364 H   0  0  0  0  0  0  0  0  0  0  0  0
    5.3118    0.4895   22.1572 H   0  0  0  0  0  0  0  0  0  0  0  0
   12.5024    0.5995   24.9735 H   0  0  0  0  0  0  0  0  0  0  0  0
   13.9910   -0.5177   23.3793 H   0  0  0  0  0  0  0  0  0  0  0  0
   10.6036   -2.0162   21.2241 H   0  0  0  0  0  0  0  0  0  0  0  0
    4.9141    1.7511   16.7474 H   0  0  0  0  0  0  0  0  0  0  0  0
    7.6445   -0.9764   18.1043 H   0  0  0  0  0  0  0  0  0  0  0  0
    9.7849   -0.1194   25.8306 H   0  0  0  0  0  0  0  0  0  0  0  0
   10.4793    1.4568   25.3613 H   0  0  0  0  0  0  0  0  0  0  0  0
    7.5152   -2.5456   23.3338 H   0  0  0  0  0  0  0  0  0  0  0  0
    8.7649   -2.9030   22.1434 H   0  0  0  0  0  0  0  0  0  0  0  0
    7.0587   -2.7248   20.5721 H   0  0  0  0  0  0  0  0  0  0  0  0
    5.9518   -1.9952   21.7720 H   0  0  0  0  0  0  0  0  0  0  0  0
    6.8867    0.2641   23.5642 H   0  0  0  0  0  0  0  0  0  0  0  0
    7.6652   -0.8660   24.6733 H   0  0  0  0  0  0  0  0  0  0  0  0
    6.4262    4.4879   25.3165 H   0  0  0  0  0  0  0  0  0  0  0  0
    7.6796    5.0251   26.4855 H   0  0  0  0  0  0  0  0  0  0  0  0
    7.7437    5.5845   24.7798 H   0  0  0  0  0  0  0  0  0  0  0  0
    9.3288    3.7450   25.1819 H   0  0  0  0  0  0  0  0  0  0  0  0
  1  2  1  0  0  0  0
  1  3  2  0  0  0  0
  2  4  2  0  0  0  0
  3 10  1  0  0  0  0
  4 11  1  0  0  0  0
  5  6  2  0  0  0  0
  5 12  1  0  0  0  0
  6 15  1  0  0  0  0
  7 13  1  0  0  0  0
  7 15  2  0  0  0  0
  8 10  2  0  0  0  0
  8 23  1  0  0  0  0
  9 14  1  0  0  0  0
  9 23  2  0  0  0  0
 10 11  1  0  0  0  0
 11 14  2  0  0  0  0
 12 13  2  0  0  0  0
 12 17  1  0  0  0  0
 13 21  1  0  0  0  0
 14 24  1  0  0  0  0
 15 31  1  0  0  0  0
 16 21  1  0  0  0  0
 16 24  1  0  0  0  0
 16 27  2  0  0  0  0
 17 25  1  0  0  0  0
 18 19  1  0  0  0  0
 18 21  1  0  0  0  0
 19 24  1  0  0  0  0
 20 21  1  0  0  0  0
 20 25  1  0  0  0  0
 22 26  1  0  0  0  0
 25 30  1  6  0  0  0
 26 30  1  0  0  0  0
 28 30  2  0  0  0  0
 29 30  2  0  0  0  0
  1 32  1  0  0  0  0
  2 33  1  0  0  0  0
  3 34  1  0  0  0  0
  4 35  1  0  0  0  0
  5 36  1  0  0  0  0
  6 37  1  0  0  0  0
  7 38  1  0  0  0  0
  8 39  1  0  0  0  0
  9 40  1  0  0  0  0
 17 41  1  0  0  0  0
 17 42  1  0  0  0  0
 18 43  1  0  0  0  0
 18 44  1  0  0  0  0
 19 45  1  0  0  0  0
 19 46  1  0  0  0  0
 20 47  1  0  0  0  0
 20 48  1  0  0  0  0
 22 49  1  0  0  0  0
 22 50  1  0  0  0  0
 22 51  1  0  0  0  0
 26 52  1  0  0  0  0
M  END
> <compound>
LUO-POS-ed2cfb03-2

> <compound_smiles>
CNS(=O)(=O)N1Cc2ccc(cc2C3(C1)CCN(C3=O)c4cncc5c4cccc5)Cl

> <enantiomer_smiles>
CNS(=O)(=O)[N@]1Cc2ccc(cc2C3(C1)CCN(C3=O)c4cncc5c4cccc5)Cl

> <scaffold>
tetrahydroisoquinoline-5spiro-isoquinoline

> <clash_score>
0

> <docking_score>
-9.29088020324707

> <overlap_score>
0.977142870426178

> <MMFF_internal_energy>
-44.31008900662814

> <docked_smiles>
CNS(=O)(=O)[N@]1Cc2ccc(cc2[C@]3(C1)CCN(C3=O)c4cncc5c4cccc5)Cl

$$$$
VLA-MRT-8c78ee15-3_1
  -OEChem-12272114573D

 53 57  0     1  0  0  0  0  0999 V2000
    3.3432    2.6279   20.4411 C   0  0  0  0  0  0  0  0  0  0  0  0
    3.8960    1.9291   21.5050 C   0  0  0  0  0  0  0  0  0  0  0  0
    3.7865    2.4205   19.1660 C   0  0  0  0  0  0  0  0  0  0  0  0
    4.8973    1.0233   21.2988 C   0  0  0  0  0  0  0  0  0  0  0  0
   12.0765    0.0316   24.1541 C   0  0  0  0  0  0  0  0  0  0  0  0
   12.9132   -0.6032   23.2569 C   0  0  0  0  0  0  0  0  0  0  0  0
   10.9991   -1.4331   22.0443 C   0  0  0  0  0  0  0  0  0  0  0  0
    5.3278    1.2339   17.6066 C   0  0  0  0  0  0  0  0  0  0  0  0
    6.8438   -0.2892   18.3752 C   0  0  0  0  0  0  0  0  0  0  0  0
    4.8226    1.4906   18.9054 C   0  0  0  0  0  0  0  0  0  0  0  0
    5.3982    0.7733   19.9948 C   0  0  0  0  0  0  0  0  0  0  0  0
   10.7040   -0.0625   23.9898 C   0  0  0  0  0  0  0  0  0  0  0  0
   10.1406   -0.7765   22.9250 C   0  0  0  0  0  0  0  0  0  0  0  0
    6.4440   -0.1472   19.6979 C   0  0  0  0  0  0  0  0  0  0  0  0
   12.3683   -1.3298   22.2234 C   0  0  0  0  0  0  0  0  0  0  0  0
    8.2490    0.0169   21.4271 C   0  0  0  0  0  0  0  0  0  0  0  0
    6.9866   -1.9366   21.3580 C   0  0  0  0  0  0  0  0  0  0  0  0
    7.4198    2.9280   23.5244 C   0  0  0  0  0  0  0  0  0  0  0  0
    9.9479    0.5589   24.9534 C   0  0  0  0  0  0  0  0  0  0  0  0
    7.8721   -0.1194   23.8831 C   0  0  0  0  0  0  0  0  0  0  0  0
    8.6238   -0.7606   22.6929 C   0  0  2  0  0  0  0  0  0  0  0  0
    6.3376    4.9041   22.4941 C   0  0  0  0  0  0  0  0  0  0  0  0
    8.7391    2.1984   23.5627 C   0  0  0  0  0  0  0  0  0  0  0  0
    6.3062    0.3769   17.3421 N   0  0  0  0  0  0  0  0  0  0  0  0
    8.0140   -2.1541   22.4331 N   0  0  0  0  0  0  0  0  0  0  0  0
    7.2292   -0.6897   20.7790 N   0  0  0  0  0  0  0  0  0  0  0  0
    7.4762    4.0405   22.6983 N   0  0  0  0  0  0  0  0  0  0  0  0
    8.6609    1.0133   24.4995 N   0  3  2  0  0  0  0  0  0  0  0  0
    8.7720    1.0685   21.1194 O   0  0  0  0  0  0  0  0  0  0  0  0
    6.1645   -2.7933   21.1193 O   0  0  0  0  0  0  0  0  0  0  0  0
    6.4298    2.5643   24.1535 O   0  0  0  0  0  0  0  0  0  0  0  0
   13.4273   -2.1431   21.1103 Cl  0  0  0  0  0  0  0  0  0  0  0  0
    2.5432    3.3510   20.6369 H   0  0  0  0  0  0  0  0  0  0  0  0
    3.5174    2.1137   22.5168 H   0  0  0  0  0  0  0  0  0  0  0  0
    3.3409    2.9743   18.3364 H   0  0  0  0  0  0  0  0  0  0  0  0
    5.3118    0.4895   22.1572 H   0  0  0  0  0  0  0  0  0  0  0  0
   12.5018    0.5941   24.9776 H   0  0  0  0  0  0  0  0  0  0  0  0
   13.9910   -0.5206   23.3814 H   0  0  0  0  0  0  0  0  0  0  0  0
   10.6057   -2.0225   21.2275 H   0  0  0  0  0  0  0  0  0  0  0  0
    4.9141    1.7511   16.7474 H   0  0  0  0  0  0  0  0  0  0  0  0
    7.6445   -0.9764   18.1043 H   0  0  0  0  0  0  0  0  0  0  0  0
    9.7380   -0.1145   25.8251 H   0  0  0  0  0  0  0  0  0  0  0  0
   10.4771    1.4544   25.3733 H   0  0  0  0  0  0  0  0  0  0  0  0
    6.8991    0.3043   23.5729 H   0  0  0  0  0  0  0  0  0  0  0  0
    7.6858   -0.8552   24.6859 H   0  0  0  0  0  0  0  0  0  0  0  0
    5.7658    4.5574   21.6207 H   0  0  0  0  0  0  0  0  0  0  0  0
    5.6946    4.8800   23.3863 H   0  0  0  0  0  0  0  0  0  0  0  0
    6.6847    5.9333   22.3200 H   0  0  0  0  0  0  0  0  0  0  0  0
    9.5288    2.8553   23.9378 H   0  0  0  0  0  0  0  0  0  0  0  0
    8.9957    1.8236   22.5680 H   0  0  0  0  0  0  0  0  0  0  0  0
    8.2284   -2.9430   22.8422 H   0  0  0  0  0  0  0  0  0  0  0  0
    8.3486    4.2779   22.2349 H   0  0  0  0  0  0  0  0  0  0  0  0
    8.1080    1.3437   25.3133 H   0  0  0  0  0  0  0  0  0  0  0  0
  1  2  1  0  0  0  0
  1  3  2  0  0  0  0
  2  4  2  0  0  0  0
  3 10  1  0  0  0  0
  4 11  1  0  0  0  0
  5  6  2  0  0  0  0
  5 12  1  0  0  0  0
  6 15  1  0  0  0  0
  7 13  1  0  0  0  0
  7 15  2  0  0  0  0
  8 10  2  0  0  0  0
  8 24  1  0  0  0  0
  9 14  1  0  0  0  0
  9 24  2  0  0  0  0
 10 11  1  0  0  0  0
 11 14  2  0  0  0  0
 12 13  2  0  0  0  0
 12 19  1  0  0  0  0
 13 21  1  6  0  0  0
 14 26  1  0  0  0  0
 15 32  1  0  0  0  0
 16 21  1  1  0  0  0
 16 26  1  0  0  0  0
 16 29  2  0  0  0  0
 17 25  1  0  0  0  0
 17 26  1  0  0  0  0
 17 30  2  0  0  0  0
 18 23  1  0  0  0  0
 18 27  1  0  0  0  0
 18 31  2  0  0  0  0
 19 28  1  0  0  0  0
 20 21  1  6  0  0  0
 20 28  1  0  0  0  0
 21 25  1  1  0  0  0
 22 27  1  0  0  0  0
 23 28  1  1  0  0  0
  1 33  1  0  0  0  0
  2 34  1  0  0  0  0
  3 35  1  0  0  0  0
  4 36  1  0  0  0  0
  5 37  1  0  0  0  0
  6 38  1  0  0  0  0
  7 39  1  0  0  0  0
  8 40  1  0  0  0  0
  9 41  1  0  0  0  0
 19 42  1  0  0  0  0
 19 43  1  0  0  0  0
 20 44  1  0  0  0  0
 20 45  1  0  0  0  0
 22 46  1  0  0  0  0
 22 47  1  0  0  0  0
 22 48  1  0  0  0  0
 23 49  1  0  0  0  0
 23 50  1  0  0  0  0
 25 51  1  0  0  0  0
 27 52  1  0  0  0  0
 28 53  1  0  0  0  0
M  CHG  1  28   1
M  END
> <compound>
VLA-MRT-8c78ee15-3

> <compound_smiles>
CNC(=O)CN1Cc2ccc(cc2[C@]3(C1)C(=O)N(C(=O)N3)c4cncc5c4cccc5)Cl

> <enantiomer_smiles>
CNC(=O)C[N@@]1Cc2ccc(cc2[C@]3(C1)C(=O)N(C(=O)N3)c4cncc5c4cccc5)Cl

> <scaffold>
tetrahydroisoquinoline-5spiro-isoquinoline

> <clash_score>
0

> <docking_score>
-8.739189147949219

> <overlap_score>
1.0

> <MMFF_internal_energy>
169.349670114971

> <docked_smiles>
CNC(=O)C[N@@H+]1Cc2ccc(cc2[C@@]3(C1)C(=O)N(C(=O)N3)c4cncc5c4cccc5)Cl

$$$$
EDJ-MED-8bb691af-8_1
  -OEChem-12272114573D

 53 57  0     1  0  0  0  0  0999 V2000
    3.3432    2.6279   20.4411 C   0  0  0  0  0  0  0  0  0  0  0  0
    3.8960    1.9291   21.5050 C   0  0  0  0  0  0  0  0  0  0  0  0
    3.7865    2.4205   19.1660 C   0  0  0  0  0  0  0  0  0  0  0  0
    4.8973    1.0233   21.2988 C   0  0  0  0  0  0  0  0  0  0  0  0
   12.0765    0.0316   24.1541 C   0  0  0  0  0  0  0  0  0  0  0  0
   12.9132   -0.6032   23.2569 C   0  0  0  0  0  0  0  0  0  0  0  0
   10.9991   -1.4331   22.0443 C   0  0  0  0  0  0  0  0  0  0  0  0
    5.3278    1.2339   17.6066 C   0  0  0  0  0  0  0  0  0  0  0  0
    6.8438   -0.2892   18.3752 C   0  0  0  0  0  0  0  0  0  0  0  0
    4.8226    1.4906   18.9054 C   0  0  0  0  0  0  0  0  0  0  0  0
    5.3982    0.7733   19.9948 C   0  0  0  0  0  0  0  0  0  0  0  0
   10.7040   -0.0625   23.9898 C   0  0  0  0  0  0  0  0  0  0  0  0
   10.1406   -0.7765   22.9250 C   0  0  0  0  0  0  0  0  0  0  0  0
    6.4440   -0.1472   19.6979 C   0  0  0  0  0  0  0  0  0  0  0  0
   12.3683   -1.3298   22.2234 C   0  0  0  0  0  0  0  0  0  0  0  0
    9.9479    0.5589   24.9534 C   0  0  0  0  0  0  0  0  0  0  0  0
    8.2490    0.0169   21.4271 C   0  0  0  0  0  0  0  0  0  0  0  0
    8.4669    3.2198   23.6970 C   0  0  0  0  0  0  0  0  0  0  0  0
    8.0140   -2.1541   22.4331 C   0  0  0  0  0  0  0  0  0  0  0  0
    6.9866   -1.9366   21.3580 C   0  0  0  0  0  0  0  0  0  0  0  0
    7.8721   -0.1194   23.8831 C   0  0  0  0  0  0  0  0  0  0  0  0
    8.6238   -0.7606   22.6929 C   0  0  3  0  0  0  0  0  0  0  0  0
   10.2286    4.9046   23.1758 C   0  0  0  0  0  0  0  0  0  0  0  0
    8.0922    2.2237   24.7645 C   0  0  0  0  0  0  0  0  0  0  0  0
    6.3062    0.3769   17.3421 N   0  0  0  0  0  0  0  0  0  0  0  0
    7.2292   -0.6897   20.7790 N   0  0  0  0  0  0  0  0  0  0  0  0
    8.6609    1.0133   24.4995 N   0  0  0  0  0  0  0  0  0  0  0  0
    9.6355    3.8939   24.0215 N   0  0  0  0  0  0  0  0  0  0  0  0
   10.3214    0.7303   26.1092 O   0  0  0  0  0  0  0  0  0  0  0  0
    8.8193    1.0411   21.0780 O   0  0  0  0  0  0  0  0  0  0  0  0
    7.8085    3.3951   22.6752 O   0  0  0  0  0  0  0  0  0  0  0  0
   13.4274   -2.1468   21.1136 Cl  0  0  0  0  0  0  0  0  0  0  0  0
    2.5432    3.3510   20.6369 H   0  0  0  0  0  0  0  0  0  0  0  0
    3.5174    2.1137   22.5168 H   0  0  0  0  0  0  0  0  0  0  0  0
    3.3409    2.9743   18.3364 H   0  0  0  0  0  0  0  0  0  0  0  0
    5.3118    0.4895   22.1572 H   0  0  0  0  0  0  0  0  0  0  0  0
   12.5172    0.5967   24.9716 H   0  0  0  0  0  0  0  0  0  0  0  0
   13.9905   -0.5221   23.3825 H   0  0  0  0  0  0  0  0  0  0  0  0
   10.6130   -2.0249   21.2272 H   0  0  0  0  0  0  0  0  0  0  0  0
    4.9141    1.7511   16.7474 H   0  0  0  0  0  0  0  0  0  0  0  0
    7.6445   -0.9764   18.1043 H   0  0  0  0  0  0  0  0  0  0  0  0
    7.5110   -2.5276   23.3390 H   0  0  0  0  0  0  0  0  0  0  0  0
    8.7575   -2.9105   22.1433 H   0  0  0  0  0  0  0  0  0  0  0  0
    7.0587   -2.7258   20.5724 H   0  0  0  0  0  0  0  0  0  0  0  0
    5.9512   -1.9960   21.7712 H   0  0  0  0  0  0  0  0  0  0  0  0
    6.9203    0.3184   23.5736 H   0  0  0  0  0  0  0  0  0  0  0  0
    7.6659   -0.8542   24.6623 H   0  0  0  0  0  0  0  0  0  0  0  0
   10.9348    4.4312   22.4778 H   0  0  0  0  0  0  0  0  0  0  0  0
    9.4384    5.4164   22.6069 H   0  0  0  0  0  0  0  0  0  0  0  0
   10.7641    5.6360   23.7990 H   0  0  0  0  0  0  0  0  0  0  0  0
    8.4448    2.5768   25.7381 H   0  0  0  0  0  0  0  0  0  0  0  0
    7.0053    2.1037   24.7947 H   0  0  0  0  0  0  0  0  0  0  0  0
   10.0971    3.6657   24.8972 H   0  0  0  0  0  0  0  0  0  0  0  0
  1  2  1  0  0  0  0
  1  3  2  0  0  0  0
  2  4  2  0  0  0  0
  3 10  1  0  0  0  0
  4 11  1  0  0  0  0
  5  6  2  0  0  0  0
  5 12  1  0  0  0  0
  6 15  1  0  0  0  0
  7 13  1  0  0  0  0
  7 15  2  0  0  0  0
  8 10  2  0  0  0  0
  8 25  1  0  0  0  0
  9 14  1  0  0  0  0
  9 25  2  0  0  0  0
 10 11  1  0  0  0  0
 11 14  2  0  0  0  0
 12 13  2  0  0  0  0
 12 16  1  0  0  0  0
 13 22  1  0  0  0  0
 14 26  1  0  0  0  0
 15 32  1  0  0  0  0
 16 27  1  0  0  0  0
 16 29  2  0  0  0  0
 17 22  1  0  0  0  0
 17 26  1  0  0  0  0
 17 30  2  0  0  0  0
 18 24  1  0  0  0  0
 18 28  1  0  0  0  0
 18 31  2  0  0  0  0
 19 20  1  0  0  0  0
 19 22  1  0  0  0  0
 20 26  1  0  0  0  0
 21 22  1  0  0  0  0
 21 27  1  0  0  0  0
 23 28  1  0  0  0  0
 24 27  1  0  0  0  0
  1 33  1  0  0  0  0
  2 34  1  0  0  0  0
  3 35  1  0  0  0  0
  4 36  1  0  0  0  0
  5 37  1  0  0  0  0
  6 38  1  0  0  0  0
  7 39  1  0  0  0  0
  8 40  1  0  0  0  0
  9 41  1  0  0  0  0
 19 42  1  0  0  0  0
 19 43  1  0  0  0  0
 20 44  1  0  0  0  0
 20 45  1  0  0  0  0
 21 46  1  0  0  0  0
 21 47  1  0  0  0  0
 23 48  1  0  0  0  0
 23 49  1  0  0  0  0
 23 50  1  0  0  0  0
 24 51  1  0  0  0  0
 24 52  1  0  0  0  0
 28 53  1  0  0  0  0
M  END
> <compound>
EDJ-MED-8bb691af-8

> <compound_smiles>
CNC(=O)CN1CC2(CCN(C2=O)c3cncc4c3cccc4)c5cc(ccc5C1=O)Cl

> <enantiomer_smiles>
CNC(=O)CN1CC2(CCN(C2=O)c3cncc4c3cccc4)c5cc(ccc5C1=O)Cl

> <scaffold>
tetrahydroisoquinoline-5spiro-isoquinoline

> <clash_score>
0

> <docking_score>
-9.922537803649902

> <overlap_score>
0.9898000955581665

> <MMFF_internal_energy>
164.1056645746846

> <docked_smiles>
CNC(=O)CN1C[C@]2(CCN(C2=O)c3cncc4c3cccc4)c5cc(ccc5C1=O)Cl

$$$$
EDJ-MED-8bb691af-9_1
  -OEChem-12272114573D

 53 57  0     1  0  0  0  0  0999 V2000
    3.3432    2.6279   20.4411 C   0  0  0  0  0  0  0  0  0  0  0  0
    3.8960    1.9291   21.5050 C   0  0  0  0  0  0  0  0  0  0  0  0
    3.7865    2.4205   19.1660 C   0  0  0  0  0  0  0  0  0  0  0  0
    4.8973    1.0233   21.2988 C   0  0  0  0  0  0  0  0  0  0  0  0
   12.0765    0.0316   24.1541 C   0  0  0  0  0  0  0  0  0  0  0  0
   12.9132   -0.6032   23.2569 C   0  0  0  0  0  0  0  0  0  0  0  0
   10.9991   -1.4331   22.0443 C   0  0  0  0  0  0  0  0  0  0  0  0
    5.3278    1.2339   17.6066 C   0  0  0  0  0  0  0  0  0  0  0  0
    6.8438   -0.2892   18.3752 C   0  0  0  0  0  0  0  0  0  0  0  0
    4.8226    1.4906   18.9054 C   0  0  0  0  0  0  0  0  0  0  0  0
    5.3982    0.7733   19.9948 C   0  0  0  0  0  0  0  0  0  0  0  0
   10.7040   -0.0625   23.9898 C   0  0  0  0  0  0  0  0  0  0  0  0
   10.1406   -0.7765   22.9250 C   0  0  0  0  0  0  0  0  0  0  0  0
    6.4440   -0.1472   19.6979 C   0  0  0  0  0  0  0  0  0  0  0  0
   12.3683   -1.3298   22.2234 C   0  0  0  0  0  0  0  0  0  0  0  0
    9.9479    0.5589   24.9534 C   0  0  0  0  0  0  0  0  0  0  0  0
    6.9866   -1.9366   21.3580 C   0  0  0  0  0  0  0  0  0  0  0  0
    8.4902    3.2094   23.7021 C   0  0  0  0  0  0  0  0  0  0  0  0
    8.0140   -2.1541   22.4331 C   0  0  0  0  0  0  0  0  0  0  0  0
    8.2490    0.0169   21.4271 C   0  0  0  0  0  0  0  0  0  0  0  0
    7.8721   -0.1194   23.8831 C   0  0  0  0  0  0  0  0  0  0  0  0
    8.6238   -0.7606   22.6929 C   0  0  3  0  0  0  0  0  0  0  0  0
   10.2841    4.8631   23.1910 C   0  0  0  0  0  0  0  0  0  0  0  0
    8.0890    2.2241   24.7699 C   0  0  0  0  0  0  0  0  0  0  0  0
    6.3062    0.3769   17.3421 N   0  0  0  0  0  0  0  0  0  0  0  0
    7.2292   -0.6897   20.7790 N   0  0  0  0  0  0  0  0  0  0  0  0
    8.6609    1.0133   24.4995 N   0  0  0  0  0  0  0  0  0  0  0  0
    9.6664    3.8658   24.0351 N   0  0  0  0  0  0  0  0  0  0  0  0
   10.3221    0.7298   26.1105 O   0  0  0  0  0  0  0  0  0  0  0  0
    6.0899   -2.7474   21.1343 O   0  0  0  0  0  0  0  0  0  0  0  0
    7.8445    3.3911   22.6732 O   0  0  0  0  0  0  0  0  0  0  0  0
   13.4282   -2.1463   21.1140 Cl  0  0  0  0  0  0  0  0  0  0  0  0
    2.5432    3.3510   20.6369 H   0  0  0  0  0  0  0  0  0  0  0  0
    3.5174    2.1137   22.5168 H   0  0  0  0  0  0  0  0  0  0  0  0
    3.3409    2.9743   18.3364 H   0  0  0  0  0  0  0  0  0  0  0  0
    5.3118    0.4895   22.1572 H   0  0  0  0  0  0  0  0  0  0  0  0
   12.5181    0.5953   24.9716 H   0  0  0  0  0  0  0  0  0  0  0  0
   13.9908   -0.5228   23.3830 H   0  0  0  0  0  0  0  0  0  0  0  0
   10.6187   -2.0249   21.2273 H   0  0  0  0  0  0  0  0  0  0  0  0
    4.9141    1.7511   16.7474 H   0  0  0  0  0  0  0  0  0  0  0  0
    7.6445   -0.9764   18.1043 H   0  0  0  0  0  0  0  0  0  0  0  0
    7.4895   -2.5411   23.3178 H   0  0  0  0  0  0  0  0  0  0  0  0
    8.7515   -2.8981   22.1061 H   0  0  0  0  0  0  0  0  0  0  0  0
    7.8495    1.0241   21.6807 H   0  0  0  0  0  0  0  0  0  0  0  0
    9.1179    0.1913   20.7529 H   0  0  0  0  0  0  0  0  0  0  0  0
    6.9230    0.3161   23.5685 H   0  0  0  0  0  0  0  0  0  0  0  0
    7.6778   -0.8502   24.6670 H   0  0  0  0  0  0  0  0  0  0  0  0
   10.9890    4.3752   22.5018 H   0  0  0  0  0  0  0  0  0  0  0  0
    9.5078    5.3853   22.6125 H   0  0  0  0  0  0  0  0  0  0  0  0
   10.8254    5.5883   23.8164 H   0  0  0  0  0  0  0  0  0  0  0  0
    8.4380    2.5755   25.7454 H   0  0  0  0  0  0  0  0  0  0  0  0
    7.0000    2.1220   24.7901 H   0  0  0  0  0  0  0  0  0  0  0  0
   10.1158    3.6337   24.9161 H   0  0  0  0  0  0  0  0  0  0  0  0
  1  2  1  0  0  0  0
  1  3  2  0  0  0  0
  2  4  2  0  0  0  0
  3 10  1  0  0  0  0
  4 11  1  0  0  0  0
  5  6  2  0  0  0  0
  5 12  1  0  0  0  0
  6 15  1  0  0  0  0
  7 13  1  0  0  0  0
  7 15  2  0  0  0  0
  8 10  2  0  0  0  0
  8 25  1  0  0  0  0
  9 14  1  0  0  0  0
  9 25  2  0  0  0  0
 10 11  1  0  0  0  0
 11 14  2  0  0  0  0
 12 13  2  0  0  0  0
 12 16  1  0  0  0  0
 13 22  1  0  0  0  0
 14 26  1  0  0  0  0
 15 32  1  0  0  0  0
 16 27  1  0  0  0  0
 16 29  2  0  0  0  0
 17 19  1  0  0  0  0
 17 26  1  0  0  0  0
 17 30  2  0  0  0  0
 18 24  1  0  0  0  0
 18 28  1  0  0  0  0
 18 31  2  0  0  0  0
 19 22  1  0  0  0  0
 20 22  1  0  0  0  0
 20 26  1  0  0  0  0
 21 22  1  0  0  0  0
 21 27  1  0  0  0  0
 23 28  1  0  0  0  0
 24 27  1  0  0  0  0
  1 33  1  0  0  0  0
  2 34  1  0  0  0  0
  3 35  1  0  0  0  0
  4 36  1  0  0  0  0
  5 37  1  0  0  0  0
  6 38  1  0  0  0  0
  7 39  1  0  0  0  0
  8 40  1  0  0  0  0
  9 41  1  0  0  0  0
 19 42  1  0  0  0  0
 19 43  1  0  0  0  0
 20 44  1  0  0  0  0
 20 45  1  0  0  0  0
 21 46  1  0  0  0  0
 21 47  1  0  0  0  0
 23 48  1  0  0  0  0
 23 49  1  0  0  0  0
 23 50  1  0  0  0  0
 24 51  1  0  0  0  0
 24 52  1  0  0  0  0
 28 53  1  0  0  0  0
M  END
> <compound>
EDJ-MED-8bb691af-9

> <compound_smiles>
CNC(=O)CN1CC2(CC(=O)N(C2)c3cncc4c3cccc4)c5cc(ccc5C1=O)Cl

> <enantiomer_smiles>
CNC(=O)CN1CC2(CC(=O)N(C2)c3cncc4c3cccc4)c5cc(ccc5C1=O)Cl

> <scaffold>
tetrahydroisoquinoline-5spiro-isoquinoline

> <clash_score>
0

> <docking_score>
-9.267074584960938

> <overlap_score>
0.9888141751289368

> <MMFF_internal_energy>
145.70571394066457

> <docked_smiles>
CNC(=O)CN1C[C@]2(CC(=O)N(C2)c3cncc4c3cccc4)c5cc(ccc5C1=O)Cl

$$$$
VLA-MRT-8c78ee15-3_2
  -OEChem-12272114573D

 53 57  0     1  0  0  0  0  0999 V2000
    3.3432    2.6279   20.4411 C   0  0  0  0  0  0  0  0  0  0  0  0
    3.8960    1.9291   21.5050 C   0  0  0  0  0  0  0  0  0  0  0  0
    3.7865    2.4205   19.1660 C   0  0  0  0  0  0  0  0  0  0  0  0
    4.8973    1.0233   21.2988 C   0  0  0  0  0  0  0  0  0  0  0  0
   12.0765    0.0316   24.1541 C   0  0  0  0  0  0  0  0  0  0  0  0
   12.9132   -0.6032   23.2569 C   0  0  0  0  0  0  0  0  0  0  0  0
   10.9991   -1.4331   22.0443 C   0  0  0  0  0  0  0  0  0  0  0  0
    5.3278    1.2339   17.6066 C   0  0  0  0  0  0  0  0  0  0  0  0
    6.8438   -0.2892   18.3752 C   0  0  0  0  0  0  0  0  0  0  0  0
    4.8226    1.4906   18.9054 C   0  0  0  0  0  0  0  0  0  0  0  0
    5.3982    0.7733   19.9948 C   0  0  0  0  0  0  0  0  0  0  0  0
   10.7040   -0.0625   23.9898 C   0  0  0  0  0  0  0  0  0  0  0  0
   10.1406   -0.7765   22.9250 C   0  0  0  0  0  0  0  0  0  0  0  0
    6.4440   -0.1472   19.6979 C   0  0  0  0  0  0  0  0  0  0  0  0
   12.3683   -1.3298   22.2234 C   0  0  0  0  0  0  0  0  0  0  0  0
    8.2490    0.0169   21.4271 C   0  0  0  0  0  0  0  0  0  0  0  0
    6.9866   -1.9366   21.3580 C   0  0  0  0  0  0  0  0  0  0  0  0
    6.7931    2.5825   24.9436 C   0  0  0  0  0  0  0  0  0  0  0  0
    9.9479    0.5589   24.9534 C   0  0  0  0  0  0  0  0  0  0  0  0
    7.8721   -0.1194   23.8831 C   0  0  0  0  0  0  0  0  0  0  0  0
    8.6238   -0.7606   22.6929 C   0  0  2  0  0  0  0  0  0  0  0  0
    6.5275    4.5168   23.4187 C   0  0  0  0  0  0  0  0  0  0  0  0
    7.8589    1.7191   25.5704 C   0  0  0  0  0  0  0  0  0  0  0  0
    6.3062    0.3769   17.3421 N   0  0  0  0  0  0  0  0  0  0  0  0
    8.0140   -2.1541   22.4331 N   0  0  0  0  0  0  0  0  0  0  0  0
    7.2292   -0.6897   20.7790 N   0  0  0  0  0  0  0  0  0  0  0  0
    7.3434    3.5637   24.1326 N   0  0  0  0  0  0  0  0  0  0  0  0
    8.6609    1.0133   24.4995 N   0  3  1  0  0  0  0  0  0  0  0  0
    8.7736    1.0692   21.1227 O   0  0  0  0  0  0  0  0  0  0  0  0
    6.1653   -2.7940   21.1185 O   0  0  0  0  0  0  0  0  0  0  0  0
    5.5918    2.4191   25.1393 O   0  0  0  0  0  0  0  0  0  0  0  0
   13.4276   -2.1408   21.1090 Cl  0  0  0  0  0  0  0  0  0  0  0  0
    2.5432    3.3510   20.6369 H   0  0  0  0  0  0  0  0  0  0  0  0
    3.5174    2.1137   22.5168 H   0  0  0  0  0  0  0  0  0  0  0  0
    3.3409    2.9743   18.3364 H   0  0  0  0  0  0  0  0  0  0  0  0
    5.3118    0.4895   22.1572 H   0  0  0  0  0  0  0  0  0  0  0  0
   12.5020    0.5983   24.9747 H   0  0  0  0  0  0  0  0  0  0  0  0
   13.9910   -0.5165   23.3787 H   0  0  0  0  0  0  0  0  0  0  0  0
   10.6052   -2.0178   21.2242 H   0  0  0  0  0  0  0  0  0  0  0  0
    4.9141    1.7511   16.7474 H   0  0  0  0  0  0  0  0  0  0  0  0
    7.6445   -0.9764   18.1043 H   0  0  0  0  0  0  0  0  0  0  0  0
    9.7606   -0.1217   25.8240 H   0  0  0  0  0  0  0  0  0  0  0  0
   10.4570    1.4658   25.3703 H   0  0  0  0  0  0  0  0  0  0  0  0
    6.8912    0.2858   23.5687 H   0  0  0  0  0  0  0  0  0  0  0  0
    7.6718   -0.8524   24.6884 H   0  0  0  0  0  0  0  0  0  0  0  0
    6.2986    4.1261   22.4162 H   0  0  0  0  0  0  0  0  0  0  0  0
    5.5904    4.6829   23.9702 H   0  0  0  0  0  0  0  0  0  0  0  0
    7.0718    5.4682   23.3257 H   0  0  0  0  0  0  0  0  0  0  0  0
    7.4059    0.9525   26.2053 H   0  0  0  0  0  0  0  0  0  0  0  0
    8.5533    2.3329   26.1507 H   0  0  0  0  0  0  0  0  0  0  0  0
    8.2294   -2.9438   22.8434 H   0  0  0  0  0  0  0  0  0  0  0  0
    8.3533    3.6377   24.0491 H   0  0  0  0  0  0  0  0  0  0  0  0
    8.7902    1.7157   23.7462 H   0  0  0  0  0  0  0  0  0  0  0  0
  1  2  1  0  0  0  0
  1  3  2  0  0  0  0
  2  4  2  0  0  0  0
  3 10  1  0  0  0  0
  4 11  1  0  0  0  0
  5  6  2  0  0  0  0
  5 12  1  0  0  0  0
  6 15  1  0  0  0  0
  7 13  1  0  0  0  0
  7 15  2  0  0  0  0
  8 10  2  0  0  0  0
  8 24  1  0  0  0  0
  9 14  1  0  0  0  0
  9 24  2  0  0  0  0
 10 11  1  0  0  0  0
 11 14  2  0  0  0  0
 12 13  2  0  0  0  0
 12 19  1  0  0  0  0
 13 21  1  6  0  0  0
 14 26  1  0  0  0  0
 15 32  1  0  0  0  0
 16 21  1  1  0  0  0
 16 26  1  0  0  0  0
 16 29  2  0  0  0  0
 17 25  1  0  0  0  0
 17 26  1  0  0  0  0
 17 30  2  0  0  0  0
 18 23  1  0  0  0  0
 18 27  1  0  0  0  0
 18 31  2  0  0  0  0
 19 28  1  0  0  0  0
 20 21  1  6  0  0  0
 20 28  1  0  0  0  0
 21 25  1  1  0  0  0
 22 27  1  0  0  0  0
 23 28  1  6  0  0  0
  1 33  1  0  0  0  0
  2 34  1  0  0  0  0
  3 35  1  0  0  0  0
  4 36  1  0  0  0  0
  5 37  1  0  0  0  0
  6 38  1  0  0  0  0
  7 39  1  0  0  0  0
  8 40  1  0  0  0  0
  9 41  1  0  0  0  0
 19 42  1  0  0  0  0
 19 43  1  0  0  0  0
 20 44  1  0  0  0  0
 20 45  1  0  0  0  0
 22 46  1  0  0  0  0
 22 47  1  0  0  0  0
 22 48  1  0  0  0  0
 23 49  1  0  0  0  0
 23 50  1  0  0  0  0
 25 51  1  0  0  0  0
 27 52  1  0  0  0  0
 28 53  1  0  0  0  0
M  CHG  1  28   1
M  END
> <compound>
VLA-MRT-8c78ee15-3

> <compound_smiles>
CNC(=O)CN1Cc2ccc(cc2[C@]3(C1)C(=O)N(C(=O)N3)c4cncc5c4cccc5)Cl

> <enantiomer_smiles>
CNC(=O)C[N@]1Cc2ccc(cc2[C@]3(C1)C(=O)N(C(=O)N3)c4cncc5c4cccc5)Cl

> <scaffold>
tetrahydroisoquinoline-5spiro-isoquinoline

> <clash_score>
0

> <docking_score>
-8.296473503112793

> <overlap_score>
1.0

> <MMFF_internal_energy>
155.65210433266503

> <docked_smiles>
CNC(=O)C[N@H+]1Cc2ccc(cc2[C@@]3(C1)C(=O)N(C(=O)N3)c4cncc5c4cccc5)Cl

$$$$
MAT-POS-1bed62cf-3_2
  -OEChem-12272114573D

 54 58  0     1  0  0  0  0  0999 V2000
    3.3432    2.6279   20.4411 C   0  0  0  0  0  0  0  0  0  0  0  0
    3.8960    1.9291   21.5050 C   0  0  0  0  0  0  0  0  0  0  0  0
    3.7865    2.4205   19.1660 C   0  0  0  0  0  0  0  0  0  0  0  0
    4.8973    1.0233   21.2988 C   0  0  0  0  0  0  0  0  0  0  0  0
   12.0765    0.0316   24.1541 C   0  0  0  0  0  0  0  0  0  0  0  0
   12.9132   -0.6032   23.2569 C   0  0  0  0  0  0  0  0  0  0  0  0
   10.9991   -1.4331   22.0443 C   0  0  0  0  0  0  0  0  0  0  0  0
    5.3278    1.2339   17.6066 C   0  0  0  0  0  0  0  0  0  0  0  0
    6.8438   -0.2892   18.3752 C   0  0  0  0  0  0  0  0  0  0  0  0
    4.8226    1.4906   18.9054 C   0  0  0  0  0  0  0  0  0  0  0  0
    5.3982    0.7733   19.9948 C   0  0  0  0  0  0  0  0  0  0  0  0
   10.7040   -0.0625   23.9898 C   0  0  0  0  0  0  0  0  0  0  0  0
   10.1406   -0.7765   22.9250 C   0  0  0  0  0  0  0  0  0  0  0  0
    6.4440   -0.1472   19.6979 C   0  0  0  0  0  0  0  0  0  0  0  0
   12.3683   -1.3298   22.2234 C   0  0  0  0  0  0  0  0  0  0  0  0
    6.9866   -1.9366   21.3580 C   0  0  0  0  0  0  0  0  0  0  0  0
    8.2490    0.0169   21.4271 C   0  0  0  0  0  0  0  0  0  0  0  0
    8.3018    3.1404   25.7867 C   0  0  0  0  0  0  0  0  0  0  0  0
    9.9479    0.5589   24.9534 C   0  0  0  0  0  0  0  0  0  0  0  0
    8.0140   -2.1541   22.4331 C   0  0  0  0  0  0  0  0  0  0  0  0
    7.8721   -0.1194   23.8831 C   0  0  0  0  0  0  0  0  0  0  0  0
    8.6238   -0.7606   22.6929 C   0  0  3  0  0  0  0  0  0  0  0  0
    9.3334    5.0403   24.5769 C   0  0  0  0  0  0  0  0  0  0  0  0
    7.8592    1.7145   25.5745 C   0  0  0  0  0  0  0  0  0  0  0  0
    6.3062    0.3769   17.3421 N   0  0  0  0  0  0  0  0  0  0  0  0
    7.2292   -0.6897   20.7790 N   0  0  0  0  0  0  0  0  0  0  0  0
    8.8387    3.6852   24.6299 N   0  0  0  0  0  0  0  0  0  0  0  0
    8.6609    1.0133   24.4995 N   0  3  1  0  0  0  0  0  0  0  0  0
    6.1271   -2.7640   21.0978 O   0  0  0  0  0  0  0  0  0  0  0  0
    8.7847    1.0641   21.1054 O   0  0  0  0  0  0  0  0  0  0  0  0
    8.1904    3.7282   26.8592 O   0  0  0  0  0  0  0  0  0  0  0  0
   13.4271   -2.1434   21.1103 Cl  0  0  0  0  0  0  0  0  0  0  0  0
    2.5432    3.3510   20.6369 H   0  0  0  0  0  0  0  0  0  0  0  0
    3.5174    2.1137   22.5168 H   0  0  0  0  0  0  0  0  0  0  0  0
    3.3409    2.9743   18.3364 H   0  0  0  0  0  0  0  0  0  0  0  0
    5.3118    0.4895   22.1572 H   0  0  0  0  0  0  0  0  0  0  0  0
   12.5023    0.5979   24.9743 H   0  0  0  0  0  0  0  0  0  0  0  0
   13.9912   -0.5184   23.3799 H   0  0  0  0  0  0  0  0  0  0  0  0
   10.6035   -2.0173   21.2254 H   0  0  0  0  0  0  0  0  0  0  0  0
    4.9141    1.7511   16.7474 H   0  0  0  0  0  0  0  0  0  0  0  0
    7.6445   -0.9764   18.1043 H   0  0  0  0  0  0  0  0  0  0  0  0
    9.7612   -0.1208   25.8254 H   0  0  0  0  0  0  0  0  0  0  0  0
   10.4568    1.4662   25.3708 H   0  0  0  0  0  0  0  0  0  0  0  0
    7.4960   -2.5689   23.3070 H   0  0  0  0  0  0  0  0  0  0  0  0
    8.7534   -2.8871   22.0931 H   0  0  0  0  0  0  0  0  0  0  0  0
    6.8964    0.2927   23.5704 H   0  0  0  0  0  0  0  0  0  0  0  0
    7.6746   -0.8474   24.6913 H   0  0  0  0  0  0  0  0  0  0  0  0
    8.5251    5.7141   24.2567 H   0  0  0  0  0  0  0  0  0  0  0  0
    9.6874    5.3405   25.5742 H   0  0  0  0  0  0  0  0  0  0  0  0
   10.1653    5.0990   23.8596 H   0  0  0  0  0  0  0  0  0  0  0  0
    6.8171    1.6824   25.2444 H   0  0  0  0  0  0  0  0  0  0  0  0
    7.9856    1.1359   26.4938 H   0  0  0  0  0  0  0  0  0  0  0  0
    8.9121    3.1137   23.7931 H   0  0  0  0  0  0  0  0  0  0  0  0
    8.7939    1.7234   23.7542 H   0  0  0  0  0  0  0  0  0  0  0  0
  1  2  1  0  0  0  0
  1  3  2  0  0  0  0
  2  4  2  0  0  0  0
  3 10  1  0  0  0  0
  4 11  1  0  0  0  0
  5  6  2  0  0  0  0
  5 12  1  0  0  0  0
  6 15  1  0  0  0  0
  7 13  1  0  0  0  0
  7 15  2  0  0  0  0
  8 10  2  0  0  0  0
  8 25  1  0  0  0  0
  9 14  1  0  0  0  0
  9 25  2  0  0  0  0
 10 11  1  0  0  0  0
 11 14  2  0  0  0  0
 12 13  2  0  0  0  0
 12 19  1  0  0  0  0
 13 22  1  0  0  0  0
 14 26  1  0  0  0  0
 15 32  1  0  0  0  0
 16 20  1  0  0  0  0
 16 26  1  0  0  0  0
 16 29  2  0  0  0  0
 17 22  1  0  0  0  0
 17 26  1  0  0  0  0
 17 30  2  0  0  0  0
 18 24  1  0  0  0  0
 18 27  1  0  0  0  0
 18 31  2  0  0  0  0
 19 28  1  0  0  0  0
 20 22  1  0  0  0  0
 21 22  1  0  0  0  0
 21 28  1  0  0  0  0
 23 27  1  0  0  0  0
 24 28  1  6  0  0  0
  1 33  1  0  0  0  0
  2 34  1  0  0  0  0
  3 35  1  0  0  0  0
  4 36  1  0  0  0  0
  5 37  1  0  0  0  0
  6 38  1  0  0  0  0
  7 39  1  0  0  0  0
  8 40  1  0  0  0  0
  9 41  1  0  0  0  0
 19 42  1  0  0  0  0
 19 43  1  0  0  0  0
 20 44  1  0  0  0  0
 20 45  1  0  0  0  0
 21 46  1  0  0  0  0
 21 47  1  0  0  0  0
 23 48  1  0  0  0  0
 23 49  1  0  0  0  0
 23 50  1  0  0  0  0
 24 51  1  0  0  0  0
 24 52  1  0  0  0  0
 27 53  1  0  0  0  0
 28 54  1  0  0  0  0
M  CHG  1  28   1
M  END
> <compound>
MAT-POS-1bed62cf-3

> <compound_smiles>
CNC(=O)CN1Cc2ccc(cc2C3(C1)CC(=O)N(C3=O)c4cncc5c4cccc5)Cl

> <enantiomer_smiles>
CNC(=O)C[N@]1Cc2ccc(cc2C3(C1)CC(=O)N(C3=O)c4cncc5c4cccc5)Cl

> <scaffold>
tetrahydroisoquinoline-5spiro-isoquinoline

> <clash_score>
0

> <docking_score>
-9.191045761108398

> <overlap_score>
1.0

> <MMFF_internal_energy>
144.56835805861033

> <docked_smiles>
CNC(=O)C[N@H+]1Cc2ccc(cc2[C@]3(C1)CC(=O)N(C3=O)c4cncc5c4cccc5)Cl

$$$$
MAT-POS-2e8b2191-8_2
  -OEChem-12272114573D

 51 55  0     1  0  0  0  0  0999 V2000
    3.3432    2.6279   20.4411 C   0  0  0  0  0  0  0  0  0  0  0  0
    3.8960    1.9291   21.5050 C   0  0  0  0  0  0  0  0  0  0  0  0
    3.7865    2.4205   19.1660 C   0  0  0  0  0  0  0  0  0  0  0  0
    4.8973    1.0233   21.2988 C   0  0  0  0  0  0  0  0  0  0  0  0
   12.0765    0.0316   24.1541 C   0  0  0  0  0  0  0  0  0  0  0  0
   12.9132   -0.6032   23.2569 C   0  0  0  0  0  0  0  0  0  0  0  0
   10.9991   -1.4331   22.0443 C   0  0  0  0  0  0  0  0  0  0  0  0
    5.3278    1.2339   17.6066 C   0  0  0  0  0  0  0  0  0  0  0  0
    6.8438   -0.2892   18.3752 C   0  0  0  0  0  0  0  0  0  0  0  0
    4.8226    1.4906   18.9054 C   0  0  0  0  0  0  0  0  0  0  0  0
    5.3982    0.7733   19.9948 C   0  0  0  0  0  0  0  0  0  0  0  0
   10.7040   -0.0625   23.9898 C   0  0  0  0  0  0  0  0  0  0  0  0
   10.1406   -0.7765   22.9250 C   0  0  0  0  0  0  0  0  0  0  0  0
    6.4440   -0.1472   19.6979 C   0  0  0  0  0  0  0  0  0  0  0  0
   12.3683   -1.3298   22.2234 C   0  0  0  0  0  0  0  0  0  0  0  0
    8.2490    0.0169   21.4271 C   0  0  0  0  0  0  0  0  0  0  0  0
    6.9866   -1.9366   21.3580 C   0  0  0  0  0  0  0  0  0  0  0  0
    9.9479    0.5589   24.9534 C   0  0  0  0  0  0  0  0  0  0  0  0
    7.8721   -0.1194   23.8831 C   0  0  0  0  0  0  0  0  0  0  0  0
    8.6238   -0.7606   22.6929 C   0  0  3  0  0  0  0  0  0  0  0  0
    8.2598   -3.3011   23.1247 C   0  0  0  0  0  0  0  0  0  0  0  0
    6.3256    1.0022   25.7667 C   0  0  0  0  0  0  0  0  0  0  0  0
    6.3062    0.3769   17.3421 N   0  0  0  0  0  0  0  0  0  0  0  0
    7.2292   -0.6897   20.7790 N   0  0  0  0  0  0  0  0  0  0  0  0
    8.0140   -2.1541   22.4331 N   0  0  0  0  0  0  0  0  0  0  0  0
    8.6609    1.0133   24.4995 N   0  0  2  0  0  0  0  0  0  0  0  0
    8.8033    1.0418   21.0877 O   0  0  0  0  0  0  0  0  0  0  0  0
    6.1123   -2.7500   21.1416 O   0  0  0  0  0  0  0  0  0  0  0  0
    7.3835    3.2065   24.8451 O   0  0  0  0  0  0  0  0  0  0  0  0
    8.4460    2.0841   26.8443 O   0  0  0  0  0  0  0  0  0  0  0  0
    7.7694    2.0141   25.5676 S   0  0  0  0  0  0  0  0  0  0  0  0
   13.4272   -2.1393   21.1076 Cl  0  0  0  0  0  0  0  0  0  0  0  0
    2.5432    3.3510   20.6369 H   0  0  0  0  0  0  0  0  0  0  0  0
    3.5174    2.1137   22.5168 H   0  0  0  0  0  0  0  0  0  0  0  0
    3.3409    2.9743   18.3364 H   0  0  0  0  0  0  0  0  0  0  0  0
    5.3118    0.4895   22.1572 H   0  0  0  0  0  0  0  0  0  0  0  0
   12.5021    0.6017   24.9722 H   0  0  0  0  0  0  0  0  0  0  0  0
   13.9909   -0.5140   23.3773 H   0  0  0  0  0  0  0  0  0  0  0  0
   10.6051   -2.0206   21.2263 H   0  0  0  0  0  0  0  0  0  0  0  0
    4.9141    1.7511   16.7474 H   0  0  0  0  0  0  0  0  0  0  0  0
    7.6445   -0.9764   18.1043 H   0  0  0  0  0  0  0  0  0  0  0  0
    9.7886   -0.1158   25.8360 H   0  0  0  0  0  0  0  0  0  0  0  0
   10.4811    1.4581   25.3598 H   0  0  0  0  0  0  0  0  0  0  0  0
    6.8946    0.2738   23.5526 H   0  0  0  0  0  0  0  0  0  0  0  0
    7.6748   -0.8555   24.6824 H   0  0  0  0  0  0  0  0  0  0  0  0
    9.0281   -3.8846   22.5964 H   0  0  0  0  0  0  0  0  0  0  0  0
    8.6196   -3.0496   24.1333 H   0  0  0  0  0  0  0  0  0  0  0  0
    7.3371   -3.8950   23.2021 H   0  0  0  0  0  0  0  0  0  0  0  0
    5.6299    1.5212   26.4278 H   0  0  0  0  0  0  0  0  0  0  0  0
    5.8762    0.8466   24.7848 H   0  0  0  0  0  0  0  0  0  0  0  0
    6.6302    0.0500   26.2034 H   0  0  0  0  0  0  0  0  0  0  0  0
  1  2  1  0  0  0  0
  1  3  2  0  0  0  0
  2  4  2  0  0  0  0
  3 10  1  0  0  0  0
  4 11  1  0  0  0  0
  5  6  1  0  0  0  0
  5 12  2  0  0  0  0
  6 15  2  0  0  0  0
  7 13  2  0  0  0  0
  7 15  1  0  0  0  0
  8 10  2  0  0  0  0
  8 23  1  0  0  0  0
  9 14  1  0  0  0  0
  9 23  2  0  0  0  0
 10 11  1  0  0  0  0
 11 14  2  0  0  0  0
 12 13  1  0  0  0  0
 12 18  1  0  0  0  0
 13 20  1  0  0  0  0
 14 24  1  0  0  0  0
 15 32  1  0  0  0  0
 16 20  1  0  0  0  0
 16 24  1  0  0  0  0
 16 27  2  0  0  0  0
 17 24  1  0  0  0  0
 17 25  1  0  0  0  0
 17 28  2  0  0  0  0
 18 26  1  0  0  0  0
 19 20  1  0  0  0  0
 19 26  1  0  0  0  0
 20 25  1  0  0  0  0
 21 25  1  0  0  0  0
 22 31  1  0  0  0  0
 26 31  1  6  0  0  0
 29 31  2  0  0  0  0
 30 31  2  0  0  0  0
  1 33  1  0  0  0  0
  2 34  1  0  0  0  0
  3 35  1  0  0  0  0
  4 36  1  0  0  0  0
  5 37  1  0  0  0  0
  6 38  1  0  0  0  0
  7 39  1  0  0  0  0
  8 40  1  0  0  0  0
  9 41  1  0  0  0  0
 18 42  1  0  0  0  0
 18 43  1  0  0  0  0
 19 44  1  0  0  0  0
 19 45  1  0  0  0  0
 21 46  1  0  0  0  0
 21 47  1  0  0  0  0
 21 48  1  0  0  0  0
 22 49  1  0  0  0  0
 22 50  1  0  0  0  0
 22 51  1  0  0  0  0
M  END
> <compound>
MAT-POS-2e8b2191-8

> <compound_smiles>
CN1C(=O)N(C(=O)C12CN(Cc3c2cc(cc3)Cl)S(=O)(=O)C)c4cncc5c4cccc5

> <enantiomer_smiles>
CN1C(=O)N(C(=O)C12C[N@](Cc3c2cc(cc3)Cl)S(=O)(=O)C)c4cncc5c4cccc5

> <scaffold>
tetrahydroisoquinoline-5spiro-isoquinoline

> <clash_score>
0

> <docking_score>
-8.852065086364746

> <overlap_score>
1.01314377784729

> <MMFF_internal_energy>
86.53841584002389

> <docked_smiles>
CN1C(=O)N(C(=O)[C@@]12C[N@](Cc3c2cc(cc3)Cl)S(=O)(=O)C)c4cncc5c4cccc5

$$$$
LUO-POS-ed2cfb03-2_1
  -OEChem-12272114573D

 52 56  0     1  0  0  0  0  0999 V2000
    3.3432    2.6279   20.4411 C   0  0  0  0  0  0  0  0  0  0  0  0
    3.8960    1.9291   21.5050 C   0  0  0  0  0  0  0  0  0  0  0  0
    3.7865    2.4205   19.1660 C   0  0  0  0  0  0  0  0  0  0  0  0
    4.8973    1.0233   21.2988 C   0  0  0  0  0  0  0  0  0  0  0  0
   12.0765    0.0316   24.1541 C   0  0  0  0  0  0  0  0  0  0  0  0
   12.9132   -0.6032   23.2569 C   0  0  0  0  0  0  0  0  0  0  0  0
   10.9991   -1.4331   22.0443 C   0  0  0  0  0  0  0  0  0  0  0  0
    5.3278    1.2339   17.6066 C   0  0  0  0  0  0  0  0  0  0  0  0
    6.8438   -0.2892   18.3752 C   0  0  0  0  0  0  0  0  0  0  0  0
    4.8226    1.4906   18.9054 C   0  0  0  0  0  0  0  0  0  0  0  0
    5.3982    0.7733   19.9948 C   0  0  0  0  0  0  0  0  0  0  0  0
   10.7040   -0.0625   23.9898 C   0  0  0  0  0  0  0  0  0  0  0  0
   10.1406   -0.7765   22.9250 C   0  0  0  0  0  0  0  0  0  0  0  0
    6.4440   -0.1472   19.6979 C   0  0  0  0  0  0  0  0  0  0  0  0
   12.3683   -1.3298   22.2234 C   0  0  0  0  0  0  0  0  0  0  0  0
    8.2490    0.0169   21.4271 C   0  0  0  0  0  0  0  0  0  0  0  0
    9.9479    0.5589   24.9534 C   0  0  0  0  0  0  0  0  0  0  0  0
    8.0140   -2.1541   22.4331 C   0  0  0  0  0  0  0  0  0  0  0  0
    6.9866   -1.9366   21.3580 C   0  0  0  0  0  0  0  0  0  0  0  0
    7.8721   -0.1194   23.8831 C   0  0  0  0  0  0  0  0  0  0  0  0
    8.6238   -0.7606   22.6929 C   0  0  3  0  0  0  0  0  0  0  0  0
    8.7545    5.0055   24.6876 C   0  0  0  0  0  0  0  0  0  0  0  0
    6.3062    0.3769   17.3421 N   0  0  0  0  0  0  0  0  0  0  0  0
    7.2292   -0.6897   20.7790 N   0  0  0  0  0  0  0  0  0  0  0  0
    8.6609    1.0133   24.4995 N   0  0  2  0  0  0  0  0  0  0  0  0
    8.4059    3.5899   24.9165 N   0  0  0  0  0  0  0  0  0  0  0  0
    8.7572    1.0941   21.1350 O   0  0  0  0  0  0  0  0  0  0  0  0
    7.4134    2.5032   22.8132 O   0  0  0  0  0  0  0  0  0  0  0  0
    9.9159    2.7120   23.0085 O   0  0  0  0  0  0  0  0  0  0  0  0
    8.6198    2.4832   23.6217 S   0  0  0  0  0  0  0  0  0  0  0  0
   13.4275   -2.1421   21.1097 Cl  0  0  0  0  0  0  0  0  0  0  0  0
    2.5432    3.3510   20.6369 H   0  0  0  0  0  0  0  0  0  0  0  0
    3.5174    2.1137   22.5168 H   0  0  0  0  0  0  0  0  0  0  0  0
    3.3409    2.9743   18.3364 H   0  0  0  0  0  0  0  0  0  0  0  0
    5.3118    0.4895   22.1572 H   0  0  0  0  0  0  0  0  0  0  0  0
   12.5015    0.5938   24.9776 H   0  0  0  0  0  0  0  0  0  0  0  0
   13.9911   -0.5212   23.3814 H   0  0  0  0  0  0  0  0  0  0  0  0
   10.6037   -2.0228   21.2288 H   0  0  0  0  0  0  0  0  0  0  0  0
    4.9141    1.7511   16.7474 H   0  0  0  0  0  0  0  0  0  0  0  0
    7.6445   -0.9764   18.1043 H   0  0  0  0  0  0  0  0  0  0  0  0
    9.7581   -0.1287   25.8173 H   0  0  0  0  0  0  0  0  0  0  0  0
   10.4931    1.4391   25.3829 H   0  0  0  0  0  0  0  0  0  0  0  0
    7.5801   -2.6060   23.3366 H   0  0  0  0  0  0  0  0  0  0  0  0
    8.7749   -2.8608   22.0657 H   0  0  0  0  0  0  0  0  0  0  0  0
    7.0227   -2.7506   20.5953 H   0  0  0  0  0  0  0  0  0  0  0  0
    5.9554   -1.9484   21.7832 H   0  0  0  0  0  0  0  0  0  0  0  0
    6.8886    0.2769   23.5666 H   0  0  0  0  0  0  0  0  0  0  0  0
    7.6579   -0.8710   24.6633 H   0  0  0  0  0  0  0  0  0  0  0  0
    9.6679    5.0647   24.0775 H   0  0  0  0  0  0  0  0  0  0  0  0
    7.9286    5.5058   24.1606 H   0  0  0  0  0  0  0  0  0  0  0  0
    8.9266    5.5015   25.6542 H   0  0  0  0  0  0  0  0  0  0  0  0
    7.5571    3.4636   25.4832 H   0  0  0  0  0  0  0  0  0  0  0  0
  1  2  1  0  0  0  0
  1  3  2  0  0  0  0
  2  4  2  0  0  0  0
  3 10  1  0  0  0  0
  4 11  1  0  0  0  0
  5  6  2  0  0  0  0
  5 12  1  0  0  0  0
  6 15  1  0  0  0  0
  7 13  1  0  0  0  0
  7 15  2  0  0  0  0
  8 10  2  0  0  0  0
  8 23  1  0  0  0  0
  9 14  1  0  0  0  0
  9 23  2  0  0  0  0
 10 11  1  0  0  0  0
 11 14  2  0  0  0  0
 12 13  2  0  0  0  0
 12 17  1  0  0  0  0
 13 21  1  0  0  0  0
 14 24  1  0  0  0  0
 15 31  1  0  0  0  0
 16 21  1  0  0  0  0
 16 24  1  0  0  0  0
 16 27  2  0  0  0  0
 17 25  1  0  0  0  0
 18 19  1  0  0  0  0
 18 21  1  0  0  0  0
 19 24  1  0  0  0  0
 20 21  1  0  0  0  0
 20 25  1  0  0  0  0
 22 26  1  0  0  0  0
 25 30  1  1  0  0  0
 26 30  1  0  0  0  0
 28 30  2  0  0  0  0
 29 30  2  0  0  0  0
  1 32  1  0  0  0  0
  2 33  1  0  0  0  0
  3 34  1  0  0  0  0
  4 35  1  0  0  0  0
  5 36  1  0  0  0  0
  6 37  1  0  0  0  0
  7 38  1  0  0  0  0
  8 39  1  0  0  0  0
  9 40  1  0  0  0  0
 17 41  1  0  0  0  0
 17 42  1  0  0  0  0
 18 43  1  0  0  0  0
 18 44  1  0  0  0  0
 19 45  1  0  0  0  0
 19 46  1  0  0  0  0
 20 47  1  0  0  0  0
 20 48  1  0  0  0  0
 22 49  1  0  0  0  0
 22 50  1  0  0  0  0
 22 51  1  0  0  0  0
 26 52  1  0  0  0  0
M  END
> <compound>
LUO-POS-ed2cfb03-2

> <compound_smiles>
CNS(=O)(=O)N1Cc2ccc(cc2C3(C1)CCN(C3=O)c4cncc5c4cccc5)Cl

> <enantiomer_smiles>
CNS(=O)(=O)[N@@]1Cc2ccc(cc2C3(C1)CCN(C3=O)c4cncc5c4cccc5)Cl

> <scaffold>
tetrahydroisoquinoline-5spiro-isoquinoline

> <clash_score>
0

> <docking_score>
-9.539200782775879

> <overlap_score>
0.9807820320129395

> <MMFF_internal_energy>
-33.02998695607245

> <docked_smiles>
CNS(=O)(=O)[N@@]1Cc2ccc(cc2[C@]3(C1)CCN(C3=O)c4cncc5c4cccc5)Cl

$$$$
VLA-MRT-a639d434-1_2
  -OEChem-12272114573D

 53 57  0     1  0  0  0  0  0999 V2000
    3.3432    2.6279   20.4411 C   0  0  0  0  0  0  0  0  0  0  0  0
    3.8960    1.9291   21.5050 C   0  0  0  0  0  0  0  0  0  0  0  0
    3.7865    2.4205   19.1660 C   0  0  0  0  0  0  0  0  0  0  0  0
    4.8973    1.0233   21.2988 C   0  0  0  0  0  0  0  0  0  0  0  0
   12.0765    0.0316   24.1541 C   0  0  0  0  0  0  0  0  0  0  0  0
   12.9132   -0.6032   23.2569 C   0  0  0  0  0  0  0  0  0  0  0  0
   10.9991   -1.4331   22.0443 C   0  0  0  0  0  0  0  0  0  0  0  0
    5.3278    1.2339   17.6066 C   0  0  0  0  0  0  0  0  0  0  0  0
    6.8438   -0.2892   18.3752 C   0  0  0  0  0  0  0  0  0  0  0  0
    4.8226    1.4906   18.9054 C   0  0  0  0  0  0  0  0  0  0  0  0
    5.3982    0.7733   19.9948 C   0  0  0  0  0  0  0  0  0  0  0  0
   10.7040   -0.0625   23.9898 C   0  0  0  0  0  0  0  0  0  0  0  0
   10.1406   -0.7765   22.9250 C   0  0  0  0  0  0  0  0  0  0  0  0
    6.4440   -0.1472   19.6979 C   0  0  0  0  0  0  0  0  0  0  0  0
   12.3683   -1.3298   22.2234 C   0  0  0  0  0  0  0  0  0  0  0  0
    8.2490    0.0169   21.4271 C   0  0  0  0  0  0  0  0  0  0  0  0
    6.9866   -1.9366   21.3580 C   0  0  0  0  0  0  0  0  0  0  0  0
    8.3015    3.1442   25.7769 C   0  0  0  0  0  0  0  0  0  0  0  0
    9.9479    0.5589   24.9534 C   0  0  0  0  0  0  0  0  0  0  0  0
    7.8721   -0.1194   23.8831 C   0  0  0  0  0  0  0  0  0  0  0  0
    8.6238   -0.7606   22.6929 C   0  0  1  0  0  0  0  0  0  0  0  0
    9.3015    5.0486   24.5478 C   0  0  0  0  0  0  0  0  0  0  0  0
    7.8601    1.7167   25.5728 C   0  0  0  0  0  0  0  0  0  0  0  0
    6.3062    0.3769   17.3421 N   0  0  0  0  0  0  0  0  0  0  0  0
    8.0140   -2.1541   22.4331 N   0  0  0  0  0  0  0  0  0  0  0  0
    7.2292   -0.6897   20.7790 N   0  0  0  0  0  0  0  0  0  0  0  0
    8.8131    3.6916   24.6099 N   0  0  0  0  0  0  0  0  0  0  0  0
    8.6609    1.0133   24.4995 N   0  3  1  0  0  0  0  0  0  0  0  0
    8.8026    1.0454   21.0959 O   0  0  0  0  0  0  0  0  0  0  0  0
    6.1321   -2.7703   21.1545 O   0  0  0  0  0  0  0  0  0  0  0  0
    8.2094    3.7311   26.8518 O   0  0  0  0  0  0  0  0  0  0  0  0
   13.4273   -2.1412   21.1090 Cl  0  0  0  0  0  0  0  0  0  0  0  0
    2.5432    3.3510   20.6369 H   0  0  0  0  0  0  0  0  0  0  0  0
    3.5174    2.1137   22.5168 H   0  0  0  0  0  0  0  0  0  0  0  0
    3.3409    2.9743   18.3364 H   0  0  0  0  0  0  0  0  0  0  0  0
    5.3118    0.4895   22.1572 H   0  0  0  0  0  0  0  0  0  0  0  0
   12.5017    0.5987   24.9745 H   0  0  0  0  0  0  0  0  0  0  0  0
   13.9911   -0.5179   23.3794 H   0  0  0  0  0  0  0  0  0  0  0  0
   10.6060   -2.0175   21.2238 H   0  0  0  0  0  0  0  0  0  0  0  0
    4.9141    1.7511   16.7474 H   0  0  0  0  0  0  0  0  0  0  0  0
    7.6445   -0.9764   18.1043 H   0  0  0  0  0  0  0  0  0  0  0  0
    9.7623   -0.1191   25.8276 H   0  0  0  0  0  0  0  0  0  0  0  0
   10.4576    1.4675   25.3683 H   0  0  0  0  0  0  0  0  0  0  0  0
    6.9002    0.3004   23.5669 H   0  0  0  0  0  0  0  0  0  0  0  0
    7.6840   -0.8508   24.6909 H   0  0  0  0  0  0  0  0  0  0  0  0
    8.4843    5.7194   24.2441 H   0  0  0  0  0  0  0  0  0  0  0  0
    9.6742    5.3497   25.5380 H   0  0  0  0  0  0  0  0  0  0  0  0
   10.1186    5.1107   23.8140 H   0  0  0  0  0  0  0  0  0  0  0  0
    6.8118    1.6808   25.2637 H   0  0  0  0  0  0  0  0  0  0  0  0
    8.0072    1.1382   26.4891 H   0  0  0  0  0  0  0  0  0  0  0  0
    8.2119   -2.9426   22.8512 H   0  0  0  0  0  0  0  0  0  0  0  0
    8.8719    3.1208   23.7715 H   0  0  0  0  0  0  0  0  0  0  0  0
    8.7923    1.7186   23.7498 H   0  0  0  0  0  0  0  0  0  0  0  0
  1  2  1  0  0  0  0
  1  3  2  0  0  0  0
  2  4  2  0  0  0  0
  3 10  1  0  0  0  0
  4 11  1  0  0  0  0
  5  6  2  0  0  0  0
  5 12  1  0  0  0  0
  6 15  1  0  0  0  0
  7 13  1  0  0  0  0
  7 15  2  0  0  0  0
  8 10  2  0  0  0  0
  8 24  1  0  0  0  0
  9 14  1  0  0  0  0
  9 24  2  0  0  0  0
 10 11  1  0  0  0  0
 11 14  2  0  0  0  0
 12 13  2  0  0  0  0
 12 19  1  0  0  0  0
 13 21  1  1  0  0  0
 14 26  1  0  0  0  0
 15 32  1  0  0  0  0
 16 21  1  6  0  0  0
 16 26  1  0  0  0  0
 16 29  2  0  0  0  0
 17 25  1  0  0  0  0
 17 26  1  0  0  0  0
 17 30  2  0  0  0  0
 18 23  1  0  0  0  0
 18 27  1  0  0  0  0
 18 31  2  0  0  0  0
 19 28  1  0  0  0  0
 20 21  1  1  0  0  0
 20 28  1  0  0  0  0
 21 25  1  6  0  0  0
 22 27  1  0  0  0  0
 23 28  1  6  0  0  0
  1 33  1  0  0  0  0
  2 34  1  0  0  0  0
  3 35  1  0  0  0  0
  4 36  1  0  0  0  0
  5 37  1  0  0  0  0
  6 38  1  0  0  0  0
  7 39  1  0  0  0  0
  8 40  1  0  0  0  0
  9 41  1  0  0  0  0
 19 42  1  0  0  0  0
 19 43  1  0  0  0  0
 20 44  1  0  0  0  0
 20 45  1  0  0  0  0
 22 46  1  0  0  0  0
 22 47  1  0  0  0  0
 22 48  1  0  0  0  0
 23 49  1  0  0  0  0
 23 50  1  0  0  0  0
 25 51  1  0  0  0  0
 27 52  1  0  0  0  0
 28 53  1  0  0  0  0
M  CHG  1  28   1
M  END
> <compound>
VLA-MRT-a639d434-1

> <compound_smiles>
CNC(=O)CN1Cc2ccc(cc2[C@@]3(C1)C(=O)N(C(=O)N3)c4cncc5c4cccc5)Cl

> <enantiomer_smiles>
CNC(=O)C[N@]1Cc2ccc(cc2[C@@]3(C1)C(=O)N(C(=O)N3)c4cncc5c4cccc5)Cl

> <scaffold>
tetrahydroisoquinoline-5spiro-isoquinoline

> <clash_score>
0

> <docking_score>
-8.314265251159668

> <overlap_score>
1.0

> <MMFF_internal_energy>
173.05718040935514

> <docked_smiles>
CNC(=O)C[N@H+]1Cc2ccc(cc2[C@@]3(C1)C(=O)N(C(=O)N3)c4cncc5c4cccc5)Cl

$$$$
MAT-POS-1bed62cf-3_1
  -OEChem-12272114573D

 54 58  0     1  0  0  0  0  0999 V2000
    3.3432    2.6279   20.4411 C   0  0  0  0  0  0  0  0  0  0  0  0
    3.8960    1.9291   21.5050 C   0  0  0  0  0  0  0  0  0  0  0  0
    3.7865    2.4205   19.1660 C   0  0  0  0  0  0  0  0  0  0  0  0
    4.8973    1.0233   21.2988 C   0  0  0  0  0  0  0  0  0  0  0  0
   12.0765    0.0316   24.1541 C   0  0  0  0  0  0  0  0  0  0  0  0
   12.9132   -0.6032   23.2569 C   0  0  0  0  0  0  0  0  0  0  0  0
   10.9991   -1.4331   22.0443 C   0  0  0  0  0  0  0  0  0  0  0  0
    5.3278    1.2339   17.6066 C   0  0  0  0  0  0  0  0  0  0  0  0
    6.8438   -0.2892   18.3752 C   0  0  0  0  0  0  0  0  0  0  0  0
    4.8226    1.4906   18.9054 C   0  0  0  0  0  0  0  0  0  0  0  0
    5.3982    0.7733   19.9948 C   0  0  0  0  0  0  0  0  0  0  0  0
   10.7040   -0.0625   23.9898 C   0  0  0  0  0  0  0  0  0  0  0  0
   10.1406   -0.7765   22.9250 C   0  0  0  0  0  0  0  0  0  0  0  0
    6.4440   -0.1472   19.6979 C   0  0  0  0  0  0  0  0  0  0  0  0
   12.3683   -1.3298   22.2234 C   0  0  0  0  0  0  0  0  0  0  0  0
    6.9866   -1.9366   21.3580 C   0  0  0  0  0  0  0  0  0  0  0  0
    8.2490    0.0169   21.4271 C   0  0  0  0  0  0  0  0  0  0  0  0
    7.3805    2.6712   23.1123 C   0  0  0  0  0  0  0  0  0  0  0  0
    9.9479    0.5589   24.9534 C   0  0  0  0  0  0  0  0  0  0  0  0
    8.0140   -2.1541   22.4331 C   0  0  0  0  0  0  0  0  0  0  0  0
    7.8721   -0.1194   23.8831 C   0  0  0  0  0  0  0  0  0  0  0  0
    8.6238   -0.7606   22.6929 C   0  0  3  0  0  0  0  0  0  0  0  0
    6.3086    4.4173   21.7196 C   0  0  0  0  0  0  0  0  0  0  0  0
    8.7403    2.1971   23.5600 C   0  0  0  0  0  0  0  0  0  0  0  0
    6.3062    0.3769   17.3421 N   0  0  0  0  0  0  0  0  0  0  0  0
    7.2292   -0.6897   20.7790 N   0  0  0  0  0  0  0  0  0  0  0  0
    7.4743    3.7777   22.2815 N   0  0  0  0  0  0  0  0  0  0  0  0
    8.6609    1.0133   24.4995 N   0  3  2  0  0  0  0  0  0  0  0  0
    6.1203   -2.7592   21.1051 O   0  0  0  0  0  0  0  0  0  0  0  0
    8.7903    1.0599   21.1011 O   0  0  0  0  0  0  0  0  0  0  0  0
    6.3321    2.1294   23.4521 O   0  0  0  0  0  0  0  0  0  0  0  0
   13.4272   -2.1423   21.1096 Cl  0  0  0  0  0  0  0  0  0  0  0  0
    2.5432    3.3510   20.6369 H   0  0  0  0  0  0  0  0  0  0  0  0
    3.5174    2.1137   22.5168 H   0  0  0  0  0  0  0  0  0  0  0  0
    3.3409    2.9743   18.3364 H   0  0  0  0  0  0  0  0  0  0  0  0
    5.3118    0.4895   22.1572 H   0  0  0  0  0  0  0  0  0  0  0  0
   12.5022    0.5952   24.9762 H   0  0  0  0  0  0  0  0  0  0  0  0
   13.9911   -0.5203   23.3811 H   0  0  0  0  0  0  0  0  0  0  0  0
   10.6035   -2.0220   21.2287 H   0  0  0  0  0  0  0  0  0  0  0  0
    4.9141    1.7511   16.7474 H   0  0  0  0  0  0  0  0  0  0  0  0
    7.6445   -0.9764   18.1043 H   0  0  0  0  0  0  0  0  0  0  0  0
    9.7385   -0.1139   25.8252 H   0  0  0  0  0  0  0  0  0  0  0  0
   10.4771    1.4542   25.3724 H   0  0  0  0  0  0  0  0  0  0  0  0
    7.5353   -2.5833   23.3198 H   0  0  0  0  0  0  0  0  0  0  0  0
    8.7432   -2.8800   22.0524 H   0  0  0  0  0  0  0  0  0  0  0  0
    6.8953    0.3004   23.5803 H   0  0  0  0  0  0  0  0  0  0  0  0
    7.6765   -0.8560   24.6824 H   0  0  0  0  0  0  0  0  0  0  0  0
    6.0836    3.9740   20.7384 H   0  0  0  0  0  0  0  0  0  0  0  0
    5.4507    4.2724   22.3927 H   0  0  0  0  0  0  0  0  0  0  0  0
    6.5029    5.4934   21.5998 H   0  0  0  0  0  0  0  0  0  0  0  0
    9.2589    2.9870   24.1103 H   0  0  0  0  0  0  0  0  0  0  0  0
    9.3349    1.8790   22.6991 H   0  0  0  0  0  0  0  0  0  0  0  0
    8.3868    4.1732   22.0734 H   0  0  0  0  0  0  0  0  0  0  0  0
    8.1124    1.3495   25.3133 H   0  0  0  0  0  0  0  0  0  0  0  0
  1  2  1  0  0  0  0
  1  3  2  0  0  0  0
  2  4  2  0  0  0  0
  3 10  1  0  0  0  0
  4 11  1  0  0  0  0
  5  6  2  0  0  0  0
  5 12  1  0  0  0  0
  6 15  1  0  0  0  0
  7 13  1  0  0  0  0
  7 15  2  0  0  0  0
  8 10  2  0  0  0  0
  8 25  1  0  0  0  0
  9 14  1  0  0  0  0
  9 25  2  0  0  0  0
 10 11  1  0  0  0  0
 11 14  2  0  0  0  0
 12 13  2  0  0  0  0
 12 19  1  0  0  0  0
 13 22  1  0  0  0  0
 14 26  1  0  0  0  0
 15 32  1  0  0  0  0
 16 20  1  0  0  0  0
 16 26  1  0  0  0  0
 16 29  2  0  0  0  0
 17 22  1  0  0  0  0
 17 26  1  0  0  0  0
 17 30  2  0  0  0  0
 18 24  1  0  0  0  0
 18 27  1  0  0  0  0
 18 31  2  0  0  0  0
 19 28  1  0  0  0  0
 20 22  1  0  0  0  0
 21 22  1  0  0  0  0
 21 28  1  0  0  0  0
 23 27  1  0  0  0  0
 24 28  1  1  0  0  0
  1 33  1  0  0  0  0
  2 34  1  0  0  0  0
  3 35  1  0  0  0  0
  4 36  1  0  0  0  0
  5 37  1  0  0  0  0
  6 38  1  0  0  0  0
  7 39  1  0  0  0  0
  8 40  1  0  0  0  0
  9 41  1  0  0  0  0
 19 42  1  0  0  0  0
 19 43  1  0  0  0  0
 20 44  1  0  0  0  0
 20 45  1  0  0  0  0
 21 46  1  0  0  0  0
 21 47  1  0  0  0  0
 23 48  1  0  0  0  0
 23 49  1  0  0  0  0
 23 50  1  0  0  0  0
 24 51  1  0  0  0  0
 24 52  1  0  0  0  0
 27 53  1  0  0  0  0
 28 54  1  0  0  0  0
M  CHG  1  28   1
M  END
> <compound>
MAT-POS-1bed62cf-3

> <compound_smiles>
CNC(=O)CN1Cc2ccc(cc2C3(C1)CC(=O)N(C3=O)c4cncc5c4cccc5)Cl

> <enantiomer_smiles>
CNC(=O)C[N@@]1Cc2ccc(cc2C3(C1)CC(=O)N(C3=O)c4cncc5c4cccc5)Cl

> <scaffold>
tetrahydroisoquinoline-5spiro-isoquinoline

> <clash_score>
0

> <docking_score>
-9.909808158874512

> <overlap_score>
1.0

> <MMFF_internal_energy>
137.53214268218855

> <docked_smiles>
CNC(=O)C[N@@H+]1Cc2ccc(cc2[C@]3(C1)CC(=O)N(C3=O)c4cncc5c4cccc5)Cl

$$$$
MAT-POS-b4d6b7fc-5_1
  -OEChem-12272114573D

 55 59  0     1  0  0  0  0  0999 V2000
    3.7865    2.4205   19.1660 C   0  0  0  0  0  0  0  0  0  0  0  0
   12.0765    0.0316   24.1541 C   0  0  0  0  0  0  0  0  0  0  0  0
    3.3432    2.6279   20.4411 C   0  0  0  0  0  0  0  0  0  0  0  0
   12.9132   -0.6032   23.2569 C   0  0  0  0  0  0  0  0  0  0  0  0
    4.8973    1.0233   21.2988 C   0  0  0  0  0  0  0  0  0  0  0  0
   10.9991   -1.4331   22.0443 C   0  0  0  0  0  0  0  0  0  0  0  0
    5.3278    1.2339   17.6066 C   0  0  0  0  0  0  0  0  0  0  0  0
    6.8438   -0.2892   18.3752 C   0  0  0  0  0  0  0  0  0  0  0  0
    4.8226    1.4906   18.9054 C   0  0  0  0  0  0  0  0  0  0  0  0
    5.3982    0.7733   19.9948 C   0  0  0  0  0  0  0  0  0  0  0  0
   10.7040   -0.0625   23.9898 C   0  0  0  0  0  0  0  0  0  0  0  0
   10.1406   -0.7765   22.9250 C   0  0  0  0  0  0  0  0  0  0  0  0
    6.4440   -0.1472   19.6979 C   0  0  0  0  0  0  0  0  0  0  0  0
    3.8960    1.9291   21.5050 C   0  0  0  0  0  0  0  0  0  0  0  0
   12.3683   -1.3298   22.2234 C   0  0  0  0  0  0  0  0  0  0  0  0
    8.2490    0.0169   21.4271 C   0  0  0  0  0  0  0  0  0  0  0  0
    7.3800    2.6707   23.1135 C   0  0  0  0  0  0  0  0  0  0  0  0
    9.9479    0.5589   24.9534 C   0  0  0  0  0  0  0  0  0  0  0  0
    8.0140   -2.1541   22.4331 C   0  0  0  0  0  0  0  0  0  0  0  0
    6.9866   -1.9366   21.3580 C   0  0  0  0  0  0  0  0  0  0  0  0
    7.8721   -0.1194   23.8831 C   0  0  0  0  0  0  0  0  0  0  0  0
    8.6238   -0.7606   22.6929 C   0  0  3  0  0  0  0  0  0  0  0  0
    6.3064    4.4181   21.7238 C   0  0  0  0  0  0  0  0  0  0  0  0
    8.7403    2.1972   23.5605 C   0  0  0  0  0  0  0  0  0  0  0  0
    6.3062    0.3769   17.3421 N   0  0  0  0  0  0  0  0  0  0  0  0
    7.2292   -0.6897   20.7790 N   0  0  0  0  0  0  0  0  0  0  0  0
    7.4727    3.7787   22.2847 N   0  0  0  0  0  0  0  0  0  0  0  0
    8.6609    1.0133   24.4995 N   0  3  2  0  0  0  0  0  0  0  0  0
    8.7573    1.0936   21.1337 O   0  0  0  0  0  0  0  0  0  0  0  0
    6.3322    2.1271   23.4522 O   0  0  0  0  0  0  0  0  0  0  0  0
    3.4314    2.1555   22.7514 F   0  0  0  0  0  0  0  0  0  0  0  0
   13.4273   -2.1424   21.1098 Cl  0  0  0  0  0  0  0  0  0  0  0  0
    3.3399    2.9734   18.3365 H   0  0  0  0  0  0  0  0  0  0  0  0
   12.5019    0.5946   24.9768 H   0  0  0  0  0  0  0  0  0  0  0  0
    2.5430    3.3508   20.6361 H   0  0  0  0  0  0  0  0  0  0  0  0
   13.9911   -0.5203   23.3811 H   0  0  0  0  0  0  0  0  0  0  0  0
    5.3103    0.4884   22.1571 H   0  0  0  0  0  0  0  0  0  0  0  0
   10.6042   -2.0222   21.2286 H   0  0  0  0  0  0  0  0  0  0  0  0
    4.9138    1.7515   16.7475 H   0  0  0  0  0  0  0  0  0  0  0  0
    7.6445   -0.9762   18.1044 H   0  0  0  0  0  0  0  0  0  0  0  0
    9.7388   -0.1131   25.8254 H   0  0  0  0  0  0  0  0  0  0  0  0
   10.4771    1.4544   25.3711 H   0  0  0  0  0  0  0  0  0  0  0  0
    7.5768   -2.6110   23.3318 H   0  0  0  0  0  0  0  0  0  0  0  0
    8.7734   -2.8622   22.0653 H   0  0  0  0  0  0  0  0  0  0  0  0
    7.0225   -2.7503   20.5949 H   0  0  0  0  0  0  0  0  0  0  0  0
    5.9552   -1.9477   21.7830 H   0  0  0  0  0  0  0  0  0  0  0  0
    6.8958    0.3004   23.5785 H   0  0  0  0  0  0  0  0  0  0  0  0
    7.6733   -0.8520   24.6844 H   0  0  0  0  0  0  0  0  0  0  0  0
    6.0820    3.9763   20.7417 H   0  0  0  0  0  0  0  0  0  0  0  0
    5.4486    4.2710   22.3965 H   0  0  0  0  0  0  0  0  0  0  0  0
    6.4995    5.4946   21.6059 H   0  0  0  0  0  0  0  0  0  0  0  0
    9.2580    2.9867   24.1123 H   0  0  0  0  0  0  0  0  0  0  0  0
    9.3353    1.8814   22.6991 H   0  0  0  0  0  0  0  0  0  0  0  0
    8.3848    4.1756   22.0775 H   0  0  0  0  0  0  0  0  0  0  0  0
    8.1123    1.3501   25.3127 H   0  0  0  0  0  0  0  0  0  0  0  0
  1  3  2  0  0  0  0
  1  9  1  0  0  0  0
  2  4  2  0  0  0  0
  2 11  1  0  0  0  0
  3 14  1  0  0  0  0
  4 15  1  0  0  0  0
  5 10  1  0  0  0  0
  5 14  2  0  0  0  0
  6 12  1  0  0  0  0
  6 15  2  0  0  0  0
  7  9  2  0  0  0  0
  7 25  1  0  0  0  0
  8 13  1  0  0  0  0
  8 25  2  0  0  0  0
  9 10  1  0  0  0  0
 10 13  2  0  0  0  0
 11 12  2  0  0  0  0
 11 18  1  0  0  0  0
 12 22  1  0  0  0  0
 13 26  1  0  0  0  0
 14 31  1  0  0  0  0
 15 32  1  0  0  0  0
 16 22  1  0  0  0  0
 16 26  1  0  0  0  0
 16 29  2  0  0  0  0
 17 24  1  0  0  0  0
 17 27  1  0  0  0  0
 17 30  2  0  0  0  0
 18 28  1  0  0  0  0
 19 20  1  0  0  0  0
 19 22  1  0  0  0  0
 20 26  1  0  0  0  0
 21 22  1  0  0  0  0
 21 28  1  0  0  0  0
 23 27  1  0  0  0  0
 24 28  1  1  0  0  0
  1 33  1  0  0  0  0
  2 34  1  0  0  0  0
  3 35  1  0  0  0  0
  4 36  1  0  0  0  0
  5 37  1  0  0  0  0
  6 38  1  0  0  0  0
  7 39  1  0  0  0  0
  8 40  1  0  0  0  0
 18 41  1  0  0  0  0
 18 42  1  0  0  0  0
 19 43  1  0  0  0  0
 19 44  1  0  0  0  0
 20 45  1  0  0  0  0
 20 46  1  0  0  0  0
 21 47  1  0  0  0  0
 21 48  1  0  0  0  0
 23 49  1  0  0  0  0
 23 50  1  0  0  0  0
 23 51  1  0  0  0  0
 24 52  1  0  0  0  0
 24 53  1  0  0  0  0
 27 54  1  0  0  0  0
 28 55  1  0  0  0  0
M  CHG  1  28   1
M  END
> <compound>
MAT-POS-b4d6b7fc-5

> <compound_smiles>
CNC(=O)CN1Cc2ccc(cc2C3(C1)CCN(C3=O)c4cncc5c4cc(cc5)F)Cl

> <enantiomer_smiles>
CNC(=O)C[N@@]1Cc2ccc(cc2C3(C1)CCN(C3=O)c4cncc5c4cc(cc5)F)Cl

> <scaffold>
tetrahydroisoquinoline-5spiro-isoquinoline

> <clash_score>
0

> <docking_score>
-9.78205394744873

> <overlap_score>
0.9904830455780029

> <MMFF_internal_energy>
162.7172675685451

> <docked_smiles>
CNC(=O)C[N@@H+]1Cc2ccc(cc2[C@]3(C1)CCN(C3=O)c4cncc5c4cc(cc5)F)Cl

$$$$
MAT-POS-b4d6b7fc-6_1
  -OEChem-12272114573D

 55 59  0     1  0  0  0  0  0999 V2000
    3.3432    2.6279   20.4411 C   0  0  0  0  0  0  0  0  0  0  0  0
    3.7865    2.4205   19.1660 C   0  0  0  0  0  0  0  0  0  0  0  0
   12.0765    0.0316   24.1541 C   0  0  0  0  0  0  0  0  0  0  0  0
    3.8960    1.9291   21.5050 C   0  0  0  0  0  0  0  0  0  0  0  0
   12.9132   -0.6032   23.2569 C   0  0  0  0  0  0  0  0  0  0  0  0
   10.9991   -1.4331   22.0443 C   0  0  0  0  0  0  0  0  0  0  0  0
    5.3278    1.2339   17.6066 C   0  0  0  0  0  0  0  0  0  0  0  0
    6.8438   -0.2892   18.3752 C   0  0  0  0  0  0  0  0  0  0  0  0
    4.8226    1.4906   18.9054 C   0  0  0  0  0  0  0  0  0  0  0  0
    5.3982    0.7733   19.9948 C   0  0  0  0  0  0  0  0  0  0  0  0
   10.7040   -0.0625   23.9898 C   0  0  0  0  0  0  0  0  0  0  0  0
   10.1406   -0.7765   22.9250 C   0  0  0  0  0  0  0  0  0  0  0  0
    6.4440   -0.1472   19.6979 C   0  0  0  0  0  0  0  0  0  0  0  0
   12.3683   -1.3298   22.2234 C   0  0  0  0  0  0  0  0  0  0  0  0
    4.8973    1.0233   21.2988 C   0  0  0  0  0  0  0  0  0  0  0  0
    8.2490    0.0169   21.4271 C   0  0  0  0  0  0  0  0  0  0  0  0
    8.9569    3.4987   24.2908 C   0  0  0  0  0  0  0  0  0  0  0  0
    9.9479    0.5589   24.9534 C   0  0  0  0  0  0  0  0  0  0  0  0
    8.0140   -2.1541   22.4331 C   0  0  0  0  0  0  0  0  0  0  0  0
    6.9866   -1.9366   21.3580 C   0  0  0  0  0  0  0  0  0  0  0  0
    7.8721   -0.1194   23.8831 C   0  0  0  0  0  0  0  0  0  0  0  0
    8.6238   -0.7606   22.6929 C   0  0  3  0  0  0  0  0  0  0  0  0
   10.5859    5.3554   24.4820 C   0  0  0  0  0  0  0  0  0  0  0  0
    8.7403    2.1972   23.5605 C   0  0  0  0  0  0  0  0  0  0  0  0
    6.3062    0.3769   17.3421 N   0  0  0  0  0  0  0  0  0  0  0  0
    7.2292   -0.6897   20.7790 N   0  0  0  0  0  0  0  0  0  0  0  0
   10.1523    4.0974   23.9222 N   0  0  0  0  0  0  0  0  0  0  0  0
    8.6609    1.0133   24.4995 N   0  3  2  0  0  0  0  0  0  0  0  0
    8.7573    1.0936   21.1337 O   0  0  0  0  0  0  0  0  0  0  0  0
    8.1599    3.9548   25.1063 O   0  0  0  0  0  0  0  0  0  0  0  0
   13.4273   -2.1424   21.1098 Cl  0  0  0  0  0  0  0  0  0  0  0  0
    5.4623    0.2453   22.7515 Cl  0  0  0  0  0  0  0  0  0  0  0  0
    2.5425    3.3507   20.6372 H   0  0  0  0  0  0  0  0  0  0  0  0
    3.3401    2.9737   18.3362 H   0  0  0  0  0  0  0  0  0  0  0  0
   12.5019    0.5946   24.9768 H   0  0  0  0  0  0  0  0  0  0  0  0
    3.4992    2.1328   22.5080 H   0  0  0  0  0  0  0  0  0  0  0  0
   13.9911   -0.5203   23.3811 H   0  0  0  0  0  0  0  0  0  0  0  0
   10.6042   -2.0222   21.2286 H   0  0  0  0  0  0  0  0  0  0  0  0
    4.9135    1.7511   16.7477 H   0  0  0  0  0  0  0  0  0  0  0  0
    7.6449   -0.9747   18.1006 H   0  0  0  0  0  0  0  0  0  0  0  0
    9.7388   -0.1131   25.8254 H   0  0  0  0  0  0  0  0  0  0  0  0
   10.4771    1.4544   25.3711 H   0  0  0  0  0  0  0  0  0  0  0  0
    7.5768   -2.6110   23.3318 H   0  0  0  0  0  0  0  0  0  0  0  0
    8.7734   -2.8622   22.0653 H   0  0  0  0  0  0  0  0  0  0  0  0
    7.0225   -2.7503   20.5949 H   0  0  0  0  0  0  0  0  0  0  0  0
    5.9552   -1.9477   21.7830 H   0  0  0  0  0  0  0  0  0  0  0  0
    6.8958    0.3004   23.5785 H   0  0  0  0  0  0  0  0  0  0  0  0
    7.6733   -0.8520   24.6844 H   0  0  0  0  0  0  0  0  0  0  0  0
   10.2308    6.1812   23.8480 H   0  0  0  0  0  0  0  0  0  0  0  0
   10.1729    5.4675   25.4953 H   0  0  0  0  0  0  0  0  0  0  0  0
   11.6847    5.3761   24.5295 H   0  0  0  0  0  0  0  0  0  0  0  0
    9.5767    1.9929   22.8863 H   0  0  0  0  0  0  0  0  0  0  0  0
    7.7998    2.2255   23.0032 H   0  0  0  0  0  0  0  0  0  0  0  0
   10.7613    3.6331   23.2546 H   0  0  0  0  0  0  0  0  0  0  0  0
    8.1123    1.3501   25.3127 H   0  0  0  0  0  0  0  0  0  0  0  0
  1  2  2  0  0  0  0
  1  4  1  0  0  0  0
  2  9  1  0  0  0  0
  3  5  2  0  0  0  0
  3 11  1  0  0  0  0
  4 15  2  0  0  0  0
  5 14  1  0  0  0  0
  6 12  1  0  0  0  0
  6 14  2  0  0  0  0
  7  9  2  0  0  0  0
  7 25  1  0  0  0  0
  8 13  1  0  0  0  0
  8 25  2  0  0  0  0
  9 10  1  0  0  0  0
 10 13  2  0  0  0  0
 10 15  1  0  0  0  0
 11 12  2  0  0  0  0
 11 18  1  0  0  0  0
 12 22  1  0  0  0  0
 13 26  1  0  0  0  0
 14 31  1  0  0  0  0
 15 32  1  0  0  0  0
 16 22  1  0  0  0  0
 16 26  1  0  0  0  0
 16 29  2  0  0  0  0
 17 24  1  0  0  0  0
 17 27  1  0  0  0  0
 17 30  2  0  0  0  0
 18 28  1  0  0  0  0
 19 20  1  0  0  0  0
 19 22  1  0  0  0  0
 20 26  1  0  0  0  0
 21 22  1  0  0  0  0
 21 28  1  0  0  0  0
 23 27  1  0  0  0  0
 24 28  1  1  0  0  0
  1 33  1  0  0  0  0
  2 34  1  0  0  0  0
  3 35  1  0  0  0  0
  4 36  1  0  0  0  0
  5 37  1  0  0  0  0
  6 38  1  0  0  0  0
  7 39  1  0  0  0  0
  8 40  1  0  0  0  0
 18 41  1  0  0  0  0
 18 42  1  0  0  0  0
 19 43  1  0  0  0  0
 19 44  1  0  0  0  0
 20 45  1  0  0  0  0
 20 46  1  0  0  0  0
 21 47  1  0  0  0  0
 21 48  1  0  0  0  0
 23 49  1  0  0  0  0
 23 50  1  0  0  0  0
 23 51  1  0  0  0  0
 24 52  1  0  0  0  0
 24 53  1  0  0  0  0
 27 54  1  0  0  0  0
 28 55  1  0  0  0  0
M  CHG  1  28   1
M  END
> <compound>
MAT-POS-b4d6b7fc-6

> <compound_smiles>
CNC(=O)CN1Cc2ccc(cc2C3(C1)CCN(C3=O)c4cncc5c4c(ccc5)Cl)Cl

> <enantiomer_smiles>
CNC(=O)C[N@@]1Cc2ccc(cc2C3(C1)CCN(C3=O)c4cncc5c4c(ccc5)Cl)Cl

> <scaffold>
tetrahydroisoquinoline-5spiro-isoquinoline

> <clash_score>
0

> <docking_score>
-9.079355239868164

> <overlap_score>
0.9856582283973694

> <MMFF_internal_energy>
230.7603188391015

> <docked_smiles>
CNC(=O)C[N@@H+]1Cc2ccc(cc2[C@]3(C1)CCN(C3=O)c4cncc5c4c(ccc5)Cl)Cl

$$$$
EDJ-MED-94fddcec-5_1
  -OEChem-12272114573D

 51 55  0     1  0  0  0  0  0999 V2000
    4.8973    1.0233   21.2988 C   0  0  0  0  0  0  0  0  0  0  0  0
   12.0765    0.0316   24.1541 C   0  0  0  0  0  0  0  0  0  0  0  0
    3.8960    1.9291   21.5050 C   0  0  0  0  0  0  0  0  0  0  0  0
   12.9132   -0.6032   23.2569 C   0  0  0  0  0  0  0  0  0  0  0  0
    3.7865    2.4205   19.1660 C   0  0  0  0  0  0  0  0  0  0  0  0
   10.9991   -1.4331   22.0443 C   0  0  0  0  0  0  0  0  0  0  0  0
    5.3278    1.2339   17.6066 C   0  0  0  0  0  0  0  0  0  0  0  0
    6.8438   -0.2892   18.3752 C   0  0  0  0  0  0  0  0  0  0  0  0
    5.3982    0.7733   19.9948 C   0  0  0  0  0  0  0  0  0  0  0  0
    4.8226    1.4906   18.9054 C   0  0  0  0  0  0  0  0  0  0  0  0
   10.1406   -0.7765   22.9250 C   0  0  0  0  0  0  0  0  0  0  0  0
    6.4440   -0.1472   19.6979 C   0  0  0  0  0  0  0  0  0  0  0  0
   10.7040   -0.0625   23.9898 C   0  0  0  0  0  0  0  0  0  0  0  0
    3.3432    2.6279   20.4411 C   0  0  0  0  0  0  0  0  0  0  0  0
   12.3683   -1.3298   22.2234 C   0  0  0  0  0  0  0  0  0  0  0  0
    8.2490    0.0169   21.4271 C   0  0  0  0  0  0  0  0  0  0  0  0
    8.0140   -2.1541   22.4331 C   0  0  0  0  0  0  0  0  0  0  0  0
    7.8721   -0.1194   23.8831 C   0  0  0  0  0  0  0  0  0  0  0  0
    6.9866   -1.9366   21.3580 C   0  0  0  0  0  0  0  0  0  0  0  0
    8.6609    1.0133   24.4995 C   0  0  0  0  0  0  0  0  0  0  0  0
    8.6238   -0.7606   22.6929 C   0  0  3  0  0  0  0  0  0  0  0  0
    0.5681    2.8312   20.6205 C   0  0  0  0  0  0  0  0  0  0  0  0
    6.3062    0.3769   17.3421 N   0  0  0  0  0  0  0  0  0  0  0  0
    7.2292   -0.6897   20.7790 N   0  0  0  0  0  0  0  0  0  0  0  0
    8.7559    1.0937   21.1315 O   0  0  0  0  0  0  0  0  0  0  0  0
   10.7450    1.7883   25.4928 O   0  0  0  0  0  0  0  0  0  0  0  0
    9.7102   -0.4301   26.1384 O   0  0  0  0  0  0  0  0  0  0  0  0
    2.1875    4.2366   22.1295 O   0  0  0  0  0  0  0  0  0  0  0  0
    2.0335    4.7667   19.6716 O   0  0  0  0  0  0  0  0  0  0  0  0
    9.9479    0.5589   24.9534 S   0  0  0  0  0  0  0  0  0  0  0  0
    2.0618    3.7881   20.7500 S   0  0  0  0  0  0  0  0  0  0  0  0
   13.4291   -2.1444   21.1126 Cl  0  0  0  0  0  0  0  0  0  0  0  0
    5.3114    0.4892   22.1572 H   0  0  0  0  0  0  0  0  0  0  0  0
   12.5120    0.5953   24.9760 H   0  0  0  0  0  0  0  0  0  0  0  0
    3.5259    2.1069   22.5217 H   0  0  0  0  0  0  0  0  0  0  0  0
   13.9915   -0.5226   23.3833 H   0  0  0  0  0  0  0  0  0  0  0  0
    3.3486    2.9706   18.3290 H   0  0  0  0  0  0  0  0  0  0  0  0
   10.6108   -2.0222   21.2304 H   0  0  0  0  0  0  0  0  0  0  0  0
    4.9146    1.7518   16.7474 H   0  0  0  0  0  0  0  0  0  0  0  0
    7.6451   -0.9755   18.1042 H   0  0  0  0  0  0  0  0  0  0  0  0
    7.5775   -2.6140   23.3286 H   0  0  0  0  0  0  0  0  0  0  0  0
    8.7708   -2.8631   22.0636 H   0  0  0  0  0  0  0  0  0  0  0  0
    7.6611   -0.8658   24.6526 H   0  0  0  0  0  0  0  0  0  0  0  0
    6.9006    0.2556   23.5459 H   0  0  0  0  0  0  0  0  0  0  0  0
    7.0227   -2.7503   20.5949 H   0  0  0  0  0  0  0  0  0  0  0  0
    5.9552   -1.9482   21.7828 H   0  0  0  0  0  0  0  0  0  0  0  0
    8.7031    1.8245   23.7055 H   0  0  0  0  0  0  0  0  0  0  0  0
    7.9987    1.4859   25.2931 H   0  0  0  0  0  0  0  0  0  0  0  0
   -0.2809    3.4913   20.8051 H   0  0  0  0  0  0  0  0  0  0  0  0
    0.5144    2.4112   19.6149 H   0  0  0  0  0  0  0  0  0  0  0  0
    0.6032    2.0356   21.3661 H   0  0  0  0  0  0  0  0  0  0  0  0
  1  3  2  0  0  0  0
  1  9  1  0  0  0  0
  2  4  1  0  0  0  0
  2 13  2  0  0  0  0
  3 14  1  0  0  0  0
  4 15  2  0  0  0  0
  5 10  1  0  0  0  0
  5 14  2  0  0  0  0
  6 11  2  0  0  0  0
  6 15  1  0  0  0  0
  7 10  2  0  0  0  0
  7 23  1  0  0  0  0
  8 12  1  0  0  0  0
  8 23  2  0  0  0  0
  9 10  1  0  0  0  0
  9 12  2  0  0  0  0
 11 13  1  0  0  0  0
 11 21  1  0  0  0  0
 12 24  1  0  0  0  0
 13 30  1  0  0  0  0
 14 31  1  0  0  0  0
 15 32  1  0  0  0  0
 16 21  1  0  0  0  0
 16 24  1  0  0  0  0
 16 25  2  0  0  0  0
 17 19  1  0  0  0  0
 17 21  1  0  0  0  0
 18 20  1  0  0  0  0
 18 21  1  0  0  0  0
 19 24  1  0  0  0  0
 20 30  1  0  0  0  0
 22 31  1  0  0  0  0
 26 30  2  0  0  0  0
 27 30  2  0  0  0  0
 28 31  2  0  0  0  0
 29 31  2  0  0  0  0
  1 33  1  0  0  0  0
  2 34  1  0  0  0  0
  3 35  1  0  0  0  0
  4 36  1  0  0  0  0
  5 37  1  0  0  0  0
  6 38  1  0  0  0  0
  7 39  1  0  0  0  0
  8 40  1  0  0  0  0
 17 41  1  0  0  0  0
 17 42  1  0  0  0  0
 18 43  1  0  0  0  0
 18 44  1  0  0  0  0
 19 45  1  0  0  0  0
 19 46  1  0  0  0  0
 20 47  1  0  0  0  0
 20 48  1  0  0  0  0
 22 49  1  0  0  0  0
 22 50  1  0  0  0  0
 22 51  1  0  0  0  0
M  END
> <compound>
EDJ-MED-94fddcec-5

> <compound_smiles>
CS(=O)(=O)c1ccc2c(c1)cncc2N3CCC4(C3=O)CCS(=O)(=O)c5c4cc(cc5)Cl

> <enantiomer_smiles>
CS(=O)(=O)c1ccc2c(c1)cncc2N3CCC4(C3=O)CCS(=O)(=O)c5c4cc(cc5)Cl

> <scaffold>
tetralinlike-5spiro-isoquinoline

> <clash_score>
0.7168170439667734

> <docking_score>
-8.892256736755371

> <overlap_score>
1.0

> <MMFF_internal_energy>
320.056685483494

> <docked_smiles>
CS(=O)(=O)c1ccc2c(c1)cncc2N3CC[C@@]4(C3=O)CCS(=O)(=O)c5c4cc(cc5)Cl

$$$$
PET-UNK-14142a25-1_1
  -OEChem-12272114573D

 53 57  0     1  0  0  0  0  0999 V2000
    3.3432    2.6279   20.4411 C   0  0  0  0  0  0  0  0  0  0  0  0
    3.8960    1.9291   21.5050 C   0  0  0  0  0  0  0  0  0  0  0  0
    3.7865    2.4205   19.1660 C   0  0  0  0  0  0  0  0  0  0  0  0
    4.8973    1.0233   21.2988 C   0  0  0  0  0  0  0  0  0  0  0  0
   12.0765    0.0316   24.1541 C   0  0  0  0  0  0  0  0  0  0  0  0
   12.9132   -0.6032   23.2569 C   0  0  0  0  0  0  0  0  0  0  0  0
   10.9991   -1.4331   22.0443 C   0  0  0  0  0  0  0  0  0  0  0  0
    5.3278    1.2339   17.6066 C   0  0  0  0  0  0  0  0  0  0  0  0
    6.8438   -0.2892   18.3752 C   0  0  0  0  0  0  0  0  0  0  0  0
    4.8226    1.4906   18.9054 C   0  0  0  0  0  0  0  0  0  0  0  0
    5.3982    0.7733   19.9948 C   0  0  0  0  0  0  0  0  0  0  0  0
   10.7040   -0.0625   23.9898 C   0  0  0  0  0  0  0  0  0  0  0  0
   10.1406   -0.7765   22.9250 C   0  0  0  0  0  0  0  0  0  0  0  0
    6.4440   -0.1472   19.6979 C   0  0  0  0  0  0  0  0  0  0  0  0
   12.3683   -1.3298   22.2234 C   0  0  0  0  0  0  0  0  0  0  0  0
    9.9479    0.5589   24.9534 C   0  0  0  0  0  0  0  0  0  0  0  0
    8.2490    0.0169   21.4271 C   0  0  0  0  0  0  0  0  0  0  0  0
    8.4681    3.2130   23.6913 C   0  0  0  0  0  0  0  0  0  0  0  0
    8.0140   -2.1541   22.4331 C   0  0  0  0  0  0  0  0  0  0  0  0
    6.9866   -1.9366   21.3580 C   0  0  0  0  0  0  0  0  0  0  0  0
    7.8721   -0.1194   23.8831 C   0  0  0  0  0  0  0  0  0  0  0  0
    8.6238   -0.7606   22.6929 C   0  0  1  0  0  0  0  0  0  0  0  0
   10.2257    4.9007   23.1656 C   0  0  0  0  0  0  0  0  0  0  0  0
    8.0921    2.2235   24.7646 C   0  0  0  0  0  0  0  0  0  0  0  0
    6.3062    0.3769   17.3421 N   0  0  0  0  0  0  0  0  0  0  0  0
    7.2292   -0.6897   20.7790 N   0  0  0  0  0  0  0  0  0  0  0  0
    8.6609    1.0133   24.4995 N   0  0  0  0  0  0  0  0  0  0  0  0
    9.6325    3.8941   24.0162 N   0  0  0  0  0  0  0  0  0  0  0  0
   10.3214    0.7301   26.1092 O   0  0  0  0  0  0  0  0  0  0  0  0
    8.8192    1.0413   21.0783 O   0  0  0  0  0  0  0  0  0  0  0  0
    7.8139    3.3779   22.6651 O   0  0  0  0  0  0  0  0  0  0  0  0
   13.4275   -2.1467   21.1136 Cl  0  0  0  0  0  0  0  0  0  0  0  0
    2.5432    3.3510   20.6369 H   0  0  0  0  0  0  0  0  0  0  0  0
    3.5174    2.1137   22.5168 H   0  0  0  0  0  0  0  0  0  0  0  0
    3.3409    2.9743   18.3364 H   0  0  0  0  0  0  0  0  0  0  0  0
    5.3118    0.4895   22.1572 H   0  0  0  0  0  0  0  0  0  0  0  0
   12.5172    0.5961   24.9720 H   0  0  0  0  0  0  0  0  0  0  0  0
   13.9905   -0.5226   23.3828 H   0  0  0  0  0  0  0  0  0  0  0  0
   10.6129   -2.0250   21.2273 H   0  0  0  0  0  0  0  0  0  0  0  0
    4.9141    1.7511   16.7474 H   0  0  0  0  0  0  0  0  0  0  0  0
    7.6445   -0.9764   18.1043 H   0  0  0  0  0  0  0  0  0  0  0  0
    7.5112   -2.5276   23.3392 H   0  0  0  0  0  0  0  0  0  0  0  0
    8.7578   -2.9102   22.1437 H   0  0  0  0  0  0  0  0  0  0  0  0
    7.0588   -2.7254   20.5721 H   0  0  0  0  0  0  0  0  0  0  0  0
    5.9512   -1.9962   21.7710 H   0  0  0  0  0  0  0  0  0  0  0  0
    6.9201    0.3181   23.5738 H   0  0  0  0  0  0  0  0  0  0  0  0
    7.6662   -0.8543   24.6623 H   0  0  0  0  0  0  0  0  0  0  0  0
   10.9370    4.4247   22.4746 H   0  0  0  0  0  0  0  0  0  0  0  0
    9.4362    5.4050   22.5891 H   0  0  0  0  0  0  0  0  0  0  0  0
   10.7553    5.6389   23.7858 H   0  0  0  0  0  0  0  0  0  0  0  0
    8.4387    2.5854   25.7371 H   0  0  0  0  0  0  0  0  0  0  0  0
    7.0056    2.0995   24.7905 H   0  0  0  0  0  0  0  0  0  0  0  0
   10.0907    3.6743   24.8958 H   0  0  0  0  0  0  0  0  0  0  0  0
  1  2  1  0  0  0  0
  1  3  2  0  0  0  0
  2  4  2  0  0  0  0
  3 10  1  0  0  0  0
  4 11  1  0  0  0  0
  5  6  2  0  0  0  0
  5 12  1  0  0  0  0
  6 15  1  0  0  0  0
  7 13  1  0  0  0  0
  7 15  2  0  0  0  0
  8 10  2  0  0  0  0
  8 25  1  0  0  0  0
  9 14  1  0  0  0  0
  9 25  2  0  0  0  0
 10 11  1  0  0  0  0
 11 14  2  0  0  0  0
 12 13  2  0  0  0  0
 12 16  1  0  0  0  0
 13 22  1  1  0  0  0
 14 26  1  0  0  0  0
 15 32  1  0  0  0  0
 16 27  1  0  0  0  0
 16 29  2  0  0  0  0
 17 22  1  1  0  0  0
 17 26  1  0  0  0  0
 17 30  2  0  0  0  0
 18 24  1  0  0  0  0
 18 28  1  0  0  0  0
 18 31  2  0  0  0  0
 19 20  1  0  0  0  0
 19 22  1  6  0  0  0
 20 26  1  0  0  0  0
 21 22  1  6  0  0  0
 21 27  1  0  0  0  0
 23 28  1  0  0  0  0
 24 27  1  0  0  0  0
  1 33  1  0  0  0  0
  2 34  1  0  0  0  0
  3 35  1  0  0  0  0
  4 36  1  0  0  0  0
  5 37  1  0  0  0  0
  6 38  1  0  0  0  0
  7 39  1  0  0  0  0
  8 40  1  0  0  0  0
  9 41  1  0  0  0  0
 19 42  1  0  0  0  0
 19 43  1  0  0  0  0
 20 44  1  0  0  0  0
 20 45  1  0  0  0  0
 21 46  1  0  0  0  0
 21 47  1  0  0  0  0
 23 48  1  0  0  0  0
 23 49  1  0  0  0  0
 23 50  1  0  0  0  0
 24 51  1  0  0  0  0
 24 52  1  0  0  0  0
 28 53  1  0  0  0  0
M  END
> <compound>
PET-UNK-14142a25-1

> <compound_smiles>
CNC(=O)CN1C[C@]2(CCN(C2=O)c3cncc4c3cccc4)c5cc(ccc5C1=O)Cl

> <enantiomer_smiles>
CNC(=O)CN1C[C@]2(CCN(C2=O)c3cncc4c3cccc4)c5cc(ccc5C1=O)Cl

> <scaffold>
tetrahydroisoquinoline-5spiro-isoquinoline

> <clash_score>
0

> <docking_score>
-9.915138244628906

> <overlap_score>
0.9898566603660583

> <MMFF_internal_energy>
164.2265122204839

> <docked_smiles>
CNC(=O)CN1C[C@]2(CCN(C2=O)c3cncc4c3cccc4)c5cc(ccc5C1=O)Cl

$$$$
MAT-POS-b4d6b7fc-5_2
  -OEChem-12272114573D

 55 59  0     1  0  0  0  0  0999 V2000
    3.7865    2.4205   19.1660 C   0  0  0  0  0  0  0  0  0  0  0  0
   12.0765    0.0316   24.1541 C   0  0  0  0  0  0  0  0  0  0  0  0
    3.3432    2.6279   20.4411 C   0  0  0  0  0  0  0  0  0  0  0  0
   12.9132   -0.6032   23.2569 C   0  0  0  0  0  0  0  0  0  0  0  0
    4.8973    1.0233   21.2988 C   0  0  0  0  0  0  0  0  0  0  0  0
   10.9991   -1.4331   22.0443 C   0  0  0  0  0  0  0  0  0  0  0  0
    5.3278    1.2339   17.6066 C   0  0  0  0  0  0  0  0  0  0  0  0
    6.8438   -0.2892   18.3752 C   0  0  0  0  0  0  0  0  0  0  0  0
    4.8226    1.4906   18.9054 C   0  0  0  0  0  0  0  0  0  0  0  0
    5.3982    0.7733   19.9948 C   0  0  0  0  0  0  0  0  0  0  0  0
   10.7040   -0.0625   23.9898 C   0  0  0  0  0  0  0  0  0  0  0  0
   10.1406   -0.7765   22.9250 C   0  0  0  0  0  0  0  0  0  0  0  0
    6.4440   -0.1472   19.6979 C   0  0  0  0  0  0  0  0  0  0  0  0
    3.8960    1.9291   21.5050 C   0  0  0  0  0  0  0  0  0  0  0  0
   12.3683   -1.3298   22.2234 C   0  0  0  0  0  0  0  0  0  0  0  0
    8.2490    0.0169   21.4271 C   0  0  0  0  0  0  0  0  0  0  0  0
    6.7919    2.5950   24.9761 C   0  0  0  0  0  0  0  0  0  0  0  0
    9.9479    0.5589   24.9534 C   0  0  0  0  0  0  0  0  0  0  0  0
    8.0140   -2.1541   22.4331 C   0  0  0  0  0  0  0  0  0  0  0  0
    6.9866   -1.9366   21.3580 C   0  0  0  0  0  0  0  0  0  0  0  0
    7.8721   -0.1194   23.8831 C   0  0  0  0  0  0  0  0  0  0  0  0
    8.6238   -0.7606   22.6929 C   0  0  3  0  0  0  0  0  0  0  0  0
    6.5186    4.5422   23.4690 C   0  0  0  0  0  0  0  0  0  0  0  0
    7.8596    1.7144   25.5749 C   0  0  0  0  0  0  0  0  0  0  0  0
    6.3062    0.3769   17.3421 N   0  0  0  0  0  0  0  0  0  0  0  0
    7.2292   -0.6897   20.7790 N   0  0  0  0  0  0  0  0  0  0  0  0
    7.3373    3.5744   24.1596 N   0  0  0  0  0  0  0  0  0  0  0  0
    8.6609    1.0133   24.4995 N   0  3  1  0  0  0  0  0  0  0  0  0
    8.8286    1.0402   21.0803 O   0  0  0  0  0  0  0  0  0  0  0  0
    5.5929    2.4454   25.1962 O   0  0  0  0  0  0  0  0  0  0  0  0
    3.4314    2.1555   22.7514 F   0  0  0  0  0  0  0  0  0  0  0  0
   13.4270   -2.1443   21.1108 Cl  0  0  0  0  0  0  0  0  0  0  0  0
    3.3399    2.9734   18.3365 H   0  0  0  0  0  0  0  0  0  0  0  0
   12.5021    0.5962   24.9756 H   0  0  0  0  0  0  0  0  0  0  0  0
    2.5430    3.3508   20.6361 H   0  0  0  0  0  0  0  0  0  0  0  0
   13.9911   -0.5171   23.3786 H   0  0  0  0  0  0  0  0  0  0  0  0
    5.3103    0.4884   22.1571 H   0  0  0  0  0  0  0  0  0  0  0  0
   10.6045   -2.0170   21.2248 H   0  0  0  0  0  0  0  0  0  0  0  0
    4.9138    1.7515   16.7475 H   0  0  0  0  0  0  0  0  0  0  0  0
    7.6445   -0.9762   18.1044 H   0  0  0  0  0  0  0  0  0  0  0  0
    9.7608   -0.1211   25.8247 H   0  0  0  0  0  0  0  0  0  0  0  0
   10.4565    1.4661   25.3705 H   0  0  0  0  0  0  0  0  0  0  0  0
    7.5144   -2.5472   23.3327 H   0  0  0  0  0  0  0  0  0  0  0  0
    8.7599   -2.9065   22.1418 H   0  0  0  0  0  0  0  0  0  0  0  0
    7.0582   -2.7244   20.5716 H   0  0  0  0  0  0  0  0  0  0  0  0
    5.9516   -1.9958   21.7713 H   0  0  0  0  0  0  0  0  0  0  0  0
    6.8955    0.2929   23.5757 H   0  0  0  0  0  0  0  0  0  0  0  0
    7.6774   -0.8491   24.6905 H   0  0  0  0  0  0  0  0  0  0  0  0
    6.2637    4.1608   22.4692 H   0  0  0  0  0  0  0  0  0  0  0  0
    5.5955    4.7165   24.0413 H   0  0  0  0  0  0  0  0  0  0  0  0
    7.0728    5.4873   23.3704 H   0  0  0  0  0  0  0  0  0  0  0  0
    7.4105    0.9495   26.2145 H   0  0  0  0  0  0  0  0  0  0  0  0
    8.5738    2.3157   26.1441 H   0  0  0  0  0  0  0  0  0  0  0  0
    8.3460    3.6364   24.0553 H   0  0  0  0  0  0  0  0  0  0  0  0
    8.7930    1.7233   23.7554 H   0  0  0  0  0  0  0  0  0  0  0  0
  1  3  2  0  0  0  0
  1  9  1  0  0  0  0
  2  4  2  0  0  0  0
  2 11  1  0  0  0  0
  3 14  1  0  0  0  0
  4 15  1  0  0  0  0
  5 10  1  0  0  0  0
  5 14  2  0  0  0  0
  6 12  1  0  0  0  0
  6 15  2  0  0  0  0
  7  9  2  0  0  0  0
  7 25  1  0  0  0  0
  8 13  1  0  0  0  0
  8 25  2  0  0  0  0
  9 10  1  0  0  0  0
 10 13  2  0  0  0  0
 11 12  2  0  0  0  0
 11 18  1  0  0  0  0
 12 22  1  0  0  0  0
 13 26  1  0  0  0  0
 14 31  1  0  0  0  0
 15 32  1  0  0  0  0
 16 22  1  0  0  0  0
 16 26  1  0  0  0  0
 16 29  2  0  0  0  0
 17 24  1  0  0  0  0
 17 27  1  0  0  0  0
 17 30  2  0  0  0  0
 18 28  1  0  0  0  0
 19 20  1  0  0  0  0
 19 22  1  0  0  0  0
 20 26  1  0  0  0  0
 21 22  1  0  0  0  0
 21 28  1  0  0  0  0
 23 27  1  0  0  0  0
 24 28  1  6  0  0  0
  1 33  1  0  0  0  0
  2 34  1  0  0  0  0
  3 35  1  0  0  0  0
  4 36  1  0  0  0  0
  5 37  1  0  0  0  0
  6 38  1  0  0  0  0
  7 39  1  0  0  0  0
  8 40  1  0  0  0  0
 18 41  1  0  0  0  0
 18 42  1  0  0  0  0
 19 43  1  0  0  0  0
 19 44  1  0  0  0  0
 20 45  1  0  0  0  0
 20 46  1  0  0  0  0
 21 47  1  0  0  0  0
 21 48  1  0  0  0  0
 23 49  1  0  0  0  0
 23 50  1  0  0  0  0
 23 51  1  0  0  0  0
 24 52  1  0  0  0  0
 24 53  1  0  0  0  0
 27 54  1  0  0  0  0
 28 55  1  0  0  0  0
M  CHG  1  28   1
M  END
> <compound>
MAT-POS-b4d6b7fc-5

> <compound_smiles>
CNC(=O)CN1Cc2ccc(cc2C3(C1)CCN(C3=O)c4cncc5c4cc(cc5)F)Cl

> <enantiomer_smiles>
CNC(=O)C[N@]1Cc2ccc(cc2C3(C1)CCN(C3=O)c4cncc5c4cc(cc5)F)Cl

> <scaffold>
tetrahydroisoquinoline-5spiro-isoquinoline

> <clash_score>
0

> <docking_score>
-9.065947532653809

> <overlap_score>
0.985787034034729

> <MMFF_internal_energy>
153.14490509123692

> <docked_smiles>
CNC(=O)C[N@H+]1Cc2ccc(cc2[C@]3(C1)CCN(C3=O)c4cncc5c4cc(cc5)F)Cl

$$$$
MAT-POS-b4d6b7fc-6_2
  -OEChem-12272114573D

 55 59  0     1  0  0  0  0  0999 V2000
    3.3432    2.6279   20.4411 C   0  0  0  0  0  0  0  0  0  0  0  0
    3.7865    2.4205   19.1660 C   0  0  0  0  0  0  0  0  0  0  0  0
   12.0765    0.0316   24.1541 C   0  0  0  0  0  0  0  0  0  0  0  0
    3.8960    1.9291   21.5050 C   0  0  0  0  0  0  0  0  0  0  0  0
   12.9132   -0.6032   23.2569 C   0  0  0  0  0  0  0  0  0  0  0  0
   10.9991   -1.4331   22.0443 C   0  0  0  0  0  0  0  0  0  0  0  0
    5.3278    1.2339   17.6066 C   0  0  0  0  0  0  0  0  0  0  0  0
    6.8438   -0.2892   18.3752 C   0  0  0  0  0  0  0  0  0  0  0  0
    4.8226    1.4906   18.9054 C   0  0  0  0  0  0  0  0  0  0  0  0
    5.3982    0.7733   19.9948 C   0  0  0  0  0  0  0  0  0  0  0  0
   10.7040   -0.0625   23.9898 C   0  0  0  0  0  0  0  0  0  0  0  0
   10.1406   -0.7765   22.9250 C   0  0  0  0  0  0  0  0  0  0  0  0
    6.4440   -0.1472   19.6979 C   0  0  0  0  0  0  0  0  0  0  0  0
   12.3683   -1.3298   22.2234 C   0  0  0  0  0  0  0  0  0  0  0  0
    4.8973    1.0233   21.2988 C   0  0  0  0  0  0  0  0  0  0  0  0
    8.2490    0.0169   21.4271 C   0  0  0  0  0  0  0  0  0  0  0  0
    6.7919    2.5950   24.9761 C   0  0  0  0  0  0  0  0  0  0  0  0
    9.9479    0.5589   24.9534 C   0  0  0  0  0  0  0  0  0  0  0  0
    8.0140   -2.1541   22.4331 C   0  0  0  0  0  0  0  0  0  0  0  0
    6.9866   -1.9366   21.3580 C   0  0  0  0  0  0  0  0  0  0  0  0
    7.8721   -0.1194   23.8831 C   0  0  0  0  0  0  0  0  0  0  0  0
    8.6238   -0.7606   22.6929 C   0  0  3  0  0  0  0  0  0  0  0  0
    6.5186    4.5422   23.4690 C   0  0  0  0  0  0  0  0  0  0  0  0
    7.8596    1.7144   25.5749 C   0  0  0  0  0  0  0  0  0  0  0  0
    6.3062    0.3769   17.3421 N   0  0  0  0  0  0  0  0  0  0  0  0
    7.2292   -0.6897   20.7790 N   0  0  0  0  0  0  0  0  0  0  0  0
    7.3373    3.5744   24.1596 N   0  0  0  0  0  0  0  0  0  0  0  0
    8.6609    1.0133   24.4995 N   0  3  1  0  0  0  0  0  0  0  0  0
    8.8286    1.0402   21.0803 O   0  0  0  0  0  0  0  0  0  0  0  0
    5.5929    2.4454   25.1962 O   0  0  0  0  0  0  0  0  0  0  0  0
   13.4270   -2.1443   21.1108 Cl  0  0  0  0  0  0  0  0  0  0  0  0
    5.4623    0.2453   22.7515 Cl  0  0  0  0  0  0  0  0  0  0  0  0
    2.5425    3.3507   20.6372 H   0  0  0  0  0  0  0  0  0  0  0  0
    3.3401    2.9737   18.3362 H   0  0  0  0  0  0  0  0  0  0  0  0
   12.5021    0.5962   24.9756 H   0  0  0  0  0  0  0  0  0  0  0  0
    3.4992    2.1328   22.5080 H   0  0  0  0  0  0  0  0  0  0  0  0
   13.9911   -0.5171   23.3786 H   0  0  0  0  0  0  0  0  0  0  0  0
   10.6045   -2.0170   21.2248 H   0  0  0  0  0  0  0  0  0  0  0  0
    4.9135    1.7511   16.7477 H   0  0  0  0  0  0  0  0  0  0  0  0
    7.6449   -0.9747   18.1006 H   0  0  0  0  0  0  0  0  0  0  0  0
    9.7608   -0.1211   25.8247 H   0  0  0  0  0  0  0  0  0  0  0  0
   10.4565    1.4661   25.3705 H   0  0  0  0  0  0  0  0  0  0  0  0
    7.5144   -2.5472   23.3327 H   0  0  0  0  0  0  0  0  0  0  0  0
    8.7599   -2.9065   22.1418 H   0  0  0  0  0  0  0  0  0  0  0  0
    7.0582   -2.7244   20.5716 H   0  0  0  0  0  0  0  0  0  0  0  0
    5.9516   -1.9958   21.7713 H   0  0  0  0  0  0  0  0  0  0  0  0
    6.8955    0.2929   23.5757 H   0  0  0  0  0  0  0  0  0  0  0  0
    7.6774   -0.8491   24.6905 H   0  0  0  0  0  0  0  0  0  0  0  0
    6.2637    4.1608   22.4692 H   0  0  0  0  0  0  0  0  0  0  0  0
    5.5955    4.7165   24.0413 H   0  0  0  0  0  0  0  0  0  0  0  0
    7.0728    5.4873   23.3704 H   0  0  0  0  0  0  0  0  0  0  0  0
    7.4105    0.9495   26.2145 H   0  0  0  0  0  0  0  0  0  0  0  0
    8.5738    2.3157   26.1441 H   0  0  0  0  0  0  0  0  0  0  0  0
    8.3460    3.6364   24.0553 H   0  0  0  0  0  0  0  0  0  0  0  0
    8.7930    1.7233   23.7554 H   0  0  0  0  0  0  0  0  0  0  0  0
  1  2  2  0  0  0  0
  1  4  1  0  0  0  0
  2  9  1  0  0  0  0
  3  5  2  0  0  0  0
  3 11  1  0  0  0  0
  4 15  2  0  0  0  0
  5 14  1  0  0  0  0
  6 12  1  0  0  0  0
  6 14  2  0  0  0  0
  7  9  2  0  0  0  0
  7 25  1  0  0  0  0
  8 13  1  0  0  0  0
  8 25  2  0  0  0  0
  9 10  1  0  0  0  0
 10 13  2  0  0  0  0
 10 15  1  0  0  0  0
 11 12  2  0  0  0  0
 11 18  1  0  0  0  0
 12 22  1  0  0  0  0
 13 26  1  0  0  0  0
 14 31  1  0  0  0  0
 15 32  1  0  0  0  0
 16 22  1  0  0  0  0
 16 26  1  0  0  0  0
 16 29  2  0  0  0  0
 17 24  1  0  0  0  0
 17 27  1  0  0  0  0
 17 30  2  0  0  0  0
 18 28  1  0  0  0  0
 19 20  1  0  0  0  0
 19 22  1  0  0  0  0
 20 26  1  0  0  0  0
 21 22  1  0  0  0  0
 21 28  1  0  0  0  0
 23 27  1  0  0  0  0
 24 28  1  6  0  0  0
  1 33  1  0  0  0  0
  2 34  1  0  0  0  0
  3 35  1  0  0  0  0
  4 36  1  0  0  0  0
  5 37  1  0  0  0  0
  6 38  1  0  0  0  0
  7 39  1  0  0  0  0
  8 40  1  0  0  0  0
 18 41  1  0  0  0  0
 18 42  1  0  0  0  0
 19 43  1  0  0  0  0
 19 44  1  0  0  0  0
 20 45  1  0  0  0  0
 20 46  1  0  0  0  0
 21 47  1  0  0  0  0
 21 48  1  0  0  0  0
 23 49  1  0  0  0  0
 23 50  1  0  0  0  0
 23 51  1  0  0  0  0
 24 52  1  0  0  0  0
 24 53  1  0  0  0  0
 27 54  1  0  0  0  0
 28 55  1  0  0  0  0
M  CHG  1  28   1
M  END
> <compound>
MAT-POS-b4d6b7fc-6

> <compound_smiles>
CNC(=O)CN1Cc2ccc(cc2C3(C1)CCN(C3=O)c4cncc5c4c(ccc5)Cl)Cl

> <enantiomer_smiles>
CNC(=O)C[N@]1Cc2ccc(cc2C3(C1)CCN(C3=O)c4cncc5c4c(ccc5)Cl)Cl

> <scaffold>
tetrahydroisoquinoline-5spiro-isoquinoline

> <clash_score>
0

> <docking_score>
-9.405142784118652

> <overlap_score>
0.9842516183853149

> <MMFF_internal_energy>
230.99825411745203

> <docked_smiles>
CNC(=O)C[N@H+]1Cc2ccc(cc2[C@]3(C1)CCN(C3=O)c4cncc5c4c(ccc5)Cl)Cl

$$$$
PET-UNK-14142a25-10_1
  -OEChem-12272114573D

 53 57  0     1  0  0  0  0  0999 V2000
    3.3432    2.6279   20.4411 C   0  0  0  0  0  0  0  0  0  0  0  0
    3.8960    1.9291   21.5050 C   0  0  0  0  0  0  0  0  0  0  0  0
    3.7865    2.4205   19.1660 C   0  0  0  0  0  0  0  0  0  0  0  0
    4.8973    1.0233   21.2988 C   0  0  0  0  0  0  0  0  0  0  0  0
   12.0765    0.0316   24.1541 C   0  0  0  0  0  0  0  0  0  0  0  0
   12.9132   -0.6032   23.2569 C   0  0  0  0  0  0  0  0  0  0  0  0
   10.9991   -1.4331   22.0443 C   0  0  0  0  0  0  0  0  0  0  0  0
    5.3278    1.2339   17.6066 C   0  0  0  0  0  0  0  0  0  0  0  0
    6.8438   -0.2892   18.3752 C   0  0  0  0  0  0  0  0  0  0  0  0
    4.8226    1.4906   18.9054 C   0  0  0  0  0  0  0  0  0  0  0  0
    5.3982    0.7733   19.9948 C   0  0  0  0  0  0  0  0  0  0  0  0
   10.7040   -0.0625   23.9898 C   0  0  0  0  0  0  0  0  0  0  0  0
   10.1406   -0.7765   22.9250 C   0  0  0  0  0  0  0  0  0  0  0  0
    6.4440   -0.1472   19.6979 C   0  0  0  0  0  0  0  0  0  0  0  0
   12.3683   -1.3298   22.2234 C   0  0  0  0  0  0  0  0  0  0  0  0
    9.9479    0.5589   24.9534 C   0  0  0  0  0  0  0  0  0  0  0  0
    8.2490    0.0169   21.4271 C   0  0  0  0  0  0  0  0  0  0  0  0
    8.4669    3.2198   23.6970 C   0  0  0  0  0  0  0  0  0  0  0  0
    8.0140   -2.1541   22.4331 C   0  0  0  0  0  0  0  0  0  0  0  0
    6.9866   -1.9366   21.3580 C   0  0  0  0  0  0  0  0  0  0  0  0
    7.8721   -0.1194   23.8831 C   0  0  0  0  0  0  0  0  0  0  0  0
    8.6238   -0.7606   22.6929 C   0  0  3  0  0  0  0  0  0  0  0  0
   10.2286    4.9046   23.1758 C   0  0  0  0  0  0  0  0  0  0  0  0
    8.0922    2.2237   24.7645 C   0  0  0  0  0  0  0  0  0  0  0  0
    6.3062    0.3769   17.3421 N   0  0  0  0  0  0  0  0  0  0  0  0
    7.2292   -0.6897   20.7790 N   0  0  0  0  0  0  0  0  0  0  0  0
    8.6609    1.0133   24.4995 N   0  0  0  0  0  0  0  0  0  0  0  0
    9.6355    3.8939   24.0215 N   0  0  0  0  0  0  0  0  0  0  0  0
   10.3214    0.7303   26.1092 O   0  0  0  0  0  0  0  0  0  0  0  0
    8.8193    1.0411   21.0780 O   0  0  0  0  0  0  0  0  0  0  0  0
    7.8085    3.3951   22.6752 O   0  0  0  0  0  0  0  0  0  0  0  0
   13.4274   -2.1468   21.1136 Cl  0  0  0  0  0  0  0  0  0  0  0  0
    2.5432    3.3510   20.6369 H   0  0  0  0  0  0  0  0  0  0  0  0
    3.5174    2.1137   22.5168 H   0  0  0  0  0  0  0  0  0  0  0  0
    3.3409    2.9743   18.3364 H   0  0  0  0  0  0  0  0  0  0  0  0
    5.3118    0.4895   22.1572 H   0  0  0  0  0  0  0  0  0  0  0  0
   12.5172    0.5967   24.9716 H   0  0  0  0  0  0  0  0  0  0  0  0
   13.9905   -0.5221   23.3825 H   0  0  0  0  0  0  0  0  0  0  0  0
   10.6130   -2.0249   21.2272 H   0  0  0  0  0  0  0  0  0  0  0  0
    4.9141    1.7511   16.7474 H   0  0  0  0  0  0  0  0  0  0  0  0
    7.6445   -0.9764   18.1043 H   0  0  0  0  0  0  0  0  0  0  0  0
    7.5110   -2.5276   23.3390 H   0  0  0  0  0  0  0  0  0  0  0  0
    8.7575   -2.9105   22.1433 H   0  0  0  0  0  0  0  0  0  0  0  0
    7.0587   -2.7258   20.5724 H   0  0  0  0  0  0  0  0  0  0  0  0
    5.9512   -1.9960   21.7712 H   0  0  0  0  0  0  0  0  0  0  0  0
    6.9203    0.3184   23.5736 H   0  0  0  0  0  0  0  0  0  0  0  0
    7.6659   -0.8542   24.6623 H   0  0  0  0  0  0  0  0  0  0  0  0
   10.9348    4.4312   22.4778 H   0  0  0  0  0  0  0  0  0  0  0  0
    9.4384    5.4164   22.6069 H   0  0  0  0  0  0  0  0  0  0  0  0
   10.7641    5.6360   23.7990 H   0  0  0  0  0  0  0  0  0  0  0  0
    8.4448    2.5768   25.7381 H   0  0  0  0  0  0  0  0  0  0  0  0
    7.0053    2.1037   24.7947 H   0  0  0  0  0  0  0  0  0  0  0  0
   10.0971    3.6657   24.8972 H   0  0  0  0  0  0  0  0  0  0  0  0
  1  2  1  0  0  0  0
  1  3  2  0  0  0  0
  2  4  2  0  0  0  0
  3 10  1  0  0  0  0
  4 11  1  0  0  0  0
  5  6  2  0  0  0  0
  5 12  1  0  0  0  0
  6 15  1  0  0  0  0
  7 13  1  0  0  0  0
  7 15  2  0  0  0  0
  8 10  2  0  0  0  0
  8 25  1  0  0  0  0
  9 14  1  0  0  0  0
  9 25  2  0  0  0  0
 10 11  1  0  0  0  0
 11 14  2  0  0  0  0
 12 13  2  0  0  0  0
 12 16  1  0  0  0  0
 13 22  1  0  0  0  0
 14 26  1  0  0  0  0
 15 32  1  0  0  0  0
 16 27  1  0  0  0  0
 16 29  2  0  0  0  0
 17 22  1  0  0  0  0
 17 26  1  0  0  0  0
 17 30  2  0  0  0  0
 18 24  1  0  0  0  0
 18 28  1  0  0  0  0
 18 31  2  0  0  0  0
 19 20  1  0  0  0  0
 19 22  1  0  0  0  0
 20 26  1  0  0  0  0
 21 22  1  0  0  0  0
 21 27  1  0  0  0  0
 23 28  1  0  0  0  0
 24 27  1  0  0  0  0
  1 33  1  0  0  0  0
  2 34  1  0  0  0  0
  3 35  1  0  0  0  0
  4 36  1  0  0  0  0
  5 37  1  0  0  0  0
  6 38  1  0  0  0  0
  7 39  1  0  0  0  0
  8 40  1  0  0  0  0
  9 41  1  0  0  0  0
 19 42  1  0  0  0  0
 19 43  1  0  0  0  0
 20 44  1  0  0  0  0
 20 45  1  0  0  0  0
 21 46  1  0  0  0  0
 21 47  1  0  0  0  0
 23 48  1  0  0  0  0
 23 49  1  0  0  0  0
 23 50  1  0  0  0  0
 24 51  1  0  0  0  0
 24 52  1  0  0  0  0
 28 53  1  0  0  0  0
M  END
> <compound>
PET-UNK-14142a25-10

> <compound_smiles>
CNC(=O)CN1CC2(CCN(C2=O)c3cncc4c3cccc4)c5cc(ccc5C1=O)Cl

> <enantiomer_smiles>
CNC(=O)CN1CC2(CCN(C2=O)c3cncc4c3cccc4)c5cc(ccc5C1=O)Cl

> <scaffold>
tetrahydroisoquinoline-5spiro-isoquinoline

> <clash_score>
0

> <docking_score>
-9.922537803649902

> <overlap_score>
0.9898000955581665

> <MMFF_internal_energy>
164.1056645746846

> <docked_smiles>
CNC(=O)CN1C[C@]2(CCN(C2=O)c3cncc4c3cccc4)c5cc(ccc5C1=O)Cl

$$$$
EDJ-MED-fed7ac0b-4_1
  -OEChem-12272114573D

 50 54  0     1  0  0  0  0  0999 V2000
    3.3432    2.6279   20.4411 C   0  0  0  0  0  0  0  0  0  0  0  0
    3.8960    1.9291   21.5050 C   0  0  0  0  0  0  0  0  0  0  0  0
    3.7865    2.4205   19.1660 C   0  0  0  0  0  0  0  0  0  0  0  0
    4.8973    1.0233   21.2988 C   0  0  0  0  0  0  0  0  0  0  0  0
   12.0765    0.0316   24.1541 C   0  0  0  0  0  0  0  0  0  0  0  0
   12.9132   -0.6032   23.2569 C   0  0  0  0  0  0  0  0  0  0  0  0
   10.9991   -1.4331   22.0443 C   0  0  0  0  0  0  0  0  0  0  0  0
    5.3278    1.2339   17.6066 C   0  0  0  0  0  0  0  0  0  0  0  0
    6.8438   -0.2892   18.3752 C   0  0  0  0  0  0  0  0  0  0  0  0
    4.8226    1.4906   18.9054 C   0  0  0  0  0  0  0  0  0  0  0  0
    5.3982    0.7733   19.9948 C   0  0  0  0  0  0  0  0  0  0  0  0
   10.7040   -0.0625   23.9898 C   0  0  0  0  0  0  0  0  0  0  0  0
   10.1406   -0.7765   22.9250 C   0  0  0  0  0  0  0  0  0  0  0  0
    6.4440   -0.1472   19.6979 C   0  0  0  0  0  0  0  0  0  0  0  0
   12.3683   -1.3298   22.2234 C   0  0  0  0  0  0  0  0  0  0  0  0
    8.0140   -2.1541   22.4331 C   0  0  0  0  0  0  0  0  0  0  0  0
    9.9479    0.5589   24.9534 C   0  0  0  0  0  0  0  0  0  0  0  0
    8.2490    0.0169   21.4271 C   0  0  0  0  0  0  0  0  0  0  0  0
    8.4858    3.2154   23.7349 C   0  0  0  0  0  0  0  0  0  0  0  0
    7.8721   -0.1194   23.8831 C   0  0  0  0  0  0  0  0  0  0  0  0
    8.6238   -0.7606   22.6929 C   0  0  3  0  0  0  0  0  0  0  0  0
   10.2723    4.8877   23.2597 C   0  0  0  0  0  0  0  0  0  0  0  0
    8.0826    2.2140   24.7870 C   0  0  0  0  0  0  0  0  0  0  0  0
    6.3062    0.3769   17.3421 N   0  0  0  0  0  0  0  0  0  0  0  0
    6.9866   -1.9366   21.3580 N   0  0  0  0  0  0  0  0  0  0  0  0
    7.2292   -0.6897   20.7790 N   0  0  0  0  0  0  0  0  0  0  0  0
    8.6609    1.0133   24.4995 N   0  0  0  0  0  0  0  0  0  0  0  0
    9.6546    3.8757   24.0860 N   0  0  0  0  0  0  0  0  0  0  0  0
   10.3258    0.7355   26.1058 O   0  0  0  0  0  0  0  0  0  0  0  0
    8.7978    1.0797   21.0978 O   0  0  0  0  0  0  0  0  0  0  0  0
    7.8475    3.4054   22.7030 O   0  0  0  0  0  0  0  0  0  0  0  0
   13.4275   -2.1361   21.1054 Cl  0  0  0  0  0  0  0  0  0  0  0  0
    2.5432    3.3510   20.6369 H   0  0  0  0  0  0  0  0  0  0  0  0
    3.5174    2.1137   22.5168 H   0  0  0  0  0  0  0  0  0  0  0  0
    3.3409    2.9743   18.3364 H   0  0  0  0  0  0  0  0  0  0  0  0
    5.3118    0.4895   22.1572 H   0  0  0  0  0  0  0  0  0  0  0  0
   12.5178    0.5955   24.9715 H   0  0  0  0  0  0  0  0  0  0  0  0
   13.9905   -0.5119   23.3750 H   0  0  0  0  0  0  0  0  0  0  0  0
   10.6071   -2.0166   21.2226 H   0  0  0  0  0  0  0  0  0  0  0  0
    4.9141    1.7511   16.7474 H   0  0  0  0  0  0  0  0  0  0  0  0
    7.6445   -0.9764   18.1043 H   0  0  0  0  0  0  0  0  0  0  0  0
    8.2037   -3.0293   22.8504 H   0  0  0  0  0  0  0  0  0  0  0  0
    6.9109    0.2797   23.5686 H   0  0  0  0  0  0  0  0  0  0  0  0
    7.7096   -0.8369   24.6853 H   0  0  0  0  0  0  0  0  0  0  0  0
   10.9864    4.4134   22.5704 H   0  0  0  0  0  0  0  0  0  0  0  0
    9.4972    5.4117   22.6811 H   0  0  0  0  0  0  0  0  0  0  0  0
   10.8032    5.6087   23.8985 H   0  0  0  0  0  0  0  0  0  0  0  0
    8.4209    2.5557   25.7697 H   0  0  0  0  0  0  0  0  0  0  0  0
    6.9943    2.1041   24.7967 H   0  0  0  0  0  0  0  0  0  0  0  0
   10.0982    3.6357   24.9679 H   0  0  0  0  0  0  0  0  0  0  0  0
  1  2  1  0  0  0  0
  1  3  2  0  0  0  0
  2  4  2  0  0  0  0
  3 10  1  0  0  0  0
  4 11  1  0  0  0  0
  5  6  2  0  0  0  0
  5 12  1  0  0  0  0
  6 15  1  0  0  0  0
  7 13  1  0  0  0  0
  7 15  2  0  0  0  0
  8 10  2  0  0  0  0
  8 24  1  0  0  0  0
  9 14  1  0  0  0  0
  9 24  2  0  0  0  0
 10 11  1  0  0  0  0
 11 14  2  0  0  0  0
 12 13  2  0  0  0  0
 12 17  1  0  0  0  0
 13 21  1  0  0  0  0
 14 26  1  0  0  0  0
 15 32  1  0  0  0  0
 16 21  1  0  0  0  0
 16 25  2  0  0  0  0
 17 27  1  0  0  0  0
 17 29  2  0  0  0  0
 18 21  1  0  0  0  0
 18 26  1  0  0  0  0
 18 30  2  0  0  0  0
 19 23  1  0  0  0  0
 19 28  1  0  0  0  0
 19 31  2  0  0  0  0
 20 21  1  0  0  0  0
 20 27  1  0  0  0  0
 22 28  1  0  0  0  0
 23 27  1  0  0  0  0
 25 26  1  0  0  0  0
  1 33  1  0  0  0  0
  2 34  1  0  0  0  0
  3 35  1  0  0  0  0
  4 36  1  0  0  0  0
  5 37  1  0  0  0  0
  6 38  1  0  0  0  0
  7 39  1  0  0  0  0
  8 40  1  0  0  0  0
  9 41  1  0  0  0  0
 16 42  1  0  0  0  0
 20 43  1  0  0  0  0
 20 44  1  0  0  0  0
 22 45  1  0  0  0  0
 22 46  1  0  0  0  0
 22 47  1  0  0  0  0
 23 48  1  0  0  0  0
 23 49  1  0  0  0  0
 28 50  1  0  0  0  0
M  END
> <compound>
EDJ-MED-fed7ac0b-4

> <compound_smiles>
CNC(=O)CN1CC2(C=NN(C2=O)c3cncc4c3cccc4)c5cc(ccc5C1=O)Cl

> <enantiomer_smiles>
CNC(=O)CN1CC2(C=NN(C2=O)c3cncc4c3cccc4)c5cc(ccc5C1=O)Cl

> <scaffold>
tetrahydroisoquinoline-5spiro-isoquinoline

> <clash_score>
0

> <docking_score>
-9.909590721130371

> <overlap_score>
0.9896509051322937

> <MMFF_internal_energy>
215.58261543646282

> <docked_smiles>
CNC(=O)CN1C[C@]2(C=NN(C2=O)c3cncc4c3cccc4)c5cc(ccc5C1=O)Cl

$$$$
ALP-POS-afe0272e-1_1
  -OEChem-12272114573D

 55 59  0     1  0  0  0  0  0999 V2000
    3.3432    2.6279   20.4411 C   0  0  0  0  0  0  0  0  0  0  0  0
    3.8960    1.9291   21.5050 C   0  0  0  0  0  0  0  0  0  0  0  0
    3.7865    2.4205   19.1660 C   0  0  0  0  0  0  0  0  0  0  0  0
    4.8973    1.0233   21.2988 C   0  0  0  0  0  0  0  0  0  0  0  0
   12.0765    0.0316   24.1541 C   0  0  0  0  0  0  0  0  0  0  0  0
   10.9991   -1.4331   22.0443 C   0  0  0  0  0  0  0  0  0  0  0  0
    5.3278    1.2339   17.6066 C   0  0  0  0  0  0  0  0  0  0  0  0
    6.8438   -0.2892   18.3752 C   0  0  0  0  0  0  0  0  0  0  0  0
    4.8226    1.4906   18.9054 C   0  0  0  0  0  0  0  0  0  0  0  0
    5.3982    0.7733   19.9948 C   0  0  0  0  0  0  0  0  0  0  0  0
   10.7040   -0.0625   23.9898 C   0  0  0  0  0  0  0  0  0  0  0  0
   10.1406   -0.7765   22.9250 C   0  0  0  0  0  0  0  0  0  0  0  0
    6.4440   -0.1472   19.6979 C   0  0  0  0  0  0  0  0  0  0  0  0
   12.9132   -0.6032   23.2569 C   0  0  0  0  0  0  0  0  0  0  0  0
   12.3683   -1.3298   22.2234 C   0  0  0  0  0  0  0  0  0  0  0  0
    8.2490    0.0169   21.4271 C   0  0  0  0  0  0  0  0  0  0  0  0
    7.3800    2.6706   23.1134 C   0  0  0  0  0  0  0  0  0  0  0  0
    9.9479    0.5589   24.9534 C   0  0  0  0  0  0  0  0  0  0  0  0
    8.0140   -2.1541   22.4331 C   0  0  0  0  0  0  0  0  0  0  0  0
    6.9866   -1.9366   21.3580 C   0  0  0  0  0  0  0  0  0  0  0  0
    7.8721   -0.1194   23.8831 C   0  0  0  0  0  0  0  0  0  0  0  0
    8.6238   -0.7606   22.6929 C   0  0  3  0  0  0  0  0  0  0  0  0
    6.3064    4.4180   21.7236 C   0  0  0  0  0  0  0  0  0  0  0  0
    8.7403    2.1972   23.5605 C   0  0  0  0  0  0  0  0  0  0  0  0
    6.3062    0.3769   17.3421 N   0  0  0  0  0  0  0  0  0  0  0  0
    7.2292   -0.6897   20.7790 N   0  0  0  0  0  0  0  0  0  0  0  0
    7.4727    3.7787   22.2846 N   0  0  0  0  0  0  0  0  0  0  0  0
    8.6609    1.0133   24.4995 N   0  3  2  0  0  0  0  0  0  0  0  0
    8.7573    1.0936   21.1337 O   0  0  0  0  0  0  0  0  0  0  0  0
    6.3322    2.1270   23.4520 O   0  0  0  0  0  0  0  0  0  0  0  0
   14.6206   -0.4483   23.4865 Cl  0  0  0  0  0  0  0  0  0  0  0  0
   13.3791   -2.1684   21.0725 Cl  0  0  0  0  0  0  0  0  0  0  0  0
    2.5432    3.3510   20.6369 H   0  0  0  0  0  0  0  0  0  0  0  0
    3.5174    2.1137   22.5168 H   0  0  0  0  0  0  0  0  0  0  0  0
    3.3409    2.9743   18.3364 H   0  0  0  0  0  0  0  0  0  0  0  0
    5.3118    0.4895   22.1572 H   0  0  0  0  0  0  0  0  0  0  0  0
   12.4854    0.5995   24.9832 H   0  0  0  0  0  0  0  0  0  0  0  0
   10.6010   -2.0214   21.2295 H   0  0  0  0  0  0  0  0  0  0  0  0
    4.9141    1.7511   16.7474 H   0  0  0  0  0  0  0  0  0  0  0  0
    7.6445   -0.9764   18.1043 H   0  0  0  0  0  0  0  0  0  0  0  0
    9.7384   -0.1132   25.8252 H   0  0  0  0  0  0  0  0  0  0  0  0
   10.4773    1.4544   25.3710 H   0  0  0  0  0  0  0  0  0  0  0  0
    7.5770   -2.6112   23.3317 H   0  0  0  0  0  0  0  0  0  0  0  0
    8.7734   -2.8621   22.0651 H   0  0  0  0  0  0  0  0  0  0  0  0
    7.0227   -2.7503   20.5949 H   0  0  0  0  0  0  0  0  0  0  0  0
    5.9553   -1.9478   21.7831 H   0  0  0  0  0  0  0  0  0  0  0  0
    6.8958    0.3003   23.5781 H   0  0  0  0  0  0  0  0  0  0  0  0
    7.6732   -0.8519   24.6844 H   0  0  0  0  0  0  0  0  0  0  0  0
    6.0821    3.9761   20.7415 H   0  0  0  0  0  0  0  0  0  0  0  0
    5.4486    4.2708   22.3963 H   0  0  0  0  0  0  0  0  0  0  0  0
    6.4995    5.4945   21.6058 H   0  0  0  0  0  0  0  0  0  0  0  0
    9.2579    2.9867   24.1124 H   0  0  0  0  0  0  0  0  0  0  0  0
    9.3354    1.8814   22.6992 H   0  0  0  0  0  0  0  0  0  0  0  0
    8.3848    4.1756   22.0774 H   0  0  0  0  0  0  0  0  0  0  0  0
    8.1123    1.3500   25.3127 H   0  0  0  0  0  0  0  0  0  0  0  0
  1  2  1  0  0  0  0
  1  3  2  0  0  0  0
  2  4  2  0  0  0  0
  3  9  1  0  0  0  0
  4 10  1  0  0  0  0
  5 11  1  0  0  0  0
  5 14  2  0  0  0  0
  6 12  1  0  0  0  0
  6 15  2  0  0  0  0
  7  9  2  0  0  0  0
  7 25  1  0  0  0  0
  8 13  1  0  0  0  0
  8 25  2  0  0  0  0
  9 10  1  0  0  0  0
 10 13  2  0  0  0  0
 11 12  2  0  0  0  0
 11 18  1  0  0  0  0
 12 22  1  0  0  0  0
 13 26  1  0  0  0  0
 14 15  1  0  0  0  0
 14 31  1  0  0  0  0
 15 32  1  0  0  0  0
 16 22  1  0  0  0  0
 16 26  1  0  0  0  0
 16 29  2  0  0  0  0
 17 24  1  0  0  0  0
 17 27  1  0  0  0  0
 17 30  2  0  0  0  0
 18 28  1  0  0  0  0
 19 20  1  0  0  0  0
 19 22  1  0  0  0  0
 20 26  1  0  0  0  0
 21 22  1  0  0  0  0
 21 28  1  0  0  0  0
 23 27  1  0  0  0  0
 24 28  1  1  0  0  0
  1 33  1  0  0  0  0
  2 34  1  0  0  0  0
  3 35  1  0  0  0  0
  4 36  1  0  0  0  0
  5 37  1  0  0  0  0
  6 38  1  0  0  0  0
  7 39  1  0  0  0  0
  8 40  1  0  0  0  0
 18 41  1  0  0  0  0
 18 42  1  0  0  0  0
 19 43  1  0  0  0  0
 19 44  1  0  0  0  0
 20 45  1  0  0  0  0
 20 46  1  0  0  0  0
 21 47  1  0  0  0  0
 21 48  1  0  0  0  0
 23 49  1  0  0  0  0
 23 50  1  0  0  0  0
 23 51  1  0  0  0  0
 24 52  1  0  0  0  0
 24 53  1  0  0  0  0
 27 54  1  0  0  0  0
 28 55  1  0  0  0  0
M  CHG  1  28   1
M  END
> <compound>
ALP-POS-afe0272e-1

> <compound_smiles>
CNC(=O)CN1Cc2cc(c(cc2C3(C1)CCN(C3=O)c4cncc5c4cccc5)Cl)Cl

> <enantiomer_smiles>
CNC(=O)C[N@@]1Cc2cc(c(cc2C3(C1)CCN(C3=O)c4cncc5c4cccc5)Cl)Cl

> <scaffold>
tetrahydroisoquinoline-5spiro-isoquinoline

> <clash_score>
0

> <docking_score>
-9.327051162719727

> <overlap_score>
0.9866278171539307

> <MMFF_internal_energy>
179.95351194005045

> <docked_smiles>
CNC(=O)C[N@@H+]1Cc2cc(c(cc2[C@]3(C1)CCN(C3=O)c4cncc5c4cccc5)Cl)Cl

$$$$
MAT-POS-1d5ab790-2_1
  -OEChem-12272114573D

 55 59  0     1  0  0  0  0  0999 V2000
    3.3432    2.6279   20.4411 C   0  0  0  0  0  0  0  0  0  0  0  0
    3.7865    2.4205   19.1660 C   0  0  0  0  0  0  0  0  0  0  0  0
   12.0765    0.0316   24.1541 C   0  0  0  0  0  0  0  0  0  0  0  0
    3.8960    1.9291   21.5050 C   0  0  0  0  0  0  0  0  0  0  0  0
   12.9132   -0.6032   23.2569 C   0  0  0  0  0  0  0  0  0  0  0  0
   10.9991   -1.4331   22.0443 C   0  0  0  0  0  0  0  0  0  0  0  0
    5.3278    1.2339   17.6066 C   0  0  0  0  0  0  0  0  0  0  0  0
    6.8438   -0.2892   18.3752 C   0  0  0  0  0  0  0  0  0  0  0  0
    4.8226    1.4906   18.9054 C   0  0  0  0  0  0  0  0  0  0  0  0
    5.3982    0.7733   19.9948 C   0  0  0  0  0  0  0  0  0  0  0  0
   10.7040   -0.0625   23.9898 C   0  0  0  0  0  0  0  0  0  0  0  0
   10.1406   -0.7765   22.9250 C   0  0  0  0  0  0  0  0  0  0  0  0
    6.4440   -0.1472   19.6979 C   0  0  0  0  0  0  0  0  0  0  0  0
   12.3683   -1.3298   22.2234 C   0  0  0  0  0  0  0  0  0  0  0  0
    4.8973    1.0233   21.2988 C   0  0  0  0  0  0  0  0  0  0  0  0
    8.2490    0.0169   21.4271 C   0  0  0  0  0  0  0  0  0  0  0  0
    8.9569    3.4987   24.2908 C   0  0  0  0  0  0  0  0  0  0  0  0
    9.9479    0.5589   24.9534 C   0  0  0  0  0  0  0  0  0  0  0  0
    8.0140   -2.1541   22.4331 C   0  0  0  0  0  0  0  0  0  0  0  0
    6.9866   -1.9366   21.3580 C   0  0  0  0  0  0  0  0  0  0  0  0
    7.8721   -0.1194   23.8831 C   0  0  0  0  0  0  0  0  0  0  0  0
    8.6238   -0.7606   22.6929 C   0  0  3  0  0  0  0  0  0  0  0  0
   10.5859    5.3554   24.4820 C   0  0  0  0  0  0  0  0  0  0  0  0
    8.7403    2.1972   23.5605 C   0  0  0  0  0  0  0  0  0  0  0  0
    6.3062    0.3769   17.3421 N   0  0  0  0  0  0  0  0  0  0  0  0
    7.2292   -0.6897   20.7790 N   0  0  0  0  0  0  0  0  0  0  0  0
   10.1523    4.0974   23.9222 N   0  0  0  0  0  0  0  0  0  0  0  0
    8.6609    1.0133   24.4995 N   0  3  2  0  0  0  0  0  0  0  0  0
    8.7573    1.0936   21.1337 O   0  0  0  0  0  0  0  0  0  0  0  0
    8.1599    3.9548   25.1063 O   0  0  0  0  0  0  0  0  0  0  0  0
   13.4273   -2.1424   21.1098 Cl  0  0  0  0  0  0  0  0  0  0  0  0
    5.4623    0.2453   22.7515 Cl  0  0  0  0  0  0  0  0  0  0  0  0
    2.5425    3.3507   20.6372 H   0  0  0  0  0  0  0  0  0  0  0  0
    3.3401    2.9737   18.3362 H   0  0  0  0  0  0  0  0  0  0  0  0
   12.5019    0.5946   24.9768 H   0  0  0  0  0  0  0  0  0  0  0  0
    3.4992    2.1328   22.5080 H   0  0  0  0  0  0  0  0  0  0  0  0
   13.9911   -0.5203   23.3811 H   0  0  0  0  0  0  0  0  0  0  0  0
   10.6042   -2.0222   21.2286 H   0  0  0  0  0  0  0  0  0  0  0  0
    4.9135    1.7511   16.7477 H   0  0  0  0  0  0  0  0  0  0  0  0
    7.6449   -0.9747   18.1006 H   0  0  0  0  0  0  0  0  0  0  0  0
    9.7388   -0.1131   25.8254 H   0  0  0  0  0  0  0  0  0  0  0  0
   10.4771    1.4544   25.3711 H   0  0  0  0  0  0  0  0  0  0  0  0
    7.5768   -2.6110   23.3318 H   0  0  0  0  0  0  0  0  0  0  0  0
    8.7734   -2.8622   22.0653 H   0  0  0  0  0  0  0  0  0  0  0  0
    7.0225   -2.7503   20.5949 H   0  0  0  0  0  0  0  0  0  0  0  0
    5.9552   -1.9477   21.7830 H   0  0  0  0  0  0  0  0  0  0  0  0
    6.8958    0.3004   23.5785 H   0  0  0  0  0  0  0  0  0  0  0  0
    7.6733   -0.8520   24.6844 H   0  0  0  0  0  0  0  0  0  0  0  0
   10.2308    6.1812   23.8480 H   0  0  0  0  0  0  0  0  0  0  0  0
   10.1729    5.4675   25.4953 H   0  0  0  0  0  0  0  0  0  0  0  0
   11.6847    5.3761   24.5295 H   0  0  0  0  0  0  0  0  0  0  0  0
    9.5767    1.9929   22.8863 H   0  0  0  0  0  0  0  0  0  0  0  0
    7.7998    2.2255   23.0032 H   0  0  0  0  0  0  0  0  0  0  0  0
   10.7613    3.6331   23.2546 H   0  0  0  0  0  0  0  0  0  0  0  0
    8.1123    1.3501   25.3127 H   0  0  0  0  0  0  0  0  0  0  0  0
  1  2  2  0  0  0  0
  1  4  1  0  0  0  0
  2  9  1  0  0  0  0
  3  5  2  0  0  0  0
  3 11  1  0  0  0  0
  4 15  2  0  0  0  0
  5 14  1  0  0  0  0
  6 12  1  0  0  0  0
  6 14  2  0  0  0  0
  7  9  2  0  0  0  0
  7 25  1  0  0  0  0
  8 13  1  0  0  0  0
  8 25  2  0  0  0  0
  9 10  1  0  0  0  0
 10 13  2  0  0  0  0
 10 15  1  0  0  0  0
 11 12  2  0  0  0  0
 11 18  1  0  0  0  0
 12 22  1  0  0  0  0
 13 26  1  0  0  0  0
 14 31  1  0  0  0  0
 15 32  1  0  0  0  0
 16 22  1  0  0  0  0
 16 26  1  0  0  0  0
 16 29  2  0  0  0  0
 17 24  1  0  0  0  0
 17 27  1  0  0  0  0
 17 30  2  0  0  0  0
 18 28  1  0  0  0  0
 19 20  1  0  0  0  0
 19 22  1  0  0  0  0
 20 26  1  0  0  0  0
 21 22  1  0  0  0  0
 21 28  1  0  0  0  0
 23 27  1  0  0  0  0
 24 28  1  1  0  0  0
  1 33  1  0  0  0  0
  2 34  1  0  0  0  0
  3 35  1  0  0  0  0
  4 36  1  0  0  0  0
  5 37  1  0  0  0  0
  6 38  1  0  0  0  0
  7 39  1  0  0  0  0
  8 40  1  0  0  0  0
 18 41  1  0  0  0  0
 18 42  1  0  0  0  0
 19 43  1  0  0  0  0
 19 44  1  0  0  0  0
 20 45  1  0  0  0  0
 20 46  1  0  0  0  0
 21 47  1  0  0  0  0
 21 48  1  0  0  0  0
 23 49  1  0  0  0  0
 23 50  1  0  0  0  0
 23 51  1  0  0  0  0
 24 52  1  0  0  0  0
 24 53  1  0  0  0  0
 27 54  1  0  0  0  0
 28 55  1  0  0  0  0
M  CHG  1  28   1
M  END
> <compound>
MAT-POS-1d5ab790-2

> <compound_smiles>
CNC(=O)CN1Cc2ccc(cc2C3(C1)CCN(C3=O)c4cncc5c4c(ccc5)Cl)Cl

> <enantiomer_smiles>
CNC(=O)C[N@@]1Cc2ccc(cc2C3(C1)CCN(C3=O)c4cncc5c4c(ccc5)Cl)Cl

> <scaffold>
tetrahydroisoquinoline-5spiro-isoquinoline

> <clash_score>
0

> <docking_score>
-9.079355239868164

> <overlap_score>
0.9856582283973694

> <MMFF_internal_energy>
230.7603188391015

> <docked_smiles>
CNC(=O)C[N@@H+]1Cc2ccc(cc2[C@]3(C1)CCN(C3=O)c4cncc5c4c(ccc5)Cl)Cl

$$$$
EDJ-MED-fd8ed875-1_1
  -OEChem-12272114573D

 51 55  0     1  0  0  0  0  0999 V2000
    3.3432    2.6279   20.4411 C   0  0  0  0  0  0  0  0  0  0  0  0
    3.8960    1.9291   21.5050 C   0  0  0  0  0  0  0  0  0  0  0  0
    3.7865    2.4205   19.1660 C   0  0  0  0  0  0  0  0  0  0  0  0
    4.8973    1.0233   21.2988 C   0  0  0  0  0  0  0  0  0  0  0  0
   12.0765    0.0316   24.1541 C   0  0  0  0  0  0  0  0  0  0  0  0
   12.9132   -0.6032   23.2569 C   0  0  0  0  0  0  0  0  0  0  0  0
   10.9991   -1.4331   22.0443 C   0  0  0  0  0  0  0  0  0  0  0  0
    5.3278    1.2339   17.6066 C   0  0  0  0  0  0  0  0  0  0  0  0
    6.8438   -0.2892   18.3752 C   0  0  0  0  0  0  0  0  0  0  0  0
    4.8226    1.4906   18.9054 C   0  0  0  0  0  0  0  0  0  0  0  0
    5.3982    0.7733   19.9948 C   0  0  0  0  0  0  0  0  0  0  0  0
   10.7040   -0.0625   23.9898 C   0  0  0  0  0  0  0  0  0  0  0  0
   10.1406   -0.7765   22.9250 C   0  0  0  0  0  0  0  0  0  0  0  0
    6.4440   -0.1472   19.6979 C   0  0  0  0  0  0  0  0  0  0  0  0
   12.3683   -1.3298   22.2234 C   0  0  0  0  0  0  0  0  0  0  0  0
    6.9866   -1.9366   21.3580 C   0  0  0  0  0  0  0  0  0  0  0  0
    9.9479    0.5589   24.9534 C   0  0  0  0  0  0  0  0  0  0  0  0
    8.2490    0.0169   21.4271 C   0  0  0  0  0  0  0  0  0  0  0  0
    8.4865    3.2143   23.7310 C   0  0  0  0  0  0  0  0  0  0  0  0
    7.8721   -0.1194   23.8831 C   0  0  0  0  0  0  0  0  0  0  0  0
    8.6238   -0.7606   22.6929 C   0  0  3  0  0  0  0  0  0  0  0  0
   10.2751    4.8833   23.2521 C   0  0  0  0  0  0  0  0  0  0  0  0
    8.0829    2.2145   24.7845 C   0  0  0  0  0  0  0  0  0  0  0  0
    6.3062    0.3769   17.3421 N   0  0  0  0  0  0  0  0  0  0  0  0
    7.2292   -0.6897   20.7790 N   0  0  0  0  0  0  0  0  0  0  0  0
    8.6609    1.0133   24.4995 N   0  0  0  0  0  0  0  0  0  0  0  0
    8.0140   -2.1541   22.4331 N   0  3  0  0  0  0  0  0  0  0  0  0
    9.6567    3.8730   24.0802 N   0  0  0  0  0  0  0  0  0  0  0  0
   10.3262    0.7339   26.1058 O   0  0  0  0  0  0  0  0  0  0  0  0
    8.7824    1.0576   21.0320 O   0  0  0  0  0  0  0  0  0  0  0  0
    7.8474    3.4044   22.6996 O   0  0  0  0  0  0  0  0  0  0  0  0
   13.4270   -2.1378   21.1062 Cl  0  0  0  0  0  0  0  0  0  0  0  0
    2.5431    3.3512   20.6364 H   0  0  0  0  0  0  0  0  0  0  0  0
    3.5171    2.1134   22.5167 H   0  0  0  0  0  0  0  0  0  0  0  0
    3.3416    2.9753   18.3366 H   0  0  0  0  0  0  0  0  0  0  0  0
    5.3142    0.4868   22.1546 H   0  0  0  0  0  0  0  0  0  0  0  0
   12.5171    0.5954   24.9728 H   0  0  0  0  0  0  0  0  0  0  0  0
   13.9904   -0.5145   23.3765 H   0  0  0  0  0  0  0  0  0  0  0  0
   10.6039   -2.0175   21.2237 H   0  0  0  0  0  0  0  0  0  0  0  0
    4.9137    1.7514   16.7476 H   0  0  0  0  0  0  0  0  0  0  0  0
    7.6454   -0.9762   18.1080 H   0  0  0  0  0  0  0  0  0  0  0  0
    6.2902   -2.6128   21.1526 H   0  0  0  0  0  0  0  0  0  0  0  0
    6.9089    0.2734   23.5654 H   0  0  0  0  0  0  0  0  0  0  0  0
    7.7115   -0.8424   24.6817 H   0  0  0  0  0  0  0  0  0  0  0  0
   10.9876    4.4073   22.5625 H   0  0  0  0  0  0  0  0  0  0  0  0
    9.5002    5.4080   22.6740 H   0  0  0  0  0  0  0  0  0  0  0  0
   10.8079    5.6041   23.8898 H   0  0  0  0  0  0  0  0  0  0  0  0
    8.4229    2.5565   25.7665 H   0  0  0  0  0  0  0  0  0  0  0  0
    6.9944    2.1063   24.7955 H   0  0  0  0  0  0  0  0  0  0  0  0
    8.1422   -3.0025   22.7826 H   0  0  0  0  0  0  0  0  0  0  0  0
   10.1010    3.6332   24.9617 H   0  0  0  0  0  0  0  0  0  0  0  0
  1  2  1  0  0  0  0
  1  3  2  0  0  0  0
  2  4  2  0  0  0  0
  3 10  1  0  0  0  0
  4 11  1  0  0  0  0
  5  6  2  0  0  0  0
  5 12  1  0  0  0  0
  6 15  1  0  0  0  0
  7 13  1  0  0  0  0
  7 15  2  0  0  0  0
  8 10  2  0  0  0  0
  8 24  1  0  0  0  0
  9 14  1  0  0  0  0
  9 24  2  0  0  0  0
 10 11  1  0  0  0  0
 11 14  2  0  0  0  0
 12 13  2  0  0  0  0
 12 17  1  0  0  0  0
 13 21  1  0  0  0  0
 14 25  1  0  0  0  0
 15 32  1  0  0  0  0
 16 25  1  0  0  0  0
 16 27  2  0  0  0  0
 17 26  1  0  0  0  0
 17 29  2  0  0  0  0
 18 21  1  0  0  0  0
 18 25  1  0  0  0  0
 18 30  2  0  0  0  0
 19 23  1  0  0  0  0
 19 28  1  0  0  0  0
 19 31  2  0  0  0  0
 20 21  1  0  0  0  0
 20 26  1  0  0  0  0
 21 27  1  0  0  0  0
 22 28  1  0  0  0  0
 23 26  1  0  0  0  0
  1 33  1  0  0  0  0
  2 34  1  0  0  0  0
  3 35  1  0  0  0  0
  4 36  1  0  0  0  0
  5 37  1  0  0  0  0
  6 38  1  0  0  0  0
  7 39  1  0  0  0  0
  8 40  1  0  0  0  0
  9 41  1  0  0  0  0
 16 42  1  0  0  0  0
 20 43  1  0  0  0  0
 20 44  1  0  0  0  0
 22 45  1  0  0  0  0
 22 46  1  0  0  0  0
 22 47  1  0  0  0  0
 23 48  1  0  0  0  0
 23 49  1  0  0  0  0
 27 50  1  0  0  0  0
 28 51  1  0  0  0  0
M  CHG  1  27   1
M  END
> <compound>
EDJ-MED-fd8ed875-1

> <compound_smiles>
CNC(=O)CN1CC2(c3cc(ccc3C1=O)Cl)C(=O)N(C=N2)c4cncc5c4cccc5

> <enantiomer_smiles>
CNC(=O)CN1CC2(c3cc(ccc3C1=O)Cl)C(=O)N(C=N2)c4cncc5c4cccc5

> <scaffold>
tetrahydroisoquinoline-5spiro-isoquinoline

> <clash_score>
0

> <docking_score>
-8.755912780761719

> <overlap_score>
0.9897506237030029

> <MMFF_internal_energy>
236.41934508376627

> <docked_smiles>
CNC(=O)CN1C[C@]2(c3cc(ccc3C1=O)Cl)C(=O)N(C=[NH+]2)c4cncc5c4cccc5

$$$$
EDJ-MED-fed7ac0b-1_1
  -OEChem-12272114573D

 52 56  0     1  0  0  0  0  0999 V2000
    3.3432    2.6279   20.4411 C   0  0  0  0  0  0  0  0  0  0  0  0
    3.8960    1.9291   21.5050 C   0  0  0  0  0  0  0  0  0  0  0  0
    3.7865    2.4205   19.1660 C   0  0  0  0  0  0  0  0  0  0  0  0
    4.8973    1.0233   21.2988 C   0  0  0  0  0  0  0  0  0  0  0  0
   12.0765    0.0316   24.1541 C   0  0  0  0  0  0  0  0  0  0  0  0
   12.9132   -0.6032   23.2569 C   0  0  0  0  0  0  0  0  0  0  0  0
   10.9991   -1.4331   22.0443 C   0  0  0  0  0  0  0  0  0  0  0  0
    5.3278    1.2339   17.6066 C   0  0  0  0  0  0  0  0  0  0  0  0
    6.8438   -0.2892   18.3752 C   0  0  0  0  0  0  0  0  0  0  0  0
    4.8226    1.4906   18.9054 C   0  0  0  0  0  0  0  0  0  0  0  0
    5.3982    0.7733   19.9948 C   0  0  0  0  0  0  0  0  0  0  0  0
   10.7040   -0.0625   23.9898 C   0  0  0  0  0  0  0  0  0  0  0  0
   10.1406   -0.7765   22.9250 C   0  0  0  0  0  0  0  0  0  0  0  0
    6.4440   -0.1472   19.6979 C   0  0  0  0  0  0  0  0  0  0  0  0
   12.3683   -1.3298   22.2234 C   0  0  0  0  0  0  0  0  0  0  0  0
    9.9479    0.5589   24.9534 C   0  0  0  0  0  0  0  0  0  0  0  0
    8.2490    0.0169   21.4271 C   0  0  0  0  0  0  0  0  0  0  0  0
    8.4573    3.2409   23.7519 C   0  0  0  0  0  0  0  0  0  0  0  0
    8.0140   -2.1541   22.4331 C   0  0  0  0  0  0  0  0  0  0  0  0
    7.8721   -0.1194   23.8831 C   0  0  0  0  0  0  0  0  0  0  0  0
    8.6238   -0.7606   22.6929 C   0  0  3  0  0  0  0  0  0  0  0  0
   10.2136    4.9478   23.2870 C   0  0  0  0  0  0  0  0  0  0  0  0
    8.0810    2.2149   24.7901 C   0  0  0  0  0  0  0  0  0  0  0  0
    6.3062    0.3769   17.3421 N   0  0  0  0  0  0  0  0  0  0  0  0
    6.9866   -1.9366   21.3580 N   0  0  0  0  0  0  0  0  0  0  0  0
    7.2292   -0.6897   20.7790 N   0  0  0  0  0  0  0  0  0  0  0  0
    8.6609    1.0133   24.4995 N   0  0  0  0  0  0  0  0  0  0  0  0
    9.6203    3.9120   24.1018 N   0  0  0  0  0  0  0  0  0  0  0  0
   10.3253    0.7353   26.1072 O   0  0  0  0  0  0  0  0  0  0  0  0
    8.8171    1.0491   21.0819 O   0  0  0  0  0  0  0  0  0  0  0  0
    7.8045    3.4401   22.7309 O   0  0  0  0  0  0  0  0  0  0  0  0
   13.4273   -2.1358   21.1050 Cl  0  0  0  0  0  0  0  0  0  0  0  0
    2.5432    3.3510   20.6369 H   0  0  0  0  0  0  0  0  0  0  0  0
    3.5174    2.1137   22.5168 H   0  0  0  0  0  0  0  0  0  0  0  0
    3.3409    2.9743   18.3364 H   0  0  0  0  0  0  0  0  0  0  0  0
    5.3118    0.4895   22.1572 H   0  0  0  0  0  0  0  0  0  0  0  0
   12.5176    0.5961   24.9713 H   0  0  0  0  0  0  0  0  0  0  0  0
   13.9905   -0.5110   23.3745 H   0  0  0  0  0  0  0  0  0  0  0  0
   10.6062   -2.0140   21.2215 H   0  0  0  0  0  0  0  0  0  0  0  0
    4.9141    1.7511   16.7474 H   0  0  0  0  0  0  0  0  0  0  0  0
    7.6445   -0.9764   18.1043 H   0  0  0  0  0  0  0  0  0  0  0  0
    8.7451   -2.8993   22.1139 H   0  0  0  0  0  0  0  0  0  0  0  0
    7.4947   -2.5510   23.3110 H   0  0  0  0  0  0  0  0  0  0  0  0
    6.8999    0.2715   23.5883 H   0  0  0  0  0  0  0  0  0  0  0  0
    7.7170   -0.8371   24.6903 H   0  0  0  0  0  0  0  0  0  0  0  0
   10.9265    4.4967   22.5812 H   0  0  0  0  0  0  0  0  0  0  0  0
    9.4243    5.4707   22.7269 H   0  0  0  0  0  0  0  0  0  0  0  0
   10.7413    5.6650   23.9329 H   0  0  0  0  0  0  0  0  0  0  0  0
    8.4257    2.5437   25.7750 H   0  0  0  0  0  0  0  0  0  0  0  0
    6.9946    2.0887   24.8101 H   0  0  0  0  0  0  0  0  0  0  0  0
    7.1395   -2.6376   20.6249 H   0  0  0  0  0  0  0  0  0  0  0  0
   10.0776    3.6627   24.9740 H   0  0  0  0  0  0  0  0  0  0  0  0
  1  2  1  0  0  0  0
  1  3  2  0  0  0  0
  2  4  2  0  0  0  0
  3 10  1  0  0  0  0
  4 11  1  0  0  0  0
  5  6  2  0  0  0  0
  5 12  1  0  0  0  0
  6 15  1  0  0  0  0
  7 13  1  0  0  0  0
  7 15  2  0  0  0  0
  8 10  2  0  0  0  0
  8 24  1  0  0  0  0
  9 14  1  0  0  0  0
  9 24  2  0  0  0  0
 10 11  1  0  0  0  0
 11 14  2  0  0  0  0
 12 13  2  0  0  0  0
 12 16  1  0  0  0  0
 13 21  1  0  0  0  0
 14 26  1  0  0  0  0
 15 32  1  0  0  0  0
 16 27  1  0  0  0  0
 16 29  2  0  0  0  0
 17 21  1  0  0  0  0
 17 26  1  0  0  0  0
 17 30  2  0  0  0  0
 18 23  1  0  0  0  0
 18 28  1  0  0  0  0
 18 31  2  0  0  0  0
 19 21  1  0  0  0  0
 19 25  1  0  0  0  0
 20 21  1  0  0  0  0
 20 27  1  0  0  0  0
 22 28  1  0  0  0  0
 23 27  1  0  0  0  0
 25 26  1  0  0  0  0
  1 33  1  0  0  0  0
  2 34  1  0  0  0  0
  3 35  1  0  0  0  0
  4 36  1  0  0  0  0
  5 37  1  0  0  0  0
  6 38  1  0  0  0  0
  7 39  1  0  0  0  0
  8 40  1  0  0  0  0
  9 41  1  0  0  0  0
 19 42  1  0  0  0  0
 19 43  1  0  0  0  0
 20 44  1  0  0  0  0
 20 45  1  0  0  0  0
 22 46  1  0  0  0  0
 22 47  1  0  0  0  0
 22 48  1  0  0  0  0
 23 49  1  0  0  0  0
 23 50  1  0  0  0  0
 25 51  1  0  0  0  0
 28 52  1  0  0  0  0
M  END
> <compound>
EDJ-MED-fed7ac0b-1

> <compound_smiles>
CNC(=O)CN1CC2(CNN(C2=O)c3cncc4c3cccc4)c5cc(ccc5C1=O)Cl

> <enantiomer_smiles>
CNC(=O)CN1CC2(CNN(C2=O)c3cncc4c3cccc4)c5cc(ccc5C1=O)Cl

> <scaffold>
tetrahydroisoquinoline-5spiro-isoquinoline

> <clash_score>
0

> <docking_score>
-10.021201133728027

> <overlap_score>
0.9895938038825989

> <MMFF_internal_energy>
199.05114924743697

> <docked_smiles>
CNC(=O)CN1C[C@]2(CNN(C2=O)c3cncc4c3cccc4)c5cc(ccc5C1=O)Cl

$$$$
ALP-POS-afe0272e-1_2
  -OEChem-12272114573D

 55 59  0     1  0  0  0  0  0999 V2000
    3.3432    2.6279   20.4411 C   0  0  0  0  0  0  0  0  0  0  0  0
    3.8960    1.9291   21.5050 C   0  0  0  0  0  0  0  0  0  0  0  0
    3.7865    2.4205   19.1660 C   0  0  0  0  0  0  0  0  0  0  0  0
    4.8973    1.0233   21.2988 C   0  0  0  0  0  0  0  0  0  0  0  0
   12.0765    0.0316   24.1541 C   0  0  0  0  0  0  0  0  0  0  0  0
   10.9991   -1.4331   22.0443 C   0  0  0  0  0  0  0  0  0  0  0  0
    5.3278    1.2339   17.6066 C   0  0  0  0  0  0  0  0  0  0  0  0
    6.8438   -0.2892   18.3752 C   0  0  0  0  0  0  0  0  0  0  0  0
    4.8226    1.4906   18.9054 C   0  0  0  0  0  0  0  0  0  0  0  0
    5.3982    0.7733   19.9948 C   0  0  0  0  0  0  0  0  0  0  0  0
   10.7040   -0.0625   23.9898 C   0  0  0  0  0  0  0  0  0  0  0  0
   10.1406   -0.7765   22.9250 C   0  0  0  0  0  0  0  0  0  0  0  0
    6.4440   -0.1472   19.6979 C   0  0  0  0  0  0  0  0  0  0  0  0
   12.9132   -0.6032   23.2569 C   0  0  0  0  0  0  0  0  0  0  0  0
   12.3683   -1.3298   22.2234 C   0  0  0  0  0  0  0  0  0  0  0  0
    8.2490    0.0169   21.4271 C   0  0  0  0  0  0  0  0  0  0  0  0
    6.7919    2.5951   24.9761 C   0  0  0  0  0  0  0  0  0  0  0  0
    9.9479    0.5589   24.9534 C   0  0  0  0  0  0  0  0  0  0  0  0
    8.0140   -2.1541   22.4331 C   0  0  0  0  0  0  0  0  0  0  0  0
    6.9866   -1.9366   21.3580 C   0  0  0  0  0  0  0  0  0  0  0  0
    7.8721   -0.1194   23.8831 C   0  0  0  0  0  0  0  0  0  0  0  0
    8.6238   -0.7606   22.6929 C   0  0  3  0  0  0  0  0  0  0  0  0
    6.5187    4.5423   23.4691 C   0  0  0  0  0  0  0  0  0  0  0  0
    7.8596    1.7144   25.5749 C   0  0  0  0  0  0  0  0  0  0  0  0
    6.3062    0.3769   17.3421 N   0  0  0  0  0  0  0  0  0  0  0  0
    7.2292   -0.6897   20.7790 N   0  0  0  0  0  0  0  0  0  0  0  0
    7.3373    3.5745   24.1597 N   0  0  0  0  0  0  0  0  0  0  0  0
    8.6609    1.0133   24.4995 N   0  3  1  0  0  0  0  0  0  0  0  0
    8.8286    1.0402   21.0803 O   0  0  0  0  0  0  0  0  0  0  0  0
    5.5929    2.4455   25.1963 O   0  0  0  0  0  0  0  0  0  0  0  0
   14.6206   -0.4456   23.4849 Cl  0  0  0  0  0  0  0  0  0  0  0  0
   13.3791   -2.1682   21.0722 Cl  0  0  0  0  0  0  0  0  0  0  0  0
    2.5432    3.3510   20.6369 H   0  0  0  0  0  0  0  0  0  0  0  0
    3.5174    2.1137   22.5168 H   0  0  0  0  0  0  0  0  0  0  0  0
    3.3409    2.9743   18.3364 H   0  0  0  0  0  0  0  0  0  0  0  0
    5.3118    0.4895   22.1572 H   0  0  0  0  0  0  0  0  0  0  0  0
   12.4854    0.6016   24.9817 H   0  0  0  0  0  0  0  0  0  0  0  0
   10.6011   -2.0160   21.2255 H   0  0  0  0  0  0  0  0  0  0  0  0
    4.9141    1.7511   16.7474 H   0  0  0  0  0  0  0  0  0  0  0  0
    7.6445   -0.9764   18.1043 H   0  0  0  0  0  0  0  0  0  0  0  0
    9.7608   -0.1210   25.8248 H   0  0  0  0  0  0  0  0  0  0  0  0
   10.4564    1.4662   25.3702 H   0  0  0  0  0  0  0  0  0  0  0  0
    7.5139   -2.5474   23.3323 H   0  0  0  0  0  0  0  0  0  0  0  0
    8.7599   -2.9066   22.1421 H   0  0  0  0  0  0  0  0  0  0  0  0
    7.0589   -2.7245   20.5717 H   0  0  0  0  0  0  0  0  0  0  0  0
    5.9515   -1.9956   21.7711 H   0  0  0  0  0  0  0  0  0  0  0  0
    6.8953    0.2925   23.5760 H   0  0  0  0  0  0  0  0  0  0  0  0
    7.6767   -0.8491   24.6902 H   0  0  0  0  0  0  0  0  0  0  0  0
    6.2637    4.1610   22.4694 H   0  0  0  0  0  0  0  0  0  0  0  0
    5.5956    4.7166   24.0414 H   0  0  0  0  0  0  0  0  0  0  0  0
    7.0729    5.4874   23.3705 H   0  0  0  0  0  0  0  0  0  0  0  0
    7.4105    0.9495   26.2145 H   0  0  0  0  0  0  0  0  0  0  0  0
    8.5739    2.3157   26.1441 H   0  0  0  0  0  0  0  0  0  0  0  0
    8.3460    3.6364   24.0553 H   0  0  0  0  0  0  0  0  0  0  0  0
    8.7933    1.7231   23.7551 H   0  0  0  0  0  0  0  0  0  0  0  0
  1  2  1  0  0  0  0
  1  3  2  0  0  0  0
  2  4  2  0  0  0  0
  3  9  1  0  0  0  0
  4 10  1  0  0  0  0
  5 11  1  0  0  0  0
  5 14  2  0  0  0  0
  6 12  1  0  0  0  0
  6 15  2  0  0  0  0
  7  9  2  0  0  0  0
  7 25  1  0  0  0  0
  8 13  1  0  0  0  0
  8 25  2  0  0  0  0
  9 10  1  0  0  0  0
 10 13  2  0  0  0  0
 11 12  2  0  0  0  0
 11 18  1  0  0  0  0
 12 22  1  0  0  0  0
 13 26  1  0  0  0  0
 14 15  1  0  0  0  0
 14 31  1  0  0  0  0
 15 32  1  0  0  0  0
 16 22  1  0  0  0  0
 16 26  1  0  0  0  0
 16 29  2  0  0  0  0
 17 24  1  0  0  0  0
 17 27  1  0  0  0  0
 17 30  2  0  0  0  0
 18 28  1  0  0  0  0
 19 20  1  0  0  0  0
 19 22  1  0  0  0  0
 20 26  1  0  0  0  0
 21 22  1  0  0  0  0
 21 28  1  0  0  0  0
 23 27  1  0  0  0  0
 24 28  1  6  0  0  0
  1 33  1  0  0  0  0
  2 34  1  0  0  0  0
  3 35  1  0  0  0  0
  4 36  1  0  0  0  0
  5 37  1  0  0  0  0
  6 38  1  0  0  0  0
  7 39  1  0  0  0  0
  8 40  1  0  0  0  0
 18 41  1  0  0  0  0
 18 42  1  0  0  0  0
 19 43  1  0  0  0  0
 19 44  1  0  0  0  0
 20 45  1  0  0  0  0
 20 46  1  0  0  0  0
 21 47  1  0  0  0  0
 21 48  1  0  0  0  0
 23 49  1  0  0  0  0
 23 50  1  0  0  0  0
 23 51  1  0  0  0  0
 24 52  1  0  0  0  0
 24 53  1  0  0  0  0
 27 54  1  0  0  0  0
 28 55  1  0  0  0  0
M  CHG  1  28   1
M  END
> <compound>
ALP-POS-afe0272e-1

> <compound_smiles>
CNC(=O)CN1Cc2cc(c(cc2C3(C1)CCN(C3=O)c4cncc5c4cccc5)Cl)Cl

> <enantiomer_smiles>
CNC(=O)C[N@]1Cc2cc(c(cc2C3(C1)CCN(C3=O)c4cncc5c4cccc5)Cl)Cl

> <scaffold>
tetrahydroisoquinoline-5spiro-isoquinoline

> <clash_score>
0

> <docking_score>
-8.612543106079102

> <overlap_score>
0.9819036722183228

> <MMFF_internal_energy>
169.87626335140348

> <docked_smiles>
CNC(=O)C[N@H+]1Cc2cc(c(cc2[C@]3(C1)CCN(C3=O)c4cncc5c4cccc5)Cl)Cl

$$$$
MAT-POS-1d5ab790-2_2
  -OEChem-12272114573D

 55 59  0     1  0  0  0  0  0999 V2000
    3.3432    2.6279   20.4411 C   0  0  0  0  0  0  0  0  0  0  0  0
    3.7865    2.4205   19.1660 C   0  0  0  0  0  0  0  0  0  0  0  0
   12.0765    0.0316   24.1541 C   0  0  0  0  0  0  0  0  0  0  0  0
    3.8960    1.9291   21.5050 C   0  0  0  0  0  0  0  0  0  0  0  0
   12.9132   -0.6032   23.2569 C   0  0  0  0  0  0  0  0  0  0  0  0
   10.9991   -1.4331   22.0443 C   0  0  0  0  0  0  0  0  0  0  0  0
    5.3278    1.2339   17.6066 C   0  0  0  0  0  0  0  0  0  0  0  0
    6.8438   -0.2892   18.3752 C   0  0  0  0  0  0  0  0  0  0  0  0
    4.8226    1.4906   18.9054 C   0  0  0  0  0  0  0  0  0  0  0  0
    5.3982    0.7733   19.9948 C   0  0  0  0  0  0  0  0  0  0  0  0
   10.7040   -0.0625   23.9898 C   0  0  0  0  0  0  0  0  0  0  0  0
   10.1406   -0.7765   22.9250 C   0  0  0  0  0  0  0  0  0  0  0  0
    6.4440   -0.1472   19.6979 C   0  0  0  0  0  0  0  0  0  0  0  0
   12.3683   -1.3298   22.2234 C   0  0  0  0  0  0  0  0  0  0  0  0
    4.8973    1.0233   21.2988 C   0  0  0  0  0  0  0  0  0  0  0  0
    8.2490    0.0169   21.4271 C   0  0  0  0  0  0  0  0  0  0  0  0
    6.7919    2.5950   24.9761 C   0  0  0  0  0  0  0  0  0  0  0  0
    9.9479    0.5589   24.9534 C   0  0  0  0  0  0  0  0  0  0  0  0
    8.0140   -2.1541   22.4331 C   0  0  0  0  0  0  0  0  0  0  0  0
    6.9866   -1.9366   21.3580 C   0  0  0  0  0  0  0  0  0  0  0  0
    7.8721   -0.1194   23.8831 C   0  0  0  0  0  0  0  0  0  0  0  0
    8.6238   -0.7606   22.6929 C   0  0  3  0  0  0  0  0  0  0  0  0
    6.5186    4.5422   23.4690 C   0  0  0  0  0  0  0  0  0  0  0  0
    7.8596    1.7144   25.5749 C   0  0  0  0  0  0  0  0  0  0  0  0
    6.3062    0.3769   17.3421 N   0  0  0  0  0  0  0  0  0  0  0  0
    7.2292   -0.6897   20.7790 N   0  0  0  0  0  0  0  0  0  0  0  0
    7.3373    3.5744   24.1596 N   0  0  0  0  0  0  0  0  0  0  0  0
    8.6609    1.0133   24.4995 N   0  3  1  0  0  0  0  0  0  0  0  0
    8.8286    1.0402   21.0803 O   0  0  0  0  0  0  0  0  0  0  0  0
    5.5929    2.4454   25.1962 O   0  0  0  0  0  0  0  0  0  0  0  0
   13.4270   -2.1443   21.1108 Cl  0  0  0  0  0  0  0  0  0  0  0  0
    5.4623    0.2453   22.7515 Cl  0  0  0  0  0  0  0  0  0  0  0  0
    2.5425    3.3507   20.6372 H   0  0  0  0  0  0  0  0  0  0  0  0
    3.3401    2.9737   18.3362 H   0  0  0  0  0  0  0  0  0  0  0  0
   12.5021    0.5962   24.9756 H   0  0  0  0  0  0  0  0  0  0  0  0
    3.4992    2.1328   22.5080 H   0  0  0  0  0  0  0  0  0  0  0  0
   13.9911   -0.5171   23.3786 H   0  0  0  0  0  0  0  0  0  0  0  0
   10.6045   -2.0170   21.2248 H   0  0  0  0  0  0  0  0  0  0  0  0
    4.9135    1.7511   16.7477 H   0  0  0  0  0  0  0  0  0  0  0  0
    7.6449   -0.9747   18.1006 H   0  0  0  0  0  0  0  0  0  0  0  0
    9.7608   -0.1211   25.8247 H   0  0  0  0  0  0  0  0  0  0  0  0
   10.4565    1.4661   25.3705 H   0  0  0  0  0  0  0  0  0  0  0  0
    7.5144   -2.5472   23.3327 H   0  0  0  0  0  0  0  0  0  0  0  0
    8.7599   -2.9065   22.1418 H   0  0  0  0  0  0  0  0  0  0  0  0
    7.0582   -2.7244   20.5716 H   0  0  0  0  0  0  0  0  0  0  0  0
    5.9516   -1.9958   21.7713 H   0  0  0  0  0  0  0  0  0  0  0  0
    6.8955    0.2929   23.5757 H   0  0  0  0  0  0  0  0  0  0  0  0
    7.6774   -0.8491   24.6905 H   0  0  0  0  0  0  0  0  0  0  0  0
    6.2637    4.1608   22.4692 H   0  0  0  0  0  0  0  0  0  0  0  0
    5.5955    4.7165   24.0413 H   0  0  0  0  0  0  0  0  0  0  0  0
    7.0728    5.4873   23.3704 H   0  0  0  0  0  0  0  0  0  0  0  0
    7.4105    0.9495   26.2145 H   0  0  0  0  0  0  0  0  0  0  0  0
    8.5738    2.3157   26.1441 H   0  0  0  0  0  0  0  0  0  0  0  0
    8.3460    3.6364   24.0553 H   0  0  0  0  0  0  0  0  0  0  0  0
    8.7930    1.7233   23.7554 H   0  0  0  0  0  0  0  0  0  0  0  0
  1  2  2  0  0  0  0
  1  4  1  0  0  0  0
  2  9  1  0  0  0  0
  3  5  2  0  0  0  0
  3 11  1  0  0  0  0
  4 15  2  0  0  0  0
  5 14  1  0  0  0  0
  6 12  1  0  0  0  0
  6 14  2  0  0  0  0
  7  9  2  0  0  0  0
  7 25  1  0  0  0  0
  8 13  1  0  0  0  0
  8 25  2  0  0  0  0
  9 10  1  0  0  0  0
 10 13  2  0  0  0  0
 10 15  1  0  0  0  0
 11 12  2  0  0  0  0
 11 18  1  0  0  0  0
 12 22  1  0  0  0  0
 13 26  1  0  0  0  0
 14 31  1  0  0  0  0
 15 32  1  0  0  0  0
 16 22  1  0  0  0  0
 16 26  1  0  0  0  0
 16 29  2  0  0  0  0
 17 24  1  0  0  0  0
 17 27  1  0  0  0  0
 17 30  2  0  0  0  0
 18 28  1  0  0  0  0
 19 20  1  0  0  0  0
 19 22  1  0  0  0  0
 20 26  1  0  0  0  0
 21 22  1  0  0  0  0
 21 28  1  0  0  0  0
 23 27  1  0  0  0  0
 24 28  1  6  0  0  0
  1 33  1  0  0  0  0
  2 34  1  0  0  0  0
  3 35  1  0  0  0  0
  4 36  1  0  0  0  0
  5 37  1  0  0  0  0
  6 38  1  0  0  0  0
  7 39  1  0  0  0  0
  8 40  1  0  0  0  0
 18 41  1  0  0  0  0
 18 42  1  0  0  0  0
 19 43  1  0  0  0  0
 19 44  1  0  0  0  0
 20 45  1  0  0  0  0
 20 46  1  0  0  0  0
 21 47  1  0  0  0  0
 21 48  1  0  0  0  0
 23 49  1  0  0  0  0
 23 50  1  0  0  0  0
 23 51  1  0  0  0  0
 24 52  1  0  0  0  0
 24 53  1  0  0  0  0
 27 54  1  0  0  0  0
 28 55  1  0  0  0  0
M  CHG  1  28   1
M  END
> <compound>
MAT-POS-1d5ab790-2

> <compound_smiles>
CNC(=O)CN1Cc2ccc(cc2C3(C1)CCN(C3=O)c4cncc5c4c(ccc5)Cl)Cl

> <enantiomer_smiles>
CNC(=O)C[N@]1Cc2ccc(cc2C3(C1)CCN(C3=O)c4cncc5c4c(ccc5)Cl)Cl

> <scaffold>
tetrahydroisoquinoline-5spiro-isoquinoline

> <clash_score>
0

> <docking_score>
-9.405142784118652

> <overlap_score>
0.9842516183853149

> <MMFF_internal_energy>
230.99825411745203

> <docked_smiles>
CNC(=O)C[N@H+]1Cc2ccc(cc2[C@]3(C1)CCN(C3=O)c4cncc5c4c(ccc5)Cl)Cl

$$$$
PET-UNK-7e9559de-1_1
  -OEChem-12272114573D

 53 58  0     1  0  0  0  0  0999 V2000
    3.3432    2.6279   20.4411 C   0  0  0  0  0  0  0  0  0  0  0  0
    3.8960    1.9291   21.5050 C   0  0  0  0  0  0  0  0  0  0  0  0
    3.7865    2.4205   19.1660 C   0  0  0  0  0  0  0  0  0  0  0  0
    4.8973    1.0233   21.2988 C   0  0  0  0  0  0  0  0  0  0  0  0
   12.0765    0.0316   24.1541 C   0  0  0  0  0  0  0  0  0  0  0  0
   12.9132   -0.6032   23.2569 C   0  0  0  0  0  0  0  0  0  0  0  0
   10.9991   -1.4331   22.0443 C   0  0  0  0  0  0  0  0  0  0  0  0
    5.3278    1.2339   17.6066 C   0  0  0  0  0  0  0  0  0  0  0  0
    6.8438   -0.2892   18.3752 C   0  0  0  0  0  0  0  0  0  0  0  0
    9.5654    5.6645   24.9735 C   0  0  0  0  0  0  0  0  0  0  0  0
    4.8226    1.4906   18.9054 C   0  0  0  0  0  0  0  0  0  0  0  0
    5.3982    0.7733   19.9948 C   0  0  0  0  0  0  0  0  0  0  0  0
   10.7040   -0.0625   23.9898 C   0  0  0  0  0  0  0  0  0  0  0  0
   10.1406   -0.7765   22.9250 C   0  0  0  0  0  0  0  0  0  0  0  0
    6.4440   -0.1472   19.6979 C   0  0  0  0  0  0  0  0  0  0  0  0
   12.3683   -1.3298   22.2234 C   0  0  0  0  0  0  0  0  0  0  0  0
    8.9560    3.4902   24.2894 C   0  0  0  0  0  0  0  0  0  0  0  0
    8.2490    0.0169   21.4271 C   0  0  0  0  0  0  0  0  0  0  0  0
    9.9479    0.5589   24.9534 C   0  0  0  0  0  0  0  0  0  0  0  0
    8.0140   -2.1541   22.4331 C   0  0  0  0  0  0  0  0  0  0  0  0
    6.9866   -1.9366   21.3580 C   0  0  0  0  0  0  0  0  0  0  0  0
    7.8721   -0.1194   23.8831 C   0  0  0  0  0  0  0  0  0  0  0  0
    8.6238   -0.7606   22.6929 C   0  0  1  0  0  0  0  0  0  0  0  0
    8.7407    2.1970   23.5599 C   0  0  0  0  0  0  0  0  0  0  0  0
    6.3062    0.3769   17.3421 N   0  0  0  0  0  0  0  0  0  0  0  0
    8.8775    5.0357   25.9026 N   0  0  0  0  0  0  0  0  0  0  0  0
    8.5209    3.7600   25.5017 N   0  0  0  0  0  0  0  0  0  0  0  0
    7.2292   -0.6897   20.7790 N   0  0  0  0  0  0  0  0  0  0  0  0
    8.6609    1.0133   24.4995 N   0  3  1  0  0  0  0  0  0  0  0  0
    8.7579    1.0933   21.1338 O   0  0  0  0  0  0  0  0  0  0  0  0
    9.8319    4.7604   23.5405 S   0  0  0  0  0  0  0  0  0  0  0  0
   13.4271   -2.1421   21.1093 Cl  0  0  0  0  0  0  0  0  0  0  0  0
    2.5432    3.3510   20.6369 H   0  0  0  0  0  0  0  0  0  0  0  0
    3.5174    2.1137   22.5168 H   0  0  0  0  0  0  0  0  0  0  0  0
    3.3409    2.9743   18.3364 H   0  0  0  0  0  0  0  0  0  0  0  0
    5.3118    0.4895   22.1572 H   0  0  0  0  0  0  0  0  0  0  0  0
   12.5020    0.5946   24.9767 H   0  0  0  0  0  0  0  0  0  0  0  0
   13.9911   -0.5207   23.3813 H   0  0  0  0  0  0  0  0  0  0  0  0
   10.6043   -2.0219   21.2284 H   0  0  0  0  0  0  0  0  0  0  0  0
    4.9141    1.7511   16.7474 H   0  0  0  0  0  0  0  0  0  0  0  0
    7.6445   -0.9764   18.1043 H   0  0  0  0  0  0  0  0  0  0  0  0
    9.9341    6.6724   25.1016 H   0  0  0  0  0  0  0  0  0  0  0  0
    9.7385   -0.1133   25.8250 H   0  0  0  0  0  0  0  0  0  0  0  0
   10.4773    1.4543   25.3712 H   0  0  0  0  0  0  0  0  0  0  0  0
    7.5776   -2.6117   23.3317 H   0  0  0  0  0  0  0  0  0  0  0  0
    8.7734   -2.8616   22.0643 H   0  0  0  0  0  0  0  0  0  0  0  0
    7.0224   -2.7504   20.5951 H   0  0  0  0  0  0  0  0  0  0  0  0
    5.9556   -1.9471   21.7834 H   0  0  0  0  0  0  0  0  0  0  0  0
    6.8958    0.3002   23.5784 H   0  0  0  0  0  0  0  0  0  0  0  0
    7.6736   -0.8519   24.6845 H   0  0  0  0  0  0  0  0  0  0  0  0
    7.8155    2.2220   22.9742 H   0  0  0  0  0  0  0  0  0  0  0  0
    9.5664    1.9894   22.8707 H   0  0  0  0  0  0  0  0  0  0  0  0
    8.1121    1.3501   25.3124 H   0  0  0  0  0  0  0  0  0  0  0  0
  1  2  1  0  0  0  0
  1  3  2  0  0  0  0
  2  4  2  0  0  0  0
  3 11  1  0  0  0  0
  4 12  1  0  0  0  0
  5  6  1  0  0  0  0
  5 13  2  0  0  0  0
  6 16  2  0  0  0  0
  7 14  2  0  0  0  0
  7 16  1  0  0  0  0
  8 11  2  0  0  0  0
  8 25  1  0  0  0  0
  9 15  1  0  0  0  0
  9 25  2  0  0  0  0
 10 26  2  0  0  0  0
 10 31  1  0  0  0  0
 11 12  1  0  0  0  0
 12 15  2  0  0  0  0
 13 14  1  0  0  0  0
 13 19  1  0  0  0  0
 14 23  1  6  0  0  0
 15 28  1  0  0  0  0
 16 32  1  0  0  0  0
 17 24  1  0  0  0  0
 17 27  2  0  0  0  0
 17 31  1  0  0  0  0
 18 23  1  1  0  0  0
 18 28  1  0  0  0  0
 18 30  2  0  0  0  0
 19 29  1  0  0  0  0
 20 21  1  0  0  0  0
 20 23  1  1  0  0  0
 21 28  1  0  0  0  0
 22 23  1  6  0  0  0
 22 29  1  0  0  0  0
 24 29  1  1  0  0  0
 26 27  1  0  0  0  0
  1 33  1  0  0  0  0
  2 34  1  0  0  0  0
  3 35  1  0  0  0  0
  4 36  1  0  0  0  0
  5 37  1  0  0  0  0
  6 38  1  0  0  0  0
  7 39  1  0  0  0  0
  8 40  1  0  0  0  0
  9 41  1  0  0  0  0
 10 42  1  0  0  0  0
 19 43  1  0  0  0  0
 19 44  1  0  0  0  0
 20 45  1  0  0  0  0
 20 46  1  0  0  0  0
 21 47  1  0  0  0  0
 21 48  1  0  0  0  0
 22 49  1  0  0  0  0
 22 50  1  0  0  0  0
 24 51  1  0  0  0  0
 24 52  1  0  0  0  0
 29 53  1  0  0  0  0
M  CHG  1  29   1
M  END
> <compound>
PET-UNK-7e9559de-1

> <compound_smiles>
c1ccc2c(c1)cncc2N3CC[C@@]4(C3=O)CN(Cc5c4cc(cc5)Cl)Cc6nncs6

> <enantiomer_smiles>
c1ccc2c(c1)cncc2N3CC[C@@]4(C3=O)C[N@@](Cc5c4cc(cc5)Cl)Cc6nncs6

> <scaffold>
tetrahydroisoquinoline-5spiro-isoquinoline

> <clash_score>
0

> <docking_score>
-8.934828758239746

> <overlap_score>
0.9763148427009583

> <MMFF_internal_energy>
141.04346658847658

> <docked_smiles>
c1ccc2c(c1)cncc2N3CC[C@@]4(C3=O)C[N@@H+](Cc5c4cc(cc5)Cl)Cc6nncs6

$$$$
PET-UNK-7e9559de-4_1
  -OEChem-12272114573D

 53 58  0     1  0  0  0  0  0999 V2000
    3.3432    2.6279   20.4411 C   0  0  0  0  0  0  0  0  0  0  0  0
    3.8960    1.9291   21.5050 C   0  0  0  0  0  0  0  0  0  0  0  0
    3.7865    2.4205   19.1660 C   0  0  0  0  0  0  0  0  0  0  0  0
    4.8973    1.0233   21.2988 C   0  0  0  0  0  0  0  0  0  0  0  0
   12.0765    0.0316   24.1541 C   0  0  0  0  0  0  0  0  0  0  0  0
   12.9132   -0.6032   23.2569 C   0  0  0  0  0  0  0  0  0  0  0  0
   10.9991   -1.4331   22.0443 C   0  0  0  0  0  0  0  0  0  0  0  0
    5.3278    1.2339   17.6066 C   0  0  0  0  0  0  0  0  0  0  0  0
    6.8438   -0.2892   18.3752 C   0  0  0  0  0  0  0  0  0  0  0  0
    9.5653    5.6641   24.9755 C   0  0  0  0  0  0  0  0  0  0  0  0
    4.8226    1.4906   18.9054 C   0  0  0  0  0  0  0  0  0  0  0  0
    5.3982    0.7733   19.9948 C   0  0  0  0  0  0  0  0  0  0  0  0
   10.7040   -0.0625   23.9898 C   0  0  0  0  0  0  0  0  0  0  0  0
   10.1406   -0.7765   22.9250 C   0  0  0  0  0  0  0  0  0  0  0  0
    6.4440   -0.1472   19.6979 C   0  0  0  0  0  0  0  0  0  0  0  0
   12.3683   -1.3298   22.2234 C   0  0  0  0  0  0  0  0  0  0  0  0
    8.9558    3.4901   24.2906 C   0  0  0  0  0  0  0  0  0  0  0  0
    8.2490    0.0169   21.4271 C   0  0  0  0  0  0  0  0  0  0  0  0
    9.9479    0.5589   24.9534 C   0  0  0  0  0  0  0  0  0  0  0  0
    8.0140   -2.1541   22.4331 C   0  0  0  0  0  0  0  0  0  0  0  0
    6.9866   -1.9366   21.3580 C   0  0  0  0  0  0  0  0  0  0  0  0
    7.8721   -0.1194   23.8831 C   0  0  0  0  0  0  0  0  0  0  0  0
    8.6238   -0.7606   22.6929 C   0  0  3  0  0  0  0  0  0  0  0  0
    8.7403    2.1972   23.5605 C   0  0  0  0  0  0  0  0  0  0  0  0
    6.3062    0.3769   17.3421 N   0  0  0  0  0  0  0  0  0  0  0  0
    8.8779    5.0348   25.9046 N   0  0  0  0  0  0  0  0  0  0  0  0
    8.5212    3.7592   25.5033 N   0  0  0  0  0  0  0  0  0  0  0  0
    7.2292   -0.6897   20.7790 N   0  0  0  0  0  0  0  0  0  0  0  0
    8.6609    1.0133   24.4995 N   0  3  1  0  0  0  0  0  0  0  0  0
    8.7573    1.0936   21.1337 O   0  0  0  0  0  0  0  0  0  0  0  0
    9.8312    4.7607   23.5419 S   0  0  0  0  0  0  0  0  0  0  0  0
   13.4273   -2.1424   21.1098 Cl  0  0  0  0  0  0  0  0  0  0  0  0
    2.5432    3.3510   20.6369 H   0  0  0  0  0  0  0  0  0  0  0  0
    3.5174    2.1137   22.5168 H   0  0  0  0  0  0  0  0  0  0  0  0
    3.3409    2.9743   18.3364 H   0  0  0  0  0  0  0  0  0  0  0  0
    5.3118    0.4895   22.1572 H   0  0  0  0  0  0  0  0  0  0  0  0
   12.5019    0.5946   24.9768 H   0  0  0  0  0  0  0  0  0  0  0  0
   13.9911   -0.5203   23.3811 H   0  0  0  0  0  0  0  0  0  0  0  0
   10.6042   -2.0222   21.2286 H   0  0  0  0  0  0  0  0  0  0  0  0
    4.9141    1.7511   16.7474 H   0  0  0  0  0  0  0  0  0  0  0  0
    7.6445   -0.9764   18.1043 H   0  0  0  0  0  0  0  0  0  0  0  0
    9.9339    6.6719   25.1040 H   0  0  0  0  0  0  0  0  0  0  0  0
    9.7388   -0.1131   25.8254 H   0  0  0  0  0  0  0  0  0  0  0  0
   10.4771    1.4544   25.3711 H   0  0  0  0  0  0  0  0  0  0  0  0
    7.5768   -2.6110   23.3318 H   0  0  0  0  0  0  0  0  0  0  0  0
    8.7734   -2.8622   22.0653 H   0  0  0  0  0  0  0  0  0  0  0  0
    7.0225   -2.7503   20.5949 H   0  0  0  0  0  0  0  0  0  0  0  0
    5.9552   -1.9477   21.7830 H   0  0  0  0  0  0  0  0  0  0  0  0
    6.8958    0.3004   23.5785 H   0  0  0  0  0  0  0  0  0  0  0  0
    7.6733   -0.8520   24.6844 H   0  0  0  0  0  0  0  0  0  0  0  0
    7.8148    2.2225   22.9753 H   0  0  0  0  0  0  0  0  0  0  0  0
    9.5656    1.9901   22.8708 H   0  0  0  0  0  0  0  0  0  0  0  0
    8.1123    1.3501   25.3127 H   0  0  0  0  0  0  0  0  0  0  0  0
  1  2  1  0  0  0  0
  1  3  2  0  0  0  0
  2  4  2  0  0  0  0
  3 11  1  0  0  0  0
  4 12  1  0  0  0  0
  5  6  1  0  0  0  0
  5 13  2  0  0  0  0
  6 16  2  0  0  0  0
  7 14  2  0  0  0  0
  7 16  1  0  0  0  0
  8 11  2  0  0  0  0
  8 25  1  0  0  0  0
  9 15  1  0  0  0  0
  9 25  2  0  0  0  0
 10 26  2  0  0  0  0
 10 31  1  0  0  0  0
 11 12  1  0  0  0  0
 12 15  2  0  0  0  0
 13 14  1  0  0  0  0
 13 19  1  0  0  0  0
 14 23  1  0  0  0  0
 15 28  1  0  0  0  0
 16 32  1  0  0  0  0
 17 24  1  0  0  0  0
 17 27  2  0  0  0  0
 17 31  1  0  0  0  0
 18 23  1  0  0  0  0
 18 28  1  0  0  0  0
 18 30  2  0  0  0  0
 19 29  1  0  0  0  0
 20 21  1  0  0  0  0
 20 23  1  0  0  0  0
 21 28  1  0  0  0  0
 22 23  1  0  0  0  0
 22 29  1  0  0  0  0
 24 29  1  1  0  0  0
 26 27  1  0  0  0  0
  1 33  1  0  0  0  0
  2 34  1  0  0  0  0
  3 35  1  0  0  0  0
  4 36  1  0  0  0  0
  5 37  1  0  0  0  0
  6 38  1  0  0  0  0
  7 39  1  0  0  0  0
  8 40  1  0  0  0  0
  9 41  1  0  0  0  0
 10 42  1  0  0  0  0
 19 43  1  0  0  0  0
 19 44  1  0  0  0  0
 20 45  1  0  0  0  0
 20 46  1  0  0  0  0
 21 47  1  0  0  0  0
 21 48  1  0  0  0  0
 22 49  1  0  0  0  0
 22 50  1  0  0  0  0
 24 51  1  0  0  0  0
 24 52  1  0  0  0  0
 29 53  1  0  0  0  0
M  CHG  1  29   1
M  END
> <compound>
PET-UNK-7e9559de-4

> <compound_smiles>
c1ccc2c(c1)cncc2N3CCC4(C3=O)CN(Cc5c4cc(cc5)Cl)Cc6nncs6

> <enantiomer_smiles>
c1ccc2c(c1)cncc2N3CCC4(C3=O)C[N@@](Cc5c4cc(cc5)Cl)Cc6nncs6

> <scaffold>
tetrahydroisoquinoline-5spiro-isoquinoline

> <clash_score>
0

> <docking_score>
-8.931402206420898

> <overlap_score>
0.9763150811195374

> <MMFF_internal_energy>
141.02618319451258

> <docked_smiles>
c1ccc2c(c1)cncc2N3CC[C@@]4(C3=O)C[N@@H+](Cc5c4cc(cc5)Cl)Cc6nncs6

$$$$
EDJ-MED-fd8ed875-3_1
  -OEChem-12272114573D

 51 55  0     1  0  0  0  0  0999 V2000
    3.3432    2.6279   20.4411 C   0  0  0  0  0  0  0  0  0  0  0  0
    3.8960    1.9291   21.5050 C   0  0  0  0  0  0  0  0  0  0  0  0
    3.7865    2.4205   19.1660 C   0  0  0  0  0  0  0  0  0  0  0  0
    4.8973    1.0233   21.2988 C   0  0  0  0  0  0  0  0  0  0  0  0
   12.0765    0.0316   24.1541 C   0  0  0  0  0  0  0  0  0  0  0  0
   12.9132   -0.6032   23.2569 C   0  0  0  0  0  0  0  0  0  0  0  0
   10.9991   -1.4331   22.0443 C   0  0  0  0  0  0  0  0  0  0  0  0
    5.3278    1.2339   17.6066 C   0  0  0  0  0  0  0  0  0  0  0  0
    6.8438   -0.2892   18.3752 C   0  0  0  0  0  0  0  0  0  0  0  0
    4.8226    1.4906   18.9054 C   0  0  0  0  0  0  0  0  0  0  0  0
    5.3982    0.7733   19.9948 C   0  0  0  0  0  0  0  0  0  0  0  0
   10.7040   -0.0625   23.9898 C   0  0  0  0  0  0  0  0  0  0  0  0
   10.1406   -0.7765   22.9250 C   0  0  0  0  0  0  0  0  0  0  0  0
    6.4440   -0.1472   19.6979 C   0  0  0  0  0  0  0  0  0  0  0  0
   12.3683   -1.3298   22.2234 C   0  0  0  0  0  0  0  0  0  0  0  0
    8.0140   -2.1541   22.4331 C   0  0  0  0  0  0  0  0  0  0  0  0
    6.9866   -1.9366   21.3580 C   0  0  0  0  0  0  0  0  0  0  0  0
    9.9479    0.5589   24.9534 C   0  0  0  0  0  0  0  0  0  0  0  0
    8.2490    0.0169   21.4271 C   0  0  0  0  0  0  0  0  0  0  0  0
    8.4553    3.2373   23.7444 C   0  0  0  0  0  0  0  0  0  0  0  0
    7.8721   -0.1194   23.8831 C   0  0  0  0  0  0  0  0  0  0  0  0
    8.6238   -0.7606   22.6929 C   0  0  3  0  0  0  0  0  0  0  0  0
   10.2050    4.9488   23.2722 C   0  0  0  0  0  0  0  0  0  0  0  0
    8.0818    2.2156   24.7878 C   0  0  0  0  0  0  0  0  0  0  0  0
    6.3062    0.3769   17.3421 N   0  0  0  0  0  0  0  0  0  0  0  0
    7.2292   -0.6897   20.7790 N   0  0  0  0  0  0  0  0  0  0  0  0
    8.6609    1.0133   24.4995 N   0  0  0  0  0  0  0  0  0  0  0  0
    9.6150    3.9152   24.0919 N   0  0  0  0  0  0  0  0  0  0  0  0
   10.3250    0.7345   26.1073 O   0  0  0  0  0  0  0  0  0  0  0  0
    8.8012    1.0705   21.1148 O   0  0  0  0  0  0  0  0  0  0  0  0
    7.8029    3.4280   22.7214 O   0  0  0  0  0  0  0  0  0  0  0  0
   13.4276   -2.1355   21.1052 Cl  0  0  0  0  0  0  0  0  0  0  0  0
    2.5432    3.3510   20.6369 H   0  0  0  0  0  0  0  0  0  0  0  0
    3.5174    2.1137   22.5168 H   0  0  0  0  0  0  0  0  0  0  0  0
    3.3409    2.9743   18.3364 H   0  0  0  0  0  0  0  0  0  0  0  0
    5.3118    0.4895   22.1572 H   0  0  0  0  0  0  0  0  0  0  0  0
   12.5177    0.5947   24.9724 H   0  0  0  0  0  0  0  0  0  0  0  0
   13.9904   -0.5121   23.3752 H   0  0  0  0  0  0  0  0  0  0  0  0
   10.6084   -2.0163   21.2217 H   0  0  0  0  0  0  0  0  0  0  0  0
    4.9141    1.7511   16.7474 H   0  0  0  0  0  0  0  0  0  0  0  0
    7.6445   -0.9764   18.1043 H   0  0  0  0  0  0  0  0  0  0  0  0
    8.2085   -3.0447   22.8410 H   0  0  0  0  0  0  0  0  0  0  0  0
    6.2541   -2.5927   21.1065 H   0  0  0  0  0  0  0  0  0  0  0  0
    6.9027    0.2714   23.5779 H   0  0  0  0  0  0  0  0  0  0  0  0
    7.7137   -0.8369   24.6884 H   0  0  0  0  0  0  0  0  0  0  0  0
   10.9207    4.4967   22.5698 H   0  0  0  0  0  0  0  0  0  0  0  0
    9.4143    5.4652   22.7081 H   0  0  0  0  0  0  0  0  0  0  0  0
   10.7289    5.6718   23.9146 H   0  0  0  0  0  0  0  0  0  0  0  0
    8.4238    2.5514   25.7713 H   0  0  0  0  0  0  0  0  0  0  0  0
    6.9959    2.0850   24.8071 H   0  0  0  0  0  0  0  0  0  0  0  0
   10.0721    3.6728   24.9662 H   0  0  0  0  0  0  0  0  0  0  0  0
  1  2  1  0  0  0  0
  1  3  2  0  0  0  0
  2  4  2  0  0  0  0
  3 10  1  0  0  0  0
  4 11  1  0  0  0  0
  5  6  2  0  0  0  0
  5 12  1  0  0  0  0
  6 15  1  0  0  0  0
  7 13  1  0  0  0  0
  7 15  2  0  0  0  0
  8 10  2  0  0  0  0
  8 25  1  0  0  0  0
  9 14  1  0  0  0  0
  9 25  2  0  0  0  0
 10 11  1  0  0  0  0
 11 14  2  0  0  0  0
 12 13  2  0  0  0  0
 12 18  1  0  0  0  0
 13 22  1  0  0  0  0
 14 26  1  0  0  0  0
 15 32  1  0  0  0  0
 16 17  2  0  0  0  0
 16 22  1  0  0  0  0
 17 26  1  0  0  0  0
 18 27  1  0  0  0  0
 18 29  2  0  0  0  0
 19 22  1  0  0  0  0
 19 26  1  0  0  0  0
 19 30  2  0  0  0  0
 20 24  1  0  0  0  0
 20 28  1  0  0  0  0
 20 31  2  0  0  0  0
 21 22  1  0  0  0  0
 21 27  1  0  0  0  0
 23 28  1  0  0  0  0
 24 27  1  0  0  0  0
  1 33  1  0  0  0  0
  2 34  1  0  0  0  0
  3 35  1  0  0  0  0
  4 36  1  0  0  0  0
  5 37  1  0  0  0  0
  6 38  1  0  0  0  0
  7 39  1  0  0  0  0
  8 40  1  0  0  0  0
  9 41  1  0  0  0  0
 16 42  1  0  0  0  0
 17 43  1  0  0  0  0
 21 44  1  0  0  0  0
 21 45  1  0  0  0  0
 23 46  1  0  0  0  0
 23 47  1  0  0  0  0
 23 48  1  0  0  0  0
 24 49  1  0  0  0  0
 24 50  1  0  0  0  0
 28 51  1  0  0  0  0
M  END
> <compound>
EDJ-MED-fd8ed875-3

> <compound_smiles>
CNC(=O)CN1CC2(C=CN(C2=O)c3cncc4c3cccc4)c5cc(ccc5C1=O)Cl

> <enantiomer_smiles>
CNC(=O)CN1CC2(C=CN(C2=O)c3cncc4c3cccc4)c5cc(ccc5C1=O)Cl

> <scaffold>
tetrahydroisoquinoline-5spiro-isoquinoline

> <clash_score>
0

> <docking_score>
-9.968192100524902

> <overlap_score>
0.9895923733711243

> <MMFF_internal_energy>
216.03570960703556

> <docked_smiles>
CNC(=O)CN1C[C@]2(C=CN(C2=O)c3cncc4c3cccc4)c5cc(ccc5C1=O)Cl

$$$$
PET-UNK-7e9559de-4_2
  -OEChem-12272114573D

 53 58  0     1  0  0  0  0  0999 V2000
    3.3432    2.6279   20.4411 C   0  0  0  0  0  0  0  0  0  0  0  0
    3.8960    1.9291   21.5050 C   0  0  0  0  0  0  0  0  0  0  0  0
    3.7865    2.4205   19.1660 C   0  0  0  0  0  0  0  0  0  0  0  0
    4.8973    1.0233   21.2988 C   0  0  0  0  0  0  0  0  0  0  0  0
   12.0765    0.0316   24.1541 C   0  0  0  0  0  0  0  0  0  0  0  0
   12.9132   -0.6032   23.2569 C   0  0  0  0  0  0  0  0  0  0  0  0
   10.9991   -1.4331   22.0443 C   0  0  0  0  0  0  0  0  0  0  0  0
    5.3278    1.2339   17.6066 C   0  0  0  0  0  0  0  0  0  0  0  0
    6.8438   -0.2892   18.3752 C   0  0  0  0  0  0  0  0  0  0  0  0
    5.3807    4.3814   24.3731 C   0  0  0  0  0  0  0  0  0  0  0  0
    4.8226    1.4906   18.9054 C   0  0  0  0  0  0  0  0  0  0  0  0
    5.3982    0.7733   19.9948 C   0  0  0  0  0  0  0  0  0  0  0  0
   10.7040   -0.0625   23.9898 C   0  0  0  0  0  0  0  0  0  0  0  0
   10.1406   -0.7765   22.9250 C   0  0  0  0  0  0  0  0  0  0  0  0
    6.4440   -0.1472   19.6979 C   0  0  0  0  0  0  0  0  0  0  0  0
   12.3683   -1.3298   22.2234 C   0  0  0  0  0  0  0  0  0  0  0  0
    6.7907    2.5966   25.0003 C   0  0  0  0  0  0  0  0  0  0  0  0
    8.2490    0.0169   21.4271 C   0  0  0  0  0  0  0  0  0  0  0  0
    9.9479    0.5589   24.9534 C   0  0  0  0  0  0  0  0  0  0  0  0
    8.0140   -2.1541   22.4331 C   0  0  0  0  0  0  0  0  0  0  0  0
    6.9866   -1.9366   21.3580 C   0  0  0  0  0  0  0  0  0  0  0  0
    7.8721   -0.1194   23.8831 C   0  0  0  0  0  0  0  0  0  0  0  0
    8.6238   -0.7606   22.6929 C   0  0  3  0  0  0  0  0  0  0  0  0
    7.8596    1.7144   25.5749 C   0  0  0  0  0  0  0  0  0  0  0  0
    6.3062    0.3769   17.3421 N   0  0  0  0  0  0  0  0  0  0  0  0
    4.9834    3.2398   23.8526 N   0  0  0  0  0  0  0  0  0  0  0  0
    5.8100    2.1928   24.2213 N   0  0  0  0  0  0  0  0  0  0  0  0
    7.2292   -0.6897   20.7790 N   0  0  0  0  0  0  0  0  0  0  0  0
    8.6609    1.0133   24.4995 N   0  3  2  0  0  0  0  0  0  0  0  0
    8.8286    1.0402   21.0803 O   0  0  0  0  0  0  0  0  0  0  0  0
    6.7880    4.2761   25.3479 S   0  0  0  0  0  0  0  0  0  0  0  0
   13.4270   -2.1443   21.1108 Cl  0  0  0  0  0  0  0  0  0  0  0  0
    2.5432    3.3510   20.6369 H   0  0  0  0  0  0  0  0  0  0  0  0
    3.5174    2.1137   22.5168 H   0  0  0  0  0  0  0  0  0  0  0  0
    3.3409    2.9743   18.3364 H   0  0  0  0  0  0  0  0  0  0  0  0
    5.3118    0.4895   22.1572 H   0  0  0  0  0  0  0  0  0  0  0  0
   12.5021    0.5962   24.9756 H   0  0  0  0  0  0  0  0  0  0  0  0
   13.9911   -0.5171   23.3786 H   0  0  0  0  0  0  0  0  0  0  0  0
   10.6045   -2.0170   21.2248 H   0  0  0  0  0  0  0  0  0  0  0  0
    4.9141    1.7511   16.7474 H   0  0  0  0  0  0  0  0  0  0  0  0
    7.6445   -0.9764   18.1043 H   0  0  0  0  0  0  0  0  0  0  0  0
    4.8618    5.3137   24.2005 H   0  0  0  0  0  0  0  0  0  0  0  0
    9.7608   -0.1211   25.8247 H   0  0  0  0  0  0  0  0  0  0  0  0
   10.4565    1.4661   25.3705 H   0  0  0  0  0  0  0  0  0  0  0  0
    7.5144   -2.5472   23.3327 H   0  0  0  0  0  0  0  0  0  0  0  0
    8.7599   -2.9065   22.1418 H   0  0  0  0  0  0  0  0  0  0  0  0
    7.0582   -2.7244   20.5716 H   0  0  0  0  0  0  0  0  0  0  0  0
    5.9516   -1.9958   21.7713 H   0  0  0  0  0  0  0  0  0  0  0  0
    6.8955    0.2929   23.5757 H   0  0  0  0  0  0  0  0  0  0  0  0
    7.6774   -0.8491   24.6905 H   0  0  0  0  0  0  0  0  0  0  0  0
    8.5594    2.2898   26.1904 H   0  0  0  0  0  0  0  0  0  0  0  0
    7.4280    0.9296   26.2054 H   0  0  0  0  0  0  0  0  0  0  0  0
    8.7930    1.7233   23.7554 H   0  0  0  0  0  0  0  0  0  0  0  0
  1  2  1  0  0  0  0
  1  3  2  0  0  0  0
  2  4  2  0  0  0  0
  3 11  1  0  0  0  0
  4 12  1  0  0  0  0
  5  6  1  0  0  0  0
  5 13  2  0  0  0  0
  6 16  2  0  0  0  0
  7 14  2  0  0  0  0
  7 16  1  0  0  0  0
  8 11  2  0  0  0  0
  8 25  1  0  0  0  0
  9 15  1  0  0  0  0
  9 25  2  0  0  0  0
 10 26  2  0  0  0  0
 10 31  1  0  0  0  0
 11 12  1  0  0  0  0
 12 15  2  0  0  0  0
 13 14  1  0  0  0  0
 13 19  1  0  0  0  0
 14 23  1  0  0  0  0
 15 28  1  0  0  0  0
 16 32  1  0  0  0  0
 17 24  1  0  0  0  0
 17 27  2  0  0  0  0
 17 31  1  0  0  0  0
 18 23  1  0  0  0  0
 18 28  1  0  0  0  0
 18 30  2  0  0  0  0
 19 29  1  0  0  0  0
 20 21  1  0  0  0  0
 20 23  1  0  0  0  0
 21 28  1  0  0  0  0
 22 23  1  0  0  0  0
 22 29  1  0  0  0  0
 24 29  1  6  0  0  0
 26 27  1  0  0  0  0
  1 33  1  0  0  0  0
  2 34  1  0  0  0  0
  3 35  1  0  0  0  0
  4 36  1  0  0  0  0
  5 37  1  0  0  0  0
  6 38  1  0  0  0  0
  7 39  1  0  0  0  0
  8 40  1  0  0  0  0
  9 41  1  0  0  0  0
 10 42  1  0  0  0  0
 19 43  1  0  0  0  0
 19 44  1  0  0  0  0
 20 45  1  0  0  0  0
 20 46  1  0  0  0  0
 21 47  1  0  0  0  0
 21 48  1  0  0  0  0
 22 49  1  0  0  0  0
 22 50  1  0  0  0  0
 24 51  1  0  0  0  0
 24 52  1  0  0  0  0
 29 53  1  0  0  0  0
M  CHG  1  29   1
M  END
> <compound>
PET-UNK-7e9559de-4

> <compound_smiles>
c1ccc2c(c1)cncc2N3CCC4(C3=O)CN(Cc5c4cc(cc5)Cl)Cc6nncs6

> <enantiomer_smiles>
c1ccc2c(c1)cncc2N3CCC4(C3=O)C[N@](Cc5c4cc(cc5)Cl)Cc6nncs6

> <scaffold>
tetrahydroisoquinoline-5spiro-isoquinoline

> <clash_score>
0

> <docking_score>
-9.022786140441895

> <overlap_score>
0.9757267236709595

> <MMFF_internal_energy>
144.0998529078691

> <docked_smiles>
c1ccc2c(c1)cncc2N3CC[C@@]4(C3=O)C[N@H+](Cc5c4cc(cc5)Cl)Cc6nncs6

$$$$
PET-UNK-7e9559de-1_2
  -OEChem-12272114573D

 53 58  0     1  0  0  0  0  0999 V2000
    3.3432    2.6279   20.4411 C   0  0  0  0  0  0  0  0  0  0  0  0
    3.8960    1.9291   21.5050 C   0  0  0  0  0  0  0  0  0  0  0  0
    3.7865    2.4205   19.1660 C   0  0  0  0  0  0  0  0  0  0  0  0
    4.8973    1.0233   21.2988 C   0  0  0  0  0  0  0  0  0  0  0  0
   12.0765    0.0316   24.1541 C   0  0  0  0  0  0  0  0  0  0  0  0
   12.9132   -0.6032   23.2569 C   0  0  0  0  0  0  0  0  0  0  0  0
   10.9991   -1.4331   22.0443 C   0  0  0  0  0  0  0  0  0  0  0  0
    5.3278    1.2339   17.6066 C   0  0  0  0  0  0  0  0  0  0  0  0
    6.8438   -0.2892   18.3752 C   0  0  0  0  0  0  0  0  0  0  0  0
    5.3720    4.3690   24.3695 C   0  0  0  0  0  0  0  0  0  0  0  0
    4.8226    1.4906   18.9054 C   0  0  0  0  0  0  0  0  0  0  0  0
    5.3982    0.7733   19.9948 C   0  0  0  0  0  0  0  0  0  0  0  0
   10.7040   -0.0625   23.9898 C   0  0  0  0  0  0  0  0  0  0  0  0
   10.1406   -0.7765   22.9250 C   0  0  0  0  0  0  0  0  0  0  0  0
    6.4440   -0.1472   19.6979 C   0  0  0  0  0  0  0  0  0  0  0  0
   12.3683   -1.3298   22.2234 C   0  0  0  0  0  0  0  0  0  0  0  0
    6.7873    2.5902   25.0019 C   0  0  0  0  0  0  0  0  0  0  0  0
    8.2490    0.0169   21.4271 C   0  0  0  0  0  0  0  0  0  0  0  0
    9.9479    0.5589   24.9534 C   0  0  0  0  0  0  0  0  0  0  0  0
    8.0140   -2.1541   22.4331 C   0  0  0  0  0  0  0  0  0  0  0  0
    6.9866   -1.9366   21.3580 C   0  0  0  0  0  0  0  0  0  0  0  0
    7.8721   -0.1194   23.8831 C   0  0  0  0  0  0  0  0  0  0  0  0
    8.6238   -0.7606   22.6929 C   0  0  1  0  0  0  0  0  0  0  0  0
    7.8597    1.7131   25.5776 C   0  0  0  0  0  0  0  0  0  0  0  0
    6.3062    0.3769   17.3421 N   0  0  0  0  0  0  0  0  0  0  0  0
    4.9746    3.2237   23.8573 N   0  0  0  0  0  0  0  0  0  0  0  0
    5.8042    2.1802   24.2290 N   0  0  0  0  0  0  0  0  0  0  0  0
    7.2292   -0.6897   20.7790 N   0  0  0  0  0  0  0  0  0  0  0  0
    8.6609    1.0133   24.4995 N   0  3  2  0  0  0  0  0  0  0  0  0
    8.7582    1.0927   21.1322 O   0  0  0  0  0  0  0  0  0  0  0  0
    6.7832    4.2717   25.3395 S   0  0  0  0  0  0  0  0  0  0  0  0
   13.4284   -2.1369   21.1069 Cl  0  0  0  0  0  0  0  0  0  0  0  0
    2.5432    3.3510   20.6369 H   0  0  0  0  0  0  0  0  0  0  0  0
    3.5174    2.1137   22.5168 H   0  0  0  0  0  0  0  0  0  0  0  0
    3.3409    2.9743   18.3364 H   0  0  0  0  0  0  0  0  0  0  0  0
    5.3118    0.4895   22.1572 H   0  0  0  0  0  0  0  0  0  0  0  0
   12.5034    0.6047   24.9690 H   0  0  0  0  0  0  0  0  0  0  0  0
   13.9915   -0.5095   23.3735 H   0  0  0  0  0  0  0  0  0  0  0  0
   10.6128   -2.0079   21.2173 H   0  0  0  0  0  0  0  0  0  0  0  0
    4.9141    1.7511   16.7474 H   0  0  0  0  0  0  0  0  0  0  0  0
    7.6445   -0.9764   18.1043 H   0  0  0  0  0  0  0  0  0  0  0  0
    4.8510    5.2994   24.1933 H   0  0  0  0  0  0  0  0  0  0  0  0
    9.7652   -0.1152   25.8338 H   0  0  0  0  0  0  0  0  0  0  0  0
   10.4580    1.4695   25.3677 H   0  0  0  0  0  0  0  0  0  0  0  0
    7.5756   -2.6002   23.3394 H   0  0  0  0  0  0  0  0  0  0  0  0
    8.7528   -2.8832   22.0699 H   0  0  0  0  0  0  0  0  0  0  0  0
    7.0224   -2.7508   20.5944 H   0  0  0  0  0  0  0  0  0  0  0  0
    5.9543   -1.9484   21.7823 H   0  0  0  0  0  0  0  0  0  0  0  0
    6.9009    0.3058   23.5780 H   0  0  0  0  0  0  0  0  0  0  0  0
    7.6838   -0.8462   24.6929 H   0  0  0  0  0  0  0  0  0  0  0  0
    8.5610    2.2932   26.1869 H   0  0  0  0  0  0  0  0  0  0  0  0
    7.4318    0.9313   26.2144 H   0  0  0  0  0  0  0  0  0  0  0  0
    8.7895    1.7237   23.7518 H   0  0  0  0  0  0  0  0  0  0  0  0
  1  2  1  0  0  0  0
  1  3  2  0  0  0  0
  2  4  2  0  0  0  0
  3 11  1  0  0  0  0
  4 12  1  0  0  0  0
  5  6  1  0  0  0  0
  5 13  2  0  0  0  0
  6 16  2  0  0  0  0
  7 14  2  0  0  0  0
  7 16  1  0  0  0  0
  8 11  2  0  0  0  0
  8 25  1  0  0  0  0
  9 15  1  0  0  0  0
  9 25  2  0  0  0  0
 10 26  2  0  0  0  0
 10 31  1  0  0  0  0
 11 12  1  0  0  0  0
 12 15  2  0  0  0  0
 13 14  1  0  0  0  0
 13 19  1  0  0  0  0
 14 23  1  6  0  0  0
 15 28  1  0  0  0  0
 16 32  1  0  0  0  0
 17 24  1  0  0  0  0
 17 27  2  0  0  0  0
 17 31  1  0  0  0  0
 18 23  1  1  0  0  0
 18 28  1  0  0  0  0
 18 30  2  0  0  0  0
 19 29  1  0  0  0  0
 20 21  1  0  0  0  0
 20 23  1  1  0  0  0
 21 28  1  0  0  0  0
 22 23  1  6  0  0  0
 22 29  1  0  0  0  0
 24 29  1  6  0  0  0
 26 27  1  0  0  0  0
  1 33  1  0  0  0  0
  2 34  1  0  0  0  0
  3 35  1  0  0  0  0
  4 36  1  0  0  0  0
  5 37  1  0  0  0  0
  6 38  1  0  0  0  0
  7 39  1  0  0  0  0
  8 40  1  0  0  0  0
  9 41  1  0  0  0  0
 10 42  1  0  0  0  0
 19 43  1  0  0  0  0
 19 44  1  0  0  0  0
 20 45  1  0  0  0  0
 20 46  1  0  0  0  0
 21 47  1  0  0  0  0
 21 48  1  0  0  0  0
 22 49  1  0  0  0  0
 22 50  1  0  0  0  0
 24 51  1  0  0  0  0
 24 52  1  0  0  0  0
 29 53  1  0  0  0  0
M  CHG  1  29   1
M  END
> <compound>
PET-UNK-7e9559de-1

> <compound_smiles>
c1ccc2c(c1)cncc2N3CC[C@@]4(C3=O)CN(Cc5c4cc(cc5)Cl)Cc6nncs6

> <enantiomer_smiles>
c1ccc2c(c1)cncc2N3CC[C@@]4(C3=O)C[N@](Cc5c4cc(cc5)Cl)Cc6nncs6

> <scaffold>
tetrahydroisoquinoline-5spiro-isoquinoline

> <clash_score>
0

> <docking_score>
-9.057435989379883

> <overlap_score>
0.9757460355758667

> <MMFF_internal_energy>
142.69410195983377

> <docked_smiles>
c1ccc2c(c1)cncc2N3CC[C@@]4(C3=O)C[N@H+](Cc5c4cc(cc5)Cl)Cc6nncs6

$$$$
LUO-POS-9931618f-2_1
  -OEChem-12272114573D

 53 57  0     1  0  0  0  0  0999 V2000
    3.3432    2.6279   20.4411 C   0  0  0  0  0  0  0  0  0  0  0  0
    3.8960    1.9291   21.5050 C   0  0  0  0  0  0  0  0  0  0  0  0
    3.7865    2.4205   19.1660 C   0  0  0  0  0  0  0  0  0  0  0  0
    4.8973    1.0233   21.2988 C   0  0  0  0  0  0  0  0  0  0  0  0
   12.0765    0.0316   24.1541 C   0  0  0  0  0  0  0  0  0  0  0  0
   12.9132   -0.6032   23.2569 C   0  0  0  0  0  0  0  0  0  0  0  0
   10.9991   -1.4331   22.0443 C   0  0  0  0  0  0  0  0  0  0  0  0
    5.3278    1.2339   17.6066 C   0  0  0  0  0  0  0  0  0  0  0  0
    6.8438   -0.2892   18.3752 C   0  0  0  0  0  0  0  0  0  0  0  0
    4.8226    1.4906   18.9054 C   0  0  0  0  0  0  0  0  0  0  0  0
    5.3982    0.7733   19.9948 C   0  0  0  0  0  0  0  0  0  0  0  0
   10.7040   -0.0625   23.9898 C   0  0  0  0  0  0  0  0  0  0  0  0
   10.1406   -0.7765   22.9250 C   0  0  0  0  0  0  0  0  0  0  0  0
    6.4440   -0.1472   19.6979 C   0  0  0  0  0  0  0  0  0  0  0  0
   12.3683   -1.3298   22.2234 C   0  0  0  0  0  0  0  0  0  0  0  0
    9.9479    0.5589   24.9534 C   0  0  0  0  0  0  0  0  0  0  0  0
    8.2490    0.0169   21.4271 C   0  0  0  0  0  0  0  0  0  0  0  0
    8.4870    3.2066   23.6987 C   0  0  0  0  0  0  0  0  0  0  0  0
    8.0140   -2.1541   22.4331 C   0  0  0  0  0  0  0  0  0  0  0  0
    6.9866   -1.9366   21.3580 C   0  0  0  0  0  0  0  0  0  0  0  0
    7.8721   -0.1194   23.8831 C   0  0  0  0  0  0  0  0  0  0  0  0
    8.6238   -0.7606   22.6929 C   0  0  2  0  0  0  0  0  0  0  0  0
   10.2730    4.8679   23.1851 C   0  0  0  0  0  0  0  0  0  0  0  0
    8.0879    2.2244   24.7703 C   0  0  0  0  0  0  0  0  0  0  0  0
    6.3062    0.3769   17.3421 N   0  0  0  0  0  0  0  0  0  0  0  0
    7.2292   -0.6897   20.7790 N   0  0  0  0  0  0  0  0  0  0  0  0
    8.6609    1.0133   24.4995 N   0  0  0  0  0  0  0  0  0  0  0  0
    9.6583    3.8714   24.0322 N   0  0  0  0  0  0  0  0  0  0  0  0
   10.3228    0.7291   26.1107 O   0  0  0  0  0  0  0  0  0  0  0  0
    8.7579    1.0937   21.1353 O   0  0  0  0  0  0  0  0  0  0  0  0
    7.8438    3.3792   22.6668 O   0  0  0  0  0  0  0  0  0  0  0  0
   13.4283   -2.1376   21.1077 Cl  0  0  0  0  0  0  0  0  0  0  0  0
    2.5432    3.3510   20.6369 H   0  0  0  0  0  0  0  0  0  0  0  0
    3.5174    2.1137   22.5168 H   0  0  0  0  0  0  0  0  0  0  0  0
    3.3409    2.9743   18.3364 H   0  0  0  0  0  0  0  0  0  0  0  0
    5.3118    0.4895   22.1572 H   0  0  0  0  0  0  0  0  0  0  0  0
   12.5172    0.5915   24.9751 H   0  0  0  0  0  0  0  0  0  0  0  0
   13.9905   -0.5158   23.3787 H   0  0  0  0  0  0  0  0  0  0  0  0
   10.6132   -2.0175   21.2218 H   0  0  0  0  0  0  0  0  0  0  0  0
    4.9141    1.7511   16.7474 H   0  0  0  0  0  0  0  0  0  0  0  0
    7.6445   -0.9764   18.1043 H   0  0  0  0  0  0  0  0  0  0  0  0
    7.5776   -2.6154   23.3305 H   0  0  0  0  0  0  0  0  0  0  0  0
    8.7844   -2.8460   22.0575 H   0  0  0  0  0  0  0  0  0  0  0  0
    7.0224   -2.7511   20.5952 H   0  0  0  0  0  0  0  0  0  0  0  0
    5.9553   -1.9486   21.7839 H   0  0  0  0  0  0  0  0  0  0  0  0
    6.9018    0.2704   23.5732 H   0  0  0  0  0  0  0  0  0  0  0  0
    7.7050   -0.8358   24.6904 H   0  0  0  0  0  0  0  0  0  0  0  0
   10.9831    4.3807   22.5007 H   0  0  0  0  0  0  0  0  0  0  0  0
    9.4957    5.3827   22.6012 H   0  0  0  0  0  0  0  0  0  0  0  0
   10.8080    5.5994   23.8085 H   0  0  0  0  0  0  0  0  0  0  0  0
    8.4316    2.5829   25.7451 H   0  0  0  0  0  0  0  0  0  0  0  0
    6.9995    2.1161   24.7873 H   0  0  0  0  0  0  0  0  0  0  0  0
   10.1061    3.6465   24.9159 H   0  0  0  0  0  0  0  0  0  0  0  0
  1  2  1  0  0  0  0
  1  3  2  0  0  0  0
  2  4  2  0  0  0  0
  3 10  1  0  0  0  0
  4 11  1  0  0  0  0
  5  6  2  0  0  0  0
  5 12  1  0  0  0  0
  6 15  1  0  0  0  0
  7 13  1  0  0  0  0
  7 15  2  0  0  0  0
  8 10  2  0  0  0  0
  8 25  1  0  0  0  0
  9 14  1  0  0  0  0
  9 25  2  0  0  0  0
 10 11  1  0  0  0  0
 11 14  2  0  0  0  0
 12 13  2  0  0  0  0
 12 16  1  0  0  0  0
 13 22  1  6  0  0  0
 14 26  1  0  0  0  0
 15 32  1  0  0  0  0
 16 27  1  0  0  0  0
 16 29  2  0  0  0  0
 17 22  1  6  0  0  0
 17 26  1  0  0  0  0
 17 30  2  0  0  0  0
 18 24  1  0  0  0  0
 18 28  1  0  0  0  0
 18 31  2  0  0  0  0
 19 20  1  0  0  0  0
 19 22  1  1  0  0  0
 20 26  1  0  0  0  0
 21 22  1  1  0  0  0
 21 27  1  0  0  0  0
 23 28  1  0  0  0  0
 24 27  1  0  0  0  0
  1 33  1  0  0  0  0
  2 34  1  0  0  0  0
  3 35  1  0  0  0  0
  4 36  1  0  0  0  0
  5 37  1  0  0  0  0
  6 38  1  0  0  0  0
  7 39  1  0  0  0  0
  8 40  1  0  0  0  0
  9 41  1  0  0  0  0
 19 42  1  0  0  0  0
 19 43  1  0  0  0  0
 20 44  1  0  0  0  0
 20 45  1  0  0  0  0
 21 46  1  0  0  0  0
 21 47  1  0  0  0  0
 23 48  1  0  0  0  0
 23 49  1  0  0  0  0
 23 50  1  0  0  0  0
 24 51  1  0  0  0  0
 24 52  1  0  0  0  0
 28 53  1  0  0  0  0
M  END
> <compound>
LUO-POS-9931618f-2

> <compound_smiles>
CNC(=O)CN1C[C@@]2(CCN(C2=O)c3cncc4c3cccc4)c5cc(ccc5C1=O)Cl

> <enantiomer_smiles>
CNC(=O)CN1C[C@@]2(CCN(C2=O)c3cncc4c3cccc4)c5cc(ccc5C1=O)Cl

> <scaffold>
tetrahydroisoquinoline-5spiro-isoquinoline

> <clash_score>
0

> <docking_score>
-9.953394889831543

> <overlap_score>
0.9898138046264648

> <MMFF_internal_energy>
163.35680559970945

> <docked_smiles>
CNC(=O)CN1C[C@]2(CCN(C2=O)c3cncc4c3cccc4)c5cc(ccc5C1=O)Cl

$$$$
MAT-POS-50a80394-4_3
  -OEChem-12272114573D

 58 62  0     1  0  0  0  0  0999 V2000
    3.3432    2.6279   20.4411 C   0  0  0  0  0  0  0  0  0  0  0  0
    3.8960    1.9291   21.5050 C   0  0  0  0  0  0  0  0  0  0  0  0
    3.7865    2.4205   19.1660 C   0  0  0  0  0  0  0  0  0  0  0  0
    4.8973    1.0233   21.2988 C   0  0  0  0  0  0  0  0  0  0  0  0
   12.0765    0.0316   24.1541 C   0  0  0  0  0  0  0  0  0  0  0  0
   12.9132   -0.6032   23.2569 C   0  0  0  0  0  0  0  0  0  0  0  0
   10.9991   -1.4331   22.0443 C   0  0  0  0  0  0  0  0  0  0  0  0
    5.3278    1.2339   17.6066 C   0  0  0  0  0  0  0  0  0  0  0  0
    6.8438   -0.2892   18.3752 C   0  0  0  0  0  0  0  0  0  0  0  0
    4.8226    1.4906   18.9054 C   0  0  0  0  0  0  0  0  0  0  0  0
    5.3982    0.7733   19.9948 C   0  0  0  0  0  0  0  0  0  0  0  0
   10.7040   -0.0625   23.9898 C   0  0  0  0  0  0  0  0  0  0  0  0
   10.1406   -0.7765   22.9250 C   0  0  0  0  0  0  0  0  0  0  0  0
    6.4440   -0.1472   19.6979 C   0  0  0  0  0  0  0  0  0  0  0  0
   12.3683   -1.3298   22.2234 C   0  0  0  0  0  0  0  0  0  0  0  0
    8.2490    0.0169   21.4271 C   0  0  0  0  0  0  0  0  0  0  0  0
    6.8037    2.5965   24.9622 C   0  0  0  0  0  0  0  0  0  0  0  0
    9.9479    0.5589   24.9534 C   0  0  0  0  0  0  0  0  0  0  0  0
    6.9866   -1.9366   21.3580 C   0  0  0  0  0  0  0  0  0  0  0  0
    7.8721   -0.1194   23.8831 C   0  0  0  0  0  0  0  0  0  0  0  0
    8.0140   -2.1541   22.4331 C   0  0  2  0  0  0  0  0  0  0  0  0
    8.6238   -0.7606   22.6929 C   0  0  3  0  0  0  0  0  0  0  0  0
    8.9794   -3.2907   22.0769 C   0  0  0  0  0  0  0  0  0  0  0  0
    6.5615    4.5744   23.4902 C   0  0  0  0  0  0  0  0  0  0  0  0
    7.8595    1.7112   25.5752 C   0  0  0  0  0  0  0  0  0  0  0  0
    6.3062    0.3769   17.3421 N   0  0  0  0  0  0  0  0  0  0  0  0
    7.2292   -0.6897   20.7790 N   0  0  0  0  0  0  0  0  0  0  0  0
    7.3662    3.5980   24.1852 N   0  0  0  0  0  0  0  0  0  0  0  0
    8.6609    1.0133   24.4995 N   0  3  2  0  0  0  0  0  0  0  0  0
    8.8273    1.0393   21.0736 O   0  0  0  0  0  0  0  0  0  0  0  0
    5.5997    2.4325   25.1407 O   0  0  0  0  0  0  0  0  0  0  0  0
   13.4276   -2.1462   21.1127 Cl  0  0  0  0  0  0  0  0  0  0  0  0
    2.5432    3.3510   20.6369 H   0  0  0  0  0  0  0  0  0  0  0  0
    3.5174    2.1137   22.5168 H   0  0  0  0  0  0  0  0  0  0  0  0
    3.3409    2.9743   18.3364 H   0  0  0  0  0  0  0  0  0  0  0  0
    5.3118    0.4895   22.1572 H   0  0  0  0  0  0  0  0  0  0  0  0
   12.5030    0.5945   24.9759 H   0  0  0  0  0  0  0  0  0  0  0  0
   13.9913   -0.5220   23.3825 H   0  0  0  0  0  0  0  0  0  0  0  0
   10.6065   -2.0229   21.2292 H   0  0  0  0  0  0  0  0  0  0  0  0
    4.9141    1.7511   16.7474 H   0  0  0  0  0  0  0  0  0  0  0  0
    7.6445   -0.9764   18.1043 H   0  0  0  0  0  0  0  0  0  0  0  0
    9.7627   -0.1179   25.8290 H   0  0  0  0  0  0  0  0  0  0  0  0
   10.4567    1.4675   25.3699 H   0  0  0  0  0  0  0  0  0  0  0  0
    7.0367   -2.7204   20.5618 H   0  0  0  0  0  0  0  0  0  0  0  0
    5.9493   -1.9848   21.7743 H   0  0  0  0  0  0  0  0  0  0  0  0
    6.8965    0.2867   23.5848 H   0  0  0  0  0  0  0  0  0  0  0  0
    7.6923   -0.8433   24.6922 H   0  0  0  0  0  0  0  0  0  0  0  0
    7.4732   -2.4994   23.3360 H   0  0  0  0  0  0  0  0  0  0  0  0
    9.5548   -3.0187   21.1913 H   0  0  0  0  0  0  0  0  0  0  0  0
    8.4231   -4.2053   21.8683 H   0  0  0  0  0  0  0  0  0  0  0  0
    9.6687   -3.4777   22.9012 H   0  0  0  0  0  0  0  0  0  0  0  0
    6.3417    4.2132   22.4747 H   0  0  0  0  0  0  0  0  0  0  0  0
    5.6193    4.7285   24.0364 H   0  0  0  0  0  0  0  0  0  0  0  0
    7.1104    5.5258   23.4300 H   0  0  0  0  0  0  0  0  0  0  0  0
    7.3970    0.9288   26.1833 H   0  0  0  0  0  0  0  0  0  0  0  0
    8.5501    2.3054   26.1800 H   0  0  0  0  0  0  0  0  0  0  0  0
    8.3772    3.6702   24.1143 H   0  0  0  0  0  0  0  0  0  0  0  0
    8.7993    1.7244   23.7628 H   0  0  0  0  0  0  0  0  0  0  0  0
  1  2  1  0  0  0  0
  1  3  2  0  0  0  0
  2  4  2  0  0  0  0
  3 10  1  0  0  0  0
  4 11  1  0  0  0  0
  5  6  1  0  0  0  0
  5 12  2  0  0  0  0
  6 15  2  0  0  0  0
  7 13  2  0  0  0  0
  7 15  1  0  0  0  0
  8 10  2  0  0  0  0
  8 26  1  0  0  0  0
  9 14  1  0  0  0  0
  9 26  2  0  0  0  0
 10 11  1  0  0  0  0
 11 14  2  0  0  0  0
 12 13  1  0  0  0  0
 12 18  1  0  0  0  0
 13 22  1  0  0  0  0
 14 27  1  0  0  0  0
 15 32  1  0  0  0  0
 16 22  1  0  0  0  0
 16 27  1  0  0  0  0
 16 30  2  0  0  0  0
 17 25  1  0  0  0  0
 17 28  1  0  0  0  0
 17 31  2  0  0  0  0
 18 29  1  0  0  0  0
 19 21  1  0  0  0  0
 19 27  1  0  0  0  0
 20 22  1  0  0  0  0
 20 29  1  0  0  0  0
 21 22  1  0  0  0  0
 21 23  1  1  0  0  0
 24 28  1  0  0  0  0
 25 29  1  6  0  0  0
  1 33  1  0  0  0  0
  2 34  1  0  0  0  0
  3 35  1  0  0  0  0
  4 36  1  0  0  0  0
  5 37  1  0  0  0  0
  6 38  1  0  0  0  0
  7 39  1  0  0  0  0
  8 40  1  0  0  0  0
  9 41  1  0  0  0  0
 18 42  1  0  0  0  0
 18 43  1  0  0  0  0
 19 44  1  0  0  0  0
 19 45  1  0  0  0  0
 20 46  1  0  0  0  0
 20 47  1  0  0  0  0
 21 48  1  0  0  0  0
 23 49  1  0  0  0  0
 23 50  1  0  0  0  0
 23 51  1  0  0  0  0
 24 52  1  0  0  0  0
 24 53  1  0  0  0  0
 24 54  1  0  0  0  0
 25 55  1  0  0  0  0
 25 56  1  0  0  0  0
 28 57  1  0  0  0  0
 29 58  1  0  0  0  0
M  CHG  1  29   1
M  END
> <compound>
MAT-POS-50a80394-4

> <compound_smiles>
CC1CN(C(=O)C12CN(Cc3c2cc(cc3)Cl)CC(=O)NC)c4cncc5c4cccc5

> <enantiomer_smiles>
C[C@@H]1CN(C(=O)C12C[N@](Cc3c2cc(cc3)Cl)CC(=O)NC)c4cncc5c4cccc5

> <scaffold>
tetrahydroisoquinoline-5spiro-isoquinoline

> <clash_score>
0

> <docking_score>
-8.412538528442383

> <overlap_score>
0.9851412773132324

> <MMFF_internal_energy>
187.83269262897113

> <docked_smiles>
C[C@@H]1CN(C(=O)[C@@]12C[N@H+](Cc3c2cc(cc3)Cl)CC(=O)NC)c4cncc5c4cccc5

$$$$
LUO-POS-9931618f-1_1
  -OEChem-12272114573D

 53 57  0     1  0  0  0  0  0999 V2000
    3.3432    2.6279   20.4411 C   0  0  0  0  0  0  0  0  0  0  0  0
    3.8960    1.9291   21.5050 C   0  0  0  0  0  0  0  0  0  0  0  0
    3.7865    2.4205   19.1660 C   0  0  0  0  0  0  0  0  0  0  0  0
    4.8973    1.0233   21.2988 C   0  0  0  0  0  0  0  0  0  0  0  0
   12.0765    0.0316   24.1541 C   0  0  0  0  0  0  0  0  0  0  0  0
   12.9132   -0.6032   23.2569 C   0  0  0  0  0  0  0  0  0  0  0  0
   10.9991   -1.4331   22.0443 C   0  0  0  0  0  0  0  0  0  0  0  0
    5.3278    1.2339   17.6066 C   0  0  0  0  0  0  0  0  0  0  0  0
    6.8438   -0.2892   18.3752 C   0  0  0  0  0  0  0  0  0  0  0  0
    4.8226    1.4906   18.9054 C   0  0  0  0  0  0  0  0  0  0  0  0
    5.3982    0.7733   19.9948 C   0  0  0  0  0  0  0  0  0  0  0  0
   10.7040   -0.0625   23.9898 C   0  0  0  0  0  0  0  0  0  0  0  0
   10.1406   -0.7765   22.9250 C   0  0  0  0  0  0  0  0  0  0  0  0
    6.4440   -0.1472   19.6979 C   0  0  0  0  0  0  0  0  0  0  0  0
   12.3683   -1.3298   22.2234 C   0  0  0  0  0  0  0  0  0  0  0  0
    9.9479    0.5589   24.9534 C   0  0  0  0  0  0  0  0  0  0  0  0
    8.2490    0.0169   21.4271 C   0  0  0  0  0  0  0  0  0  0  0  0
    8.4681    3.2130   23.6913 C   0  0  0  0  0  0  0  0  0  0  0  0
    8.0140   -2.1541   22.4331 C   0  0  0  0  0  0  0  0  0  0  0  0
    6.9866   -1.9366   21.3580 C   0  0  0  0  0  0  0  0  0  0  0  0
    7.8721   -0.1194   23.8831 C   0  0  0  0  0  0  0  0  0  0  0  0
    8.6238   -0.7606   22.6929 C   0  0  1  0  0  0  0  0  0  0  0  0
   10.2257    4.9007   23.1656 C   0  0  0  0  0  0  0  0  0  0  0  0
    8.0921    2.2235   24.7646 C   0  0  0  0  0  0  0  0  0  0  0  0
    6.3062    0.3769   17.3421 N   0  0  0  0  0  0  0  0  0  0  0  0
    7.2292   -0.6897   20.7790 N   0  0  0  0  0  0  0  0  0  0  0  0
    8.6609    1.0133   24.4995 N   0  0  0  0  0  0  0  0  0  0  0  0
    9.6325    3.8941   24.0162 N   0  0  0  0  0  0  0  0  0  0  0  0
   10.3214    0.7301   26.1092 O   0  0  0  0  0  0  0  0  0  0  0  0
    8.8192    1.0413   21.0783 O   0  0  0  0  0  0  0  0  0  0  0  0
    7.8139    3.3779   22.6651 O   0  0  0  0  0  0  0  0  0  0  0  0
   13.4275   -2.1467   21.1136 Cl  0  0  0  0  0  0  0  0  0  0  0  0
    2.5432    3.3510   20.6369 H   0  0  0  0  0  0  0  0  0  0  0  0
    3.5174    2.1137   22.5168 H   0  0  0  0  0  0  0  0  0  0  0  0
    3.3409    2.9743   18.3364 H   0  0  0  0  0  0  0  0  0  0  0  0
    5.3118    0.4895   22.1572 H   0  0  0  0  0  0  0  0  0  0  0  0
   12.5172    0.5961   24.9720 H   0  0  0  0  0  0  0  0  0  0  0  0
   13.9905   -0.5226   23.3828 H   0  0  0  0  0  0  0  0  0  0  0  0
   10.6129   -2.0250   21.2273 H   0  0  0  0  0  0  0  0  0  0  0  0
    4.9141    1.7511   16.7474 H   0  0  0  0  0  0  0  0  0  0  0  0
    7.6445   -0.9764   18.1043 H   0  0  0  0  0  0  0  0  0  0  0  0
    7.5112   -2.5276   23.3392 H   0  0  0  0  0  0  0  0  0  0  0  0
    8.7578   -2.9102   22.1437 H   0  0  0  0  0  0  0  0  0  0  0  0
    7.0588   -2.7254   20.5721 H   0  0  0  0  0  0  0  0  0  0  0  0
    5.9512   -1.9962   21.7710 H   0  0  0  0  0  0  0  0  0  0  0  0
    6.9201    0.3181   23.5738 H   0  0  0  0  0  0  0  0  0  0  0  0
    7.6662   -0.8543   24.6623 H   0  0  0  0  0  0  0  0  0  0  0  0
   10.9370    4.4247   22.4746 H   0  0  0  0  0  0  0  0  0  0  0  0
    9.4362    5.4050   22.5891 H   0  0  0  0  0  0  0  0  0  0  0  0
   10.7553    5.6389   23.7858 H   0  0  0  0  0  0  0  0  0  0  0  0
    8.4387    2.5854   25.7371 H   0  0  0  0  0  0  0  0  0  0  0  0
    7.0056    2.0995   24.7905 H   0  0  0  0  0  0  0  0  0  0  0  0
   10.0907    3.6743   24.8958 H   0  0  0  0  0  0  0  0  0  0  0  0
  1  2  1  0  0  0  0
  1  3  2  0  0  0  0
  2  4  2  0  0  0  0
  3 10  1  0  0  0  0
  4 11  1  0  0  0  0
  5  6  2  0  0  0  0
  5 12  1  0  0  0  0
  6 15  1  0  0  0  0
  7 13  1  0  0  0  0
  7 15  2  0  0  0  0
  8 10  2  0  0  0  0
  8 25  1  0  0  0  0
  9 14  1  0  0  0  0
  9 25  2  0  0  0  0
 10 11  1  0  0  0  0
 11 14  2  0  0  0  0
 12 13  2  0  0  0  0
 12 16  1  0  0  0  0
 13 22  1  1  0  0  0
 14 26  1  0  0  0  0
 15 32  1  0  0  0  0
 16 27  1  0  0  0  0
 16 29  2  0  0  0  0
 17 22  1  1  0  0  0
 17 26  1  0  0  0  0
 17 30  2  0  0  0  0
 18 24  1  0  0  0  0
 18 28  1  0  0  0  0
 18 31  2  0  0  0  0
 19 20  1  0  0  0  0
 19 22  1  6  0  0  0
 20 26  1  0  0  0  0
 21 22  1  6  0  0  0
 21 27  1  0  0  0  0
 23 28  1  0  0  0  0
 24 27  1  0  0  0  0
  1 33  1  0  0  0  0
  2 34  1  0  0  0  0
  3 35  1  0  0  0  0
  4 36  1  0  0  0  0
  5 37  1  0  0  0  0
  6 38  1  0  0  0  0
  7 39  1  0  0  0  0
  8 40  1  0  0  0  0
  9 41  1  0  0  0  0
 19 42  1  0  0  0  0
 19 43  1  0  0  0  0
 20 44  1  0  0  0  0
 20 45  1  0  0  0  0
 21 46  1  0  0  0  0
 21 47  1  0  0  0  0
 23 48  1  0  0  0  0
 23 49  1  0  0  0  0
 23 50  1  0  0  0  0
 24 51  1  0  0  0  0
 24 52  1  0  0  0  0
 28 53  1  0  0  0  0
M  END
> <compound>
LUO-POS-9931618f-1

> <compound_smiles>
CNC(=O)CN1C[C@]2(CCN(C2=O)c3cncc4c3cccc4)c5cc(ccc5C1=O)Cl

> <enantiomer_smiles>
CNC(=O)CN1C[C@]2(CCN(C2=O)c3cncc4c3cccc4)c5cc(ccc5C1=O)Cl

> <scaffold>
tetrahydroisoquinoline-5spiro-isoquinoline

> <clash_score>
0

> <docking_score>
-9.915138244628906

> <overlap_score>
0.9898566603660583

> <MMFF_internal_energy>
164.2265122204839

> <docked_smiles>
CNC(=O)CN1C[C@]2(CCN(C2=O)c3cncc4c3cccc4)c5cc(ccc5C1=O)Cl

$$$$
MAT-POS-50a80394-4_1
  -OEChem-12272114573D

 58 62  0     1  0  0  0  0  0999 V2000
    3.3432    2.6279   20.4411 C   0  0  0  0  0  0  0  0  0  0  0  0
    3.8960    1.9291   21.5050 C   0  0  0  0  0  0  0  0  0  0  0  0
    3.7865    2.4205   19.1660 C   0  0  0  0  0  0  0  0  0  0  0  0
    4.8973    1.0233   21.2988 C   0  0  0  0  0  0  0  0  0  0  0  0
   12.0765    0.0316   24.1541 C   0  0  0  0  0  0  0  0  0  0  0  0
   12.9132   -0.6032   23.2569 C   0  0  0  0  0  0  0  0  0  0  0  0
   10.9991   -1.4331   22.0443 C   0  0  0  0  0  0  0  0  0  0  0  0
    5.3278    1.2339   17.6066 C   0  0  0  0  0  0  0  0  0  0  0  0
    6.8438   -0.2892   18.3752 C   0  0  0  0  0  0  0  0  0  0  0  0
    4.8226    1.4906   18.9054 C   0  0  0  0  0  0  0  0  0  0  0  0
    5.3982    0.7733   19.9948 C   0  0  0  0  0  0  0  0  0  0  0  0
   10.7040   -0.0625   23.9898 C   0  0  0  0  0  0  0  0  0  0  0  0
   10.1406   -0.7765   22.9250 C   0  0  0  0  0  0  0  0  0  0  0  0
    6.4440   -0.1472   19.6979 C   0  0  0  0  0  0  0  0  0  0  0  0
   12.3683   -1.3298   22.2234 C   0  0  0  0  0  0  0  0  0  0  0  0
    8.2490    0.0169   21.4271 C   0  0  0  0  0  0  0  0  0  0  0  0
    7.4333    2.9425   23.5097 C   0  0  0  0  0  0  0  0  0  0  0  0
    9.9479    0.5589   24.9534 C   0  0  0  0  0  0  0  0  0  0  0  0
    6.9866   -1.9366   21.3580 C   0  0  0  0  0  0  0  0  0  0  0  0
    7.8721   -0.1194   23.8831 C   0  0  0  0  0  0  0  0  0  0  0  0
    8.0140   -2.1541   22.4331 C   0  0  2  0  0  0  0  0  0  0  0  0
    8.6238   -0.7606   22.6929 C   0  0  3  0  0  0  0  0  0  0  0  0
    9.0007   -3.2768   22.0776 C   0  0  0  0  0  0  0  0  0  0  0  0
    6.3840    4.9359   22.4787 C   0  0  0  0  0  0  0  0  0  0  0  0
    8.7440    2.1982   23.5582 C   0  0  0  0  0  0  0  0  0  0  0  0
    6.3062    0.3769   17.3421 N   0  0  0  0  0  0  0  0  0  0  0  0
    7.2292   -0.6897   20.7790 N   0  0  0  0  0  0  0  0  0  0  0  0
    7.5107    4.0587   22.6903 N   0  0  0  0  0  0  0  0  0  0  0  0
    8.6609    1.0133   24.4995 N   0  3  1  0  0  0  0  0  0  0  0  0
    8.8276    1.0399   21.0744 O   0  0  0  0  0  0  0  0  0  0  0  0
    6.4327    2.5865   24.1264 O   0  0  0  0  0  0  0  0  0  0  0  0
   13.4291   -2.1467   21.1148 Cl  0  0  0  0  0  0  0  0  0  0  0  0
    2.5432    3.3510   20.6369 H   0  0  0  0  0  0  0  0  0  0  0  0
    3.5174    2.1137   22.5168 H   0  0  0  0  0  0  0  0  0  0  0  0
    3.3409    2.9743   18.3364 H   0  0  0  0  0  0  0  0  0  0  0  0
    5.3118    0.4895   22.1572 H   0  0  0  0  0  0  0  0  0  0  0  0
   12.5034    0.5852   24.9820 H   0  0  0  0  0  0  0  0  0  0  0  0
   13.9918   -0.5304   23.3885 H   0  0  0  0  0  0  0  0  0  0  0  0
   10.6195   -2.0349   21.2358 H   0  0  0  0  0  0  0  0  0  0  0  0
    4.9141    1.7511   16.7474 H   0  0  0  0  0  0  0  0  0  0  0  0
    7.6445   -0.9764   18.1043 H   0  0  0  0  0  0  0  0  0  0  0  0
    9.7357   -0.1163   25.8246 H   0  0  0  0  0  0  0  0  0  0  0  0
   10.4772    1.4526   25.3809 H   0  0  0  0  0  0  0  0  0  0  0  0
    7.0346   -2.7228   20.5623 H   0  0  0  0  0  0  0  0  0  0  0  0
    5.9483   -1.9858   21.7748 H   0  0  0  0  0  0  0  0  0  0  0  0
    6.9031    0.3192   23.5884 H   0  0  0  0  0  0  0  0  0  0  0  0
    7.6829   -0.8448   24.6936 H   0  0  0  0  0  0  0  0  0  0  0  0
    7.4669   -2.5181   23.3220 H   0  0  0  0  0  0  0  0  0  0  0  0
    9.5830   -2.9855   21.2036 H   0  0  0  0  0  0  0  0  0  0  0  0
    8.4587   -4.1950   21.8519 H   0  0  0  0  0  0  0  0  0  0  0  0
    9.6797   -3.4618   22.9099 H   0  0  0  0  0  0  0  0  0  0  0  0
    5.8177    4.6001   21.5974 H   0  0  0  0  0  0  0  0  0  0  0  0
    5.7313    4.9142   23.3638 H   0  0  0  0  0  0  0  0  0  0  0  0
    6.7442    5.9620   22.3138 H   0  0  0  0  0  0  0  0  0  0  0  0
    9.5369    2.8443   23.9451 H   0  0  0  0  0  0  0  0  0  0  0  0
    9.0071    1.8258   22.5642 H   0  0  0  0  0  0  0  0  0  0  0  0
    8.3906    4.2889   22.2375 H   0  0  0  0  0  0  0  0  0  0  0  0
    8.1081    1.3539   25.3123 H   0  0  0  0  0  0  0  0  0  0  0  0
  1  2  1  0  0  0  0
  1  3  2  0  0  0  0
  2  4  2  0  0  0  0
  3 10  1  0  0  0  0
  4 11  1  0  0  0  0
  5  6  1  0  0  0  0
  5 12  2  0  0  0  0
  6 15  2  0  0  0  0
  7 13  2  0  0  0  0
  7 15  1  0  0  0  0
  8 10  2  0  0  0  0
  8 26  1  0  0  0  0
  9 14  1  0  0  0  0
  9 26  2  0  0  0  0
 10 11  1  0  0  0  0
 11 14  2  0  0  0  0
 12 13  1  0  0  0  0
 12 18  1  0  0  0  0
 13 22  1  0  0  0  0
 14 27  1  0  0  0  0
 15 32  1  0  0  0  0
 16 22  1  0  0  0  0
 16 27  1  0  0  0  0
 16 30  2  0  0  0  0
 17 25  1  0  0  0  0
 17 28  1  0  0  0  0
 17 31  2  0  0  0  0
 18 29  1  0  0  0  0
 19 21  1  0  0  0  0
 19 27  1  0  0  0  0
 20 22  1  0  0  0  0
 20 29  1  0  0  0  0
 21 22  1  0  0  0  0
 21 23  1  1  0  0  0
 24 28  1  0  0  0  0
 25 29  1  1  0  0  0
  1 33  1  0  0  0  0
  2 34  1  0  0  0  0
  3 35  1  0  0  0  0
  4 36  1  0  0  0  0
  5 37  1  0  0  0  0
  6 38  1  0  0  0  0
  7 39  1  0  0  0  0
  8 40  1  0  0  0  0
  9 41  1  0  0  0  0
 18 42  1  0  0  0  0
 18 43  1  0  0  0  0
 19 44  1  0  0  0  0
 19 45  1  0  0  0  0
 20 46  1  0  0  0  0
 20 47  1  0  0  0  0
 21 48  1  0  0  0  0
 23 49  1  0  0  0  0
 23 50  1  0  0  0  0
 23 51  1  0  0  0  0
 24 52  1  0  0  0  0
 24 53  1  0  0  0  0
 24 54  1  0  0  0  0
 25 55  1  0  0  0  0
 25 56  1  0  0  0  0
 28 57  1  0  0  0  0
 29 58  1  0  0  0  0
M  CHG  1  29   1
M  END
> <compound>
MAT-POS-50a80394-4

> <compound_smiles>
CC1CN(C(=O)C12CN(Cc3c2cc(cc3)Cl)CC(=O)NC)c4cncc5c4cccc5

> <enantiomer_smiles>
C[C@@H]1CN(C(=O)C12C[N@@](Cc3c2cc(cc3)Cl)CC(=O)NC)c4cncc5c4cccc5

> <scaffold>
tetrahydroisoquinoline-5spiro-isoquinoline

> <clash_score>
0

> <docking_score>
-8.911907196044922

> <overlap_score>
0.9875524640083313

> <MMFF_internal_energy>
202.19938872302058

> <docked_smiles>
C[C@@H]1CN(C(=O)[C@@]12C[N@@H+](Cc3c2cc(cc3)Cl)CC(=O)NC)c4cncc5c4cccc5

$$$$
MAT-POS-50a80394-4_2
  -OEChem-12272114573D

 58 62  0     1  0  0  0  0  0999 V2000
    3.3432    2.6279   20.4411 C   0  0  0  0  0  0  0  0  0  0  0  0
    3.8960    1.9291   21.5050 C   0  0  0  0  0  0  0  0  0  0  0  0
    3.7865    2.4205   19.1660 C   0  0  0  0  0  0  0  0  0  0  0  0
    4.8973    1.0233   21.2988 C   0  0  0  0  0  0  0  0  0  0  0  0
   12.0765    0.0316   24.1541 C   0  0  0  0  0  0  0  0  0  0  0  0
   12.9132   -0.6032   23.2569 C   0  0  0  0  0  0  0  0  0  0  0  0
   10.9991   -1.4331   22.0443 C   0  0  0  0  0  0  0  0  0  0  0  0
    5.3278    1.2339   17.6066 C   0  0  0  0  0  0  0  0  0  0  0  0
    6.8438   -0.2892   18.3752 C   0  0  0  0  0  0  0  0  0  0  0  0
    4.8226    1.4906   18.9054 C   0  0  0  0  0  0  0  0  0  0  0  0
    5.3982    0.7733   19.9948 C   0  0  0  0  0  0  0  0  0  0  0  0
   10.7040   -0.0625   23.9898 C   0  0  0  0  0  0  0  0  0  0  0  0
   10.1406   -0.7765   22.9250 C   0  0  0  0  0  0  0  0  0  0  0  0
    6.4440   -0.1472   19.6979 C   0  0  0  0  0  0  0  0  0  0  0  0
   12.3683   -1.3298   22.2234 C   0  0  0  0  0  0  0  0  0  0  0  0
    8.2490    0.0169   21.4271 C   0  0  0  0  0  0  0  0  0  0  0  0
    7.3616    2.6430   23.1451 C   0  0  0  0  0  0  0  0  0  0  0  0
    9.9479    0.5589   24.9534 C   0  0  0  0  0  0  0  0  0  0  0  0
    6.9866   -1.9366   21.3580 C   0  0  0  0  0  0  0  0  0  0  0  0
    7.8721   -0.1194   23.8831 C   0  0  0  0  0  0  0  0  0  0  0  0
    8.0140   -2.1541   22.4331 C   0  0  1  0  0  0  0  0  0  0  0  0
    8.6238   -0.7606   22.6929 C   0  0  3  0  0  0  0  0  0  0  0  0
    7.4296   -2.9034   23.6364 C   0  0  0  0  0  0  0  0  0  0  0  0
    6.2243    4.3451   21.7499 C   0  0  0  0  0  0  0  0  0  0  0  0
    8.7408    2.1946   23.5588 C   0  0  0  0  0  0  0  0  0  0  0  0
    6.3062    0.3769   17.3421 N   0  0  0  0  0  0  0  0  0  0  0  0
    7.2292   -0.6897   20.7790 N   0  0  0  0  0  0  0  0  0  0  0  0
    7.4152    3.7316   22.2876 N   0  0  0  0  0  0  0  0  0  0  0  0
    8.6609    1.0133   24.4995 N   0  3  1  0  0  0  0  0  0  0  0  0
    8.7526    1.0953   21.1303 O   0  0  0  0  0  0  0  0  0  0  0  0
    6.3313    2.0969   23.5305 O   0  0  0  0  0  0  0  0  0  0  0  0
   13.4277   -2.1374   21.1064 Cl  0  0  0  0  0  0  0  0  0  0  0  0
    2.5432    3.3510   20.6369 H   0  0  0  0  0  0  0  0  0  0  0  0
    3.5174    2.1137   22.5168 H   0  0  0  0  0  0  0  0  0  0  0  0
    3.3409    2.9743   18.3364 H   0  0  0  0  0  0  0  0  0  0  0  0
    5.3118    0.4895   22.1572 H   0  0  0  0  0  0  0  0  0  0  0  0
   12.5029    0.5960   24.9750 H   0  0  0  0  0  0  0  0  0  0  0  0
   13.9913   -0.5164   23.3787 H   0  0  0  0  0  0  0  0  0  0  0  0
   10.6068   -2.0161   21.2243 H   0  0  0  0  0  0  0  0  0  0  0  0
    4.9141    1.7511   16.7474 H   0  0  0  0  0  0  0  0  0  0  0  0
    7.6445   -0.9764   18.1043 H   0  0  0  0  0  0  0  0  0  0  0  0
    9.7375   -0.1148   25.8249 H   0  0  0  0  0  0  0  0  0  0  0  0
   10.4772    1.4534   25.3761 H   0  0  0  0  0  0  0  0  0  0  0  0
    7.0297   -2.7469   20.5879 H   0  0  0  0  0  0  0  0  0  0  0  0
    5.9441   -1.9496   21.7626 H   0  0  0  0  0  0  0  0  0  0  0  0
    6.9074    0.3116   23.5753 H   0  0  0  0  0  0  0  0  0  0  0  0
    7.6662   -0.8455   24.6807 H   0  0  0  0  0  0  0  0  0  0  0  0
    8.7865   -2.8279   22.0143 H   0  0  0  0  0  0  0  0  0  0  0  0
    6.6570   -2.2943   24.1074 H   0  0  0  0  0  0  0  0  0  0  0  0
    8.2088   -3.1130   24.3702 H   0  0  0  0  0  0  0  0  0  0  0  0
    6.9866   -3.8464   23.3136 H   0  0  0  0  0  0  0  0  0  0  0  0
    5.9733    3.8774   20.7864 H   0  0  0  0  0  0  0  0  0  0  0  0
    5.3903    4.2054   22.4534 H   0  0  0  0  0  0  0  0  0  0  0  0
    6.4015    5.4204   21.6002 H   0  0  0  0  0  0  0  0  0  0  0  0
    9.2672    3.0025   24.0746 H   0  0  0  0  0  0  0  0  0  0  0  0
    9.3112    1.8642   22.6863 H   0  0  0  0  0  0  0  0  0  0  0  0
    8.3156    4.1328   22.0415 H   0  0  0  0  0  0  0  0  0  0  0  0
    8.1217    1.3533   25.3127 H   0  0  0  0  0  0  0  0  0  0  0  0
  1  2  1  0  0  0  0
  1  3  2  0  0  0  0
  2  4  2  0  0  0  0
  3 10  1  0  0  0  0
  4 11  1  0  0  0  0
  5  6  1  0  0  0  0
  5 12  2  0  0  0  0
  6 15  2  0  0  0  0
  7 13  2  0  0  0  0
  7 15  1  0  0  0  0
  8 10  2  0  0  0  0
  8 26  1  0  0  0  0
  9 14  1  0  0  0  0
  9 26  2  0  0  0  0
 10 11  1  0  0  0  0
 11 14  2  0  0  0  0
 12 13  1  0  0  0  0
 12 18  1  0  0  0  0
 13 22  1  0  0  0  0
 14 27  1  0  0  0  0
 15 32  1  0  0  0  0
 16 22  1  0  0  0  0
 16 27  1  0  0  0  0
 16 30  2  0  0  0  0
 17 25  1  0  0  0  0
 17 28  1  0  0  0  0
 17 31  2  0  0  0  0
 18 29  1  0  0  0  0
 19 21  1  0  0  0  0
 19 27  1  0  0  0  0
 20 22  1  0  0  0  0
 20 29  1  0  0  0  0
 21 22  1  0  0  0  0
 21 23  1  6  0  0  0
 24 28  1  0  0  0  0
 25 29  1  1  0  0  0
  1 33  1  0  0  0  0
  2 34  1  0  0  0  0
  3 35  1  0  0  0  0
  4 36  1  0  0  0  0
  5 37  1  0  0  0  0
  6 38  1  0  0  0  0
  7 39  1  0  0  0  0
  8 40  1  0  0  0  0
  9 41  1  0  0  0  0
 18 42  1  0  0  0  0
 18 43  1  0  0  0  0
 19 44  1  0  0  0  0
 19 45  1  0  0  0  0
 20 46  1  0  0  0  0
 20 47  1  0  0  0  0
 21 48  1  0  0  0  0
 23 49  1  0  0  0  0
 23 50  1  0  0  0  0
 23 51  1  0  0  0  0
 24 52  1  0  0  0  0
 24 53  1  0  0  0  0
 24 54  1  0  0  0  0
 25 55  1  0  0  0  0
 25 56  1  0  0  0  0
 28 57  1  0  0  0  0
 29 58  1  0  0  0  0
M  CHG  1  29   1
M  END
> <compound>
MAT-POS-50a80394-4

> <compound_smiles>
CC1CN(C(=O)C12CN(Cc3c2cc(cc3)Cl)CC(=O)NC)c4cncc5c4cccc5

> <enantiomer_smiles>
C[C@H]1CN(C(=O)C12C[N@@](Cc3c2cc(cc3)Cl)CC(=O)NC)c4cncc5c4cccc5

> <scaffold>
tetrahydroisoquinoline-5spiro-isoquinoline

> <clash_score>
0

> <docking_score>
-10.196977615356445

> <overlap_score>
0.9895539283752441

> <MMFF_internal_energy>
179.9913671422937

> <docked_smiles>
C[C@H]1CN(C(=O)[C@@]12C[N@@H+](Cc3c2cc(cc3)Cl)CC(=O)NC)c4cncc5c4cccc5

$$$$
LUO-POS-b4dec3be-1_1
  -OEChem-12272114573D

 55 59  0     1  0  0  0  0  0999 V2000
    3.7865    2.4205   19.1660 C   0  0  0  0  0  0  0  0  0  0  0  0
   12.0765    0.0316   24.1541 C   0  0  0  0  0  0  0  0  0  0  0  0
    3.3432    2.6279   20.4411 C   0  0  0  0  0  0  0  0  0  0  0  0
   12.9132   -0.6032   23.2569 C   0  0  0  0  0  0  0  0  0  0  0  0
    4.8973    1.0233   21.2988 C   0  0  0  0  0  0  0  0  0  0  0  0
   10.9991   -1.4331   22.0443 C   0  0  0  0  0  0  0  0  0  0  0  0
    5.3278    1.2339   17.6066 C   0  0  0  0  0  0  0  0  0  0  0  0
    6.8438   -0.2892   18.3752 C   0  0  0  0  0  0  0  0  0  0  0  0
    4.8226    1.4906   18.9054 C   0  0  0  0  0  0  0  0  0  0  0  0
    5.3982    0.7733   19.9948 C   0  0  0  0  0  0  0  0  0  0  0  0
   10.7040   -0.0625   23.9898 C   0  0  0  0  0  0  0  0  0  0  0  0
   10.1406   -0.7765   22.9250 C   0  0  0  0  0  0  0  0  0  0  0  0
    6.4440   -0.1472   19.6979 C   0  0  0  0  0  0  0  0  0  0  0  0
    3.8960    1.9291   21.5050 C   0  0  0  0  0  0  0  0  0  0  0  0
   12.3683   -1.3298   22.2234 C   0  0  0  0  0  0  0  0  0  0  0  0
    8.2490    0.0169   21.4271 C   0  0  0  0  0  0  0  0  0  0  0  0
    7.4305    2.9384   23.5075 C   0  0  0  0  0  0  0  0  0  0  0  0
    9.9479    0.5589   24.9534 C   0  0  0  0  0  0  0  0  0  0  0  0
    8.0140   -2.1541   22.4331 C   0  0  0  0  0  0  0  0  0  0  0  0
    6.9866   -1.9366   21.3580 C   0  0  0  0  0  0  0  0  0  0  0  0
    7.8721   -0.1194   23.8831 C   0  0  0  0  0  0  0  0  0  0  0  0
    8.6238   -0.7606   22.6929 C   0  0  1  0  0  0  0  0  0  0  0  0
    6.3783    4.9289   22.4740 C   0  0  0  0  0  0  0  0  0  0  0  0
    8.7427    2.1970   23.5584 C   0  0  0  0  0  0  0  0  0  0  0  0
    6.3062    0.3769   17.3421 N   0  0  0  0  0  0  0  0  0  0  0  0
    7.2292   -0.6897   20.7790 N   0  0  0  0  0  0  0  0  0  0  0  0
    7.5067    4.0544   22.6877 N   0  0  0  0  0  0  0  0  0  0  0  0
    8.6609    1.0133   24.4995 N   0  3  2  0  0  0  0  0  0  0  0  0
    8.8277    1.0405   21.0794 O   0  0  0  0  0  0  0  0  0  0  0  0
    6.4297    2.5804   24.1227 O   0  0  0  0  0  0  0  0  0  0  0  0
    3.4314    2.1555   22.7514 F   0  0  0  0  0  0  0  0  0  0  0  0
   13.4283   -2.1462   21.1136 Cl  0  0  0  0  0  0  0  0  0  0  0  0
    3.3399    2.9734   18.3365 H   0  0  0  0  0  0  0  0  0  0  0  0
   12.5030    0.5858   24.9823 H   0  0  0  0  0  0  0  0  0  0  0  0
    2.5430    3.3508   20.6361 H   0  0  0  0  0  0  0  0  0  0  0  0
   13.9914   -0.5292   23.3877 H   0  0  0  0  0  0  0  0  0  0  0  0
    5.3103    0.4884   22.1571 H   0  0  0  0  0  0  0  0  0  0  0  0
   10.6123   -2.0320   21.2348 H   0  0  0  0  0  0  0  0  0  0  0  0
    4.9138    1.7515   16.7475 H   0  0  0  0  0  0  0  0  0  0  0  0
    7.6445   -0.9762   18.1044 H   0  0  0  0  0  0  0  0  0  0  0  0
    9.7363   -0.1174   25.8246 H   0  0  0  0  0  0  0  0  0  0  0  0
   10.4778    1.4523   25.3824 H   0  0  0  0  0  0  0  0  0  0  0  0
    7.5127   -2.5729   23.3177 H   0  0  0  0  0  0  0  0  0  0  0  0
    8.7695   -2.8989   22.1381 H   0  0  0  0  0  0  0  0  0  0  0  0
    7.0569   -2.7254   20.5714 H   0  0  0  0  0  0  0  0  0  0  0  0
    5.9507   -1.9958   21.7714 H   0  0  0  0  0  0  0  0  0  0  0  0
    6.9003    0.3068   23.5771 H   0  0  0  0  0  0  0  0  0  0  0  0
    7.6830   -0.8453   24.6921 H   0  0  0  0  0  0  0  0  0  0  0  0
    5.8142    4.5916   21.5919 H   0  0  0  0  0  0  0  0  0  0  0  0
    5.7242    4.9061   23.3581 H   0  0  0  0  0  0  0  0  0  0  0  0
    6.7365    5.9558   22.3092 H   0  0  0  0  0  0  0  0  0  0  0  0
    9.5336    2.8451   23.9463 H   0  0  0  0  0  0  0  0  0  0  0  0
    9.0083    1.8248   22.5650 H   0  0  0  0  0  0  0  0  0  0  0  0
    8.3868    4.2863   22.2362 H   0  0  0  0  0  0  0  0  0  0  0  0
    8.1069    1.3498   25.3118 H   0  0  0  0  0  0  0  0  0  0  0  0
  1  3  2  0  0  0  0
  1  9  1  0  0  0  0
  2  4  2  0  0  0  0
  2 11  1  0  0  0  0
  3 14  1  0  0  0  0
  4 15  1  0  0  0  0
  5 10  1  0  0  0  0
  5 14  2  0  0  0  0
  6 12  1  0  0  0  0
  6 15  2  0  0  0  0
  7  9  2  0  0  0  0
  7 25  1  0  0  0  0
  8 13  1  0  0  0  0
  8 25  2  0  0  0  0
  9 10  1  0  0  0  0
 10 13  2  0  0  0  0
 11 12  2  0  0  0  0
 11 18  1  0  0  0  0
 12 22  1  1  0  0  0
 13 26  1  0  0  0  0
 14 31  1  0  0  0  0
 15 32  1  0  0  0  0
 16 22  1  6  0  0  0
 16 26  1  0  0  0  0
 16 29  2  0  0  0  0
 17 24  1  0  0  0  0
 17 27  1  0  0  0  0
 17 30  2  0  0  0  0
 18 28  1  0  0  0  0
 19 20  1  0  0  0  0
 19 22  1  6  0  0  0
 20 26  1  0  0  0  0
 21 22  1  1  0  0  0
 21 28  1  0  0  0  0
 23 27  1  0  0  0  0
 24 28  1  1  0  0  0
  1 33  1  0  0  0  0
  2 34  1  0  0  0  0
  3 35  1  0  0  0  0
  4 36  1  0  0  0  0
  5 37  1  0  0  0  0
  6 38  1  0  0  0  0
  7 39  1  0  0  0  0
  8 40  1  0  0  0  0
 18 41  1  0  0  0  0
 18 42  1  0  0  0  0
 19 43  1  0  0  0  0
 19 44  1  0  0  0  0
 20 45  1  0  0  0  0
 20 46  1  0  0  0  0
 21 47  1  0  0  0  0
 21 48  1  0  0  0  0
 23 49  1  0  0  0  0
 23 50  1  0  0  0  0
 23 51  1  0  0  0  0
 24 52  1  0  0  0  0
 24 53  1  0  0  0  0
 27 54  1  0  0  0  0
 28 55  1  0  0  0  0
M  CHG  1  28   1
M  END
> <compound>
LUO-POS-b4dec3be-1

> <compound_smiles>
CNC(=O)CN1Cc2ccc(cc2[C@@]3(C1)CCN(C3=O)c4cncc5c4cc(cc5)F)Cl

> <enantiomer_smiles>
CNC(=O)C[N@@]1Cc2ccc(cc2[C@@]3(C1)CCN(C3=O)c4cncc5c4cc(cc5)F)Cl

> <scaffold>
tetrahydroisoquinoline-5spiro-isoquinoline

> <clash_score>
0

> <docking_score>
-9.517887115478516

> <overlap_score>
0.9882545471191406

> <MMFF_internal_energy>
163.031538331588

> <docked_smiles>
CNC(=O)C[N@@H+]1Cc2ccc(cc2[C@]3(C1)CCN(C3=O)c4cncc5c4cc(cc5)F)Cl

$$$$
MAT-POS-50a80394-4_4
  -OEChem-12272114573D

 58 62  0     1  0  0  0  0  0999 V2000
    3.3432    2.6279   20.4411 C   0  0  0  0  0  0  0  0  0  0  0  0
    3.8960    1.9291   21.5050 C   0  0  0  0  0  0  0  0  0  0  0  0
    3.7865    2.4205   19.1660 C   0  0  0  0  0  0  0  0  0  0  0  0
    4.8973    1.0233   21.2988 C   0  0  0  0  0  0  0  0  0  0  0  0
   12.0765    0.0316   24.1541 C   0  0  0  0  0  0  0  0  0  0  0  0
   12.9132   -0.6032   23.2569 C   0  0  0  0  0  0  0  0  0  0  0  0
   10.9991   -1.4331   22.0443 C   0  0  0  0  0  0  0  0  0  0  0  0
    5.3278    1.2339   17.6066 C   0  0  0  0  0  0  0  0  0  0  0  0
    6.8438   -0.2892   18.3752 C   0  0  0  0  0  0  0  0  0  0  0  0
    4.8226    1.4906   18.9054 C   0  0  0  0  0  0  0  0  0  0  0  0
    5.3982    0.7733   19.9948 C   0  0  0  0  0  0  0  0  0  0  0  0
   10.7040   -0.0625   23.9898 C   0  0  0  0  0  0  0  0  0  0  0  0
   10.1406   -0.7765   22.9250 C   0  0  0  0  0  0  0  0  0  0  0  0
    6.4440   -0.1472   19.6979 C   0  0  0  0  0  0  0  0  0  0  0  0
   12.3683   -1.3298   22.2234 C   0  0  0  0  0  0  0  0  0  0  0  0
    8.2490    0.0169   21.4271 C   0  0  0  0  0  0  0  0  0  0  0  0
    6.7896    2.5939   24.9849 C   0  0  0  0  0  0  0  0  0  0  0  0
    9.9479    0.5589   24.9534 C   0  0  0  0  0  0  0  0  0  0  0  0
    6.9866   -1.9366   21.3580 C   0  0  0  0  0  0  0  0  0  0  0  0
    7.8721   -0.1194   23.8831 C   0  0  0  0  0  0  0  0  0  0  0  0
    8.0140   -2.1541   22.4331 C   0  0  1  0  0  0  0  0  0  0  0  0
    8.6238   -0.7606   22.6929 C   0  0  3  0  0  0  0  0  0  0  0  0
    7.4343   -2.8852   23.6536 C   0  0  0  0  0  0  0  0  0  0  0  0
    6.5129    4.5813   23.5318 C   0  0  0  0  0  0  0  0  0  0  0  0
    7.8603    1.7137   25.5791 C   0  0  0  0  0  0  0  0  0  0  0  0
    6.3062    0.3769   17.3421 N   0  0  0  0  0  0  0  0  0  0  0  0
    7.2292   -0.6897   20.7790 N   0  0  0  0  0  0  0  0  0  0  0  0
    7.3342    3.6070   24.2100 N   0  0  0  0  0  0  0  0  0  0  0  0
    8.6609    1.0133   24.4995 N   0  3  2  0  0  0  0  0  0  0  0  0
    8.7541    1.0950   21.1300 O   0  0  0  0  0  0  0  0  0  0  0  0
    5.5893    2.4172   25.1752 O   0  0  0  0  0  0  0  0  0  0  0  0
   13.4290   -2.1352   21.1063 Cl  0  0  0  0  0  0  0  0  0  0  0  0
    2.5432    3.3510   20.6369 H   0  0  0  0  0  0  0  0  0  0  0  0
    3.5174    2.1137   22.5168 H   0  0  0  0  0  0  0  0  0  0  0  0
    3.3409    2.9743   18.3364 H   0  0  0  0  0  0  0  0  0  0  0  0
    5.3118    0.4895   22.1572 H   0  0  0  0  0  0  0  0  0  0  0  0
   12.5037    0.6050   24.9685 H   0  0  0  0  0  0  0  0  0  0  0  0
   13.9917   -0.5076   23.3724 H   0  0  0  0  0  0  0  0  0  0  0  0
   10.6200   -2.0055   21.2143 H   0  0  0  0  0  0  0  0  0  0  0  0
    4.9141    1.7511   16.7474 H   0  0  0  0  0  0  0  0  0  0  0  0
    7.6445   -0.9764   18.1043 H   0  0  0  0  0  0  0  0  0  0  0  0
    9.7639   -0.1157   25.8326 H   0  0  0  0  0  0  0  0  0  0  0  0
   10.4569    1.4697   25.3678 H   0  0  0  0  0  0  0  0  0  0  0  0
    7.0295   -2.7476   20.5870 H   0  0  0  0  0  0  0  0  0  0  0  0
    5.9426   -1.9527   21.7621 H   0  0  0  0  0  0  0  0  0  0  0  0
    6.9005    0.3073   23.5788 H   0  0  0  0  0  0  0  0  0  0  0  0
    7.6858   -0.8331   24.7040 H   0  0  0  0  0  0  0  0  0  0  0  0
    8.7685   -2.8434   22.0120 H   0  0  0  0  0  0  0  0  0  0  0  0
    6.6778   -2.2593   24.1270 H   0  0  0  0  0  0  0  0  0  0  0  0
    8.2213   -3.0974   24.3774 H   0  0  0  0  0  0  0  0  0  0  0  0
    6.9744   -3.8242   23.3454 H   0  0  0  0  0  0  0  0  0  0  0  0
    6.2852    4.2262   22.5159 H   0  0  0  0  0  0  0  0  0  0  0  0
    5.5753    4.7221   24.0896 H   0  0  0  0  0  0  0  0  0  0  0  0
    7.0521    5.5382   23.4734 H   0  0  0  0  0  0  0  0  0  0  0  0
    7.4118    0.9221   26.1858 H   0  0  0  0  0  0  0  0  0  0  0  0
    8.5520    2.3095   26.1811 H   0  0  0  0  0  0  0  0  0  0  0  0
    8.3436    3.6893   24.1287 H   0  0  0  0  0  0  0  0  0  0  0  0
    8.7897    1.7273   23.7542 H   0  0  0  0  0  0  0  0  0  0  0  0
  1  2  1  0  0  0  0
  1  3  2  0  0  0  0
  2  4  2  0  0  0  0
  3 10  1  0  0  0  0
  4 11  1  0  0  0  0
  5  6  1  0  0  0  0
  5 12  2  0  0  0  0
  6 15  2  0  0  0  0
  7 13  2  0  0  0  0
  7 15  1  0  0  0  0
  8 10  2  0  0  0  0
  8 26  1  0  0  0  0
  9 14  1  0  0  0  0
  9 26  2  0  0  0  0
 10 11  1  0  0  0  0
 11 14  2  0  0  0  0
 12 13  1  0  0  0  0
 12 18  1  0  0  0  0
 13 22  1  0  0  0  0
 14 27  1  0  0  0  0
 15 32  1  0  0  0  0
 16 22  1  0  0  0  0
 16 27  1  0  0  0  0
 16 30  2  0  0  0  0
 17 25  1  0  0  0  0
 17 28  1  0  0  0  0
 17 31  2  0  0  0  0
 18 29  1  0  0  0  0
 19 21  1  0  0  0  0
 19 27  1  0  0  0  0
 20 22  1  0  0  0  0
 20 29  1  0  0  0  0
 21 22  1  0  0  0  0
 21 23  1  6  0  0  0
 24 28  1  0  0  0  0
 25 29  1  6  0  0  0
  1 33  1  0  0  0  0
  2 34  1  0  0  0  0
  3 35  1  0  0  0  0
  4 36  1  0  0  0  0
  5 37  1  0  0  0  0
  6 38  1  0  0  0  0
  7 39  1  0  0  0  0
  8 40  1  0  0  0  0
  9 41  1  0  0  0  0
 18 42  1  0  0  0  0
 18 43  1  0  0  0  0
 19 44  1  0  0  0  0
 19 45  1  0  0  0  0
 20 46  1  0  0  0  0
 20 47  1  0  0  0  0
 21 48  1  0  0  0  0
 23 49  1  0  0  0  0
 23 50  1  0  0  0  0
 23 51  1  0  0  0  0
 24 52  1  0  0  0  0
 24 53  1  0  0  0  0
 24 54  1  0  0  0  0
 25 55  1  0  0  0  0
 25 56  1  0  0  0  0
 28 57  1  0  0  0  0
 29 58  1  0  0  0  0
M  CHG  1  29   1
M  END
> <compound>
MAT-POS-50a80394-4

> <compound_smiles>
CC1CN(C(=O)C12CN(Cc3c2cc(cc3)Cl)CC(=O)NC)c4cncc5c4cccc5

> <enantiomer_smiles>
C[C@H]1CN(C(=O)C12C[N@](Cc3c2cc(cc3)Cl)CC(=O)NC)c4cncc5c4cccc5

> <scaffold>
tetrahydroisoquinoline-5spiro-isoquinoline

> <clash_score>
0

> <docking_score>
-9.420029640197754

> <overlap_score>
0.9845588803291321

> <MMFF_internal_energy>
165.7620721730428

> <docked_smiles>
C[C@H]1CN(C(=O)[C@@]12C[N@H+](Cc3c2cc(cc3)Cl)CC(=O)NC)c4cncc5c4cccc5

$$$$
MAT-POS-96396902-1_2
  -OEChem-12272114573D

 53 58  0     1  0  0  0  0  0999 V2000
    3.3432    2.6279   20.4411 C   0  0  0  0  0  0  0  0  0  0  0  0
    3.8960    1.9291   21.5050 C   0  0  0  0  0  0  0  0  0  0  0  0
    3.7865    2.4205   19.1660 C   0  0  0  0  0  0  0  0  0  0  0  0
    4.8973    1.0233   21.2988 C   0  0  0  0  0  0  0  0  0  0  0  0
   12.0765    0.0316   24.1541 C   0  0  0  0  0  0  0  0  0  0  0  0
   12.9132   -0.6032   23.2569 C   0  0  0  0  0  0  0  0  0  0  0  0
   10.9991   -1.4331   22.0443 C   0  0  0  0  0  0  0  0  0  0  0  0
    5.3278    1.2339   17.6066 C   0  0  0  0  0  0  0  0  0  0  0  0
    6.8438   -0.2892   18.3752 C   0  0  0  0  0  0  0  0  0  0  0  0
    5.3807    4.3814   24.3731 C   0  0  0  0  0  0  0  0  0  0  0  0
    4.8226    1.4906   18.9054 C   0  0  0  0  0  0  0  0  0  0  0  0
    5.3982    0.7733   19.9948 C   0  0  0  0  0  0  0  0  0  0  0  0
   10.7040   -0.0625   23.9898 C   0  0  0  0  0  0  0  0  0  0  0  0
   10.1406   -0.7765   22.9250 C   0  0  0  0  0  0  0  0  0  0  0  0
    6.4440   -0.1472   19.6979 C   0  0  0  0  0  0  0  0  0  0  0  0
   12.3683   -1.3298   22.2234 C   0  0  0  0  0  0  0  0  0  0  0  0
    6.7907    2.5966   25.0003 C   0  0  0  0  0  0  0  0  0  0  0  0
    8.2490    0.0169   21.4271 C   0  0  0  0  0  0  0  0  0  0  0  0
    9.9479    0.5589   24.9534 C   0  0  0  0  0  0  0  0  0  0  0  0
    8.0140   -2.1541   22.4331 C   0  0  0  0  0  0  0  0  0  0  0  0
    6.9866   -1.9366   21.3580 C   0  0  0  0  0  0  0  0  0  0  0  0
    7.8721   -0.1194   23.8831 C   0  0  0  0  0  0  0  0  0  0  0  0
    8.6238   -0.7606   22.6929 C   0  0  3  0  0  0  0  0  0  0  0  0
    7.8596    1.7144   25.5749 C   0  0  0  0  0  0  0  0  0  0  0  0
    6.3062    0.3769   17.3421 N   0  0  0  0  0  0  0  0  0  0  0  0
    4.9834    3.2398   23.8526 N   0  0  0  0  0  0  0  0  0  0  0  0
    5.8100    2.1928   24.2213 N   0  0  0  0  0  0  0  0  0  0  0  0
    7.2292   -0.6897   20.7790 N   0  0  0  0  0  0  0  0  0  0  0  0
    8.6609    1.0133   24.4995 N   0  3  2  0  0  0  0  0  0  0  0  0
    8.8286    1.0402   21.0803 O   0  0  0  0  0  0  0  0  0  0  0  0
    6.7880    4.2761   25.3479 S   0  0  0  0  0  0  0  0  0  0  0  0
   13.4270   -2.1443   21.1108 Cl  0  0  0  0  0  0  0  0  0  0  0  0
    2.5432    3.3510   20.6369 H   0  0  0  0  0  0  0  0  0  0  0  0
    3.5174    2.1137   22.5168 H   0  0  0  0  0  0  0  0  0  0  0  0
    3.3409    2.9743   18.3364 H   0  0  0  0  0  0  0  0  0  0  0  0
    5.3118    0.4895   22.1572 H   0  0  0  0  0  0  0  0  0  0  0  0
   12.5021    0.5962   24.9756 H   0  0  0  0  0  0  0  0  0  0  0  0
   13.9911   -0.5171   23.3786 H   0  0  0  0  0  0  0  0  0  0  0  0
   10.6045   -2.0170   21.2248 H   0  0  0  0  0  0  0  0  0  0  0  0
    4.9141    1.7511   16.7474 H   0  0  0  0  0  0  0  0  0  0  0  0
    7.6445   -0.9764   18.1043 H   0  0  0  0  0  0  0  0  0  0  0  0
    4.8618    5.3137   24.2005 H   0  0  0  0  0  0  0  0  0  0  0  0
    9.7608   -0.1211   25.8247 H   0  0  0  0  0  0  0  0  0  0  0  0
   10.4565    1.4661   25.3705 H   0  0  0  0  0  0  0  0  0  0  0  0
    7.5144   -2.5472   23.3327 H   0  0  0  0  0  0  0  0  0  0  0  0
    8.7599   -2.9065   22.1418 H   0  0  0  0  0  0  0  0  0  0  0  0
    7.0582   -2.7244   20.5716 H   0  0  0  0  0  0  0  0  0  0  0  0
    5.9516   -1.9958   21.7713 H   0  0  0  0  0  0  0  0  0  0  0  0
    6.8955    0.2929   23.5757 H   0  0  0  0  0  0  0  0  0  0  0  0
    7.6774   -0.8491   24.6905 H   0  0  0  0  0  0  0  0  0  0  0  0
    8.5594    2.2898   26.1904 H   0  0  0  0  0  0  0  0  0  0  0  0
    7.4280    0.9296   26.2054 H   0  0  0  0  0  0  0  0  0  0  0  0
    8.7930    1.7233   23.7554 H   0  0  0  0  0  0  0  0  0  0  0  0
  1  2  1  0  0  0  0
  1  3  2  0  0  0  0
  2  4  2  0  0  0  0
  3 11  1  0  0  0  0
  4 12  1  0  0  0  0
  5  6  1  0  0  0  0
  5 13  2  0  0  0  0
  6 16  2  0  0  0  0
  7 14  2  0  0  0  0
  7 16  1  0  0  0  0
  8 11  2  0  0  0  0
  8 25  1  0  0  0  0
  9 15  1  0  0  0  0
  9 25  2  0  0  0  0
 10 26  2  0  0  0  0
 10 31  1  0  0  0  0
 11 12  1  0  0  0  0
 12 15  2  0  0  0  0
 13 14  1  0  0  0  0
 13 19  1  0  0  0  0
 14 23  1  0  0  0  0
 15 28  1  0  0  0  0
 16 32  1  0  0  0  0
 17 24  1  0  0  0  0
 17 27  2  0  0  0  0
 17 31  1  0  0  0  0
 18 23  1  0  0  0  0
 18 28  1  0  0  0  0
 18 30  2  0  0  0  0
 19 29  1  0  0  0  0
 20 21  1  0  0  0  0
 20 23  1  0  0  0  0
 21 28  1  0  0  0  0
 22 23  1  0  0  0  0
 22 29  1  0  0  0  0
 24 29  1  6  0  0  0
 26 27  1  0  0  0  0
  1 33  1  0  0  0  0
  2 34  1  0  0  0  0
  3 35  1  0  0  0  0
  4 36  1  0  0  0  0
  5 37  1  0  0  0  0
  6 38  1  0  0  0  0
  7 39  1  0  0  0  0
  8 40  1  0  0  0  0
  9 41  1  0  0  0  0
 10 42  1  0  0  0  0
 19 43  1  0  0  0  0
 19 44  1  0  0  0  0
 20 45  1  0  0  0  0
 20 46  1  0  0  0  0
 21 47  1  0  0  0  0
 21 48  1  0  0  0  0
 22 49  1  0  0  0  0
 22 50  1  0  0  0  0
 24 51  1  0  0  0  0
 24 52  1  0  0  0  0
 29 53  1  0  0  0  0
M  CHG  1  29   1
M  END
> <compound>
MAT-POS-96396902-1

> <compound_smiles>
c1ccc2c(c1)cncc2N3CCC4(C3=O)CN(Cc5c4cc(cc5)Cl)Cc6nncs6

> <enantiomer_smiles>
c1ccc2c(c1)cncc2N3CCC4(C3=O)C[N@](Cc5c4cc(cc5)Cl)Cc6nncs6

> <scaffold>
tetrahydroisoquinoline-5spiro-isoquinoline

> <clash_score>
0

> <docking_score>
-9.022786140441895

> <overlap_score>
0.9757267236709595

> <MMFF_internal_energy>
144.0998529078691

> <docked_smiles>
c1ccc2c(c1)cncc2N3CC[C@@]4(C3=O)C[N@H+](Cc5c4cc(cc5)Cl)Cc6nncs6

$$$$
MAT-POS-96396902-1_1
  -OEChem-12272114573D

 53 58  0     1  0  0  0  0  0999 V2000
    3.3432    2.6279   20.4411 C   0  0  0  0  0  0  0  0  0  0  0  0
    3.8960    1.9291   21.5050 C   0  0  0  0  0  0  0  0  0  0  0  0
    3.7865    2.4205   19.1660 C   0  0  0  0  0  0  0  0  0  0  0  0
    4.8973    1.0233   21.2988 C   0  0  0  0  0  0  0  0  0  0  0  0
   12.0765    0.0316   24.1541 C   0  0  0  0  0  0  0  0  0  0  0  0
   12.9132   -0.6032   23.2569 C   0  0  0  0  0  0  0  0  0  0  0  0
   10.9991   -1.4331   22.0443 C   0  0  0  0  0  0  0  0  0  0  0  0
    5.3278    1.2339   17.6066 C   0  0  0  0  0  0  0  0  0  0  0  0
    6.8438   -0.2892   18.3752 C   0  0  0  0  0  0  0  0  0  0  0  0
    9.5653    5.6641   24.9755 C   0  0  0  0  0  0  0  0  0  0  0  0
    4.8226    1.4906   18.9054 C   0  0  0  0  0  0  0  0  0  0  0  0
    5.3982    0.7733   19.9948 C   0  0  0  0  0  0  0  0  0  0  0  0
   10.7040   -0.0625   23.9898 C   0  0  0  0  0  0  0  0  0  0  0  0
   10.1406   -0.7765   22.9250 C   0  0  0  0  0  0  0  0  0  0  0  0
    6.4440   -0.1472   19.6979 C   0  0  0  0  0  0  0  0  0  0  0  0
   12.3683   -1.3298   22.2234 C   0  0  0  0  0  0  0  0  0  0  0  0
    8.9558    3.4901   24.2906 C   0  0  0  0  0  0  0  0  0  0  0  0
    8.2490    0.0169   21.4271 C   0  0  0  0  0  0  0  0  0  0  0  0
    9.9479    0.5589   24.9534 C   0  0  0  0  0  0  0  0  0  0  0  0
    8.0140   -2.1541   22.4331 C   0  0  0  0  0  0  0  0  0  0  0  0
    6.9866   -1.9366   21.3580 C   0  0  0  0  0  0  0  0  0  0  0  0
    7.8721   -0.1194   23.8831 C   0  0  0  0  0  0  0  0  0  0  0  0
    8.6238   -0.7606   22.6929 C   0  0  3  0  0  0  0  0  0  0  0  0
    8.7403    2.1972   23.5605 C   0  0  0  0  0  0  0  0  0  0  0  0
    6.3062    0.3769   17.3421 N   0  0  0  0  0  0  0  0  0  0  0  0
    8.8779    5.0348   25.9046 N   0  0  0  0  0  0  0  0  0  0  0  0
    8.5212    3.7592   25.5033 N   0  0  0  0  0  0  0  0  0  0  0  0
    7.2292   -0.6897   20.7790 N   0  0  0  0  0  0  0  0  0  0  0  0
    8.6609    1.0133   24.4995 N   0  3  1  0  0  0  0  0  0  0  0  0
    8.7573    1.0936   21.1337 O   0  0  0  0  0  0  0  0  0  0  0  0
    9.8312    4.7607   23.5419 S   0  0  0  0  0  0  0  0  0  0  0  0
   13.4273   -2.1424   21.1098 Cl  0  0  0  0  0  0  0  0  0  0  0  0
    2.5432    3.3510   20.6369 H   0  0  0  0  0  0  0  0  0  0  0  0
    3.5174    2.1137   22.5168 H   0  0  0  0  0  0  0  0  0  0  0  0
    3.3409    2.9743   18.3364 H   0  0  0  0  0  0  0  0  0  0  0  0
    5.3118    0.4895   22.1572 H   0  0  0  0  0  0  0  0  0  0  0  0
   12.5019    0.5946   24.9768 H   0  0  0  0  0  0  0  0  0  0  0  0
   13.9911   -0.5203   23.3811 H   0  0  0  0  0  0  0  0  0  0  0  0
   10.6042   -2.0222   21.2286 H   0  0  0  0  0  0  0  0  0  0  0  0
    4.9141    1.7511   16.7474 H   0  0  0  0  0  0  0  0  0  0  0  0
    7.6445   -0.9764   18.1043 H   0  0  0  0  0  0  0  0  0  0  0  0
    9.9339    6.6719   25.1040 H   0  0  0  0  0  0  0  0  0  0  0  0
    9.7388   -0.1131   25.8254 H   0  0  0  0  0  0  0  0  0  0  0  0
   10.4771    1.4544   25.3711 H   0  0  0  0  0  0  0  0  0  0  0  0
    7.5768   -2.6110   23.3318 H   0  0  0  0  0  0  0  0  0  0  0  0
    8.7734   -2.8622   22.0653 H   0  0  0  0  0  0  0  0  0  0  0  0
    7.0225   -2.7503   20.5949 H   0  0  0  0  0  0  0  0  0  0  0  0
    5.9552   -1.9477   21.7830 H   0  0  0  0  0  0  0  0  0  0  0  0
    6.8958    0.3004   23.5785 H   0  0  0  0  0  0  0  0  0  0  0  0
    7.6733   -0.8520   24.6844 H   0  0  0  0  0  0  0  0  0  0  0  0
    7.8148    2.2225   22.9753 H   0  0  0  0  0  0  0  0  0  0  0  0
    9.5656    1.9901   22.8708 H   0  0  0  0  0  0  0  0  0  0  0  0
    8.1123    1.3501   25.3127 H   0  0  0  0  0  0  0  0  0  0  0  0
  1  2  1  0  0  0  0
  1  3  2  0  0  0  0
  2  4  2  0  0  0  0
  3 11  1  0  0  0  0
  4 12  1  0  0  0  0
  5  6  1  0  0  0  0
  5 13  2  0  0  0  0
  6 16  2  0  0  0  0
  7 14  2  0  0  0  0
  7 16  1  0  0  0  0
  8 11  2  0  0  0  0
  8 25  1  0  0  0  0
  9 15  1  0  0  0  0
  9 25  2  0  0  0  0
 10 26  2  0  0  0  0
 10 31  1  0  0  0  0
 11 12  1  0  0  0  0
 12 15  2  0  0  0  0
 13 14  1  0  0  0  0
 13 19  1  0  0  0  0
 14 23  1  0  0  0  0
 15 28  1  0  0  0  0
 16 32  1  0  0  0  0
 17 24  1  0  0  0  0
 17 27  2  0  0  0  0
 17 31  1  0  0  0  0
 18 23  1  0  0  0  0
 18 28  1  0  0  0  0
 18 30  2  0  0  0  0
 19 29  1  0  0  0  0
 20 21  1  0  0  0  0
 20 23  1  0  0  0  0
 21 28  1  0  0  0  0
 22 23  1  0  0  0  0
 22 29  1  0  0  0  0
 24 29  1  1  0  0  0
 26 27  1  0  0  0  0
  1 33  1  0  0  0  0
  2 34  1  0  0  0  0
  3 35  1  0  0  0  0
  4 36  1  0  0  0  0
  5 37  1  0  0  0  0
  6 38  1  0  0  0  0
  7 39  1  0  0  0  0
  8 40  1  0  0  0  0
  9 41  1  0  0  0  0
 10 42  1  0  0  0  0
 19 43  1  0  0  0  0
 19 44  1  0  0  0  0
 20 45  1  0  0  0  0
 20 46  1  0  0  0  0
 21 47  1  0  0  0  0
 21 48  1  0  0  0  0
 22 49  1  0  0  0  0
 22 50  1  0  0  0  0
 24 51  1  0  0  0  0
 24 52  1  0  0  0  0
 29 53  1  0  0  0  0
M  CHG  1  29   1
M  END
> <compound>
MAT-POS-96396902-1

> <compound_smiles>
c1ccc2c(c1)cncc2N3CCC4(C3=O)CN(Cc5c4cc(cc5)Cl)Cc6nncs6

> <enantiomer_smiles>
c1ccc2c(c1)cncc2N3CCC4(C3=O)C[N@@](Cc5c4cc(cc5)Cl)Cc6nncs6

> <scaffold>
tetrahydroisoquinoline-5spiro-isoquinoline

> <clash_score>
0

> <docking_score>
-8.931402206420898

> <overlap_score>
0.9763150811195374

> <MMFF_internal_energy>
141.02618319451258

> <docked_smiles>
c1ccc2c(c1)cncc2N3CC[C@@]4(C3=O)C[N@@H+](Cc5c4cc(cc5)Cl)Cc6nncs6

$$$$
JOH-MSK-1f2dff76-1_1
  -OEChem-12272114573D

 54 58  0     1  0  0  0  0  0999 V2000
    3.3432    2.6279   20.4411 C   0  0  0  0  0  0  0  0  0  0  0  0
    3.8960    1.9291   21.5050 C   0  0  0  0  0  0  0  0  0  0  0  0
    3.7865    2.4205   19.1660 C   0  0  0  0  0  0  0  0  0  0  0  0
    4.8973    1.0233   21.2988 C   0  0  0  0  0  0  0  0  0  0  0  0
   12.0765    0.0316   24.1541 C   0  0  0  0  0  0  0  0  0  0  0  0
   12.9132   -0.6032   23.2569 C   0  0  0  0  0  0  0  0  0  0  0  0
   10.9991   -1.4331   22.0443 C   0  0  0  0  0  0  0  0  0  0  0  0
    5.3278    1.2339   17.6066 C   0  0  0  0  0  0  0  0  0  0  0  0
    6.8438   -0.2892   18.3752 C   0  0  0  0  0  0  0  0  0  0  0  0
    4.8226    1.4906   18.9054 C   0  0  0  0  0  0  0  0  0  0  0  0
    5.3982    0.7733   19.9948 C   0  0  0  0  0  0  0  0  0  0  0  0
   10.7040   -0.0625   23.9898 C   0  0  0  0  0  0  0  0  0  0  0  0
   10.1406   -0.7765   22.9250 C   0  0  0  0  0  0  0  0  0  0  0  0
    6.4440   -0.1472   19.6979 C   0  0  0  0  0  0  0  0  0  0  0  0
   12.3683   -1.3298   22.2234 C   0  0  0  0  0  0  0  0  0  0  0  0
    6.9866   -1.9366   21.3580 C   0  0  0  0  0  0  0  0  0  0  0  0
    8.2490    0.0169   21.4271 C   0  0  0  0  0  0  0  0  0  0  0  0
    7.3784    2.6660   23.1131 C   0  0  0  0  0  0  0  0  0  0  0  0
    9.9479    0.5589   24.9534 C   0  0  0  0  0  0  0  0  0  0  0  0
    8.0140   -2.1541   22.4331 C   0  0  0  0  0  0  0  0  0  0  0  0
    7.8721   -0.1194   23.8831 C   0  0  0  0  0  0  0  0  0  0  0  0
    8.6238   -0.7606   22.6929 C   0  0  1  0  0  0  0  0  0  0  0  0
    6.2996    4.4123   21.7260 C   0  0  0  0  0  0  0  0  0  0  0  0
    8.7398    2.1984   23.5627 C   0  0  0  0  0  0  0  0  0  0  0  0
    6.3062    0.3769   17.3421 N   0  0  0  0  0  0  0  0  0  0  0  0
    7.2292   -0.6897   20.7790 N   0  0  0  0  0  0  0  0  0  0  0  0
    7.4676    3.7773   22.2883 N   0  0  0  0  0  0  0  0  0  0  0  0
    8.6609    1.0133   24.4995 N   0  3  2  0  0  0  0  0  0  0  0  0
    6.1173   -2.7566   21.1102 O   0  0  0  0  0  0  0  0  0  0  0  0
    8.7900    1.0562   21.0974 O   0  0  0  0  0  0  0  0  0  0  0  0
    6.3325    2.1156   23.4467 O   0  0  0  0  0  0  0  0  0  0  0  0
   13.4283   -2.1446   21.1125 Cl  0  0  0  0  0  0  0  0  0  0  0  0
    2.5432    3.3510   20.6369 H   0  0  0  0  0  0  0  0  0  0  0  0
    3.5174    2.1137   22.5168 H   0  0  0  0  0  0  0  0  0  0  0  0
    3.3409    2.9743   18.3364 H   0  0  0  0  0  0  0  0  0  0  0  0
    5.3118    0.4895   22.1572 H   0  0  0  0  0  0  0  0  0  0  0  0
   12.5032    0.5918   24.9781 H   0  0  0  0  0  0  0  0  0  0  0  0
   13.9914   -0.5219   23.3826 H   0  0  0  0  0  0  0  0  0  0  0  0
   10.6136   -2.0222   21.2272 H   0  0  0  0  0  0  0  0  0  0  0  0
    4.9141    1.7511   16.7474 H   0  0  0  0  0  0  0  0  0  0  0  0
    7.6445   -0.9764   18.1043 H   0  0  0  0  0  0  0  0  0  0  0  0
    9.7370   -0.1148   25.8247 H   0  0  0  0  0  0  0  0  0  0  0  0
   10.4767    1.4538   25.3759 H   0  0  0  0  0  0  0  0  0  0  0  0
    7.5530   -2.5990   23.3180 H   0  0  0  0  0  0  0  0  0  0  0  0
    8.7495   -2.8591   22.0313 H   0  0  0  0  0  0  0  0  0  0  0  0
    6.9002    0.3015   23.5758 H   0  0  0  0  0  0  0  0  0  0  0  0
    7.6931   -0.8554   24.6832 H   0  0  0  0  0  0  0  0  0  0  0  0
    6.0806    3.9726   20.7418 H   0  0  0  0  0  0  0  0  0  0  0  0
    5.4405    4.2583   22.3956 H   0  0  0  0  0  0  0  0  0  0  0  0
    6.4873    5.4902   21.6124 H   0  0  0  0  0  0  0  0  0  0  0  0
    9.2516    2.9888   24.1188 H   0  0  0  0  0  0  0  0  0  0  0  0
    9.3392    1.8887   22.7021 H   0  0  0  0  0  0  0  0  0  0  0  0
    8.3782    4.1798   22.0853 H   0  0  0  0  0  0  0  0  0  0  0  0
    8.1085    1.3445   25.3129 H   0  0  0  0  0  0  0  0  0  0  0  0
  1  2  1  0  0  0  0
  1  3  2  0  0  0  0
  2  4  2  0  0  0  0
  3 10  1  0  0  0  0
  4 11  1  0  0  0  0
  5  6  2  0  0  0  0
  5 12  1  0  0  0  0
  6 15  1  0  0  0  0
  7 13  1  0  0  0  0
  7 15  2  0  0  0  0
  8 10  2  0  0  0  0
  8 25  1  0  0  0  0
  9 14  1  0  0  0  0
  9 25  2  0  0  0  0
 10 11  1  0  0  0  0
 11 14  2  0  0  0  0
 12 13  2  0  0  0  0
 12 19  1  0  0  0  0
 13 22  1  1  0  0  0
 14 26  1  0  0  0  0
 15 32  1  0  0  0  0
 16 20  1  0  0  0  0
 16 26  1  0  0  0  0
 16 29  2  0  0  0  0
 17 22  1  6  0  0  0
 17 26  1  0  0  0  0
 17 30  2  0  0  0  0
 18 24  1  0  0  0  0
 18 27  1  0  0  0  0
 18 31  2  0  0  0  0
 19 28  1  0  0  0  0
 20 22  1  6  0  0  0
 21 22  1  1  0  0  0
 21 28  1  0  0  0  0
 23 27  1  0  0  0  0
 24 28  1  1  0  0  0
  1 33  1  0  0  0  0
  2 34  1  0  0  0  0
  3 35  1  0  0  0  0
  4 36  1  0  0  0  0
  5 37  1  0  0  0  0
  6 38  1  0  0  0  0
  7 39  1  0  0  0  0
  8 40  1  0  0  0  0
  9 41  1  0  0  0  0
 19 42  1  0  0  0  0
 19 43  1  0  0  0  0
 20 44  1  0  0  0  0
 20 45  1  0  0  0  0
 21 46  1  0  0  0  0
 21 47  1  0  0  0  0
 23 48  1  0  0  0  0
 23 49  1  0  0  0  0
 23 50  1  0  0  0  0
 24 51  1  0  0  0  0
 24 52  1  0  0  0  0
 27 53  1  0  0  0  0
 28 54  1  0  0  0  0
M  CHG  1  28   1
M  END
> <compound>
JOH-MSK-1f2dff76-1

> <compound_smiles>
CNC(=O)CN1Cc2ccc(cc2[C@@]3(C1)CC(=O)N(C3=O)c4cncc5c4cccc5)Cl

> <enantiomer_smiles>
CNC(=O)C[N@@]1Cc2ccc(cc2[C@@]3(C1)CC(=O)N(C3=O)c4cncc5c4cccc5)Cl

> <scaffold>
tetrahydroisoquinoline-5spiro-isoquinoline

> <clash_score>
0

> <docking_score>
-9.903670310974121

> <overlap_score>
1.0

> <MMFF_internal_energy>
137.61364569745228

> <docked_smiles>
CNC(=O)C[N@@H+]1Cc2ccc(cc2[C@]3(C1)CC(=O)N(C3=O)c4cncc5c4cccc5)Cl

$$$$
LUO-POS-b4dec3be-2_2
  -OEChem-12272114573D

 55 59  0     1  0  0  0  0  0999 V2000
    3.7865    2.4205   19.1660 C   0  0  0  0  0  0  0  0  0  0  0  0
   12.0765    0.0316   24.1541 C   0  0  0  0  0  0  0  0  0  0  0  0
    3.3432    2.6279   20.4411 C   0  0  0  0  0  0  0  0  0  0  0  0
   12.9132   -0.6032   23.2569 C   0  0  0  0  0  0  0  0  0  0  0  0
    4.8973    1.0233   21.2988 C   0  0  0  0  0  0  0  0  0  0  0  0
   10.9991   -1.4331   22.0443 C   0  0  0  0  0  0  0  0  0  0  0  0
    5.3278    1.2339   17.6066 C   0  0  0  0  0  0  0  0  0  0  0  0
    6.8438   -0.2892   18.3752 C   0  0  0  0  0  0  0  0  0  0  0  0
    4.8226    1.4906   18.9054 C   0  0  0  0  0  0  0  0  0  0  0  0
    5.3982    0.7733   19.9948 C   0  0  0  0  0  0  0  0  0  0  0  0
   10.7040   -0.0625   23.9898 C   0  0  0  0  0  0  0  0  0  0  0  0
   10.1406   -0.7765   22.9250 C   0  0  0  0  0  0  0  0  0  0  0  0
    6.4440   -0.1472   19.6979 C   0  0  0  0  0  0  0  0  0  0  0  0
    3.8960    1.9291   21.5050 C   0  0  0  0  0  0  0  0  0  0  0  0
   12.3683   -1.3298   22.2234 C   0  0  0  0  0  0  0  0  0  0  0  0
    8.2490    0.0169   21.4271 C   0  0  0  0  0  0  0  0  0  0  0  0
    8.3033    3.1398   25.7821 C   0  0  0  0  0  0  0  0  0  0  0  0
    9.9479    0.5589   24.9534 C   0  0  0  0  0  0  0  0  0  0  0  0
    8.0140   -2.1541   22.4331 C   0  0  0  0  0  0  0  0  0  0  0  0
    6.9866   -1.9366   21.3580 C   0  0  0  0  0  0  0  0  0  0  0  0
    7.8721   -0.1194   23.8831 C   0  0  0  0  0  0  0  0  0  0  0  0
    8.6238   -0.7606   22.6929 C   0  0  2  0  0  0  0  0  0  0  0  0
    9.3391    5.0314   24.5629 C   0  0  0  0  0  0  0  0  0  0  0  0
    7.8597    1.7131   25.5776 C   0  0  0  0  0  0  0  0  0  0  0  0
    6.3062    0.3769   17.3421 N   0  0  0  0  0  0  0  0  0  0  0  0
    7.2292   -0.6897   20.7790 N   0  0  0  0  0  0  0  0  0  0  0  0
    8.8429    3.6772   24.6231 N   0  0  0  0  0  0  0  0  0  0  0  0
    8.6609    1.0133   24.4995 N   0  3  1  0  0  0  0  0  0  0  0  0
    8.7582    1.0927   21.1322 O   0  0  0  0  0  0  0  0  0  0  0  0
    8.1903    3.7343   26.8508 O   0  0  0  0  0  0  0  0  0  0  0  0
    3.4314    2.1555   22.7514 F   0  0  0  0  0  0  0  0  0  0  0  0
   13.4284   -2.1369   21.1069 Cl  0  0  0  0  0  0  0  0  0  0  0  0
    3.3399    2.9734   18.3365 H   0  0  0  0  0  0  0  0  0  0  0  0
   12.5034    0.6047   24.9690 H   0  0  0  0  0  0  0  0  0  0  0  0
    2.5430    3.3508   20.6361 H   0  0  0  0  0  0  0  0  0  0  0  0
   13.9915   -0.5095   23.3735 H   0  0  0  0  0  0  0  0  0  0  0  0
    5.3103    0.4884   22.1571 H   0  0  0  0  0  0  0  0  0  0  0  0
   10.6128   -2.0079   21.2173 H   0  0  0  0  0  0  0  0  0  0  0  0
    4.9138    1.7515   16.7475 H   0  0  0  0  0  0  0  0  0  0  0  0
    7.6445   -0.9762   18.1044 H   0  0  0  0  0  0  0  0  0  0  0  0
    9.7652   -0.1152   25.8338 H   0  0  0  0  0  0  0  0  0  0  0  0
   10.4580    1.4695   25.3677 H   0  0  0  0  0  0  0  0  0  0  0  0
    7.5756   -2.6002   23.3394 H   0  0  0  0  0  0  0  0  0  0  0  0
    8.7528   -2.8832   22.0699 H   0  0  0  0  0  0  0  0  0  0  0  0
    7.0224   -2.7508   20.5944 H   0  0  0  0  0  0  0  0  0  0  0  0
    5.9543   -1.9484   21.7823 H   0  0  0  0  0  0  0  0  0  0  0  0
    6.9009    0.3058   23.5780 H   0  0  0  0  0  0  0  0  0  0  0  0
    7.6838   -0.8462   24.6929 H   0  0  0  0  0  0  0  0  0  0  0  0
    8.5320    5.7040   24.2370 H   0  0  0  0  0  0  0  0  0  0  0  0
    9.6913    5.3374   25.5590 H   0  0  0  0  0  0  0  0  0  0  0  0
   10.1724    5.0850   23.8469 H   0  0  0  0  0  0  0  0  0  0  0  0
    6.8183    1.6799   25.2457 H   0  0  0  0  0  0  0  0  0  0  0  0
    7.9839    1.1399   26.5006 H   0  0  0  0  0  0  0  0  0  0  0  0
    8.9175    3.1006   23.7899 H   0  0  0  0  0  0  0  0  0  0  0  0
    8.7895    1.7237   23.7518 H   0  0  0  0  0  0  0  0  0  0  0  0
  1  3  2  0  0  0  0
  1  9  1  0  0  0  0
  2  4  2  0  0  0  0
  2 11  1  0  0  0  0
  3 14  1  0  0  0  0
  4 15  1  0  0  0  0
  5 10  1  0  0  0  0
  5 14  2  0  0  0  0
  6 12  1  0  0  0  0
  6 15  2  0  0  0  0
  7  9  2  0  0  0  0
  7 25  1  0  0  0  0
  8 13  1  0  0  0  0
  8 25  2  0  0  0  0
  9 10  1  0  0  0  0
 10 13  2  0  0  0  0
 11 12  2  0  0  0  0
 11 18  1  0  0  0  0
 12 22  1  6  0  0  0
 13 26  1  0  0  0  0
 14 31  1  0  0  0  0
 15 32  1  0  0  0  0
 16 22  1  1  0  0  0
 16 26  1  0  0  0  0
 16 29  2  0  0  0  0
 17 24  1  0  0  0  0
 17 27  1  0  0  0  0
 17 30  2  0  0  0  0
 18 28  1  0  0  0  0
 19 20  1  0  0  0  0
 19 22  1  1  0  0  0
 20 26  1  0  0  0  0
 21 22  1  6  0  0  0
 21 28  1  0  0  0  0
 23 27  1  0  0  0  0
 24 28  1  6  0  0  0
  1 33  1  0  0  0  0
  2 34  1  0  0  0  0
  3 35  1  0  0  0  0
  4 36  1  0  0  0  0
  5 37  1  0  0  0  0
  6 38  1  0  0  0  0
  7 39  1  0  0  0  0
  8 40  1  0  0  0  0
 18 41  1  0  0  0  0
 18 42  1  0  0  0  0
 19 43  1  0  0  0  0
 19 44  1  0  0  0  0
 20 45  1  0  0  0  0
 20 46  1  0  0  0  0
 21 47  1  0  0  0  0
 21 48  1  0  0  0  0
 23 49  1  0  0  0  0
 23 50  1  0  0  0  0
 23 51  1  0  0  0  0
 24 52  1  0  0  0  0
 24 53  1  0  0  0  0
 27 54  1  0  0  0  0
 28 55  1  0  0  0  0
M  CHG  1  28   1
M  END
> <compound>
LUO-POS-b4dec3be-2

> <compound_smiles>
CNC(=O)CN1Cc2ccc(cc2[C@]3(C1)CCN(C3=O)c4cncc5c4cc(cc5)F)Cl

> <enantiomer_smiles>
CNC(=O)C[N@]1Cc2ccc(cc2[C@]3(C1)CCN(C3=O)c4cncc5c4cc(cc5)F)Cl

> <scaffold>
tetrahydroisoquinoline-5spiro-isoquinoline

> <clash_score>
0

> <docking_score>
-9.075164794921875

> <overlap_score>
0.9860306978225708

> <MMFF_internal_energy>
166.74244431354788

> <docked_smiles>
CNC(=O)C[N@H+]1Cc2ccc(cc2[C@]3(C1)CCN(C3=O)c4cncc5c4cc(cc5)F)Cl

$$$$
LUO-POS-b4dec3be-1_2
  -OEChem-12272114573D

 55 59  0     1  0  0  0  0  0999 V2000
    3.7865    2.4205   19.1660 C   0  0  0  0  0  0  0  0  0  0  0  0
   12.0765    0.0316   24.1541 C   0  0  0  0  0  0  0  0  0  0  0  0
    3.3432    2.6279   20.4411 C   0  0  0  0  0  0  0  0  0  0  0  0
   12.9132   -0.6032   23.2569 C   0  0  0  0  0  0  0  0  0  0  0  0
    4.8973    1.0233   21.2988 C   0  0  0  0  0  0  0  0  0  0  0  0
   10.9991   -1.4331   22.0443 C   0  0  0  0  0  0  0  0  0  0  0  0
    5.3278    1.2339   17.6066 C   0  0  0  0  0  0  0  0  0  0  0  0
    6.8438   -0.2892   18.3752 C   0  0  0  0  0  0  0  0  0  0  0  0
    4.8226    1.4906   18.9054 C   0  0  0  0  0  0  0  0  0  0  0  0
    5.3982    0.7733   19.9948 C   0  0  0  0  0  0  0  0  0  0  0  0
   10.7040   -0.0625   23.9898 C   0  0  0  0  0  0  0  0  0  0  0  0
   10.1406   -0.7765   22.9250 C   0  0  0  0  0  0  0  0  0  0  0  0
    6.4440   -0.1472   19.6979 C   0  0  0  0  0  0  0  0  0  0  0  0
    3.8960    1.9291   21.5050 C   0  0  0  0  0  0  0  0  0  0  0  0
   12.3683   -1.3298   22.2234 C   0  0  0  0  0  0  0  0  0  0  0  0
    8.2490    0.0169   21.4271 C   0  0  0  0  0  0  0  0  0  0  0  0
    6.7834    2.6042   25.0051 C   0  0  0  0  0  0  0  0  0  0  0  0
    9.9479    0.5589   24.9534 C   0  0  0  0  0  0  0  0  0  0  0  0
    8.0140   -2.1541   22.4331 C   0  0  0  0  0  0  0  0  0  0  0  0
    6.9866   -1.9366   21.3580 C   0  0  0  0  0  0  0  0  0  0  0  0
    7.8721   -0.1194   23.8831 C   0  0  0  0  0  0  0  0  0  0  0  0
    8.6238   -0.7606   22.6929 C   0  0  1  0  0  0  0  0  0  0  0  0
    6.4901    4.5844   23.5456 C   0  0  0  0  0  0  0  0  0  0  0  0
    7.8595    1.7145   25.5748 C   0  0  0  0  0  0  0  0  0  0  0  0
    6.3062    0.3769   17.3421 N   0  0  0  0  0  0  0  0  0  0  0  0
    7.2292   -0.6897   20.7790 N   0  0  0  0  0  0  0  0  0  0  0  0
    7.3182    3.6044   24.2071 N   0  0  0  0  0  0  0  0  0  0  0  0
    8.6609    1.0133   24.4995 N   0  3  1  0  0  0  0  0  0  0  0  0
    8.8293    1.0397   21.0797 O   0  0  0  0  0  0  0  0  0  0  0  0
    5.5869    2.4446   25.2314 O   0  0  0  0  0  0  0  0  0  0  0  0
    3.4314    2.1555   22.7514 F   0  0  0  0  0  0  0  0  0  0  0  0
   13.4273   -2.1405   21.1084 Cl  0  0  0  0  0  0  0  0  0  0  0  0
    3.3399    2.9734   18.3365 H   0  0  0  0  0  0  0  0  0  0  0  0
   12.5023    0.5972   24.9751 H   0  0  0  0  0  0  0  0  0  0  0  0
    2.5430    3.3508   20.6361 H   0  0  0  0  0  0  0  0  0  0  0  0
   13.9911   -0.5176   23.3791 H   0  0  0  0  0  0  0  0  0  0  0  0
    5.3103    0.4884   22.1571 H   0  0  0  0  0  0  0  0  0  0  0  0
   10.6043   -2.0166   21.2246 H   0  0  0  0  0  0  0  0  0  0  0  0
    4.9138    1.7515   16.7475 H   0  0  0  0  0  0  0  0  0  0  0  0
    7.6445   -0.9762   18.1044 H   0  0  0  0  0  0  0  0  0  0  0  0
    9.7612   -0.1207   25.8251 H   0  0  0  0  0  0  0  0  0  0  0  0
   10.4567    1.4662   25.3699 H   0  0  0  0  0  0  0  0  0  0  0  0
    7.5143   -2.5477   23.3324 H   0  0  0  0  0  0  0  0  0  0  0  0
    8.7598   -2.9061   22.1415 H   0  0  0  0  0  0  0  0  0  0  0  0
    7.0580   -2.7243   20.5714 H   0  0  0  0  0  0  0  0  0  0  0  0
    5.9517   -1.9955   21.7714 H   0  0  0  0  0  0  0  0  0  0  0  0
    6.8956    0.2929   23.5756 H   0  0  0  0  0  0  0  0  0  0  0  0
    7.6762   -0.8487   24.6907 H   0  0  0  0  0  0  0  0  0  0  0  0
    6.2285    4.2251   22.5394 H   0  0  0  0  0  0  0  0  0  0  0  0
    5.5710    4.7416   24.1291 H   0  0  0  0  0  0  0  0  0  0  0  0
    7.0396    5.5339   23.4643 H   0  0  0  0  0  0  0  0  0  0  0  0
    7.4187    0.9332   26.2002 H   0  0  0  0  0  0  0  0  0  0  0  0
    8.5759    2.3055   26.1519 H   0  0  0  0  0  0  0  0  0  0  0  0
    8.3258    3.6730   24.0960 H   0  0  0  0  0  0  0  0  0  0  0  0
    8.7938    1.7232   23.7556 H   0  0  0  0  0  0  0  0  0  0  0  0
  1  3  2  0  0  0  0
  1  9  1  0  0  0  0
  2  4  2  0  0  0  0
  2 11  1  0  0  0  0
  3 14  1  0  0  0  0
  4 15  1  0  0  0  0
  5 10  1  0  0  0  0
  5 14  2  0  0  0  0
  6 12  1  0  0  0  0
  6 15  2  0  0  0  0
  7  9  2  0  0  0  0
  7 25  1  0  0  0  0
  8 13  1  0  0  0  0
  8 25  2  0  0  0  0
  9 10  1  0  0  0  0
 10 13  2  0  0  0  0
 11 12  2  0  0  0  0
 11 18  1  0  0  0  0
 12 22  1  1  0  0  0
 13 26  1  0  0  0  0
 14 31  1  0  0  0  0
 15 32  1  0  0  0  0
 16 22  1  6  0  0  0
 16 26  1  0  0  0  0
 16 29  2  0  0  0  0
 17 24  1  0  0  0  0
 17 27  1  0  0  0  0
 17 30  2  0  0  0  0
 18 28  1  0  0  0  0
 19 20  1  0  0  0  0
 19 22  1  6  0  0  0
 20 26  1  0  0  0  0
 21 22  1  1  0  0  0
 21 28  1  0  0  0  0
 23 27  1  0  0  0  0
 24 28  1  6  0  0  0
  1 33  1  0  0  0  0
  2 34  1  0  0  0  0
  3 35  1  0  0  0  0
  4 36  1  0  0  0  0
  5 37  1  0  0  0  0
  6 38  1  0  0  0  0
  7 39  1  0  0  0  0
  8 40  1  0  0  0  0
 18 41  1  0  0  0  0
 18 42  1  0  0  0  0
 19 43  1  0  0  0  0
 19 44  1  0  0  0  0
 20 45  1  0  0  0  0
 20 46  1  0  0  0  0
 21 47  1  0  0  0  0
 21 48  1  0  0  0  0
 23 49  1  0  0  0  0
 23 50  1  0  0  0  0
 23 51  1  0  0  0  0
 24 52  1  0  0  0  0
 24 53  1  0  0  0  0
 27 54  1  0  0  0  0
 28 55  1  0  0  0  0
M  CHG  1  28   1
M  END
> <compound>
LUO-POS-b4dec3be-1

> <compound_smiles>
CNC(=O)CN1Cc2ccc(cc2[C@@]3(C1)CCN(C3=O)c4cncc5c4cc(cc5)F)Cl

> <enantiomer_smiles>
CNC(=O)C[N@]1Cc2ccc(cc2[C@@]3(C1)CCN(C3=O)c4cncc5c4cc(cc5)F)Cl

> <scaffold>
tetrahydroisoquinoline-5spiro-isoquinoline

> <clash_score>
0

> <docking_score>
-9.050325393676758

> <overlap_score>
0.9856780171394348

> <MMFF_internal_energy>
153.0137734965138

> <docked_smiles>
CNC(=O)C[N@H+]1Cc2ccc(cc2[C@]3(C1)CCN(C3=O)c4cncc5c4cc(cc5)F)Cl

$$$$
LUO-POS-b4dec3be-2_1
  -OEChem-12272114573D

 55 59  0     1  0  0  0  0  0999 V2000
    3.7865    2.4205   19.1660 C   0  0  0  0  0  0  0  0  0  0  0  0
   12.0765    0.0316   24.1541 C   0  0  0  0  0  0  0  0  0  0  0  0
    3.3432    2.6279   20.4411 C   0  0  0  0  0  0  0  0  0  0  0  0
   12.9132   -0.6032   23.2569 C   0  0  0  0  0  0  0  0  0  0  0  0
    4.8973    1.0233   21.2988 C   0  0  0  0  0  0  0  0  0  0  0  0
   10.9991   -1.4331   22.0443 C   0  0  0  0  0  0  0  0  0  0  0  0
    5.3278    1.2339   17.6066 C   0  0  0  0  0  0  0  0  0  0  0  0
    6.8438   -0.2892   18.3752 C   0  0  0  0  0  0  0  0  0  0  0  0
    4.8226    1.4906   18.9054 C   0  0  0  0  0  0  0  0  0  0  0  0
    5.3982    0.7733   19.9948 C   0  0  0  0  0  0  0  0  0  0  0  0
   10.7040   -0.0625   23.9898 C   0  0  0  0  0  0  0  0  0  0  0  0
   10.1406   -0.7765   22.9250 C   0  0  0  0  0  0  0  0  0  0  0  0
    6.4440   -0.1472   19.6979 C   0  0  0  0  0  0  0  0  0  0  0  0
    3.8960    1.9291   21.5050 C   0  0  0  0  0  0  0  0  0  0  0  0
   12.3683   -1.3298   22.2234 C   0  0  0  0  0  0  0  0  0  0  0  0
    8.2490    0.0169   21.4271 C   0  0  0  0  0  0  0  0  0  0  0  0
    7.3809    2.6706   23.1119 C   0  0  0  0  0  0  0  0  0  0  0  0
    9.9479    0.5589   24.9534 C   0  0  0  0  0  0  0  0  0  0  0  0
    8.0140   -2.1541   22.4331 C   0  0  0  0  0  0  0  0  0  0  0  0
    6.9866   -1.9366   21.3580 C   0  0  0  0  0  0  0  0  0  0  0  0
    7.8721   -0.1194   23.8831 C   0  0  0  0  0  0  0  0  0  0  0  0
    8.6238   -0.7606   22.6929 C   0  0  2  0  0  0  0  0  0  0  0  0
    6.3084    4.4172   21.7203 C   0  0  0  0  0  0  0  0  0  0  0  0
    8.7407    2.1970   23.5599 C   0  0  0  0  0  0  0  0  0  0  0  0
    6.3062    0.3769   17.3421 N   0  0  0  0  0  0  0  0  0  0  0  0
    7.2292   -0.6897   20.7790 N   0  0  0  0  0  0  0  0  0  0  0  0
    7.4743    3.7779   22.2822 N   0  0  0  0  0  0  0  0  0  0  0  0
    8.6609    1.0133   24.4995 N   0  3  2  0  0  0  0  0  0  0  0  0
    8.7579    1.0933   21.1338 O   0  0  0  0  0  0  0  0  0  0  0  0
    6.3326    2.1276   23.4506 O   0  0  0  0  0  0  0  0  0  0  0  0
    3.4314    2.1555   22.7514 F   0  0  0  0  0  0  0  0  0  0  0  0
   13.4271   -2.1421   21.1093 Cl  0  0  0  0  0  0  0  0  0  0  0  0
    3.3399    2.9734   18.3365 H   0  0  0  0  0  0  0  0  0  0  0  0
   12.5020    0.5946   24.9767 H   0  0  0  0  0  0  0  0  0  0  0  0
    2.5430    3.3508   20.6361 H   0  0  0  0  0  0  0  0  0  0  0  0
   13.9911   -0.5207   23.3813 H   0  0  0  0  0  0  0  0  0  0  0  0
    5.3103    0.4884   22.1571 H   0  0  0  0  0  0  0  0  0  0  0  0
   10.6043   -2.0219   21.2284 H   0  0  0  0  0  0  0  0  0  0  0  0
    4.9138    1.7515   16.7475 H   0  0  0  0  0  0  0  0  0  0  0  0
    7.6445   -0.9762   18.1044 H   0  0  0  0  0  0  0  0  0  0  0  0
    9.7385   -0.1133   25.8250 H   0  0  0  0  0  0  0  0  0  0  0  0
   10.4773    1.4543   25.3712 H   0  0  0  0  0  0  0  0  0  0  0  0
    7.5776   -2.6117   23.3317 H   0  0  0  0  0  0  0  0  0  0  0  0
    8.7734   -2.8616   22.0643 H   0  0  0  0  0  0  0  0  0  0  0  0
    7.0224   -2.7504   20.5951 H   0  0  0  0  0  0  0  0  0  0  0  0
    5.9556   -1.9471   21.7834 H   0  0  0  0  0  0  0  0  0  0  0  0
    6.8958    0.3002   23.5784 H   0  0  0  0  0  0  0  0  0  0  0  0
    7.6736   -0.8519   24.6845 H   0  0  0  0  0  0  0  0  0  0  0  0
    6.0843    3.9746   20.7385 H   0  0  0  0  0  0  0  0  0  0  0  0
    5.4503    4.2709   22.3928 H   0  0  0  0  0  0  0  0  0  0  0  0
    6.5019    5.4935   21.6016 H   0  0  0  0  0  0  0  0  0  0  0  0
    9.2585    2.9868   24.1113 H   0  0  0  0  0  0  0  0  0  0  0  0
    9.3360    1.8802   22.6990 H   0  0  0  0  0  0  0  0  0  0  0  0
    8.3865    4.1743   22.0751 H   0  0  0  0  0  0  0  0  0  0  0  0
    8.1121    1.3501   25.3124 H   0  0  0  0  0  0  0  0  0  0  0  0
  1  3  2  0  0  0  0
  1  9  1  0  0  0  0
  2  4  2  0  0  0  0
  2 11  1  0  0  0  0
  3 14  1  0  0  0  0
  4 15  1  0  0  0  0
  5 10  1  0  0  0  0
  5 14  2  0  0  0  0
  6 12  1  0  0  0  0
  6 15  2  0  0  0  0
  7  9  2  0  0  0  0
  7 25  1  0  0  0  0
  8 13  1  0  0  0  0
  8 25  2  0  0  0  0
  9 10  1  0  0  0  0
 10 13  2  0  0  0  0
 11 12  2  0  0  0  0
 11 18  1  0  0  0  0
 12 22  1  6  0  0  0
 13 26  1  0  0  0  0
 14 31  1  0  0  0  0
 15 32  1  0  0  0  0
 16 22  1  1  0  0  0
 16 26  1  0  0  0  0
 16 29  2  0  0  0  0
 17 24  1  0  0  0  0
 17 27  1  0  0  0  0
 17 30  2  0  0  0  0
 18 28  1  0  0  0  0
 19 20  1  0  0  0  0
 19 22  1  1  0  0  0
 20 26  1  0  0  0  0
 21 22  1  6  0  0  0
 21 28  1  0  0  0  0
 23 27  1  0  0  0  0
 24 28  1  1  0  0  0
  1 33  1  0  0  0  0
  2 34  1  0  0  0  0
  3 35  1  0  0  0  0
  4 36  1  0  0  0  0
  5 37  1  0  0  0  0
  6 38  1  0  0  0  0
  7 39  1  0  0  0  0
  8 40  1  0  0  0  0
 18 41  1  0  0  0  0
 18 42  1  0  0  0  0
 19 43  1  0  0  0  0
 19 44  1  0  0  0  0
 20 45  1  0  0  0  0
 20 46  1  0  0  0  0
 21 47  1  0  0  0  0
 21 48  1  0  0  0  0
 23 49  1  0  0  0  0
 23 50  1  0  0  0  0
 23 51  1  0  0  0  0
 24 52  1  0  0  0  0
 24 53  1  0  0  0  0
 27 54  1  0  0  0  0
 28 55  1  0  0  0  0
M  CHG  1  28   1
M  END
> <compound>
LUO-POS-b4dec3be-2

> <compound_smiles>
CNC(=O)CN1Cc2ccc(cc2[C@]3(C1)CCN(C3=O)c4cncc5c4cc(cc5)F)Cl

> <enantiomer_smiles>
CNC(=O)C[N@@]1Cc2ccc(cc2[C@]3(C1)CCN(C3=O)c4cncc5c4cc(cc5)F)Cl

> <scaffold>
tetrahydroisoquinoline-5spiro-isoquinoline

> <clash_score>
0

> <docking_score>
-9.782881736755371

> <overlap_score>
0.9904876947402954

> <MMFF_internal_energy>
162.7376307390542

> <docked_smiles>
CNC(=O)C[N@@H+]1Cc2ccc(cc2[C@]3(C1)CCN(C3=O)c4cncc5c4cc(cc5)F)Cl

$$$$
JOH-MSK-1f2dff76-2_1
  -OEChem-12272114573D

 54 58  0     1  0  0  0  0  0999 V2000
    3.3432    2.6279   20.4411 C   0  0  0  0  0  0  0  0  0  0  0  0
    3.8960    1.9291   21.5050 C   0  0  0  0  0  0  0  0  0  0  0  0
    3.7865    2.4205   19.1660 C   0  0  0  0  0  0  0  0  0  0  0  0
    4.8973    1.0233   21.2988 C   0  0  0  0  0  0  0  0  0  0  0  0
   12.0765    0.0316   24.1541 C   0  0  0  0  0  0  0  0  0  0  0  0
   12.9132   -0.6032   23.2569 C   0  0  0  0  0  0  0  0  0  0  0  0
   10.9991   -1.4331   22.0443 C   0  0  0  0  0  0  0  0  0  0  0  0
    5.3278    1.2339   17.6066 C   0  0  0  0  0  0  0  0  0  0  0  0
    6.8438   -0.2892   18.3752 C   0  0  0  0  0  0  0  0  0  0  0  0
    4.8226    1.4906   18.9054 C   0  0  0  0  0  0  0  0  0  0  0  0
    5.3982    0.7733   19.9948 C   0  0  0  0  0  0  0  0  0  0  0  0
   10.7040   -0.0625   23.9898 C   0  0  0  0  0  0  0  0  0  0  0  0
   10.1406   -0.7765   22.9250 C   0  0  0  0  0  0  0  0  0  0  0  0
    6.4440   -0.1472   19.6979 C   0  0  0  0  0  0  0  0  0  0  0  0
   12.3683   -1.3298   22.2234 C   0  0  0  0  0  0  0  0  0  0  0  0
    6.9866   -1.9366   21.3580 C   0  0  0  0  0  0  0  0  0  0  0  0
    8.2490    0.0169   21.4271 C   0  0  0  0  0  0  0  0  0  0  0  0
    7.4325    2.9465   23.5101 C   0  0  0  0  0  0  0  0  0  0  0  0
    9.9479    0.5589   24.9534 C   0  0  0  0  0  0  0  0  0  0  0  0
    8.0140   -2.1541   22.4331 C   0  0  0  0  0  0  0  0  0  0  0  0
    7.8721   -0.1194   23.8831 C   0  0  0  0  0  0  0  0  0  0  0  0
    8.6238   -0.7606   22.6929 C   0  0  2  0  0  0  0  0  0  0  0  0
    6.3925    4.9445   22.4786 C   0  0  0  0  0  0  0  0  0  0  0  0
    8.7402    2.1970   23.5600 C   0  0  0  0  0  0  0  0  0  0  0  0
    6.3062    0.3769   17.3421 N   0  0  0  0  0  0  0  0  0  0  0  0
    7.2292   -0.6897   20.7790 N   0  0  0  0  0  0  0  0  0  0  0  0
    7.5155    4.0628   22.6914 N   0  0  0  0  0  0  0  0  0  0  0  0
    8.6609    1.0133   24.4995 N   0  3  2  0  0  0  0  0  0  0  0  0
    6.1201   -2.7590   21.1053 O   0  0  0  0  0  0  0  0  0  0  0  0
    8.7903    1.0598   21.1011 O   0  0  0  0  0  0  0  0  0  0  0  0
    6.4297    2.5941   24.1251 O   0  0  0  0  0  0  0  0  0  0  0  0
   13.4274   -2.1420   21.1095 Cl  0  0  0  0  0  0  0  0  0  0  0  0
    2.5432    3.3510   20.6369 H   0  0  0  0  0  0  0  0  0  0  0  0
    3.5174    2.1137   22.5168 H   0  0  0  0  0  0  0  0  0  0  0  0
    3.3409    2.9743   18.3364 H   0  0  0  0  0  0  0  0  0  0  0  0
    5.3118    0.4895   22.1572 H   0  0  0  0  0  0  0  0  0  0  0  0
   12.5018    0.5943   24.9770 H   0  0  0  0  0  0  0  0  0  0  0  0
   13.9911   -0.5198   23.3807 H   0  0  0  0  0  0  0  0  0  0  0  0
   10.6035   -2.0218   21.2286 H   0  0  0  0  0  0  0  0  0  0  0  0
    4.9141    1.7511   16.7474 H   0  0  0  0  0  0  0  0  0  0  0  0
    7.6445   -0.9764   18.1043 H   0  0  0  0  0  0  0  0  0  0  0  0
    9.7382   -0.1143   25.8247 H   0  0  0  0  0  0  0  0  0  0  0  0
   10.4771    1.4541   25.3732 H   0  0  0  0  0  0  0  0  0  0  0  0
    7.5348   -2.5824   23.3200 H   0  0  0  0  0  0  0  0  0  0  0  0
    8.7429   -2.8805   22.0523 H   0  0  0  0  0  0  0  0  0  0  0  0
    6.8947    0.2998   23.5814 H   0  0  0  0  0  0  0  0  0  0  0  0
    7.6777   -0.8561   24.6824 H   0  0  0  0  0  0  0  0  0  0  0  0
    5.8262    4.6114   21.5963 H   0  0  0  0  0  0  0  0  0  0  0  0
    5.7384    4.9248   23.3628 H   0  0  0  0  0  0  0  0  0  0  0  0
    6.7570    5.9693   22.3148 H   0  0  0  0  0  0  0  0  0  0  0  0
    9.5351    2.8398   23.9485 H   0  0  0  0  0  0  0  0  0  0  0  0
    9.0033    1.8241   22.5663 H   0  0  0  0  0  0  0  0  0  0  0  0
    8.3970    4.2897   22.2400 H   0  0  0  0  0  0  0  0  0  0  0  0
    8.1122    1.3497   25.3130 H   0  0  0  0  0  0  0  0  0  0  0  0
  1  2  1  0  0  0  0
  1  3  2  0  0  0  0
  2  4  2  0  0  0  0
  3 10  1  0  0  0  0
  4 11  1  0  0  0  0
  5  6  2  0  0  0  0
  5 12  1  0  0  0  0
  6 15  1  0  0  0  0
  7 13  1  0  0  0  0
  7 15  2  0  0  0  0
  8 10  2  0  0  0  0
  8 25  1  0  0  0  0
  9 14  1  0  0  0  0
  9 25  2  0  0  0  0
 10 11  1  0  0  0  0
 11 14  2  0  0  0  0
 12 13  2  0  0  0  0
 12 19  1  0  0  0  0
 13 22  1  6  0  0  0
 14 26  1  0  0  0  0
 15 32  1  0  0  0  0
 16 20  1  0  0  0  0
 16 26  1  0  0  0  0
 16 29  2  0  0  0  0
 17 22  1  1  0  0  0
 17 26  1  0  0  0  0
 17 30  2  0  0  0  0
 18 24  1  0  0  0  0
 18 27  1  0  0  0  0
 18 31  2  0  0  0  0
 19 28  1  0  0  0  0
 20 22  1  1  0  0  0
 21 22  1  6  0  0  0
 21 28  1  0  0  0  0
 23 27  1  0  0  0  0
 24 28  1  1  0  0  0
  1 33  1  0  0  0  0
  2 34  1  0  0  0  0
  3 35  1  0  0  0  0
  4 36  1  0  0  0  0
  5 37  1  0  0  0  0
  6 38  1  0  0  0  0
  7 39  1  0  0  0  0
  8 40  1  0  0  0  0
  9 41  1  0  0  0  0
 19 42  1  0  0  0  0
 19 43  1  0  0  0  0
 20 44  1  0  0  0  0
 20 45  1  0  0  0  0
 21 46  1  0  0  0  0
 21 47  1  0  0  0  0
 23 48  1  0  0  0  0
 23 49  1  0  0  0  0
 23 50  1  0  0  0  0
 24 51  1  0  0  0  0
 24 52  1  0  0  0  0
 27 53  1  0  0  0  0
 28 54  1  0  0  0  0
M  CHG  1  28   1
M  END
> <compound>
JOH-MSK-1f2dff76-2

> <compound_smiles>
CNC(=O)CN1Cc2ccc(cc2[C@]3(C1)CC(=O)N(C3=O)c4cncc5c4cccc5)Cl

> <enantiomer_smiles>
CNC(=O)C[N@@]1Cc2ccc(cc2[C@]3(C1)CC(=O)N(C3=O)c4cncc5c4cccc5)Cl

> <scaffold>
tetrahydroisoquinoline-5spiro-isoquinoline

> <clash_score>
0

> <docking_score>
-9.676630973815918

> <overlap_score>
1.0

> <MMFF_internal_energy>
139.72728305847727

> <docked_smiles>
CNC(=O)C[N@@H+]1Cc2ccc(cc2[C@]3(C1)CC(=O)N(C3=O)c4cncc5c4cccc5)Cl

$$$$
JOH-MSK-1f2dff76-1_2
  -OEChem-12272114573D

 54 58  0     1  0  0  0  0  0999 V2000
    3.3432    2.6279   20.4411 C   0  0  0  0  0  0  0  0  0  0  0  0
    3.8960    1.9291   21.5050 C   0  0  0  0  0  0  0  0  0  0  0  0
    3.7865    2.4205   19.1660 C   0  0  0  0  0  0  0  0  0  0  0  0
    4.8973    1.0233   21.2988 C   0  0  0  0  0  0  0  0  0  0  0  0
   12.0765    0.0316   24.1541 C   0  0  0  0  0  0  0  0  0  0  0  0
   12.9132   -0.6032   23.2569 C   0  0  0  0  0  0  0  0  0  0  0  0
   10.9991   -1.4331   22.0443 C   0  0  0  0  0  0  0  0  0  0  0  0
    5.3278    1.2339   17.6066 C   0  0  0  0  0  0  0  0  0  0  0  0
    6.8438   -0.2892   18.3752 C   0  0  0  0  0  0  0  0  0  0  0  0
    4.8226    1.4906   18.9054 C   0  0  0  0  0  0  0  0  0  0  0  0
    5.3982    0.7733   19.9948 C   0  0  0  0  0  0  0  0  0  0  0  0
   10.7040   -0.0625   23.9898 C   0  0  0  0  0  0  0  0  0  0  0  0
   10.1406   -0.7765   22.9250 C   0  0  0  0  0  0  0  0  0  0  0  0
    6.4440   -0.1472   19.6979 C   0  0  0  0  0  0  0  0  0  0  0  0
   12.3683   -1.3298   22.2234 C   0  0  0  0  0  0  0  0  0  0  0  0
    6.9866   -1.9366   21.3580 C   0  0  0  0  0  0  0  0  0  0  0  0
    8.2490    0.0169   21.4271 C   0  0  0  0  0  0  0  0  0  0  0  0
    8.3008    3.1399   25.7889 C   0  0  0  0  0  0  0  0  0  0  0  0
    9.9479    0.5589   24.9534 C   0  0  0  0  0  0  0  0  0  0  0  0
    8.0140   -2.1541   22.4331 C   0  0  0  0  0  0  0  0  0  0  0  0
    7.8721   -0.1194   23.8831 C   0  0  0  0  0  0  0  0  0  0  0  0
    8.6238   -0.7606   22.6929 C   0  0  1  0  0  0  0  0  0  0  0  0
    9.3120    5.0488   24.5761 C   0  0  0  0  0  0  0  0  0  0  0  0
    7.8590    1.7139   25.5748 C   0  0  0  0  0  0  0  0  0  0  0  0
    6.3062    0.3769   17.3421 N   0  0  0  0  0  0  0  0  0  0  0  0
    7.2292   -0.6897   20.7790 N   0  0  0  0  0  0  0  0  0  0  0  0
    8.8214    3.6922   24.6282 N   0  0  0  0  0  0  0  0  0  0  0  0
    8.6609    1.0133   24.4995 N   0  3  1  0  0  0  0  0  0  0  0  0
    6.1269   -2.7640   21.0978 O   0  0  0  0  0  0  0  0  0  0  0  0
    8.7849    1.0640   21.1052 O   0  0  0  0  0  0  0  0  0  0  0  0
    8.2017    3.7218   26.8659 O   0  0  0  0  0  0  0  0  0  0  0  0
   13.4270   -2.1433   21.1101 Cl  0  0  0  0  0  0  0  0  0  0  0  0
    2.5432    3.3510   20.6369 H   0  0  0  0  0  0  0  0  0  0  0  0
    3.5174    2.1137   22.5168 H   0  0  0  0  0  0  0  0  0  0  0  0
    3.3409    2.9743   18.3364 H   0  0  0  0  0  0  0  0  0  0  0  0
    5.3118    0.4895   22.1572 H   0  0  0  0  0  0  0  0  0  0  0  0
   12.5021    0.5970   24.9750 H   0  0  0  0  0  0  0  0  0  0  0  0
   13.9911   -0.5178   23.3792 H   0  0  0  0  0  0  0  0  0  0  0  0
   10.6036   -2.0172   21.2251 H   0  0  0  0  0  0  0  0  0  0  0  0
    4.9141    1.7511   16.7474 H   0  0  0  0  0  0  0  0  0  0  0  0
    7.6445   -0.9764   18.1043 H   0  0  0  0  0  0  0  0  0  0  0  0
    9.7617   -0.1197   25.8266 H   0  0  0  0  0  0  0  0  0  0  0  0
   10.4572    1.4668   25.3691 H   0  0  0  0  0  0  0  0  0  0  0  0
    7.4960   -2.5683   23.3070 H   0  0  0  0  0  0  0  0  0  0  0  0
    8.7534   -2.8877   22.0940 H   0  0  0  0  0  0  0  0  0  0  0  0
    6.8966    0.2933   23.5705 H   0  0  0  0  0  0  0  0  0  0  0  0
    7.6744   -0.8475   24.6911 H   0  0  0  0  0  0  0  0  0  0  0  0
    8.4979    5.7221   24.2698 H   0  0  0  0  0  0  0  0  0  0  0  0
    9.6779    5.3447   25.5704 H   0  0  0  0  0  0  0  0  0  0  0  0
   10.1345    5.1134   23.8485 H   0  0  0  0  0  0  0  0  0  0  0  0
    6.8129    1.6809   25.2580 H   0  0  0  0  0  0  0  0  0  0  0  0
    7.9987    1.1309   26.4893 H   0  0  0  0  0  0  0  0  0  0  0  0
    8.8856    3.1253   23.7876 H   0  0  0  0  0  0  0  0  0  0  0  0
    8.7936    1.7239   23.7554 H   0  0  0  0  0  0  0  0  0  0  0  0
  1  2  1  0  0  0  0
  1  3  2  0  0  0  0
  2  4  2  0  0  0  0
  3 10  1  0  0  0  0
  4 11  1  0  0  0  0
  5  6  2  0  0  0  0
  5 12  1  0  0  0  0
  6 15  1  0  0  0  0
  7 13  1  0  0  0  0
  7 15  2  0  0  0  0
  8 10  2  0  0  0  0
  8 25  1  0  0  0  0
  9 14  1  0  0  0  0
  9 25  2  0  0  0  0
 10 11  1  0  0  0  0
 11 14  2  0  0  0  0
 12 13  2  0  0  0  0
 12 19  1  0  0  0  0
 13 22  1  1  0  0  0
 14 26  1  0  0  0  0
 15 32  1  0  0  0  0
 16 20  1  0  0  0  0
 16 26  1  0  0  0  0
 16 29  2  0  0  0  0
 17 22  1  6  0  0  0
 17 26  1  0  0  0  0
 17 30  2  0  0  0  0
 18 24  1  0  0  0  0
 18 27  1  0  0  0  0
 18 31  2  0  0  0  0
 19 28  1  0  0  0  0
 20 22  1  6  0  0  0
 21 22  1  1  0  0  0
 21 28  1  0  0  0  0
 23 27  1  0  0  0  0
 24 28  1  6  0  0  0
  1 33  1  0  0  0  0
  2 34  1  0  0  0  0
  3 35  1  0  0  0  0
  4 36  1  0  0  0  0
  5 37  1  0  0  0  0
  6 38  1  0  0  0  0
  7 39  1  0  0  0  0
  8 40  1  0  0  0  0
  9 41  1  0  0  0  0
 19 42  1  0  0  0  0
 19 43  1  0  0  0  0
 20 44  1  0  0  0  0
 20 45  1  0  0  0  0
 21 46  1  0  0  0  0
 21 47  1  0  0  0  0
 23 48  1  0  0  0  0
 23 49  1  0  0  0  0
 23 50  1  0  0  0  0
 24 51  1  0  0  0  0
 24 52  1  0  0  0  0
 27 53  1  0  0  0  0
 28 54  1  0  0  0  0
M  CHG  1  28   1
M  END
> <compound>
JOH-MSK-1f2dff76-1

> <compound_smiles>
CNC(=O)CN1Cc2ccc(cc2[C@@]3(C1)CC(=O)N(C3=O)c4cncc5c4cccc5)Cl

> <enantiomer_smiles>
CNC(=O)C[N@]1Cc2ccc(cc2[C@@]3(C1)CC(=O)N(C3=O)c4cncc5c4cccc5)Cl

> <scaffold>
tetrahydroisoquinoline-5spiro-isoquinoline

> <clash_score>
0

> <docking_score>
-9.199884414672852

> <overlap_score>
1.0

> <MMFF_internal_energy>
144.01984910683822

> <docked_smiles>
CNC(=O)C[N@H+]1Cc2ccc(cc2[C@]3(C1)CC(=O)N(C3=O)c4cncc5c4cccc5)Cl

$$$$
EDG-MED-b1ef7fe3-1_1
  -OEChem-12272114573D

 53 57  0     1  0  0  0  0  0999 V2000
    3.7865    2.4205   19.1660 C   0  0  0  0  0  0  0  0  0  0  0  0
   12.0765    0.0316   24.1541 C   0  0  0  0  0  0  0  0  0  0  0  0
    3.3432    2.6279   20.4411 C   0  0  0  0  0  0  0  0  0  0  0  0
   12.9132   -0.6032   23.2569 C   0  0  0  0  0  0  0  0  0  0  0  0
    4.8973    1.0233   21.2988 C   0  0  0  0  0  0  0  0  0  0  0  0
   10.9991   -1.4331   22.0443 C   0  0  0  0  0  0  0  0  0  0  0  0
    5.3278    1.2339   17.6066 C   0  0  0  0  0  0  0  0  0  0  0  0
    6.8438   -0.2892   18.3752 C   0  0  0  0  0  0  0  0  0  0  0  0
    4.8226    1.4906   18.9054 C   0  0  0  0  0  0  0  0  0  0  0  0
    5.3982    0.7733   19.9948 C   0  0  0  0  0  0  0  0  0  0  0  0
   10.7040   -0.0625   23.9898 C   0  0  0  0  0  0  0  0  0  0  0  0
   10.1406   -0.7765   22.9250 C   0  0  0  0  0  0  0  0  0  0  0  0
    6.4440   -0.1472   19.6979 C   0  0  0  0  0  0  0  0  0  0  0  0
    3.8960    1.9291   21.5050 C   0  0  0  0  0  0  0  0  0  0  0  0
   12.3683   -1.3298   22.2234 C   0  0  0  0  0  0  0  0  0  0  0  0
    9.9479    0.5589   24.9534 C   0  0  0  0  0  0  0  0  0  0  0  0
    8.2490    0.0169   21.4271 C   0  0  0  0  0  0  0  0  0  0  0  0
    8.4669    3.2198   23.6970 C   0  0  0  0  0  0  0  0  0  0  0  0
    8.0140   -2.1541   22.4331 C   0  0  0  0  0  0  0  0  0  0  0  0
    6.9866   -1.9366   21.3580 C   0  0  0  0  0  0  0  0  0  0  0  0
    7.8721   -0.1194   23.8831 C   0  0  0  0  0  0  0  0  0  0  0  0
    8.6238   -0.7606   22.6929 C   0  0  3  0  0  0  0  0  0  0  0  0
   10.2286    4.9046   23.1758 C   0  0  0  0  0  0  0  0  0  0  0  0
    8.0922    2.2237   24.7645 C   0  0  0  0  0  0  0  0  0  0  0  0
    6.3062    0.3769   17.3421 N   0  0  0  0  0  0  0  0  0  0  0  0
    7.2292   -0.6897   20.7790 N   0  0  0  0  0  0  0  0  0  0  0  0
    8.6609    1.0133   24.4995 N   0  0  0  0  0  0  0  0  0  0  0  0
    9.6355    3.8939   24.0215 N   0  0  0  0  0  0  0  0  0  0  0  0
   10.3214    0.7303   26.1092 O   0  0  0  0  0  0  0  0  0  0  0  0
    8.8193    1.0411   21.0780 O   0  0  0  0  0  0  0  0  0  0  0  0
    7.8085    3.3951   22.6752 O   0  0  0  0  0  0  0  0  0  0  0  0
    3.3000    2.2178   23.1047 Cl  0  0  0  0  0  0  0  0  0  0  0  0
   13.4274   -2.1468   21.1136 Cl  0  0  0  0  0  0  0  0  0  0  0  0
    3.3416    2.9748   18.3364 H   0  0  0  0  0  0  0  0  0  0  0  0
   12.5172    0.5967   24.9716 H   0  0  0  0  0  0  0  0  0  0  0  0
    2.5415    3.3543   20.6218 H   0  0  0  0  0  0  0  0  0  0  0  0
   13.9905   -0.5221   23.3825 H   0  0  0  0  0  0  0  0  0  0  0  0
    5.3220    0.4801   22.1475 H   0  0  0  0  0  0  0  0  0  0  0  0
   10.6130   -2.0249   21.2272 H   0  0  0  0  0  0  0  0  0  0  0  0
    4.9132    1.7509   16.7476 H   0  0  0  0  0  0  0  0  0  0  0  0
    7.6448   -0.9761   18.1046 H   0  0  0  0  0  0  0  0  0  0  0  0
    7.5110   -2.5276   23.3390 H   0  0  0  0  0  0  0  0  0  0  0  0
    8.7575   -2.9105   22.1433 H   0  0  0  0  0  0  0  0  0  0  0  0
    7.0587   -2.7258   20.5724 H   0  0  0  0  0  0  0  0  0  0  0  0
    5.9512   -1.9960   21.7712 H   0  0  0  0  0  0  0  0  0  0  0  0
    6.9203    0.3184   23.5736 H   0  0  0  0  0  0  0  0  0  0  0  0
    7.6659   -0.8542   24.6623 H   0  0  0  0  0  0  0  0  0  0  0  0
   10.9348    4.4312   22.4778 H   0  0  0  0  0  0  0  0  0  0  0  0
    9.4384    5.4164   22.6069 H   0  0  0  0  0  0  0  0  0  0  0  0
   10.7641    5.6360   23.7990 H   0  0  0  0  0  0  0  0  0  0  0  0
    8.4448    2.5768   25.7381 H   0  0  0  0  0  0  0  0  0  0  0  0
    7.0053    2.1037   24.7947 H   0  0  0  0  0  0  0  0  0  0  0  0
   10.0971    3.6657   24.8972 H   0  0  0  0  0  0  0  0  0  0  0  0
  1  3  2  0  0  0  0
  1  9  1  0  0  0  0
  2  4  2  0  0  0  0
  2 11  1  0  0  0  0
  3 14  1  0  0  0  0
  4 15  1  0  0  0  0
  5 10  1  0  0  0  0
  5 14  2  0  0  0  0
  6 12  1  0  0  0  0
  6 15  2  0  0  0  0
  7  9  2  0  0  0  0
  7 25  1  0  0  0  0
  8 13  1  0  0  0  0
  8 25  2  0  0  0  0
  9 10  1  0  0  0  0
 10 13  2  0  0  0  0
 11 12  2  0  0  0  0
 11 16  1  0  0  0  0
 12 22  1  0  0  0  0
 13 26  1  0  0  0  0
 14 32  1  0  0  0  0
 15 33  1  0  0  0  0
 16 27  1  0  0  0  0
 16 29  2  0  0  0  0
 17 22  1  0  0  0  0
 17 26  1  0  0  0  0
 17 30  2  0  0  0  0
 18 24  1  0  0  0  0
 18 28  1  0  0  0  0
 18 31  2  0  0  0  0
 19 20  1  0  0  0  0
 19 22  1  0  0  0  0
 20 26  1  0  0  0  0
 21 22  1  0  0  0  0
 21 27  1  0  0  0  0
 23 28  1  0  0  0  0
 24 27  1  0  0  0  0
  1 34  1  0  0  0  0
  2 35  1  0  0  0  0
  3 36  1  0  0  0  0
  4 37  1  0  0  0  0
  5 38  1  0  0  0  0
  6 39  1  0  0  0  0
  7 40  1  0  0  0  0
  8 41  1  0  0  0  0
 19 42  1  0  0  0  0
 19 43  1  0  0  0  0
 20 44  1  0  0  0  0
 20 45  1  0  0  0  0
 21 46  1  0  0  0  0
 21 47  1  0  0  0  0
 23 48  1  0  0  0  0
 23 49  1  0  0  0  0
 23 50  1  0  0  0  0
 24 51  1  0  0  0  0
 24 52  1  0  0  0  0
 28 53  1  0  0  0  0
M  END
> <compound>
EDG-MED-b1ef7fe3-1

> <compound_smiles>
CNC(=O)CN1CC2(CCN(C2=O)c3cncc4c3cc(cc4)Cl)c5cc(ccc5C1=O)Cl

> <enantiomer_smiles>
CNC(=O)CN1CC2(CCN(C2=O)c3cncc4c3cc(cc4)Cl)c5cc(ccc5C1=O)Cl

> <scaffold>
tetrahydroisoquinoline-5spiro-isoquinoline

> <clash_score>
0

> <docking_score>
-9.898568153381348

> <overlap_score>
1.0

> <MMFF_internal_energy>
157.24220304715595

> <docked_smiles>
CNC(=O)CN1C[C@]2(CCN(C2=O)c3cncc4c3cc(cc4)Cl)c5cc(ccc5C1=O)Cl

$$$$
JOH-MSK-1f2dff76-2_2
  -OEChem-12272114573D

 54 58  0     1  0  0  0  0  0999 V2000
    3.3432    2.6279   20.4411 C   0  0  0  0  0  0  0  0  0  0  0  0
    3.8960    1.9291   21.5050 C   0  0  0  0  0  0  0  0  0  0  0  0
    3.7865    2.4205   19.1660 C   0  0  0  0  0  0  0  0  0  0  0  0
    4.8973    1.0233   21.2988 C   0  0  0  0  0  0  0  0  0  0  0  0
   12.0765    0.0316   24.1541 C   0  0  0  0  0  0  0  0  0  0  0  0
   12.9132   -0.6032   23.2569 C   0  0  0  0  0  0  0  0  0  0  0  0
   10.9991   -1.4331   22.0443 C   0  0  0  0  0  0  0  0  0  0  0  0
    5.3278    1.2339   17.6066 C   0  0  0  0  0  0  0  0  0  0  0  0
    6.8438   -0.2892   18.3752 C   0  0  0  0  0  0  0  0  0  0  0  0
    4.8226    1.4906   18.9054 C   0  0  0  0  0  0  0  0  0  0  0  0
    5.3982    0.7733   19.9948 C   0  0  0  0  0  0  0  0  0  0  0  0
   10.7040   -0.0625   23.9898 C   0  0  0  0  0  0  0  0  0  0  0  0
   10.1406   -0.7765   22.9250 C   0  0  0  0  0  0  0  0  0  0  0  0
    6.4440   -0.1472   19.6979 C   0  0  0  0  0  0  0  0  0  0  0  0
   12.3683   -1.3298   22.2234 C   0  0  0  0  0  0  0  0  0  0  0  0
    6.9866   -1.9366   21.3580 C   0  0  0  0  0  0  0  0  0  0  0  0
    8.2490    0.0169   21.4271 C   0  0  0  0  0  0  0  0  0  0  0  0
    6.7969    2.5862   24.9520 C   0  0  0  0  0  0  0  0  0  0  0  0
    9.9479    0.5589   24.9534 C   0  0  0  0  0  0  0  0  0  0  0  0
    8.0140   -2.1541   22.4331 C   0  0  0  0  0  0  0  0  0  0  0  0
    7.8721   -0.1194   23.8831 C   0  0  0  0  0  0  0  0  0  0  0  0
    8.6238   -0.7606   22.6929 C   0  0  2  0  0  0  0  0  0  0  0  0
    6.5362    4.5309   23.4395 C   0  0  0  0  0  0  0  0  0  0  0  0
    7.8605    1.7162   25.5734 C   0  0  0  0  0  0  0  0  0  0  0  0
    6.3062    0.3769   17.3421 N   0  0  0  0  0  0  0  0  0  0  0  0
    7.2292   -0.6897   20.7790 N   0  0  0  0  0  0  0  0  0  0  0  0
    7.3497    3.5712   24.1473 N   0  0  0  0  0  0  0  0  0  0  0  0
    8.6609    1.0133   24.4995 N   0  3  1  0  0  0  0  0  0  0  0  0
    6.1315   -2.7666   21.0944 O   0  0  0  0  0  0  0  0  0  0  0  0
    8.7792    1.0643   21.1054 O   0  0  0  0  0  0  0  0  0  0  0  0
    5.5952    2.4246   25.1467 O   0  0  0  0  0  0  0  0  0  0  0  0
   13.4283   -2.1409   21.1098 Cl  0  0  0  0  0  0  0  0  0  0  0  0
    2.5432    3.3510   20.6369 H   0  0  0  0  0  0  0  0  0  0  0  0
    3.5174    2.1137   22.5168 H   0  0  0  0  0  0  0  0  0  0  0  0
    3.3409    2.9743   18.3364 H   0  0  0  0  0  0  0  0  0  0  0  0
    5.3118    0.4895   22.1572 H   0  0  0  0  0  0  0  0  0  0  0  0
   12.5031    0.5982   24.9737 H   0  0  0  0  0  0  0  0  0  0  0  0
   13.9914   -0.5172   23.3792 H   0  0  0  0  0  0  0  0  0  0  0  0
   10.6138   -2.0183   21.2243 H   0  0  0  0  0  0  0  0  0  0  0  0
    4.9141    1.7511   16.7474 H   0  0  0  0  0  0  0  0  0  0  0  0
    7.6445   -0.9764   18.1043 H   0  0  0  0  0  0  0  0  0  0  0  0
    9.7619   -0.1182   25.8282 H   0  0  0  0  0  0  0  0  0  0  0  0
   10.4564    1.4677   25.3690 H   0  0  0  0  0  0  0  0  0  0  0  0
    7.4812   -2.5426   23.3076 H   0  0  0  0  0  0  0  0  0  0  0  0
    8.7485   -2.8978   22.1153 H   0  0  0  0  0  0  0  0  0  0  0  0
    6.9066    0.3033   23.5614 H   0  0  0  0  0  0  0  0  0  0  0  0
    7.6804   -0.8477   24.6883 H   0  0  0  0  0  0  0  0  0  0  0  0
    6.3064    4.1471   22.4345 H   0  0  0  0  0  0  0  0  0  0  0  0
    5.5994    4.6957   23.9920 H   0  0  0  0  0  0  0  0  0  0  0  0
    7.0828    5.4815   23.3526 H   0  0  0  0  0  0  0  0  0  0  0  0
    7.4056    0.9468   26.2034 H   0  0  0  0  0  0  0  0  0  0  0  0
    8.5564    2.3246   26.1577 H   0  0  0  0  0  0  0  0  0  0  0  0
    8.3597    3.6433   24.0644 H   0  0  0  0  0  0  0  0  0  0  0  0
    8.7918    1.7195   23.7507 H   0  0  0  0  0  0  0  0  0  0  0  0
  1  2  1  0  0  0  0
  1  3  2  0  0  0  0
  2  4  2  0  0  0  0
  3 10  1  0  0  0  0
  4 11  1  0  0  0  0
  5  6  2  0  0  0  0
  5 12  1  0  0  0  0
  6 15  1  0  0  0  0
  7 13  1  0  0  0  0
  7 15  2  0  0  0  0
  8 10  2  0  0  0  0
  8 25  1  0  0  0  0
  9 14  1  0  0  0  0
  9 25  2  0  0  0  0
 10 11  1  0  0  0  0
 11 14  2  0  0  0  0
 12 13  2  0  0  0  0
 12 19  1  0  0  0  0
 13 22  1  6  0  0  0
 14 26  1  0  0  0  0
 15 32  1  0  0  0  0
 16 20  1  0  0  0  0
 16 26  1  0  0  0  0
 16 29  2  0  0  0  0
 17 22  1  1  0  0  0
 17 26  1  0  0  0  0
 17 30  2  0  0  0  0
 18 24  1  0  0  0  0
 18 27  1  0  0  0  0
 18 31  2  0  0  0  0
 19 28  1  0  0  0  0
 20 22  1  1  0  0  0
 21 22  1  6  0  0  0
 21 28  1  0  0  0  0
 23 27  1  0  0  0  0
 24 28  1  6  0  0  0
  1 33  1  0  0  0  0
  2 34  1  0  0  0  0
  3 35  1  0  0  0  0
  4 36  1  0  0  0  0
  5 37  1  0  0  0  0
  6 38  1  0  0  0  0
  7 39  1  0  0  0  0
  8 40  1  0  0  0  0
  9 41  1  0  0  0  0
 19 42  1  0  0  0  0
 19 43  1  0  0  0  0
 20 44  1  0  0  0  0
 20 45  1  0  0  0  0
 21 46  1  0  0  0  0
 21 47  1  0  0  0  0
 23 48  1  0  0  0  0
 23 49  1  0  0  0  0
 23 50  1  0  0  0  0
 24 51  1  0  0  0  0
 24 52  1  0  0  0  0
 27 53  1  0  0  0  0
 28 54  1  0  0  0  0
M  CHG  1  28   1
M  END
> <compound>
JOH-MSK-1f2dff76-2

> <compound_smiles>
CNC(=O)CN1Cc2ccc(cc2[C@]3(C1)CC(=O)N(C3=O)c4cncc5c4cccc5)Cl

> <enantiomer_smiles>
CNC(=O)C[N@]1Cc2ccc(cc2[C@]3(C1)CC(=O)N(C3=O)c4cncc5c4cccc5)Cl

> <scaffold>
tetrahydroisoquinoline-5spiro-isoquinoline

> <clash_score>
0

> <docking_score>
-9.203851699829102

> <overlap_score>
1.0

> <MMFF_internal_energy>
127.52786324554636

> <docked_smiles>
CNC(=O)C[N@H+]1Cc2ccc(cc2[C@]3(C1)CC(=O)N(C3=O)c4cncc5c4cccc5)Cl

$$$$
MAT-POS-1bed62cf-2_1
  -OEChem-12272114573D

 52 56  0     1  0  0  0  0  0999 V2000
    3.3432    2.6279   20.4411 C   0  0  0  0  0  0  0  0  0  0  0  0
    3.8960    1.9291   21.5050 C   0  0  0  0  0  0  0  0  0  0  0  0
    3.7865    2.4205   19.1660 C   0  0  0  0  0  0  0  0  0  0  0  0
    4.8973    1.0233   21.2988 C   0  0  0  0  0  0  0  0  0  0  0  0
   12.0765    0.0316   24.1541 C   0  0  0  0  0  0  0  0  0  0  0  0
   12.9132   -0.6032   23.2569 C   0  0  0  0  0  0  0  0  0  0  0  0
   10.9991   -1.4331   22.0443 C   0  0  0  0  0  0  0  0  0  0  0  0
    5.3278    1.2339   17.6066 C   0  0  0  0  0  0  0  0  0  0  0  0
    6.8438   -0.2892   18.3752 C   0  0  0  0  0  0  0  0  0  0  0  0
    4.8226    1.4906   18.9054 C   0  0  0  0  0  0  0  0  0  0  0  0
    5.3982    0.7733   19.9948 C   0  0  0  0  0  0  0  0  0  0  0  0
   10.7040   -0.0625   23.9898 C   0  0  0  0  0  0  0  0  0  0  0  0
   10.1406   -0.7765   22.9250 C   0  0  0  0  0  0  0  0  0  0  0  0
    6.4440   -0.1472   19.6979 C   0  0  0  0  0  0  0  0  0  0  0  0
   12.3683   -1.3298   22.2234 C   0  0  0  0  0  0  0  0  0  0  0  0
    9.9479    0.5589   24.9534 C   0  0  0  0  0  0  0  0  0  0  0  0
    6.9866   -1.9366   21.3580 C   0  0  0  0  0  0  0  0  0  0  0  0
    8.2490    0.0169   21.4271 C   0  0  0  0  0  0  0  0  0  0  0  0
    8.4572    3.2405   23.7517 C   0  0  0  0  0  0  0  0  0  0  0  0
    8.0140   -2.1541   22.4331 C   0  0  0  0  0  0  0  0  0  0  0  0
    7.8721   -0.1194   23.8831 C   0  0  0  0  0  0  0  0  0  0  0  0
    8.6238   -0.7606   22.6929 C   0  0  3  0  0  0  0  0  0  0  0  0
   10.2138    4.9471   23.2871 C   0  0  0  0  0  0  0  0  0  0  0  0
    8.0807    2.2144   24.7897 C   0  0  0  0  0  0  0  0  0  0  0  0
    6.3062    0.3769   17.3421 N   0  0  0  0  0  0  0  0  0  0  0  0
    7.2292   -0.6897   20.7790 N   0  0  0  0  0  0  0  0  0  0  0  0
    8.6609    1.0133   24.4995 N   0  0  0  0  0  0  0  0  0  0  0  0
    9.6203    3.9113   24.1017 N   0  0  0  0  0  0  0  0  0  0  0  0
   10.3255    0.7360   26.1068 O   0  0  0  0  0  0  0  0  0  0  0  0
    6.1266   -2.7641   21.0986 O   0  0  0  0  0  0  0  0  0  0  0  0
    8.7904    1.0604   21.1008 O   0  0  0  0  0  0  0  0  0  0  0  0
    7.8044    3.4399   22.7306 O   0  0  0  0  0  0  0  0  0  0  0  0
   13.4273   -2.1358   21.1051 Cl  0  0  0  0  0  0  0  0  0  0  0  0
    2.5432    3.3510   20.6369 H   0  0  0  0  0  0  0  0  0  0  0  0
    3.5174    2.1137   22.5168 H   0  0  0  0  0  0  0  0  0  0  0  0
    3.3409    2.9743   18.3364 H   0  0  0  0  0  0  0  0  0  0  0  0
    5.3118    0.4895   22.1572 H   0  0  0  0  0  0  0  0  0  0  0  0
   12.5177    0.5966   24.9707 H   0  0  0  0  0  0  0  0  0  0  0  0
   13.9905   -0.5104   23.3739 H   0  0  0  0  0  0  0  0  0  0  0  0
   10.6055   -2.0150   21.2225 H   0  0  0  0  0  0  0  0  0  0  0  0
    4.9141    1.7511   16.7474 H   0  0  0  0  0  0  0  0  0  0  0  0
    7.6445   -0.9764   18.1043 H   0  0  0  0  0  0  0  0  0  0  0  0
    7.4954   -2.5589   23.3112 H   0  0  0  0  0  0  0  0  0  0  0  0
    8.7583   -2.8853   22.0997 H   0  0  0  0  0  0  0  0  0  0  0  0
    6.9042    0.2728   23.5785 H   0  0  0  0  0  0  0  0  0  0  0  0
    7.7139   -0.8340   24.6906 H   0  0  0  0  0  0  0  0  0  0  0  0
   10.9267    4.4959   22.5813 H   0  0  0  0  0  0  0  0  0  0  0  0
    9.4247    5.4701   22.7270 H   0  0  0  0  0  0  0  0  0  0  0  0
   10.7416    5.6641   23.9331 H   0  0  0  0  0  0  0  0  0  0  0  0
    8.4253    2.5430   25.7746 H   0  0  0  0  0  0  0  0  0  0  0  0
    6.9942    2.0884   24.8096 H   0  0  0  0  0  0  0  0  0  0  0  0
   10.0775    3.6619   24.9739 H   0  0  0  0  0  0  0  0  0  0  0  0
  1  2  1  0  0  0  0
  1  3  2  0  0  0  0
  2  4  2  0  0  0  0
  3 10  1  0  0  0  0
  4 11  1  0  0  0  0
  5  6  2  0  0  0  0
  5 12  1  0  0  0  0
  6 15  1  0  0  0  0
  7 13  1  0  0  0  0
  7 15  2  0  0  0  0
  8 10  2  0  0  0  0
  8 25  1  0  0  0  0
  9 14  1  0  0  0  0
  9 25  2  0  0  0  0
 10 11  1  0  0  0  0
 11 14  2  0  0  0  0
 12 13  2  0  0  0  0
 12 16  1  0  0  0  0
 13 22  1  0  0  0  0
 14 26  1  0  0  0  0
 15 33  1  0  0  0  0
 16 27  1  0  0  0  0
 16 29  2  0  0  0  0
 17 20  1  0  0  0  0
 17 26  1  0  0  0  0
 17 30  2  0  0  0  0
 18 22  1  0  0  0  0
 18 26  1  0  0  0  0
 18 31  2  0  0  0  0
 19 24  1  0  0  0  0
 19 28  1  0  0  0  0
 19 32  2  0  0  0  0
 20 22  1  0  0  0  0
 21 22  1  0  0  0  0
 21 27  1  0  0  0  0
 23 28  1  0  0  0  0
 24 27  1  0  0  0  0
  1 34  1  0  0  0  0
  2 35  1  0  0  0  0
  3 36  1  0  0  0  0
  4 37  1  0  0  0  0
  5 38  1  0  0  0  0
  6 39  1  0  0  0  0
  7 40  1  0  0  0  0
  8 41  1  0  0  0  0
  9 42  1  0  0  0  0
 20 43  1  0  0  0  0
 20 44  1  0  0  0  0
 21 45  1  0  0  0  0
 21 46  1  0  0  0  0
 23 47  1  0  0  0  0
 23 48  1  0  0  0  0
 23 49  1  0  0  0  0
 24 50  1  0  0  0  0
 24 51  1  0  0  0  0
 28 52  1  0  0  0  0
M  END
> <compound>
MAT-POS-1bed62cf-2

> <compound_smiles>
CNC(=O)CN1CC2(CC(=O)N(C2=O)c3cncc4c3cccc4)c5cc(ccc5C1=O)Cl

> <enantiomer_smiles>
CNC(=O)CN1CC2(CC(=O)N(C2=O)c3cncc4c3cccc4)c5cc(ccc5C1=O)Cl

> <scaffold>
tetrahydroisoquinoline-5spiro-isoquinoline

> <clash_score>
0

> <docking_score>
-9.977031707763672

> <overlap_score>
1.0150971412658691

> <MMFF_internal_energy>
127.0761762329344

> <docked_smiles>
CNC(=O)CN1C[C@]2(CC(=O)N(C2=O)c3cncc4c3cccc4)c5cc(ccc5C1=O)Cl

$$$$
VLA-UNK-f702bf1c-2_1
  -OEChem-12272114573D

 51 56  0     1  0  0  0  0  0999 V2000
    3.3432    2.6279   20.4411 C   0  0  0  0  0  0  0  0  0  0  0  0
    3.8960    1.9291   21.5050 C   0  0  0  0  0  0  0  0  0  0  0  0
    3.7865    2.4205   19.1660 C   0  0  0  0  0  0  0  0  0  0  0  0
    4.8973    1.0233   21.2988 C   0  0  0  0  0  0  0  0  0  0  0  0
   12.0765    0.0316   24.1541 C   0  0  0  0  0  0  0  0  0  0  0  0
   12.9132   -0.6032   23.2569 C   0  0  0  0  0  0  0  0  0  0  0  0
    8.8479   -3.3003   25.6745 C   0  0  0  0  0  0  0  0  0  0  0  0
   10.9991   -1.4331   22.0443 C   0  0  0  0  0  0  0  0  0  0  0  0
    8.0230   -3.0279   26.7822 C   0  0  0  0  0  0  0  0  0  0  0  0
    5.3278    1.2339   17.6066 C   0  0  0  0  0  0  0  0  0  0  0  0
    6.8438   -0.2892   18.3752 C   0  0  0  0  0  0  0  0  0  0  0  0
    4.8226    1.4906   18.9054 C   0  0  0  0  0  0  0  0  0  0  0  0
    5.3982    0.7733   19.9948 C   0  0  0  0  0  0  0  0  0  0  0  0
   10.1406   -0.7765   22.9250 C   0  0  0  0  0  0  0  0  0  0  0  0
    6.4440   -0.1472   19.6979 C   0  0  0  0  0  0  0  0  0  0  0  0
   10.7040   -0.0625   23.9898 C   0  0  0  0  0  0  0  0  0  0  0  0
   12.3683   -1.3298   22.2234 C   0  0  0  0  0  0  0  0  0  0  0  0
    8.0213   -3.1561   24.5871 C   0  0  0  0  0  0  0  0  0  0  0  0
    8.2490    0.0169   21.4271 C   0  0  0  0  0  0  0  0  0  0  0  0
    6.9866   -1.9366   21.3580 C   0  0  0  0  0  0  0  0  0  0  0  0
    7.8721   -0.1194   23.8831 C   0  0  0  0  0  0  0  0  0  0  0  0
    8.6609    1.0133   24.4995 C   0  0  0  0  0  0  0  0  0  0  0  0
    8.6238   -0.7606   22.6929 C   0  0  2  0  0  0  0  0  0  0  0  0
    8.2673   -3.3062   23.1136 C   0  0  0  0  0  0  0  0  0  0  0  0
    6.3062    0.3769   17.3421 N   0  0  0  0  0  0  0  0  0  0  0  0
    6.7686   -2.7328   26.4308 N   0  0  0  0  0  0  0  0  0  0  0  0
    6.7992   -2.8188   25.0900 N   0  0  0  0  0  0  0  0  0  0  0  0
    7.2292   -0.6897   20.7790 N   0  0  0  0  0  0  0  0  0  0  0  0
    8.0140   -2.1541   22.4331 N   0  0  0  0  0  0  0  0  0  0  0  0
    8.8016    1.0414   21.0847 O   0  0  0  0  0  0  0  0  0  0  0  0
    6.1144   -2.7515   21.1388 O   0  0  0  0  0  0  0  0  0  0  0  0
    9.9479    0.5589   24.9534 O   0  0  0  0  0  0  0  0  0  0  0  0
   13.4262   -2.1470   21.1121 Cl  0  0  0  0  0  0  0  0  0  0  0  0
    2.5432    3.3510   20.6369 H   0  0  0  0  0  0  0  0  0  0  0  0
    3.5174    2.1137   22.5168 H   0  0  0  0  0  0  0  0  0  0  0  0
    3.3409    2.9743   18.3364 H   0  0  0  0  0  0  0  0  0  0  0  0
    5.3118    0.4895   22.1572 H   0  0  0  0  0  0  0  0  0  0  0  0
   12.4997    0.6069   24.9723 H   0  0  0  0  0  0  0  0  0  0  0  0
   13.9909   -0.5152   23.3780 H   0  0  0  0  0  0  0  0  0  0  0  0
    9.8950   -3.5658   25.6680 H   0  0  0  0  0  0  0  0  0  0  0  0
   10.6017   -2.0254   21.2306 H   0  0  0  0  0  0  0  0  0  0  0  0
    8.2835   -3.0326   27.8309 H   0  0  0  0  0  0  0  0  0  0  0  0
    4.9141    1.7511   16.7474 H   0  0  0  0  0  0  0  0  0  0  0  0
    7.6445   -0.9764   18.1043 H   0  0  0  0  0  0  0  0  0  0  0  0
    7.7129   -0.8754   24.6698 H   0  0  0  0  0  0  0  0  0  0  0  0
    6.8746    0.2355   23.5743 H   0  0  0  0  0  0  0  0  0  0  0  0
    8.8013    1.8559   23.8158 H   0  0  0  0  0  0  0  0  0  0  0  0
    8.1340    1.3960   25.3781 H   0  0  0  0  0  0  0  0  0  0  0  0
    9.3102   -3.5814   22.9223 H   0  0  0  0  0  0  0  0  0  0  0  0
    7.6393   -4.0964   22.6889 H   0  0  0  0  0  0  0  0  0  0  0  0
    5.9450   -2.6328   24.5791 H   0  0  0  0  0  0  0  0  0  0  0  0
  1  2  1  0  0  0  0
  1  3  2  0  0  0  0
  2  4  2  0  0  0  0
  3 12  1  0  0  0  0
  4 13  1  0  0  0  0
  5  6  1  0  0  0  0
  5 16  2  0  0  0  0
  6 17  2  0  0  0  0
  7  9  1  0  0  0  0
  7 18  2  0  0  0  0
  8 14  2  0  0  0  0
  8 17  1  0  0  0  0
  9 26  2  0  0  0  0
 10 12  2  0  0  0  0
 10 25  1  0  0  0  0
 11 15  1  0  0  0  0
 11 25  2  0  0  0  0
 12 13  1  0  0  0  0
 13 15  2  0  0  0  0
 14 16  1  0  0  0  0
 14 23  1  6  0  0  0
 15 28  1  0  0  0  0
 16 32  1  0  0  0  0
 17 33  1  0  0  0  0
 18 24  1  0  0  0  0
 18 27  1  0  0  0  0
 19 23  1  1  0  0  0
 19 28  1  0  0  0  0
 19 30  2  0  0  0  0
 20 28  1  0  0  0  0
 20 29  1  0  0  0  0
 20 31  2  0  0  0  0
 21 22  1  0  0  0  0
 21 23  1  1  0  0  0
 22 32  1  0  0  0  0
 23 29  1  6  0  0  0
 24 29  1  0  0  0  0
 26 27  1  0  0  0  0
  1 34  1  0  0  0  0
  2 35  1  0  0  0  0
  3 36  1  0  0  0  0
  4 37  1  0  0  0  0
  5 38  1  0  0  0  0
  6 39  1  0  0  0  0
  7 40  1  0  0  0  0
  8 41  1  0  0  0  0
  9 42  1  0  0  0  0
 10 43  1  0  0  0  0
 11 44  1  0  0  0  0
 21 45  1  0  0  0  0
 21 46  1  0  0  0  0
 22 47  1  0  0  0  0
 22 48  1  0  0  0  0
 24 49  1  0  0  0  0
 24 50  1  0  0  0  0
 27 51  1  0  0  0  0
M  END
> <compound>
VLA-UNK-f702bf1c-2

> <compound_smiles>
c1ccc2c(c1)cncc2N3C(=O)[C@@]4(CCOc5c4cc(cc5)Cl)N(C3=O)Cc6cc[nH]n6

> <enantiomer_smiles>
c1ccc2c(c1)cncc2N3C(=O)[C@@]4(CCOc5c4cc(cc5)Cl)N(C3=O)Cc6cc[nH]n6

> <scaffold>
chromane-5spiro-isoquinoline

> <clash_score>
0

> <docking_score>
-10.313127517700195

> <overlap_score>
1.0

> <MMFF_internal_energy>
66.03446762829002

> <docked_smiles>
c1ccc2c(c1)cncc2N3C(=O)[C@@]4(CCOc5c4cc(cc5)Cl)N(C3=O)Cc6ccn[nH]6

$$$$
VLA-UNK-f702bf1c-3_1
  -OEChem-12272114573D

 50 55  0     1  0  0  0  0  0999 V2000
    3.3432    2.6279   20.4411 C   0  0  0  0  0  0  0  0  0  0  0  0
    3.8960    1.9291   21.5050 C   0  0  0  0  0  0  0  0  0  0  0  0
    3.7865    2.4205   19.1660 C   0  0  0  0  0  0  0  0  0  0  0  0
    4.8973    1.0233   21.2988 C   0  0  0  0  0  0  0  0  0  0  0  0
   12.0765    0.0316   24.1541 C   0  0  0  0  0  0  0  0  0  0  0  0
   12.9132   -0.6032   23.2569 C   0  0  0  0  0  0  0  0  0  0  0  0
   10.9991   -1.4331   22.0443 C   0  0  0  0  0  0  0  0  0  0  0  0
    5.3278    1.2339   17.6066 C   0  0  0  0  0  0  0  0  0  0  0  0
    6.8438   -0.2892   18.3752 C   0  0  0  0  0  0  0  0  0  0  0  0
    6.6039   -3.6322   26.2541 C   0  0  0  0  0  0  0  0  0  0  0  0
    4.8226    1.4906   18.9054 C   0  0  0  0  0  0  0  0  0  0  0  0
    5.3982    0.7733   19.9948 C   0  0  0  0  0  0  0  0  0  0  0  0
   10.1406   -0.7765   22.9250 C   0  0  0  0  0  0  0  0  0  0  0  0
    6.4440   -0.1472   19.6979 C   0  0  0  0  0  0  0  0  0  0  0  0
   10.7040   -0.0625   23.9898 C   0  0  0  0  0  0  0  0  0  0  0  0
   12.3683   -1.3298   22.2234 C   0  0  0  0  0  0  0  0  0  0  0  0
    7.4075   -3.4386   24.3373 C   0  0  0  0  0  0  0  0  0  0  0  0
    8.2490    0.0169   21.4271 C   0  0  0  0  0  0  0  0  0  0  0  0
    6.9866   -1.9366   21.3580 C   0  0  0  0  0  0  0  0  0  0  0  0
    7.8721   -0.1194   23.8831 C   0  0  0  0  0  0  0  0  0  0  0  0
    8.6609    1.0133   24.4995 C   0  0  0  0  0  0  0  0  0  0  0  0
    8.6238   -0.7606   22.6929 C   0  0  2  0  0  0  0  0  0  0  0  0
    8.2673   -3.3062   23.1136 C   0  0  0  0  0  0  0  0  0  0  0  0
    6.3062    0.3769   17.3421 N   0  0  0  0  0  0  0  0  0  0  0  0
    7.7926   -3.5417   25.5882 N   0  0  0  0  0  0  0  0  0  0  0  0
    5.5075   -3.5916   25.4939 N   0  0  0  0  0  0  0  0  0  0  0  0
    6.0493   -3.4675   24.2727 N   0  0  0  0  0  0  0  0  0  0  0  0
    7.2292   -0.6897   20.7790 N   0  0  0  0  0  0  0  0  0  0  0  0
    8.0140   -2.1541   22.4331 N   0  0  0  0  0  0  0  0  0  0  0  0
    8.8016    1.0414   21.0847 O   0  0  0  0  0  0  0  0  0  0  0  0
    6.1144   -2.7515   21.1388 O   0  0  0  0  0  0  0  0  0  0  0  0
    9.9479    0.5589   24.9534 O   0  0  0  0  0  0  0  0  0  0  0  0
   13.4262   -2.1470   21.1121 Cl  0  0  0  0  0  0  0  0  0  0  0  0
    2.5432    3.3510   20.6369 H   0  0  0  0  0  0  0  0  0  0  0  0
    3.5174    2.1137   22.5168 H   0  0  0  0  0  0  0  0  0  0  0  0
    3.3409    2.9743   18.3364 H   0  0  0  0  0  0  0  0  0  0  0  0
    5.3118    0.4895   22.1572 H   0  0  0  0  0  0  0  0  0  0  0  0
   12.4997    0.6069   24.9723 H   0  0  0  0  0  0  0  0  0  0  0  0
   13.9909   -0.5152   23.3780 H   0  0  0  0  0  0  0  0  0  0  0  0
   10.6017   -2.0254   21.2306 H   0  0  0  0  0  0  0  0  0  0  0  0
    4.9141    1.7511   16.7474 H   0  0  0  0  0  0  0  0  0  0  0  0
    7.6445   -0.9764   18.1043 H   0  0  0  0  0  0  0  0  0  0  0  0
    6.5344   -3.7309   27.3271 H   0  0  0  0  0  0  0  0  0  0  0  0
    7.7129   -0.8754   24.6698 H   0  0  0  0  0  0  0  0  0  0  0  0
    6.8746    0.2355   23.5743 H   0  0  0  0  0  0  0  0  0  0  0  0
    8.8013    1.8559   23.8158 H   0  0  0  0  0  0  0  0  0  0  0  0
    8.1340    1.3960   25.3781 H   0  0  0  0  0  0  0  0  0  0  0  0
    9.3284   -3.3037   23.3857 H   0  0  0  0  0  0  0  0  0  0  0  0
    8.1089   -4.1464   22.4294 H   0  0  0  0  0  0  0  0  0  0  0  0
    5.4406   -3.4101   23.4646 H   0  0  0  0  0  0  0  0  0  0  0  0
  1  2  1  0  0  0  0
  1  3  2  0  0  0  0
  2  4  2  0  0  0  0
  3 11  1  0  0  0  0
  4 12  1  0  0  0  0
  5  6  1  0  0  0  0
  5 15  2  0  0  0  0
  6 16  2  0  0  0  0
  7 13  2  0  0  0  0
  7 16  1  0  0  0  0
  8 11  2  0  0  0  0
  8 24  1  0  0  0  0
  9 14  1  0  0  0  0
  9 24  2  0  0  0  0
 10 25  1  0  0  0  0
 10 26  2  0  0  0  0
 11 12  1  0  0  0  0
 12 14  2  0  0  0  0
 13 15  1  0  0  0  0
 13 22  1  6  0  0  0
 14 28  1  0  0  0  0
 15 32  1  0  0  0  0
 16 33  1  0  0  0  0
 17 23  1  0  0  0  0
 17 25  2  0  0  0  0
 17 27  1  0  0  0  0
 18 22  1  1  0  0  0
 18 28  1  0  0  0  0
 18 30  2  0  0  0  0
 19 28  1  0  0  0  0
 19 29  1  0  0  0  0
 19 31  2  0  0  0  0
 20 21  1  0  0  0  0
 20 22  1  1  0  0  0
 21 32  1  0  0  0  0
 22 29  1  6  0  0  0
 23 29  1  0  0  0  0
 26 27  1  0  0  0  0
  1 34  1  0  0  0  0
  2 35  1  0  0  0  0
  3 36  1  0  0  0  0
  4 37  1  0  0  0  0
  5 38  1  0  0  0  0
  6 39  1  0  0  0  0
  7 40  1  0  0  0  0
  8 41  1  0  0  0  0
  9 42  1  0  0  0  0
 10 43  1  0  0  0  0
 20 44  1  0  0  0  0
 20 45  1  0  0  0  0
 21 46  1  0  0  0  0
 21 47  1  0  0  0  0
 23 48  1  0  0  0  0
 23 49  1  0  0  0  0
 27 50  1  0  0  0  0
M  END
> <compound>
VLA-UNK-f702bf1c-3

> <compound_smiles>
c1ccc2c(c1)cncc2N3C(=O)[C@@]4(CCOc5c4cc(cc5)Cl)N(C3=O)Cc6nc[nH]n6

> <enantiomer_smiles>
c1ccc2c(c1)cncc2N3C(=O)[C@@]4(CCOc5c4cc(cc5)Cl)N(C3=O)Cc6nc[nH]n6

> <scaffold>
chromane-5spiro-isoquinoline

> <clash_score>
0

> <docking_score>
-9.572542190551758

> <overlap_score>
1.0

> <MMFF_internal_energy>
67.80575657779754

> <docked_smiles>
c1ccc2c(c1)cncc2N3C(=O)[C@@]4(CCOc5c4cc(cc5)Cl)N(C3=O)Cc6[nH]ncn6

$$$$
ALP-POS-4483ae88-2_1
  -OEChem-12272114573D

 54 58  0     1  0  0  0  0  0999 V2000
    3.3432    2.6279   20.4411 C   0  0  0  0  0  0  0  0  0  0  0  0
    3.8960    1.9291   21.5050 C   0  0  0  0  0  0  0  0  0  0  0  0
    3.7865    2.4205   19.1660 C   0  0  0  0  0  0  0  0  0  0  0  0
    4.8973    1.0233   21.2988 C   0  0  0  0  0  0  0  0  0  0  0  0
   12.0765    0.0316   24.1541 C   0  0  0  0  0  0  0  0  0  0  0  0
   12.9132   -0.6032   23.2569 C   0  0  0  0  0  0  0  0  0  0  0  0
   10.9991   -1.4331   22.0443 C   0  0  0  0  0  0  0  0  0  0  0  0
    5.3278    1.2339   17.6066 C   0  0  0  0  0  0  0  0  0  0  0  0
    6.8438   -0.2892   18.3752 C   0  0  0  0  0  0  0  0  0  0  0  0
    4.8226    1.4906   18.9054 C   0  0  0  0  0  0  0  0  0  0  0  0
    5.3982    0.7733   19.9948 C   0  0  0  0  0  0  0  0  0  0  0  0
   10.1406   -0.7765   22.9250 C   0  0  0  0  0  0  0  0  0  0  0  0
    6.4440   -0.1472   19.6979 C   0  0  0  0  0  0  0  0  0  0  0  0
   10.7040   -0.0625   23.9898 C   0  0  0  0  0  0  0  0  0  0  0  0
   12.3683   -1.3298   22.2234 C   0  0  0  0  0  0  0  0  0  0  0  0
    8.2490    0.0169   21.4271 C   0  0  0  0  0  0  0  0  0  0  0  0
    7.5732    3.1851   24.4989 C   0  0  0  0  0  0  0  0  0  0  0  0
    8.0140   -2.1541   22.4331 C   0  0  0  0  0  0  0  0  0  0  0  0
    6.9866   -1.9366   21.3580 C   0  0  0  0  0  0  0  0  0  0  0  0
    7.8721   -0.1194   23.8831 C   0  0  0  0  0  0  0  0  0  0  0  0
    8.6238   -0.7606   22.6929 C   0  0  3  0  0  0  0  0  0  0  0  0
    8.9272    5.0067   23.4683 C   0  0  0  0  0  0  0  0  0  0  0  0
    7.7472    1.9173   25.2955 C   0  0  0  0  0  0  0  0  0  0  0  0
    6.3062    0.3769   17.3421 N   0  0  0  0  0  0  0  0  0  0  0  0
    7.2292   -0.6897   20.7790 N   0  0  0  0  0  0  0  0  0  0  0  0
    8.6609    1.0133   24.4995 N   0  0  2  0  0  0  0  0  0  0  0  0
    8.7955    3.7798   24.2207 N   0  0  0  0  0  0  0  0  0  0  0  0
    8.8207    1.0442   21.0759 O   0  0  0  0  0  0  0  0  0  0  0  0
    6.4787    3.6180   24.1482 O   0  0  0  0  0  0  0  0  0  0  0  0
   10.7627    1.7891   25.5056 O   0  0  0  0  0  0  0  0  0  0  0  0
    9.7168   -0.4087   26.1819 O   0  0  0  0  0  0  0  0  0  0  0  0
    9.9479    0.5589   24.9534 S   0  0  0  0  0  0  0  0  0  0  0  0
   13.4287   -2.1432   21.1116 Cl  0  0  0  0  0  0  0  0  0  0  0  0
    2.5432    3.3510   20.6369 H   0  0  0  0  0  0  0  0  0  0  0  0
    3.5174    2.1137   22.5168 H   0  0  0  0  0  0  0  0  0  0  0  0
    3.3409    2.9743   18.3364 H   0  0  0  0  0  0  0  0  0  0  0  0
    5.3118    0.4895   22.1572 H   0  0  0  0  0  0  0  0  0  0  0  0
   12.5146    0.5989   24.9731 H   0  0  0  0  0  0  0  0  0  0  0  0
   13.9912   -0.5212   23.3825 H   0  0  0  0  0  0  0  0  0  0  0  0
   10.6108   -2.0217   21.2301 H   0  0  0  0  0  0  0  0  0  0  0  0
    4.9141    1.7511   16.7474 H   0  0  0  0  0  0  0  0  0  0  0  0
    7.6445   -0.9764   18.1043 H   0  0  0  0  0  0  0  0  0  0  0  0
    7.5109   -2.5632   23.3241 H   0  0  0  0  0  0  0  0  0  0  0  0
    8.7659   -2.9051   22.1445 H   0  0  0  0  0  0  0  0  0  0  0  0
    7.0568   -2.7259   20.5706 H   0  0  0  0  0  0  0  0  0  0  0  0
    5.9501   -1.9967   21.7718 H   0  0  0  0  0  0  0  0  0  0  0  0
    6.9200    0.3141   23.5692 H   0  0  0  0  0  0  0  0  0  0  0  0
    7.6275   -0.8362   24.6685 H   0  0  0  0  0  0  0  0  0  0  0  0
    9.0263    4.7723   22.3981 H   0  0  0  0  0  0  0  0  0  0  0  0
    8.0352    5.6308   23.6257 H   0  0  0  0  0  0  0  0  0  0  0  0
    9.8204    5.5512   23.8084 H   0  0  0  0  0  0  0  0  0  0  0  0
    8.2449    2.1430   26.2433 H   0  0  0  0  0  0  0  0  0  0  0  0
    6.7699    1.4690   25.4974 H   0  0  0  0  0  0  0  0  0  0  0  0
    9.6399    3.3305   24.5629 H   0  0  0  0  0  0  0  0  0  0  0  0
  1  2  1  0  0  0  0
  1  3  2  0  0  0  0
  2  4  2  0  0  0  0
  3 10  1  0  0  0  0
  4 11  1  0  0  0  0
  5  6  2  0  0  0  0
  5 14  1  0  0  0  0
  6 15  1  0  0  0  0
  7 12  1  0  0  0  0
  7 15  2  0  0  0  0
  8 10  2  0  0  0  0
  8 24  1  0  0  0  0
  9 13  1  0  0  0  0
  9 24  2  0  0  0  0
 10 11  1  0  0  0  0
 11 13  2  0  0  0  0
 12 14  2  0  0  0  0
 12 21  1  0  0  0  0
 13 25  1  0  0  0  0
 14 32  1  0  0  0  0
 15 33  1  0  0  0  0
 16 21  1  0  0  0  0
 16 25  1  0  0  0  0
 16 28  2  0  0  0  0
 17 23  1  0  0  0  0
 17 27  1  0  0  0  0
 17 29  2  0  0  0  0
 18 19  1  0  0  0  0
 18 21  1  0  0  0  0
 19 25  1  0  0  0  0
 20 21  1  0  0  0  0
 20 26  1  0  0  0  0
 22 27  1  0  0  0  0
 23 26  1  1  0  0  0
 26 32  1  0  0  0  0
 30 32  2  0  0  0  0
 31 32  2  0  0  0  0
  1 34  1  0  0  0  0
  2 35  1  0  0  0  0
  3 36  1  0  0  0  0
  4 37  1  0  0  0  0
  5 38  1  0  0  0  0
  6 39  1  0  0  0  0
  7 40  1  0  0  0  0
  8 41  1  0  0  0  0
  9 42  1  0  0  0  0
 18 43  1  0  0  0  0
 18 44  1  0  0  0  0
 19 45  1  0  0  0  0
 19 46  1  0  0  0  0
 20 47  1  0  0  0  0
 20 48  1  0  0  0  0
 22 49  1  0  0  0  0
 22 50  1  0  0  0  0
 22 51  1  0  0  0  0
 23 52  1  0  0  0  0
 23 53  1  0  0  0  0
 27 54  1  0  0  0  0
M  END
> <compound>
ALP-POS-4483ae88-2

> <compound_smiles>
CNC(=O)CN1CC2(CCN(C2=O)c3cncc4c3cccc4)c5cc(ccc5S1(=O)=O)Cl

> <enantiomer_smiles>
CNC(=O)C[N@@]1CC2(CCN(C2=O)c3cncc4c3cccc4)c5cc(ccc5S1(=O)=O)Cl

> <scaffold>
tetralinlike-5spiro-isoquinoline

> <clash_score>
0.7195049221902078

> <docking_score>
-8.953119277954102

> <overlap_score>
1.0

> <MMFF_internal_energy>
237.17752184134605

> <docked_smiles>
CNC(=O)C[N@@]1C[C@]2(CCN(C2=O)c3cncc4c3cccc4)c5cc(ccc5S1(=O)=O)Cl

$$$$
ALP-POS-ecbed2ba-7_2
  -OEChem-12272114573D

 59 64  0     1  0  0  0  0  0999 V2000
    3.3432    2.6279   20.4411 C   0  0  0  0  0  0  0  0  0  0  0  0
    3.8960    1.9291   21.5050 C   0  0  0  0  0  0  0  0  0  0  0  0
    3.7865    2.4205   19.1660 C   0  0  0  0  0  0  0  0  0  0  0  0
    4.8973    1.0233   21.2988 C   0  0  0  0  0  0  0  0  0  0  0  0
   12.0765    0.0316   24.1541 C   0  0  0  0  0  0  0  0  0  0  0  0
   12.9132   -0.6032   23.2569 C   0  0  0  0  0  0  0  0  0  0  0  0
   10.9991   -1.4331   22.0443 C   0  0  0  0  0  0  0  0  0  0  0  0
    5.3278    1.2339   17.6066 C   0  0  0  0  0  0  0  0  0  0  0  0
    6.8438   -0.2892   18.3752 C   0  0  0  0  0  0  0  0  0  0  0  0
    4.8226    1.4906   18.9054 C   0  0  0  0  0  0  0  0  0  0  0  0
    5.3982    0.7733   19.9948 C   0  0  0  0  0  0  0  0  0  0  0  0
   10.7040   -0.0625   23.9898 C   0  0  0  0  0  0  0  0  0  0  0  0
   10.1406   -0.7765   22.9250 C   0  0  0  0  0  0  0  0  0  0  0  0
    6.4440   -0.1472   19.6979 C   0  0  0  0  0  0  0  0  0  0  0  0
   12.3683   -1.3298   22.2234 C   0  0  0  0  0  0  0  0  0  0  0  0
    8.2490    0.0169   21.4271 C   0  0  0  0  0  0  0  0  0  0  0  0
    6.8137    2.5772   25.0110 C   0  0  0  0  0  0  0  0  0  0  0  0
    9.9479    0.5589   24.9534 C   0  0  0  0  0  0  0  0  0  0  0  0
    7.6044    0.9696   26.8568 C   0  0  0  0  0  0  0  0  0  0  0  0
    8.5662    2.1234   26.8385 C   0  0  0  0  0  0  0  0  0  0  0  0
    8.0140   -2.1541   22.4331 C   0  0  0  0  0  0  0  0  0  0  0  0
    6.9866   -1.9366   21.3580 C   0  0  0  0  0  0  0  0  0  0  0  0
    7.8721   -0.1194   23.8831 C   0  0  0  0  0  0  0  0  0  0  0  0
    8.6238   -0.7606   22.6929 C   0  0  3  0  0  0  0  0  0  0  0  0
    7.8596    1.7144   25.5749 C   0  0  0  0  0  0  0  0  0  0  0  0
    4.3499    2.8677   24.8438 C   0  0  0  0  0  0  0  0  0  0  0  0
    6.3062    0.3769   17.3421 N   0  0  0  0  0  0  0  0  0  0  0  0
    7.2292   -0.6897   20.7790 N   0  0  0  0  0  0  0  0  0  0  0  0
    5.5271    2.1633   25.2989 N   0  0  0  0  0  0  0  0  0  0  0  0
    8.6609    1.0133   24.4995 N   0  3  1  0  0  0  0  0  0  0  0  0
    8.8286    1.0402   21.0803 O   0  0  0  0  0  0  0  0  0  0  0  0
    7.1317    3.5618   24.3544 O   0  0  0  0  0  0  0  0  0  0  0  0
   13.4279   -2.1425   21.1103 Cl  0  0  0  0  0  0  0  0  0  0  0  0
    2.5432    3.3510   20.6369 H   0  0  0  0  0  0  0  0  0  0  0  0
    3.5174    2.1137   22.5168 H   0  0  0  0  0  0  0  0  0  0  0  0
    3.3409    2.9743   18.3364 H   0  0  0  0  0  0  0  0  0  0  0  0
    5.3118    0.4895   22.1572 H   0  0  0  0  0  0  0  0  0  0  0  0
   12.5015    0.5969   24.9755 H   0  0  0  0  0  0  0  0  0  0  0  0
   13.9911   -0.5178   23.3796 H   0  0  0  0  0  0  0  0  0  0  0  0
   10.6044   -2.0168   21.2247 H   0  0  0  0  0  0  0  0  0  0  0  0
    4.9141    1.7511   16.7474 H   0  0  0  0  0  0  0  0  0  0  0  0
    7.6445   -0.9764   18.1043 H   0  0  0  0  0  0  0  0  0  0  0  0
    9.7611   -0.1218   25.8244 H   0  0  0  0  0  0  0  0  0  0  0  0
   10.4555    1.4665   25.3714 H   0  0  0  0  0  0  0  0  0  0  0  0
    8.0159   -0.0262   26.9715 H   0  0  0  0  0  0  0  0  0  0  0  0
    6.6562    1.1153   27.3609 H   0  0  0  0  0  0  0  0  0  0  0  0
    8.2600    3.0393   27.3303 H   0  0  0  0  0  0  0  0  0  0  0  0
    9.6216    1.9003   26.9406 H   0  0  0  0  0  0  0  0  0  0  0  0
    7.5142   -2.5479   23.3322 H   0  0  0  0  0  0  0  0  0  0  0  0
    8.7606   -2.9057   22.1415 H   0  0  0  0  0  0  0  0  0  0  0  0
    7.0576   -2.7250   20.5720 H   0  0  0  0  0  0  0  0  0  0  0  0
    5.9517   -1.9952   21.7716 H   0  0  0  0  0  0  0  0  0  0  0  0
    6.8951    0.2933   23.5771 H   0  0  0  0  0  0  0  0  0  0  0  0
    7.6774   -0.8499   24.6899 H   0  0  0  0  0  0  0  0  0  0  0  0
    4.0598    3.6198   25.5923 H   0  0  0  0  0  0  0  0  0  0  0  0
    4.5679    3.3667   23.8881 H   0  0  0  0  0  0  0  0  0  0  0  0
    3.5259    2.1525   24.7044 H   0  0  0  0  0  0  0  0  0  0  0  0
    5.4028    1.3240   25.8570 H   0  0  0  0  0  0  0  0  0  0  0  0
    8.7885    1.7347   23.7557 H   0  0  0  0  0  0  0  0  0  0  0  0
  1  2  1  0  0  0  0
  1  3  2  0  0  0  0
  2  4  2  0  0  0  0
  3 10  1  0  0  0  0
  4 11  1  0  0  0  0
  5  6  2  0  0  0  0
  5 12  1  0  0  0  0
  6 15  1  0  0  0  0
  7 13  1  0  0  0  0
  7 15  2  0  0  0  0
  8 10  2  0  0  0  0
  8 27  1  0  0  0  0
  9 14  1  0  0  0  0
  9 27  2  0  0  0  0
 10 11  1  0  0  0  0
 11 14  2  0  0  0  0
 12 13  2  0  0  0  0
 12 18  1  0  0  0  0
 13 24  1  0  0  0  0
 14 28  1  0  0  0  0
 15 33  1  0  0  0  0
 16 24  1  0  0  0  0
 16 28  1  0  0  0  0
 16 31  2  0  0  0  0
 17 25  1  0  0  0  0
 17 29  1  0  0  0  0
 17 32  2  0  0  0  0
 18 30  1  0  0  0  0
 19 20  1  0  0  0  0
 19 25  1  0  0  0  0
 20 25  1  0  0  0  0
 21 22  1  0  0  0  0
 21 24  1  0  0  0  0
 22 28  1  0  0  0  0
 23 24  1  0  0  0  0
 23 30  1  0  0  0  0
 25 30  1  6  0  0  0
 26 29  1  0  0  0  0
  1 34  1  0  0  0  0
  2 35  1  0  0  0  0
  3 36  1  0  0  0  0
  4 37  1  0  0  0  0
  5 38  1  0  0  0  0
  6 39  1  0  0  0  0
  7 40  1  0  0  0  0
  8 41  1  0  0  0  0
  9 42  1  0  0  0  0
 18 43  1  0  0  0  0
 18 44  1  0  0  0  0
 19 45  1  0  0  0  0
 19 46  1  0  0  0  0
 20 47  1  0  0  0  0
 20 48  1  0  0  0  0
 21 49  1  0  0  0  0
 21 50  1  0  0  0  0
 22 51  1  0  0  0  0
 22 52  1  0  0  0  0
 23 53  1  0  0  0  0
 23 54  1  0  0  0  0
 26 55  1  0  0  0  0
 26 56  1  0  0  0  0
 26 57  1  0  0  0  0
 29 58  1  0  0  0  0
 30 59  1  0  0  0  0
M  CHG  1  30   1
M  END
> <compound>
ALP-POS-ecbed2ba-7

> <compound_smiles>
CNC(=O)C1(CC1)N2Cc3ccc(cc3C4(C2)CCN(C4=O)c5cncc6c5cccc6)Cl

> <enantiomer_smiles>
CNC(=O)C1(CC1)[N@]2Cc3ccc(cc3C4(C2)CCN(C4=O)c5cncc6c5cccc6)Cl

> <scaffold>
tetrahydroisoquinoline-5spiro-isoquinoline

> <clash_score>
0

> <docking_score>
-8.614264488220215

> <overlap_score>
0.976356029510498

> <MMFF_internal_energy>
167.58629640642505

> <docked_smiles>
CNC(=O)C1(CC1)[N@H+]2Cc3ccc(cc3[C@]4(C2)CCN(C4=O)c5cncc6c5cccc6)Cl

$$$$
EDG-MED-b1ef7fe3-4_1
  -OEChem-12272114573D

 53 57  0     1  0  0  0  0  0999 V2000
    4.8973    1.0233   21.2988 C   0  0  0  0  0  0  0  0  0  0  0  0
   12.0765    0.0316   24.1541 C   0  0  0  0  0  0  0  0  0  0  0  0
    3.8960    1.9291   21.5050 C   0  0  0  0  0  0  0  0  0  0  0  0
   12.9132   -0.6032   23.2569 C   0  0  0  0  0  0  0  0  0  0  0  0
    3.7865    2.4205   19.1660 C   0  0  0  0  0  0  0  0  0  0  0  0
   10.9991   -1.4331   22.0443 C   0  0  0  0  0  0  0  0  0  0  0  0
    5.3278    1.2339   17.6066 C   0  0  0  0  0  0  0  0  0  0  0  0
    6.8438   -0.2892   18.3752 C   0  0  0  0  0  0  0  0  0  0  0  0
    5.3982    0.7733   19.9948 C   0  0  0  0  0  0  0  0  0  0  0  0
    4.8226    1.4906   18.9054 C   0  0  0  0  0  0  0  0  0  0  0  0
   10.7040   -0.0625   23.9898 C   0  0  0  0  0  0  0  0  0  0  0  0
   10.1406   -0.7765   22.9250 C   0  0  0  0  0  0  0  0  0  0  0  0
    6.4440   -0.1472   19.6979 C   0  0  0  0  0  0  0  0  0  0  0  0
    3.3432    2.6279   20.4411 C   0  0  0  0  0  0  0  0  0  0  0  0
   12.3683   -1.3298   22.2234 C   0  0  0  0  0  0  0  0  0  0  0  0
    9.9479    0.5589   24.9534 C   0  0  0  0  0  0  0  0  0  0  0  0
    8.2490    0.0169   21.4271 C   0  0  0  0  0  0  0  0  0  0  0  0
    8.4669    3.2198   23.6970 C   0  0  0  0  0  0  0  0  0  0  0  0
    8.0140   -2.1541   22.4331 C   0  0  0  0  0  0  0  0  0  0  0  0
    6.9866   -1.9366   21.3580 C   0  0  0  0  0  0  0  0  0  0  0  0
    7.8721   -0.1194   23.8831 C   0  0  0  0  0  0  0  0  0  0  0  0
    8.6238   -0.7606   22.6929 C   0  0  3  0  0  0  0  0  0  0  0  0
   10.2286    4.9046   23.1758 C   0  0  0  0  0  0  0  0  0  0  0  0
    8.0922    2.2237   24.7645 C   0  0  0  0  0  0  0  0  0  0  0  0
    6.3062    0.3769   17.3421 N   0  0  0  0  0  0  0  0  0  0  0  0
    7.2292   -0.6897   20.7790 N   0  0  0  0  0  0  0  0  0  0  0  0
    8.6609    1.0133   24.4995 N   0  0  0  0  0  0  0  0  0  0  0  0
    9.6355    3.8939   24.0215 N   0  0  0  0  0  0  0  0  0  0  0  0
   10.3214    0.7303   26.1092 O   0  0  0  0  0  0  0  0  0  0  0  0
    8.8193    1.0411   21.0780 O   0  0  0  0  0  0  0  0  0  0  0  0
    7.8085    3.3951   22.6752 O   0  0  0  0  0  0  0  0  0  0  0  0
    2.0796    3.7711   20.7461 Cl  0  0  0  0  0  0  0  0  0  0  0  0
   13.4274   -2.1468   21.1136 Cl  0  0  0  0  0  0  0  0  0  0  0  0
    5.3117    0.4892   22.1570 H   0  0  0  0  0  0  0  0  0  0  0  0
   12.5172    0.5967   24.9716 H   0  0  0  0  0  0  0  0  0  0  0  0
    3.5279    2.1039   22.5232 H   0  0  0  0  0  0  0  0  0  0  0  0
   13.9905   -0.5221   23.3825 H   0  0  0  0  0  0  0  0  0  0  0  0
    3.3507    2.9677   18.3253 H   0  0  0  0  0  0  0  0  0  0  0  0
   10.6130   -2.0249   21.2272 H   0  0  0  0  0  0  0  0  0  0  0  0
    4.9139    1.7517   16.7478 H   0  0  0  0  0  0  0  0  0  0  0  0
    7.6451   -0.9758   18.1045 H   0  0  0  0  0  0  0  0  0  0  0  0
    7.5110   -2.5276   23.3390 H   0  0  0  0  0  0  0  0  0  0  0  0
    8.7575   -2.9105   22.1433 H   0  0  0  0  0  0  0  0  0  0  0  0
    7.0587   -2.7258   20.5724 H   0  0  0  0  0  0  0  0  0  0  0  0
    5.9512   -1.9960   21.7712 H   0  0  0  0  0  0  0  0  0  0  0  0
    6.9203    0.3184   23.5736 H   0  0  0  0  0  0  0  0  0  0  0  0
    7.6659   -0.8542   24.6623 H   0  0  0  0  0  0  0  0  0  0  0  0
   10.9348    4.4312   22.4778 H   0  0  0  0  0  0  0  0  0  0  0  0
    9.4384    5.4164   22.6069 H   0  0  0  0  0  0  0  0  0  0  0  0
   10.7641    5.6360   23.7990 H   0  0  0  0  0  0  0  0  0  0  0  0
    8.4448    2.5768   25.7381 H   0  0  0  0  0  0  0  0  0  0  0  0
    7.0053    2.1037   24.7947 H   0  0  0  0  0  0  0  0  0  0  0  0
   10.0971    3.6657   24.8972 H   0  0  0  0  0  0  0  0  0  0  0  0
  1  3  2  0  0  0  0
  1  9  1  0  0  0  0
  2  4  2  0  0  0  0
  2 11  1  0  0  0  0
  3 14  1  0  0  0  0
  4 15  1  0  0  0  0
  5 10  1  0  0  0  0
  5 14  2  0  0  0  0
  6 12  1  0  0  0  0
  6 15  2  0  0  0  0
  7 10  2  0  0  0  0
  7 25  1  0  0  0  0
  8 13  1  0  0  0  0
  8 25  2  0  0  0  0
  9 10  1  0  0  0  0
  9 13  2  0  0  0  0
 11 12  2  0  0  0  0
 11 16  1  0  0  0  0
 12 22  1  0  0  0  0
 13 26  1  0  0  0  0
 14 32  1  0  0  0  0
 15 33  1  0  0  0  0
 16 27  1  0  0  0  0
 16 29  2  0  0  0  0
 17 22  1  0  0  0  0
 17 26  1  0  0  0  0
 17 30  2  0  0  0  0
 18 24  1  0  0  0  0
 18 28  1  0  0  0  0
 18 31  2  0  0  0  0
 19 20  1  0  0  0  0
 19 22  1  0  0  0  0
 20 26  1  0  0  0  0
 21 22  1  0  0  0  0
 21 27  1  0  0  0  0
 23 28  1  0  0  0  0
 24 27  1  0  0  0  0
  1 34  1  0  0  0  0
  2 35  1  0  0  0  0
  3 36  1  0  0  0  0
  4 37  1  0  0  0  0
  5 38  1  0  0  0  0
  6 39  1  0  0  0  0
  7 40  1  0  0  0  0
  8 41  1  0  0  0  0
 19 42  1  0  0  0  0
 19 43  1  0  0  0  0
 20 44  1  0  0  0  0
 20 45  1  0  0  0  0
 21 46  1  0  0  0  0
 21 47  1  0  0  0  0
 23 48  1  0  0  0  0
 23 49  1  0  0  0  0
 23 50  1  0  0  0  0
 24 51  1  0  0  0  0
 24 52  1  0  0  0  0
 28 53  1  0  0  0  0
M  END
> <compound>
EDG-MED-b1ef7fe3-4

> <compound_smiles>
CNC(=O)CN1CC2(CCN(C2=O)c3cncc4c3ccc(c4)Cl)c5cc(ccc5C1=O)Cl

> <enantiomer_smiles>
CNC(=O)CN1CC2(CCN(C2=O)c3cncc4c3ccc(c4)Cl)c5cc(ccc5C1=O)Cl

> <scaffold>
tetrahydroisoquinoline-5spiro-isoquinoline

> <clash_score>
0

> <docking_score>
-9.867644309997559

> <overlap_score>
1.0

> <MMFF_internal_energy>
157.8566860477067

> <docked_smiles>
CNC(=O)CN1C[C@]2(CCN(C2=O)c3cncc4c3ccc(c4)Cl)c5cc(ccc5C1=O)Cl

$$$$
ALP-POS-ecbed2ba-14_2
  -OEChem-12272114573D

 56 60  0     1  0  0  0  0  0999 V2000
    6.1316    4.0493   22.1484 C   0  0  0  0  0  0  0  0  0  0  0  0
    3.3432    2.6279   20.4411 C   0  0  0  0  0  0  0  0  0  0  0  0
    3.8960    1.9291   21.5050 C   0  0  0  0  0  0  0  0  0  0  0  0
    3.7865    2.4205   19.1660 C   0  0  0  0  0  0  0  0  0  0  0  0
    4.8973    1.0233   21.2988 C   0  0  0  0  0  0  0  0  0  0  0  0
   12.0765    0.0316   24.1541 C   0  0  0  0  0  0  0  0  0  0  0  0
   12.9132   -0.6032   23.2569 C   0  0  0  0  0  0  0  0  0  0  0  0
   10.9991   -1.4331   22.0443 C   0  0  0  0  0  0  0  0  0  0  0  0
    5.3278    1.2339   17.6066 C   0  0  0  0  0  0  0  0  0  0  0  0
    6.8438   -0.2892   18.3752 C   0  0  0  0  0  0  0  0  0  0  0  0
    4.8226    1.4906   18.9054 C   0  0  0  0  0  0  0  0  0  0  0  0
    5.3982    0.7733   19.9948 C   0  0  0  0  0  0  0  0  0  0  0  0
   10.7040   -0.0625   23.9898 C   0  0  0  0  0  0  0  0  0  0  0  0
   10.1406   -0.7765   22.9250 C   0  0  0  0  0  0  0  0  0  0  0  0
    6.4440   -0.1472   19.6979 C   0  0  0  0  0  0  0  0  0  0  0  0
   12.3683   -1.3298   22.2234 C   0  0  0  0  0  0  0  0  0  0  0  0
    8.2490    0.0169   21.4271 C   0  0  0  0  0  0  0  0  0  0  0  0
    6.7919    2.5950   24.9761 C   0  0  0  0  0  0  0  0  0  0  0  0
    9.9479    0.5589   24.9534 C   0  0  0  0  0  0  0  0  0  0  0  0
    8.0140   -2.1541   22.4331 C   0  0  0  0  0  0  0  0  0  0  0  0
    6.9866   -1.9366   21.3580 C   0  0  0  0  0  0  0  0  0  0  0  0
    7.8721   -0.1194   23.8831 C   0  0  0  0  0  0  0  0  0  0  0  0
    8.6238   -0.7606   22.6929 C   0  0  3  0  0  0  0  0  0  0  0  0
    6.5186    4.5422   23.4690 C   0  0  0  0  0  0  0  0  0  0  0  0
    7.8596    1.7144   25.5749 C   0  0  0  0  0  0  0  0  0  0  0  0
    5.8222    3.6609   21.0996 N   0  0  0  0  0  0  0  0  0  0  0  0
    6.3062    0.3769   17.3421 N   0  0  0  0  0  0  0  0  0  0  0  0
    7.2292   -0.6897   20.7790 N   0  0  0  0  0  0  0  0  0  0  0  0
    7.3373    3.5744   24.1596 N   0  0  0  0  0  0  0  0  0  0  0  0
    8.6609    1.0133   24.4995 N   0  3  2  0  0  0  0  0  0  0  0  0
    8.8286    1.0402   21.0803 O   0  0  0  0  0  0  0  0  0  0  0  0
    5.5929    2.4454   25.1962 O   0  0  0  0  0  0  0  0  0  0  0  0
   13.4270   -2.1443   21.1108 Cl  0  0  0  0  0  0  0  0  0  0  0  0
    2.5432    3.3510   20.6369 H   0  0  0  0  0  0  0  0  0  0  0  0
    3.5174    2.1137   22.5168 H   0  0  0  0  0  0  0  0  0  0  0  0
    3.3409    2.9743   18.3364 H   0  0  0  0  0  0  0  0  0  0  0  0
    5.3118    0.4895   22.1572 H   0  0  0  0  0  0  0  0  0  0  0  0
   12.5021    0.5962   24.9756 H   0  0  0  0  0  0  0  0  0  0  0  0
   13.9911   -0.5171   23.3786 H   0  0  0  0  0  0  0  0  0  0  0  0
   10.6045   -2.0170   21.2248 H   0  0  0  0  0  0  0  0  0  0  0  0
    4.9141    1.7511   16.7474 H   0  0  0  0  0  0  0  0  0  0  0  0
    7.6445   -0.9764   18.1043 H   0  0  0  0  0  0  0  0  0  0  0  0
    9.7608   -0.1211   25.8247 H   0  0  0  0  0  0  0  0  0  0  0  0
   10.4565    1.4661   25.3705 H   0  0  0  0  0  0  0  0  0  0  0  0
    7.5144   -2.5472   23.3327 H   0  0  0  0  0  0  0  0  0  0  0  0
    8.7599   -2.9065   22.1418 H   0  0  0  0  0  0  0  0  0  0  0  0
    7.0582   -2.7244   20.5716 H   0  0  0  0  0  0  0  0  0  0  0  0
    5.9516   -1.9958   21.7713 H   0  0  0  0  0  0  0  0  0  0  0  0
    6.8955    0.2929   23.5757 H   0  0  0  0  0  0  0  0  0  0  0  0
    7.6774   -0.8491   24.6905 H   0  0  0  0  0  0  0  0  0  0  0  0
    7.0959    5.4680   23.3906 H   0  0  0  0  0  0  0  0  0  0  0  0
    5.6397    4.7355   24.0906 H   0  0  0  0  0  0  0  0  0  0  0  0
    7.4105    0.9495   26.2145 H   0  0  0  0  0  0  0  0  0  0  0  0
    8.5738    2.3157   26.1441 H   0  0  0  0  0  0  0  0  0  0  0  0
    8.3460    3.6364   24.0553 H   0  0  0  0  0  0  0  0  0  0  0  0
    8.7930    1.7233   23.7554 H   0  0  0  0  0  0  0  0  0  0  0  0
  1 24  1  0  0  0  0
  1 26  3  0  0  0  0
  2  3  1  0  0  0  0
  2  4  2  0  0  0  0
  3  5  2  0  0  0  0
  4 11  1  0  0  0  0
  5 12  1  0  0  0  0
  6  7  1  0  0  0  0
  6 13  2  0  0  0  0
  7 16  2  0  0  0  0
  8 14  2  0  0  0  0
  8 16  1  0  0  0  0
  9 11  2  0  0  0  0
  9 27  1  0  0  0  0
 10 15  1  0  0  0  0
 10 27  2  0  0  0  0
 11 12  1  0  0  0  0
 12 15  2  0  0  0  0
 13 14  1  0  0  0  0
 13 19  1  0  0  0  0
 14 23  1  0  0  0  0
 15 28  1  0  0  0  0
 16 33  1  0  0  0  0
 17 23  1  0  0  0  0
 17 28  1  0  0  0  0
 17 31  2  0  0  0  0
 18 25  1  0  0  0  0
 18 29  1  0  0  0  0
 18 32  2  0  0  0  0
 19 30  1  0  0  0  0
 20 21  1  0  0  0  0
 20 23  1  0  0  0  0
 21 28  1  0  0  0  0
 22 23  1  0  0  0  0
 22 30  1  0  0  0  0
 24 29  1  0  0  0  0
 25 30  1  6  0  0  0
  2 34  1  0  0  0  0
  3 35  1  0  0  0  0
  4 36  1  0  0  0  0
  5 37  1  0  0  0  0
  6 38  1  0  0  0  0
  7 39  1  0  0  0  0
  8 40  1  0  0  0  0
  9 41  1  0  0  0  0
 10 42  1  0  0  0  0
 19 43  1  0  0  0  0
 19 44  1  0  0  0  0
 20 45  1  0  0  0  0
 20 46  1  0  0  0  0
 21 47  1  0  0  0  0
 21 48  1  0  0  0  0
 22 49  1  0  0  0  0
 22 50  1  0  0  0  0
 24 51  1  0  0  0  0
 24 52  1  0  0  0  0
 25 53  1  0  0  0  0
 25 54  1  0  0  0  0
 29 55  1  0  0  0  0
 30 56  1  0  0  0  0
M  CHG  1  30   1
M  END
> <compound>
ALP-POS-ecbed2ba-14

> <compound_smiles>
c1ccc2c(c1)cncc2N3CCC4(C3=O)CN(Cc5c4cc(cc5)Cl)CC(=O)NCC#N

> <enantiomer_smiles>
c1ccc2c(c1)cncc2N3CCC4(C3=O)C[N@](Cc5c4cc(cc5)Cl)CC(=O)NCC#N

> <scaffold>
tetrahydroisoquinoline-5spiro-isoquinoline

> <clash_score>
0

> <docking_score>
-9.100167274475098

> <overlap_score>
0.9770224690437317

> <MMFF_internal_energy>
190.55777136480006

> <docked_smiles>
c1ccc2c(c1)cncc2N3CC[C@@]4(C3=O)C[N@H+](Cc5c4cc(cc5)Cl)CC(=O)NCC#N

$$$$
EDG-MED-b1ef7fe3-2_1
  -OEChem-12272114573D

 53 57  0     1  0  0  0  0  0999 V2000
    3.7865    2.4205   19.1660 C   0  0  0  0  0  0  0  0  0  0  0  0
   12.0765    0.0316   24.1541 C   0  0  0  0  0  0  0  0  0  0  0  0
    3.3432    2.6279   20.4411 C   0  0  0  0  0  0  0  0  0  0  0  0
   12.9132   -0.6032   23.2569 C   0  0  0  0  0  0  0  0  0  0  0  0
    4.8973    1.0233   21.2988 C   0  0  0  0  0  0  0  0  0  0  0  0
   10.9991   -1.4331   22.0443 C   0  0  0  0  0  0  0  0  0  0  0  0
    5.3278    1.2339   17.6066 C   0  0  0  0  0  0  0  0  0  0  0  0
    6.8438   -0.2892   18.3752 C   0  0  0  0  0  0  0  0  0  0  0  0
    4.8226    1.4906   18.9054 C   0  0  0  0  0  0  0  0  0  0  0  0
    5.3982    0.7733   19.9948 C   0  0  0  0  0  0  0  0  0  0  0  0
   10.7040   -0.0625   23.9898 C   0  0  0  0  0  0  0  0  0  0  0  0
   10.1406   -0.7765   22.9250 C   0  0  0  0  0  0  0  0  0  0  0  0
    6.4440   -0.1472   19.6979 C   0  0  0  0  0  0  0  0  0  0  0  0
    3.8960    1.9291   21.5050 C   0  0  0  0  0  0  0  0  0  0  0  0
   12.3683   -1.3298   22.2234 C   0  0  0  0  0  0  0  0  0  0  0  0
    9.9479    0.5589   24.9534 C   0  0  0  0  0  0  0  0  0  0  0  0
    8.2490    0.0169   21.4271 C   0  0  0  0  0  0  0  0  0  0  0  0
    8.4669    3.2198   23.6970 C   0  0  0  0  0  0  0  0  0  0  0  0
    8.0140   -2.1541   22.4331 C   0  0  0  0  0  0  0  0  0  0  0  0
    6.9866   -1.9366   21.3580 C   0  0  0  0  0  0  0  0  0  0  0  0
    7.8721   -0.1194   23.8831 C   0  0  0  0  0  0  0  0  0  0  0  0
    8.6238   -0.7606   22.6929 C   0  0  3  0  0  0  0  0  0  0  0  0
   10.2286    4.9046   23.1758 C   0  0  0  0  0  0  0  0  0  0  0  0
    8.0922    2.2237   24.7645 C   0  0  0  0  0  0  0  0  0  0  0  0
    6.3062    0.3769   17.3421 N   0  0  0  0  0  0  0  0  0  0  0  0
    7.2292   -0.6897   20.7790 N   0  0  0  0  0  0  0  0  0  0  0  0
    8.6609    1.0133   24.4995 N   0  0  0  0  0  0  0  0  0  0  0  0
    9.6355    3.8939   24.0215 N   0  0  0  0  0  0  0  0  0  0  0  0
   10.3214    0.7303   26.1092 O   0  0  0  0  0  0  0  0  0  0  0  0
    8.8193    1.0411   21.0780 O   0  0  0  0  0  0  0  0  0  0  0  0
    7.8085    3.3951   22.6752 O   0  0  0  0  0  0  0  0  0  0  0  0
    3.4314    2.1555   22.7514 F   0  0  0  0  0  0  0  0  0  0  0  0
   13.4274   -2.1468   21.1136 Cl  0  0  0  0  0  0  0  0  0  0  0  0
    3.3399    2.9734   18.3365 H   0  0  0  0  0  0  0  0  0  0  0  0
   12.5172    0.5967   24.9716 H   0  0  0  0  0  0  0  0  0  0  0  0
    2.5430    3.3508   20.6361 H   0  0  0  0  0  0  0  0  0  0  0  0
   13.9905   -0.5221   23.3825 H   0  0  0  0  0  0  0  0  0  0  0  0
    5.3103    0.4884   22.1571 H   0  0  0  0  0  0  0  0  0  0  0  0
   10.6130   -2.0249   21.2272 H   0  0  0  0  0  0  0  0  0  0  0  0
    4.9138    1.7515   16.7475 H   0  0  0  0  0  0  0  0  0  0  0  0
    7.6445   -0.9762   18.1044 H   0  0  0  0  0  0  0  0  0  0  0  0
    7.5110   -2.5276   23.3390 H   0  0  0  0  0  0  0  0  0  0  0  0
    8.7575   -2.9105   22.1433 H   0  0  0  0  0  0  0  0  0  0  0  0
    7.0587   -2.7258   20.5724 H   0  0  0  0  0  0  0  0  0  0  0  0
    5.9512   -1.9960   21.7712 H   0  0  0  0  0  0  0  0  0  0  0  0
    6.9203    0.3184   23.5736 H   0  0  0  0  0  0  0  0  0  0  0  0
    7.6659   -0.8542   24.6623 H   0  0  0  0  0  0  0  0  0  0  0  0
   10.9348    4.4312   22.4778 H   0  0  0  0  0  0  0  0  0  0  0  0
    9.4384    5.4164   22.6069 H   0  0  0  0  0  0  0  0  0  0  0  0
   10.7641    5.6360   23.7990 H   0  0  0  0  0  0  0  0  0  0  0  0
    8.4448    2.5768   25.7381 H   0  0  0  0  0  0  0  0  0  0  0  0
    7.0053    2.1037   24.7947 H   0  0  0  0  0  0  0  0  0  0  0  0
   10.0971    3.6657   24.8972 H   0  0  0  0  0  0  0  0  0  0  0  0
  1  3  2  0  0  0  0
  1  9  1  0  0  0  0
  2  4  2  0  0  0  0
  2 11  1  0  0  0  0
  3 14  1  0  0  0  0
  4 15  1  0  0  0  0
  5 10  1  0  0  0  0
  5 14  2  0  0  0  0
  6 12  1  0  0  0  0
  6 15  2  0  0  0  0
  7  9  2  0  0  0  0
  7 25  1  0  0  0  0
  8 13  1  0  0  0  0
  8 25  2  0  0  0  0
  9 10  1  0  0  0  0
 10 13  2  0  0  0  0
 11 12  2  0  0  0  0
 11 16  1  0  0  0  0
 12 22  1  0  0  0  0
 13 26  1  0  0  0  0
 14 32  1  0  0  0  0
 15 33  1  0  0  0  0
 16 27  1  0  0  0  0
 16 29  2  0  0  0  0
 17 22  1  0  0  0  0
 17 26  1  0  0  0  0
 17 30  2  0  0  0  0
 18 24  1  0  0  0  0
 18 28  1  0  0  0  0
 18 31  2  0  0  0  0
 19 20  1  0  0  0  0
 19 22  1  0  0  0  0
 20 26  1  0  0  0  0
 21 22  1  0  0  0  0
 21 27  1  0  0  0  0
 23 28  1  0  0  0  0
 24 27  1  0  0  0  0
  1 34  1  0  0  0  0
  2 35  1  0  0  0  0
  3 36  1  0  0  0  0
  4 37  1  0  0  0  0
  5 38  1  0  0  0  0
  6 39  1  0  0  0  0
  7 40  1  0  0  0  0
  8 41  1  0  0  0  0
 19 42  1  0  0  0  0
 19 43  1  0  0  0  0
 20 44  1  0  0  0  0
 20 45  1  0  0  0  0
 21 46  1  0  0  0  0
 21 47  1  0  0  0  0
 23 48  1  0  0  0  0
 23 49  1  0  0  0  0
 23 50  1  0  0  0  0
 24 51  1  0  0  0  0
 24 52  1  0  0  0  0
 28 53  1  0  0  0  0
M  END
> <compound>
EDG-MED-b1ef7fe3-2

> <compound_smiles>
CNC(=O)CN1CC2(CCN(C2=O)c3cncc4c3cc(cc4)F)c5cc(ccc5C1=O)Cl

> <enantiomer_smiles>
CNC(=O)CN1CC2(CCN(C2=O)c3cncc4c3cc(cc4)F)c5cc(ccc5C1=O)Cl

> <scaffold>
tetrahydroisoquinoline-5spiro-isoquinoline

> <clash_score>
0

> <docking_score>
-9.805887222290039

> <overlap_score>
1.0

> <MMFF_internal_energy>
156.079178606297

> <docked_smiles>
CNC(=O)CN1C[C@]2(CCN(C2=O)c3cncc4c3cc(cc4)F)c5cc(ccc5C1=O)Cl

$$$$
LUO-POS-868e8996-7_1
  -OEChem-12272114573D

 52 56  0     1  0  0  0  0  0999 V2000
    3.3432    2.6279   20.4411 C   0  0  0  0  0  0  0  0  0  0  0  0
    3.8960    1.9291   21.5050 C   0  0  0  0  0  0  0  0  0  0  0  0
    3.7865    2.4205   19.1660 C   0  0  0  0  0  0  0  0  0  0  0  0
    4.8973    1.0233   21.2988 C   0  0  0  0  0  0  0  0  0  0  0  0
   12.0765    0.0316   24.1541 C   0  0  0  0  0  0  0  0  0  0  0  0
   12.9132   -0.6032   23.2569 C   0  0  0  0  0  0  0  0  0  0  0  0
   10.9991   -1.4331   22.0443 C   0  0  0  0  0  0  0  0  0  0  0  0
    5.3278    1.2339   17.6066 C   0  0  0  0  0  0  0  0  0  0  0  0
    6.8438   -0.2892   18.3752 C   0  0  0  0  0  0  0  0  0  0  0  0
    4.8226    1.4906   18.9054 C   0  0  0  0  0  0  0  0  0  0  0  0
    5.3982    0.7733   19.9948 C   0  0  0  0  0  0  0  0  0  0  0  0
   10.7040   -0.0625   23.9898 C   0  0  0  0  0  0  0  0  0  0  0  0
   10.1406   -0.7765   22.9250 C   0  0  0  0  0  0  0  0  0  0  0  0
    6.4440   -0.1472   19.6979 C   0  0  0  0  0  0  0  0  0  0  0  0
   12.3683   -1.3298   22.2234 C   0  0  0  0  0  0  0  0  0  0  0  0
    9.9479    0.5589   24.9534 C   0  0  0  0  0  0  0  0  0  0  0  0
    6.9866   -1.9366   21.3580 C   0  0  0  0  0  0  0  0  0  0  0  0
    8.2490    0.0169   21.4271 C   0  0  0  0  0  0  0  0  0  0  0  0
    8.4570    3.2407   23.7518 C   0  0  0  0  0  0  0  0  0  0  0  0
    8.0140   -2.1541   22.4331 C   0  0  0  0  0  0  0  0  0  0  0  0
    7.8721   -0.1194   23.8831 C   0  0  0  0  0  0  0  0  0  0  0  0
    8.6238   -0.7606   22.6929 C   0  0  2  0  0  0  0  0  0  0  0  0
   10.2132    4.9477   23.2873 C   0  0  0  0  0  0  0  0  0  0  0  0
    8.0807    2.2144   24.7898 C   0  0  0  0  0  0  0  0  0  0  0  0
    6.3062    0.3769   17.3421 N   0  0  0  0  0  0  0  0  0  0  0  0
    7.2292   -0.6897   20.7790 N   0  0  0  0  0  0  0  0  0  0  0  0
    8.6609    1.0133   24.4995 N   0  0  0  0  0  0  0  0  0  0  0  0
    9.6199    3.9117   24.1019 N   0  0  0  0  0  0  0  0  0  0  0  0
   10.3255    0.7359   26.1068 O   0  0  0  0  0  0  0  0  0  0  0  0
    6.1269   -2.7642   21.0983 O   0  0  0  0  0  0  0  0  0  0  0  0
    8.7906    1.0604   21.1009 O   0  0  0  0  0  0  0  0  0  0  0  0
    7.8042    3.4399   22.7308 O   0  0  0  0  0  0  0  0  0  0  0  0
   13.4270   -2.1314   21.1016 Cl  0  0  0  0  0  0  0  0  0  0  0  0
    2.5432    3.3510   20.6369 H   0  0  0  0  0  0  0  0  0  0  0  0
    3.5174    2.1137   22.5168 H   0  0  0  0  0  0  0  0  0  0  0  0
    3.3409    2.9743   18.3364 H   0  0  0  0  0  0  0  0  0  0  0  0
    5.3118    0.4895   22.1572 H   0  0  0  0  0  0  0  0  0  0  0  0
   12.5182    0.5961   24.9709 H   0  0  0  0  0  0  0  0  0  0  0  0
   13.9905   -0.5097   23.3734 H   0  0  0  0  0  0  0  0  0  0  0  0
   10.6056   -2.0136   21.2215 H   0  0  0  0  0  0  0  0  0  0  0  0
    4.9141    1.7511   16.7474 H   0  0  0  0  0  0  0  0  0  0  0  0
    7.6445   -0.9764   18.1043 H   0  0  0  0  0  0  0  0  0  0  0  0
    7.4956   -2.5592   23.3110 H   0  0  0  0  0  0  0  0  0  0  0  0
    8.7585   -2.8848   22.0989 H   0  0  0  0  0  0  0  0  0  0  0  0
    6.9047    0.2735   23.5777 H   0  0  0  0  0  0  0  0  0  0  0  0
    7.7129   -0.8339   24.6904 H   0  0  0  0  0  0  0  0  0  0  0  0
   10.9262    4.4967   22.5815 H   0  0  0  0  0  0  0  0  0  0  0  0
    9.4240    5.4705   22.7272 H   0  0  0  0  0  0  0  0  0  0  0  0
   10.7408    5.6648   23.9333 H   0  0  0  0  0  0  0  0  0  0  0  0
    8.4252    2.5431   25.7748 H   0  0  0  0  0  0  0  0  0  0  0  0
    6.9942    2.0882   24.8097 H   0  0  0  0  0  0  0  0  0  0  0  0
   10.0771    3.6624   24.9741 H   0  0  0  0  0  0  0  0  0  0  0  0
  1  2  1  0  0  0  0
  1  3  2  0  0  0  0
  2  4  2  0  0  0  0
  3 10  1  0  0  0  0
  4 11  1  0  0  0  0
  5  6  2  0  0  0  0
  5 12  1  0  0  0  0
  6 15  1  0  0  0  0
  7 13  1  0  0  0  0
  7 15  2  0  0  0  0
  8 10  2  0  0  0  0
  8 25  1  0  0  0  0
  9 14  1  0  0  0  0
  9 25  2  0  0  0  0
 10 11  1  0  0  0  0
 11 14  2  0  0  0  0
 12 13  2  0  0  0  0
 12 16  1  0  0  0  0
 13 22  1  6  0  0  0
 14 26  1  0  0  0  0
 15 33  1  0  0  0  0
 16 27  1  0  0  0  0
 16 29  2  0  0  0  0
 17 20  1  0  0  0  0
 17 26  1  0  0  0  0
 17 30  2  0  0  0  0
 18 22  1  6  0  0  0
 18 26  1  0  0  0  0
 18 31  2  0  0  0  0
 19 24  1  0  0  0  0
 19 28  1  0  0  0  0
 19 32  2  0  0  0  0
 20 22  1  1  0  0  0
 21 22  1  1  0  0  0
 21 27  1  0  0  0  0
 23 28  1  0  0  0  0
 24 27  1  0  0  0  0
  1 34  1  0  0  0  0
  2 35  1  0  0  0  0
  3 36  1  0  0  0  0
  4 37  1  0  0  0  0
  5 38  1  0  0  0  0
  6 39  1  0  0  0  0
  7 40  1  0  0  0  0
  8 41  1  0  0  0  0
  9 42  1  0  0  0  0
 20 43  1  0  0  0  0
 20 44  1  0  0  0  0
 21 45  1  0  0  0  0
 21 46  1  0  0  0  0
 23 47  1  0  0  0  0
 23 48  1  0  0  0  0
 23 49  1  0  0  0  0
 24 50  1  0  0  0  0
 24 51  1  0  0  0  0
 28 52  1  0  0  0  0
M  END
> <compound>
LUO-POS-868e8996-7

> <compound_smiles>
CNC(=O)CN1C[C@@]2(CC(=O)N(C2=O)c3cncc4c3cccc4)c5cc(ccc5C1=O)Cl

> <enantiomer_smiles>
CNC(=O)CN1C[C@@]2(CC(=O)N(C2=O)c3cncc4c3cccc4)c5cc(ccc5C1=O)Cl

> <scaffold>
tetrahydroisoquinoline-5spiro-isoquinoline

> <clash_score>
0

> <docking_score>
-9.979941368103027

> <overlap_score>
1.0150961875915527

> <MMFF_internal_energy>
127.06654424957077

> <docked_smiles>
CNC(=O)CN1C[C@]2(CC(=O)N(C2=O)c3cncc4c3cccc4)c5cc(ccc5C1=O)Cl

$$$$
PET-UNK-aa57768f-1_1
  -OEChem-12272114573D

 51 56  0     1  0  0  0  0  0999 V2000
    3.3432    2.6279   20.4411 C   0  0  0  0  0  0  0  0  0  0  0  0
    3.8960    1.9291   21.5050 C   0  0  0  0  0  0  0  0  0  0  0  0
    3.7865    2.4205   19.1660 C   0  0  0  0  0  0  0  0  0  0  0  0
    4.8973    1.0233   21.2988 C   0  0  0  0  0  0  0  0  0  0  0  0
   12.0765    0.0316   24.1541 C   0  0  0  0  0  0  0  0  0  0  0  0
   12.9132   -0.6032   23.2569 C   0  0  0  0  0  0  0  0  0  0  0  0
   10.9991   -1.4331   22.0443 C   0  0  0  0  0  0  0  0  0  0  0  0
    5.3278    1.2339   17.6066 C   0  0  0  0  0  0  0  0  0  0  0  0
    6.8438   -0.2892   18.3752 C   0  0  0  0  0  0  0  0  0  0  0  0
    9.2049    5.2766   23.3908 C   0  0  0  0  0  0  0  0  0  0  0  0
    4.8226    1.4906   18.9054 C   0  0  0  0  0  0  0  0  0  0  0  0
    5.3982    0.7733   19.9948 C   0  0  0  0  0  0  0  0  0  0  0  0
   10.7040   -0.0625   23.9898 C   0  0  0  0  0  0  0  0  0  0  0  0
   10.1406   -0.7765   22.9250 C   0  0  0  0  0  0  0  0  0  0  0  0
    6.4440   -0.1472   19.6979 C   0  0  0  0  0  0  0  0  0  0  0  0
   12.3683   -1.3298   22.2234 C   0  0  0  0  0  0  0  0  0  0  0  0
    8.8916    3.3667   24.2094 C   0  0  0  0  0  0  0  0  0  0  0  0
    9.9479    0.5589   24.9534 C   0  0  0  0  0  0  0  0  0  0  0  0
    8.2490    0.0169   21.4271 C   0  0  0  0  0  0  0  0  0  0  0  0
    8.0140   -2.1541   22.4331 C   0  0  0  0  0  0  0  0  0  0  0  0
    6.9866   -1.9366   21.3580 C   0  0  0  0  0  0  0  0  0  0  0  0
    7.8721   -0.1194   23.8831 C   0  0  0  0  0  0  0  0  0  0  0  0
    8.6238   -0.7606   22.6929 C   0  0  1  0  0  0  0  0  0  0  0  0
    8.0921    2.2235   24.7646 C   0  0  0  0  0  0  0  0  0  0  0  0
    6.3062    0.3769   17.3421 N   0  0  0  0  0  0  0  0  0  0  0  0
   10.3934    4.7284   23.4897 N   0  0  0  0  0  0  0  0  0  0  0  0
   10.1873    3.4719   24.0281 N   0  0  0  0  0  0  0  0  0  0  0  0
    7.2292   -0.6897   20.7790 N   0  0  0  0  0  0  0  0  0  0  0  0
    8.6609    1.0133   24.4995 N   0  0  0  0  0  0  0  0  0  0  0  0
   10.3214    0.7301   26.1092 O   0  0  0  0  0  0  0  0  0  0  0  0
    8.8192    1.0413   21.0783 O   0  0  0  0  0  0  0  0  0  0  0  0
    8.1968    4.4734   23.8283 O   0  0  0  0  0  0  0  0  0  0  0  0
   13.4275   -2.1467   21.1136 Cl  0  0  0  0  0  0  0  0  0  0  0  0
    2.5432    3.3510   20.6369 H   0  0  0  0  0  0  0  0  0  0  0  0
    3.5174    2.1137   22.5168 H   0  0  0  0  0  0  0  0  0  0  0  0
    3.3409    2.9743   18.3364 H   0  0  0  0  0  0  0  0  0  0  0  0
    5.3118    0.4895   22.1572 H   0  0  0  0  0  0  0  0  0  0  0  0
   12.5172    0.5961   24.9720 H   0  0  0  0  0  0  0  0  0  0  0  0
   13.9905   -0.5226   23.3828 H   0  0  0  0  0  0  0  0  0  0  0  0
   10.6129   -2.0250   21.2273 H   0  0  0  0  0  0  0  0  0  0  0  0
    4.9141    1.7511   16.7474 H   0  0  0  0  0  0  0  0  0  0  0  0
    7.6445   -0.9764   18.1043 H   0  0  0  0  0  0  0  0  0  0  0  0
    8.9344    6.2522   23.0186 H   0  0  0  0  0  0  0  0  0  0  0  0
    7.5112   -2.5276   23.3392 H   0  0  0  0  0  0  0  0  0  0  0  0
    8.7578   -2.9102   22.1437 H   0  0  0  0  0  0  0  0  0  0  0  0
    7.0588   -2.7254   20.5721 H   0  0  0  0  0  0  0  0  0  0  0  0
    5.9512   -1.9962   21.7710 H   0  0  0  0  0  0  0  0  0  0  0  0
    6.9201    0.3181   23.5738 H   0  0  0  0  0  0  0  0  0  0  0  0
    7.6662   -0.8543   24.6623 H   0  0  0  0  0  0  0  0  0  0  0  0
    7.9871    2.3175   25.8510 H   0  0  0  0  0  0  0  0  0  0  0  0
    7.0827    2.2074   24.3404 H   0  0  0  0  0  0  0  0  0  0  0  0
  1  2  1  0  0  0  0
  1  3  2  0  0  0  0
  2  4  2  0  0  0  0
  3 11  1  0  0  0  0
  4 12  1  0  0  0  0
  5  6  1  0  0  0  0
  5 13  2  0  0  0  0
  6 16  2  0  0  0  0
  7 14  2  0  0  0  0
  7 16  1  0  0  0  0
  8 11  2  0  0  0  0
  8 25  1  0  0  0  0
  9 15  1  0  0  0  0
  9 25  2  0  0  0  0
 10 26  2  0  0  0  0
 10 32  1  0  0  0  0
 11 12  1  0  0  0  0
 12 15  2  0  0  0  0
 13 14  1  0  0  0  0
 13 18  1  0  0  0  0
 14 23  1  6  0  0  0
 15 28  1  0  0  0  0
 16 33  1  0  0  0  0
 17 24  1  0  0  0  0
 17 27  2  0  0  0  0
 17 32  1  0  0  0  0
 18 29  1  0  0  0  0
 18 30  2  0  0  0  0
 19 23  1  1  0  0  0
 19 28  1  0  0  0  0
 19 31  2  0  0  0  0
 20 21  1  0  0  0  0
 20 23  1  1  0  0  0
 21 28  1  0  0  0  0
 22 23  1  6  0  0  0
 22 29  1  0  0  0  0
 24 29  1  0  0  0  0
 26 27  1  0  0  0  0
  1 34  1  0  0  0  0
  2 35  1  0  0  0  0
  3 36  1  0  0  0  0
  4 37  1  0  0  0  0
  5 38  1  0  0  0  0
  6 39  1  0  0  0  0
  7 40  1  0  0  0  0
  8 41  1  0  0  0  0
  9 42  1  0  0  0  0
 10 43  1  0  0  0  0
 20 44  1  0  0  0  0
 20 45  1  0  0  0  0
 21 46  1  0  0  0  0
 21 47  1  0  0  0  0
 22 48  1  0  0  0  0
 22 49  1  0  0  0  0
 24 50  1  0  0  0  0
 24 51  1  0  0  0  0
M  END
> <compound>
PET-UNK-aa57768f-1

> <compound_smiles>
c1ccc2c(c1)cncc2N3CC[C@@]4(C3=O)CN(C(=O)c5c4cc(cc5)Cl)Cc6nnco6

> <enantiomer_smiles>
c1ccc2c(c1)cncc2N3CC[C@@]4(C3=O)CN(C(=O)c5c4cc(cc5)Cl)Cc6nnco6

> <scaffold>
tetrahydroisoquinoline-5spiro-isoquinoline

> <clash_score>
0

> <docking_score>
-8.180882453918457

> <overlap_score>
0.9864227175712585

> <MMFF_internal_energy>
170.01032101597633

> <docked_smiles>
c1ccc2c(c1)cncc2N3CC[C@@]4(C3=O)CN(C(=O)c5c4cc(cc5)Cl)Cc6nnco6

$$$$
LUO-POS-868e8996-8_1
  -OEChem-12272114573D

 52 56  0     1  0  0  0  0  0999 V2000
    3.3432    2.6279   20.4411 C   0  0  0  0  0  0  0  0  0  0  0  0
    3.8960    1.9291   21.5050 C   0  0  0  0  0  0  0  0  0  0  0  0
    3.7865    2.4205   19.1660 C   0  0  0  0  0  0  0  0  0  0  0  0
    4.8973    1.0233   21.2988 C   0  0  0  0  0  0  0  0  0  0  0  0
   12.0765    0.0316   24.1541 C   0  0  0  0  0  0  0  0  0  0  0  0
   12.9132   -0.6032   23.2569 C   0  0  0  0  0  0  0  0  0  0  0  0
   10.9991   -1.4331   22.0443 C   0  0  0  0  0  0  0  0  0  0  0  0
    5.3278    1.2339   17.6066 C   0  0  0  0  0  0  0  0  0  0  0  0
    6.8438   -0.2892   18.3752 C   0  0  0  0  0  0  0  0  0  0  0  0
    4.8226    1.4906   18.9054 C   0  0  0  0  0  0  0  0  0  0  0  0
    5.3982    0.7733   19.9948 C   0  0  0  0  0  0  0  0  0  0  0  0
   10.7040   -0.0625   23.9898 C   0  0  0  0  0  0  0  0  0  0  0  0
   10.1406   -0.7765   22.9250 C   0  0  0  0  0  0  0  0  0  0  0  0
    6.4440   -0.1472   19.6979 C   0  0  0  0  0  0  0  0  0  0  0  0
   12.3683   -1.3298   22.2234 C   0  0  0  0  0  0  0  0  0  0  0  0
    9.9479    0.5589   24.9534 C   0  0  0  0  0  0  0  0  0  0  0  0
    6.9866   -1.9366   21.3580 C   0  0  0  0  0  0  0  0  0  0  0  0
    8.2490    0.0169   21.4271 C   0  0  0  0  0  0  0  0  0  0  0  0
    8.4791    3.2248   23.7301 C   0  0  0  0  0  0  0  0  0  0  0  0
    8.0140   -2.1541   22.4331 C   0  0  0  0  0  0  0  0  0  0  0  0
    7.8721   -0.1194   23.8831 C   0  0  0  0  0  0  0  0  0  0  0  0
    8.6238   -0.7606   22.6929 C   0  0  1  0  0  0  0  0  0  0  0  0
   10.2634    4.8967   23.2457 C   0  0  0  0  0  0  0  0  0  0  0  0
    8.0860    2.2170   24.7800 C   0  0  0  0  0  0  0  0  0  0  0  0
    6.3062    0.3769   17.3421 N   0  0  0  0  0  0  0  0  0  0  0  0
    7.2292   -0.6897   20.7790 N   0  0  0  0  0  0  0  0  0  0  0  0
    8.6609    1.0133   24.4995 N   0  0  0  0  0  0  0  0  0  0  0  0
    9.6532    3.8802   24.0722 N   0  0  0  0  0  0  0  0  0  0  0  0
   10.3233    0.7340   26.1072 O   0  0  0  0  0  0  0  0  0  0  0  0
    6.1241   -2.7637   21.0994 O   0  0  0  0  0  0  0  0  0  0  0  0
    8.7798    1.0657   21.1007 O   0  0  0  0  0  0  0  0  0  0  0  0
    7.8293    3.4232   22.7070 O   0  0  0  0  0  0  0  0  0  0  0  0
   13.4274   -2.1487   21.1144 Cl  0  0  0  0  0  0  0  0  0  0  0  0
    2.5432    3.3510   20.6369 H   0  0  0  0  0  0  0  0  0  0  0  0
    3.5174    2.1137   22.5168 H   0  0  0  0  0  0  0  0  0  0  0  0
    3.3409    2.9743   18.3364 H   0  0  0  0  0  0  0  0  0  0  0  0
    5.3118    0.4895   22.1572 H   0  0  0  0  0  0  0  0  0  0  0  0
   12.5176    0.5899   24.9753 H   0  0  0  0  0  0  0  0  0  0  0  0
   13.9906   -0.5285   23.3862 H   0  0  0  0  0  0  0  0  0  0  0  0
   10.6052   -2.0249   21.2298 H   0  0  0  0  0  0  0  0  0  0  0  0
    4.9141    1.7511   16.7474 H   0  0  0  0  0  0  0  0  0  0  0  0
    7.6445   -0.9764   18.1043 H   0  0  0  0  0  0  0  0  0  0  0  0
    7.5398   -2.5800   23.3239 H   0  0  0  0  0  0  0  0  0  0  0  0
    8.7488   -2.8731   22.0505 H   0  0  0  0  0  0  0  0  0  0  0  0
    6.9271    0.3240   23.5699 H   0  0  0  0  0  0  0  0  0  0  0  0
    7.6670   -0.8487   24.6637 H   0  0  0  0  0  0  0  0  0  0  0  0
   10.9685    4.4257   22.5450 H   0  0  0  0  0  0  0  0  0  0  0  0
    9.4829    5.4262   22.6797 H   0  0  0  0  0  0  0  0  0  0  0  0
   10.8032    5.6123   23.8833 H   0  0  0  0  0  0  0  0  0  0  0  0
    8.4363    2.5512   25.7610 H   0  0  0  0  0  0  0  0  0  0  0  0
    6.9976    2.1092   24.8015 H   0  0  0  0  0  0  0  0  0  0  0  0
   10.1065    3.6334   24.9472 H   0  0  0  0  0  0  0  0  0  0  0  0
  1  2  1  0  0  0  0
  1  3  2  0  0  0  0
  2  4  2  0  0  0  0
  3 10  1  0  0  0  0
  4 11  1  0  0  0  0
  5  6  2  0  0  0  0
  5 12  1  0  0  0  0
  6 15  1  0  0  0  0
  7 13  1  0  0  0  0
  7 15  2  0  0  0  0
  8 10  2  0  0  0  0
  8 25  1  0  0  0  0
  9 14  1  0  0  0  0
  9 25  2  0  0  0  0
 10 11  1  0  0  0  0
 11 14  2  0  0  0  0
 12 13  2  0  0  0  0
 12 16  1  0  0  0  0
 13 22  1  1  0  0  0
 14 26  1  0  0  0  0
 15 33  1  0  0  0  0
 16 27  1  0  0  0  0
 16 29  2  0  0  0  0
 17 20  1  0  0  0  0
 17 26  1  0  0  0  0
 17 30  2  0  0  0  0
 18 22  1  1  0  0  0
 18 26  1  0  0  0  0
 18 31  2  0  0  0  0
 19 24  1  0  0  0  0
 19 28  1  0  0  0  0
 19 32  2  0  0  0  0
 20 22  1  6  0  0  0
 21 22  1  6  0  0  0
 21 27  1  0  0  0  0
 23 28  1  0  0  0  0
 24 27  1  0  0  0  0
  1 34  1  0  0  0  0
  2 35  1  0  0  0  0
  3 36  1  0  0  0  0
  4 37  1  0  0  0  0
  5 38  1  0  0  0  0
  6 39  1  0  0  0  0
  7 40  1  0  0  0  0
  8 41  1  0  0  0  0
  9 42  1  0  0  0  0
 20 43  1  0  0  0  0
 20 44  1  0  0  0  0
 21 45  1  0  0  0  0
 21 46  1  0  0  0  0
 23 47  1  0  0  0  0
 23 48  1  0  0  0  0
 23 49  1  0  0  0  0
 24 50  1  0  0  0  0
 24 51  1  0  0  0  0
 28 52  1  0  0  0  0
M  END
> <compound>
LUO-POS-868e8996-8

> <compound_smiles>
CNC(=O)CN1C[C@]2(CC(=O)N(C2=O)c3cncc4c3cccc4)c5cc(ccc5C1=O)Cl

> <enantiomer_smiles>
CNC(=O)CN1C[C@]2(CC(=O)N(C2=O)c3cncc4c3cccc4)c5cc(ccc5C1=O)Cl

> <scaffold>
tetrahydroisoquinoline-5spiro-isoquinoline

> <clash_score>
0

> <docking_score>
-9.968439102172852

> <overlap_score>
1.0152195692062378

> <MMFF_internal_energy>
127.63828909431905

> <docked_smiles>
CNC(=O)CN1C[C@]2(CC(=O)N(C2=O)c3cncc4c3cccc4)c5cc(ccc5C1=O)Cl

$$$$
ALP-POS-4483ae88-2_2
  -OEChem-12272114573D

 54 58  0     1  0  0  0  0  0999 V2000
    3.3432    2.6279   20.4411 C   0  0  0  0  0  0  0  0  0  0  0  0
    3.8960    1.9291   21.5050 C   0  0  0  0  0  0  0  0  0  0  0  0
    3.7865    2.4205   19.1660 C   0  0  0  0  0  0  0  0  0  0  0  0
    4.8973    1.0233   21.2988 C   0  0  0  0  0  0  0  0  0  0  0  0
   12.0765    0.0316   24.1541 C   0  0  0  0  0  0  0  0  0  0  0  0
   12.9132   -0.6032   23.2569 C   0  0  0  0  0  0  0  0  0  0  0  0
   10.9991   -1.4331   22.0443 C   0  0  0  0  0  0  0  0  0  0  0  0
    5.3278    1.2339   17.6066 C   0  0  0  0  0  0  0  0  0  0  0  0
    6.8438   -0.2892   18.3752 C   0  0  0  0  0  0  0  0  0  0  0  0
    4.8226    1.4906   18.9054 C   0  0  0  0  0  0  0  0  0  0  0  0
    5.3982    0.7733   19.9948 C   0  0  0  0  0  0  0  0  0  0  0  0
   10.1406   -0.7765   22.9250 C   0  0  0  0  0  0  0  0  0  0  0  0
    6.4440   -0.1472   19.6979 C   0  0  0  0  0  0  0  0  0  0  0  0
   10.7040   -0.0625   23.9898 C   0  0  0  0  0  0  0  0  0  0  0  0
   12.3683   -1.3298   22.2234 C   0  0  0  0  0  0  0  0  0  0  0  0
    8.2490    0.0169   21.4271 C   0  0  0  0  0  0  0  0  0  0  0  0
    7.6663    3.2863   24.3793 C   0  0  0  0  0  0  0  0  0  0  0  0
    8.0140   -2.1541   22.4331 C   0  0  0  0  0  0  0  0  0  0  0  0
    6.9866   -1.9366   21.3580 C   0  0  0  0  0  0  0  0  0  0  0  0
    7.8721   -0.1194   23.8831 C   0  0  0  0  0  0  0  0  0  0  0  0
    8.6238   -0.7606   22.6929 C   0  0  3  0  0  0  0  0  0  0  0  0
    7.6459    4.5714   26.5152 C   0  0  0  0  0  0  0  0  0  0  0  0
    8.4877    2.2504   23.6551 C   0  0  0  0  0  0  0  0  0  0  0  0
    6.3062    0.3769   17.3421 N   0  0  0  0  0  0  0  0  0  0  0  0
    7.2292   -0.6897   20.7790 N   0  0  0  0  0  0  0  0  0  0  0  0
    8.6609    1.0133   24.4995 N   0  0  1  0  0  0  0  0  0  0  0  0
    8.2233    3.6042   25.6097 N   0  0  0  0  0  0  0  0  0  0  0  0
    8.8259    1.0400   21.0831 O   0  0  0  0  0  0  0  0  0  0  0  0
    6.6384    3.7762   23.9193 O   0  0  0  0  0  0  0  0  0  0  0  0
   10.7448    1.7928   25.5035 O   0  0  0  0  0  0  0  0  0  0  0  0
    9.7089   -0.4186   26.1586 O   0  0  0  0  0  0  0  0  0  0  0  0
    9.9479    0.5589   24.9534 S   0  0  0  0  0  0  0  0  0  0  0  0
   13.4292   -2.1458   21.1144 Cl  0  0  0  0  0  0  0  0  0  0  0  0
    2.5432    3.3510   20.6369 H   0  0  0  0  0  0  0  0  0  0  0  0
    3.5174    2.1137   22.5168 H   0  0  0  0  0  0  0  0  0  0  0  0
    3.3409    2.9743   18.3364 H   0  0  0  0  0  0  0  0  0  0  0  0
    5.3118    0.4895   22.1572 H   0  0  0  0  0  0  0  0  0  0  0  0
   12.5122    0.6000   24.9731 H   0  0  0  0  0  0  0  0  0  0  0  0
   13.9915   -0.5184   23.3810 H   0  0  0  0  0  0  0  0  0  0  0  0
   10.6214   -2.0232   21.2284 H   0  0  0  0  0  0  0  0  0  0  0  0
    4.9141    1.7511   16.7474 H   0  0  0  0  0  0  0  0  0  0  0  0
    7.6445   -0.9764   18.1043 H   0  0  0  0  0  0  0  0  0  0  0  0
    7.5065   -2.5310   23.3320 H   0  0  0  0  0  0  0  0  0  0  0  0
    8.7577   -2.9063   22.1436 H   0  0  0  0  0  0  0  0  0  0  0  0
    7.0555   -2.7266   20.5753 H   0  0  0  0  0  0  0  0  0  0  0  0
    5.9530   -1.9929   21.7718 H   0  0  0  0  0  0  0  0  0  0  0  0
    6.8736    0.2629   23.5850 H   0  0  0  0  0  0  0  0  0  0  0  0
    7.6580   -0.8824   24.6597 H   0  0  0  0  0  0  0  0  0  0  0  0
    8.0571    5.5684   26.2986 H   0  0  0  0  0  0  0  0  0  0  0  0
    6.5538    4.5891   26.3848 H   0  0  0  0  0  0  0  0  0  0  0  0
    7.8869    4.2927   27.5516 H   0  0  0  0  0  0  0  0  0  0  0  0
    8.0244    2.0210   22.6909 H   0  0  0  0  0  0  0  0  0  0  0  0
    9.5003    2.6295   23.4894 H   0  0  0  0  0  0  0  0  0  0  0  0
    9.0795    3.1337   25.8880 H   0  0  0  0  0  0  0  0  0  0  0  0
  1  2  1  0  0  0  0
  1  3  2  0  0  0  0
  2  4  2  0  0  0  0
  3 10  1  0  0  0  0
  4 11  1  0  0  0  0
  5  6  2  0  0  0  0
  5 14  1  0  0  0  0
  6 15  1  0  0  0  0
  7 12  1  0  0  0  0
  7 15  2  0  0  0  0
  8 10  2  0  0  0  0
  8 24  1  0  0  0  0
  9 13  1  0  0  0  0
  9 24  2  0  0  0  0
 10 11  1  0  0  0  0
 11 13  2  0  0  0  0
 12 14  2  0  0  0  0
 12 21  1  0  0  0  0
 13 25  1  0  0  0  0
 14 32  1  0  0  0  0
 15 33  1  0  0  0  0
 16 21  1  0  0  0  0
 16 25  1  0  0  0  0
 16 28  2  0  0  0  0
 17 23  1  0  0  0  0
 17 27  1  0  0  0  0
 17 29  2  0  0  0  0
 18 19  1  0  0  0  0
 18 21  1  0  0  0  0
 19 25  1  0  0  0  0
 20 21  1  0  0  0  0
 20 26  1  0  0  0  0
 22 27  1  0  0  0  0
 23 26  1  6  0  0  0
 26 32  1  0  0  0  0
 30 32  2  0  0  0  0
 31 32  2  0  0  0  0
  1 34  1  0  0  0  0
  2 35  1  0  0  0  0
  3 36  1  0  0  0  0
  4 37  1  0  0  0  0
  5 38  1  0  0  0  0
  6 39  1  0  0  0  0
  7 40  1  0  0  0  0
  8 41  1  0  0  0  0
  9 42  1  0  0  0  0
 18 43  1  0  0  0  0
 18 44  1  0  0  0  0
 19 45  1  0  0  0  0
 19 46  1  0  0  0  0
 20 47  1  0  0  0  0
 20 48  1  0  0  0  0
 22 49  1  0  0  0  0
 22 50  1  0  0  0  0
 22 51  1  0  0  0  0
 23 52  1  0  0  0  0
 23 53  1  0  0  0  0
 27 54  1  0  0  0  0
M  END
> <compound>
ALP-POS-4483ae88-2

> <compound_smiles>
CNC(=O)CN1CC2(CCN(C2=O)c3cncc4c3cccc4)c5cc(ccc5S1(=O)=O)Cl

> <enantiomer_smiles>
CNC(=O)C[N@]1CC2(CCN(C2=O)c3cncc4c3cccc4)c5cc(ccc5S1(=O)=O)Cl

> <scaffold>
tetralinlike-5spiro-isoquinoline

> <clash_score>
0.7192988760955464

> <docking_score>
-8.641646385192871

> <overlap_score>
1.0

> <MMFF_internal_energy>
237.65755581939376

> <docked_smiles>
CNC(=O)C[N@]1C[C@]2(CCN(C2=O)c3cncc4c3cccc4)c5cc(ccc5S1(=O)=O)Cl

$$$$
EDG-MED-b1ef7fe3-3_1
  -OEChem-12272114573D

 53 57  0     1  0  0  0  0  0999 V2000
    4.8973    1.0233   21.2988 C   0  0  0  0  0  0  0  0  0  0  0  0
   12.0765    0.0316   24.1541 C   0  0  0  0  0  0  0  0  0  0  0  0
    3.8960    1.9291   21.5050 C   0  0  0  0  0  0  0  0  0  0  0  0
   12.9132   -0.6032   23.2569 C   0  0  0  0  0  0  0  0  0  0  0  0
    3.7865    2.4205   19.1660 C   0  0  0  0  0  0  0  0  0  0  0  0
   10.9991   -1.4331   22.0443 C   0  0  0  0  0  0  0  0  0  0  0  0
    5.3278    1.2339   17.6066 C   0  0  0  0  0  0  0  0  0  0  0  0
    6.8438   -0.2892   18.3752 C   0  0  0  0  0  0  0  0  0  0  0  0
    5.3982    0.7733   19.9948 C   0  0  0  0  0  0  0  0  0  0  0  0
    4.8226    1.4906   18.9054 C   0  0  0  0  0  0  0  0  0  0  0  0
   10.7040   -0.0625   23.9898 C   0  0  0  0  0  0  0  0  0  0  0  0
   10.1406   -0.7765   22.9250 C   0  0  0  0  0  0  0  0  0  0  0  0
    6.4440   -0.1472   19.6979 C   0  0  0  0  0  0  0  0  0  0  0  0
    3.3432    2.6279   20.4411 C   0  0  0  0  0  0  0  0  0  0  0  0
   12.3683   -1.3298   22.2234 C   0  0  0  0  0  0  0  0  0  0  0  0
    9.9479    0.5589   24.9534 C   0  0  0  0  0  0  0  0  0  0  0  0
    8.2490    0.0169   21.4271 C   0  0  0  0  0  0  0  0  0  0  0  0
    8.4669    3.2198   23.6970 C   0  0  0  0  0  0  0  0  0  0  0  0
    8.0140   -2.1541   22.4331 C   0  0  0  0  0  0  0  0  0  0  0  0
    6.9866   -1.9366   21.3580 C   0  0  0  0  0  0  0  0  0  0  0  0
    7.8721   -0.1194   23.8831 C   0  0  0  0  0  0  0  0  0  0  0  0
    8.6238   -0.7606   22.6929 C   0  0  3  0  0  0  0  0  0  0  0  0
   10.2286    4.9046   23.1758 C   0  0  0  0  0  0  0  0  0  0  0  0
    8.0922    2.2237   24.7645 C   0  0  0  0  0  0  0  0  0  0  0  0
    6.3062    0.3769   17.3421 N   0  0  0  0  0  0  0  0  0  0  0  0
    7.2292   -0.6897   20.7790 N   0  0  0  0  0  0  0  0  0  0  0  0
    8.6609    1.0133   24.4995 N   0  0  0  0  0  0  0  0  0  0  0  0
    9.6355    3.8939   24.0215 N   0  0  0  0  0  0  0  0  0  0  0  0
   10.3214    0.7303   26.1092 O   0  0  0  0  0  0  0  0  0  0  0  0
    8.8193    1.0411   21.0780 O   0  0  0  0  0  0  0  0  0  0  0  0
    7.8085    3.3951   22.6752 O   0  0  0  0  0  0  0  0  0  0  0  0
    2.3578    3.5185   20.6800 F   0  0  0  0  0  0  0  0  0  0  0  0
   13.4274   -2.1468   21.1136 Cl  0  0  0  0  0  0  0  0  0  0  0  0
    5.3115    0.4888   22.1568 H   0  0  0  0  0  0  0  0  0  0  0  0
   12.5172    0.5967   24.9716 H   0  0  0  0  0  0  0  0  0  0  0  0
    3.5178    2.1137   22.5168 H   0  0  0  0  0  0  0  0  0  0  0  0
   13.9905   -0.5221   23.3825 H   0  0  0  0  0  0  0  0  0  0  0  0
    3.3413    2.9749   18.3367 H   0  0  0  0  0  0  0  0  0  0  0  0
   10.6130   -2.0249   21.2272 H   0  0  0  0  0  0  0  0  0  0  0  0
    4.9136    1.7514   16.7477 H   0  0  0  0  0  0  0  0  0  0  0  0
    7.6449   -0.9757   18.1044 H   0  0  0  0  0  0  0  0  0  0  0  0
    7.5110   -2.5276   23.3390 H   0  0  0  0  0  0  0  0  0  0  0  0
    8.7575   -2.9105   22.1433 H   0  0  0  0  0  0  0  0  0  0  0  0
    7.0587   -2.7258   20.5724 H   0  0  0  0  0  0  0  0  0  0  0  0
    5.9512   -1.9960   21.7712 H   0  0  0  0  0  0  0  0  0  0  0  0
    6.9203    0.3184   23.5736 H   0  0  0  0  0  0  0  0  0  0  0  0
    7.6659   -0.8542   24.6623 H   0  0  0  0  0  0  0  0  0  0  0  0
   10.9348    4.4312   22.4778 H   0  0  0  0  0  0  0  0  0  0  0  0
    9.4384    5.4164   22.6069 H   0  0  0  0  0  0  0  0  0  0  0  0
   10.7641    5.6360   23.7990 H   0  0  0  0  0  0  0  0  0  0  0  0
    8.4448    2.5768   25.7381 H   0  0  0  0  0  0  0  0  0  0  0  0
    7.0053    2.1037   24.7947 H   0  0  0  0  0  0  0  0  0  0  0  0
   10.0971    3.6657   24.8972 H   0  0  0  0  0  0  0  0  0  0  0  0
  1  3  2  0  0  0  0
  1  9  1  0  0  0  0
  2  4  2  0  0  0  0
  2 11  1  0  0  0  0
  3 14  1  0  0  0  0
  4 15  1  0  0  0  0
  5 10  1  0  0  0  0
  5 14  2  0  0  0  0
  6 12  1  0  0  0  0
  6 15  2  0  0  0  0
  7 10  2  0  0  0  0
  7 25  1  0  0  0  0
  8 13  1  0  0  0  0
  8 25  2  0  0  0  0
  9 10  1  0  0  0  0
  9 13  2  0  0  0  0
 11 12  2  0  0  0  0
 11 16  1  0  0  0  0
 12 22  1  0  0  0  0
 13 26  1  0  0  0  0
 14 32  1  0  0  0  0
 15 33  1  0  0  0  0
 16 27  1  0  0  0  0
 16 29  2  0  0  0  0
 17 22  1  0  0  0  0
 17 26  1  0  0  0  0
 17 30  2  0  0  0  0
 18 24  1  0  0  0  0
 18 28  1  0  0  0  0
 18 31  2  0  0  0  0
 19 20  1  0  0  0  0
 19 22  1  0  0  0  0
 20 26  1  0  0  0  0
 21 22  1  0  0  0  0
 21 27  1  0  0  0  0
 23 28  1  0  0  0  0
 24 27  1  0  0  0  0
  1 34  1  0  0  0  0
  2 35  1  0  0  0  0
  3 36  1  0  0  0  0
  4 37  1  0  0  0  0
  5 38  1  0  0  0  0
  6 39  1  0  0  0  0
  7 40  1  0  0  0  0
  8 41  1  0  0  0  0
 19 42  1  0  0  0  0
 19 43  1  0  0  0  0
 20 44  1  0  0  0  0
 20 45  1  0  0  0  0
 21 46  1  0  0  0  0
 21 47  1  0  0  0  0
 23 48  1  0  0  0  0
 23 49  1  0  0  0  0
 23 50  1  0  0  0  0
 24 51  1  0  0  0  0
 24 52  1  0  0  0  0
 28 53  1  0  0  0  0
M  END
> <compound>
EDG-MED-b1ef7fe3-3

> <compound_smiles>
CNC(=O)CN1CC2(CCN(C2=O)c3cncc4c3ccc(c4)F)c5cc(ccc5C1=O)Cl

> <enantiomer_smiles>
CNC(=O)CN1CC2(CCN(C2=O)c3cncc4c3ccc(c4)F)c5cc(ccc5C1=O)Cl

> <scaffold>
tetrahydroisoquinoline-5spiro-isoquinoline

> <clash_score>
0

> <docking_score>
-9.779714584350586

> <overlap_score>
1.0

> <MMFF_internal_energy>
156.35969635257524

> <docked_smiles>
CNC(=O)CN1C[C@]2(CCN(C2=O)c3cncc4c3ccc(c4)F)c5cc(ccc5C1=O)Cl

$$$$
ALP-POS-ecbed2ba-7_1
  -OEChem-12272114573D

 59 64  0     1  0  0  0  0  0999 V2000
    3.3432    2.6279   20.4411 C   0  0  0  0  0  0  0  0  0  0  0  0
    3.8960    1.9291   21.5050 C   0  0  0  0  0  0  0  0  0  0  0  0
    3.7865    2.4205   19.1660 C   0  0  0  0  0  0  0  0  0  0  0  0
    4.8973    1.0233   21.2988 C   0  0  0  0  0  0  0  0  0  0  0  0
   12.0765    0.0316   24.1541 C   0  0  0  0  0  0  0  0  0  0  0  0
   12.9132   -0.6032   23.2569 C   0  0  0  0  0  0  0  0  0  0  0  0
   10.9991   -1.4331   22.0443 C   0  0  0  0  0  0  0  0  0  0  0  0
    5.3278    1.2339   17.6066 C   0  0  0  0  0  0  0  0  0  0  0  0
    6.8438   -0.2892   18.3752 C   0  0  0  0  0  0  0  0  0  0  0  0
    4.8226    1.4906   18.9054 C   0  0  0  0  0  0  0  0  0  0  0  0
    5.3982    0.7733   19.9948 C   0  0  0  0  0  0  0  0  0  0  0  0
   10.7040   -0.0625   23.9898 C   0  0  0  0  0  0  0  0  0  0  0  0
   10.1406   -0.7765   22.9250 C   0  0  0  0  0  0  0  0  0  0  0  0
    6.4440   -0.1472   19.6979 C   0  0  0  0  0  0  0  0  0  0  0  0
   12.3683   -1.3298   22.2234 C   0  0  0  0  0  0  0  0  0  0  0  0
    8.2490    0.0169   21.4271 C   0  0  0  0  0  0  0  0  0  0  0  0
    7.4472    2.6758   23.0779 C   0  0  0  0  0  0  0  0  0  0  0  0
    9.9479    0.5589   24.9534 C   0  0  0  0  0  0  0  0  0  0  0  0
    9.8683    3.1658   23.7957 C   0  0  0  0  0  0  0  0  0  0  0  0
    9.9395    2.2333   22.6200 C   0  0  0  0  0  0  0  0  0  0  0  0
    8.0140   -2.1541   22.4331 C   0  0  0  0  0  0  0  0  0  0  0  0
    6.9866   -1.9366   21.3580 C   0  0  0  0  0  0  0  0  0  0  0  0
    7.8721   -0.1194   23.8831 C   0  0  0  0  0  0  0  0  0  0  0  0
    8.6238   -0.7606   22.6929 C   0  0  3  0  0  0  0  0  0  0  0  0
    8.7523    2.1891   23.5430 C   0  0  0  0  0  0  0  0  0  0  0  0
    6.3500    4.4724   21.7547 C   0  0  0  0  0  0  0  0  0  0  0  0
    6.3062    0.3769   17.3421 N   0  0  0  0  0  0  0  0  0  0  0  0
    7.2292   -0.6897   20.7790 N   0  0  0  0  0  0  0  0  0  0  0  0
    7.5150    3.8255   22.3144 N   0  0  0  0  0  0  0  0  0  0  0  0
    8.6609    1.0133   24.4995 N   0  3  2  0  0  0  0  0  0  0  0  0
    8.7576    1.0934   21.1338 O   0  0  0  0  0  0  0  0  0  0  0  0
    6.4308    2.0615   23.3798 O   0  0  0  0  0  0  0  0  0  0  0  0
   13.4273   -2.1426   21.1099 Cl  0  0  0  0  0  0  0  0  0  0  0  0
    2.5432    3.3510   20.6369 H   0  0  0  0  0  0  0  0  0  0  0  0
    3.5174    2.1137   22.5168 H   0  0  0  0  0  0  0  0  0  0  0  0
    3.3409    2.9743   18.3364 H   0  0  0  0  0  0  0  0  0  0  0  0
    5.3118    0.4895   22.1572 H   0  0  0  0  0  0  0  0  0  0  0  0
   12.5019    0.5947   24.9768 H   0  0  0  0  0  0  0  0  0  0  0  0
   13.9911   -0.5205   23.3811 H   0  0  0  0  0  0  0  0  0  0  0  0
   10.6043   -2.0223   21.2287 H   0  0  0  0  0  0  0  0  0  0  0  0
    4.9141    1.7511   16.7474 H   0  0  0  0  0  0  0  0  0  0  0  0
    7.6445   -0.9764   18.1043 H   0  0  0  0  0  0  0  0  0  0  0  0
    9.7382   -0.1121   25.8268 H   0  0  0  0  0  0  0  0  0  0  0  0
   10.4781    1.4550   25.3703 H   0  0  0  0  0  0  0  0  0  0  0  0
   10.5428    2.9832   24.6238 H   0  0  0  0  0  0  0  0  0  0  0  0
    9.6938    4.2159   23.5927 H   0  0  0  0  0  0  0  0  0  0  0  0
    9.8126    2.6611   21.6323 H   0  0  0  0  0  0  0  0  0  0  0  0
   10.6614    1.4263   22.6610 H   0  0  0  0  0  0  0  0  0  0  0  0
    7.5773   -2.6110   23.3320 H   0  0  0  0  0  0  0  0  0  0  0  0
    8.7733   -2.8621   22.0650 H   0  0  0  0  0  0  0  0  0  0  0  0
    7.0226   -2.7504   20.5950 H   0  0  0  0  0  0  0  0  0  0  0  0
    5.9553   -1.9476   21.7831 H   0  0  0  0  0  0  0  0  0  0  0  0
    6.8957    0.3010   23.5778 H   0  0  0  0  0  0  0  0  0  0  0  0
    7.6724   -0.8513   24.6855 H   0  0  0  0  0  0  0  0  0  0  0  0
    6.1468    4.0616   20.7547 H   0  0  0  0  0  0  0  0  0  0  0  0
    5.4827    4.2940   22.4074 H   0  0  0  0  0  0  0  0  0  0  0  0
    6.5335    5.5541   21.6763 H   0  0  0  0  0  0  0  0  0  0  0  0
    8.4272    4.2357   22.1381 H   0  0  0  0  0  0  0  0  0  0  0  0
    8.1103    1.3696   25.3026 H   0  0  0  0  0  0  0  0  0  0  0  0
  1  2  1  0  0  0  0
  1  3  2  0  0  0  0
  2  4  2  0  0  0  0
  3 10  1  0  0  0  0
  4 11  1  0  0  0  0
  5  6  2  0  0  0  0
  5 12  1  0  0  0  0
  6 15  1  0  0  0  0
  7 13  1  0  0  0  0
  7 15  2  0  0  0  0
  8 10  2  0  0  0  0
  8 27  1  0  0  0  0
  9 14  1  0  0  0  0
  9 27  2  0  0  0  0
 10 11  1  0  0  0  0
 11 14  2  0  0  0  0
 12 13  2  0  0  0  0
 12 18  1  0  0  0  0
 13 24  1  0  0  0  0
 14 28  1  0  0  0  0
 15 33  1  0  0  0  0
 16 24  1  0  0  0  0
 16 28  1  0  0  0  0
 16 31  2  0  0  0  0
 17 25  1  0  0  0  0
 17 29  1  0  0  0  0
 17 32  2  0  0  0  0
 18 30  1  0  0  0  0
 19 20  1  0  0  0  0
 19 25  1  0  0  0  0
 20 25  1  0  0  0  0
 21 22  1  0  0  0  0
 21 24  1  0  0  0  0
 22 28  1  0  0  0  0
 23 24  1  0  0  0  0
 23 30  1  0  0  0  0
 25 30  1  1  0  0  0
 26 29  1  0  0  0  0
  1 34  1  0  0  0  0
  2 35  1  0  0  0  0
  3 36  1  0  0  0  0
  4 37  1  0  0  0  0
  5 38  1  0  0  0  0
  6 39  1  0  0  0  0
  7 40  1  0  0  0  0
  8 41  1  0  0  0  0
  9 42  1  0  0  0  0
 18 43  1  0  0  0  0
 18 44  1  0  0  0  0
 19 45  1  0  0  0  0
 19 46  1  0  0  0  0
 20 47  1  0  0  0  0
 20 48  1  0  0  0  0
 21 49  1  0  0  0  0
 21 50  1  0  0  0  0
 22 51  1  0  0  0  0
 22 52  1  0  0  0  0
 23 53  1  0  0  0  0
 23 54  1  0  0  0  0
 26 55  1  0  0  0  0
 26 56  1  0  0  0  0
 26 57  1  0  0  0  0
 29 58  1  0  0  0  0
 30 59  1  0  0  0  0
M  CHG  1  30   1
M  END
> <compound>
ALP-POS-ecbed2ba-7

> <compound_smiles>
CNC(=O)C1(CC1)N2Cc3ccc(cc3C4(C2)CCN(C4=O)c5cncc6c5cccc6)Cl

> <enantiomer_smiles>
CNC(=O)C1(CC1)[N@@]2Cc3ccc(cc3C4(C2)CCN(C4=O)c5cncc6c5cccc6)Cl

> <scaffold>
tetrahydroisoquinoline-5spiro-isoquinoline

> <clash_score>
0

> <docking_score>
-9.594880104064941

> <overlap_score>
0.9849509000778198

> <MMFF_internal_energy>
211.1110119736311

> <docked_smiles>
CNC(=O)C1(CC1)[N@@H+]2Cc3ccc(cc3[C@]4(C2)CCN(C4=O)c5cncc6c5cccc6)Cl

$$$$
MAT-POS-853c0ffa-1_1
  -OEChem-12272114573D

 53 57  0     1  0  0  0  0  0999 V2000
    3.3432    2.6279   20.4411 C   0  0  0  0  0  0  0  0  0  0  0  0
    3.7865    2.4205   19.1660 C   0  0  0  0  0  0  0  0  0  0  0  0
   12.0765    0.0316   24.1541 C   0  0  0  0  0  0  0  0  0  0  0  0
    3.8960    1.9291   21.5050 C   0  0  0  0  0  0  0  0  0  0  0  0
   12.9132   -0.6032   23.2569 C   0  0  0  0  0  0  0  0  0  0  0  0
   10.9991   -1.4331   22.0443 C   0  0  0  0  0  0  0  0  0  0  0  0
    5.3278    1.2339   17.6066 C   0  0  0  0  0  0  0  0  0  0  0  0
    6.8438   -0.2892   18.3752 C   0  0  0  0  0  0  0  0  0  0  0  0
    4.8226    1.4906   18.9054 C   0  0  0  0  0  0  0  0  0  0  0  0
    5.3982    0.7733   19.9948 C   0  0  0  0  0  0  0  0  0  0  0  0
   10.7040   -0.0625   23.9898 C   0  0  0  0  0  0  0  0  0  0  0  0
   10.1406   -0.7765   22.9250 C   0  0  0  0  0  0  0  0  0  0  0  0
    6.4440   -0.1472   19.6979 C   0  0  0  0  0  0  0  0  0  0  0  0
   12.3683   -1.3298   22.2234 C   0  0  0  0  0  0  0  0  0  0  0  0
    4.8973    1.0233   21.2988 C   0  0  0  0  0  0  0  0  0  0  0  0
    9.9479    0.5589   24.9534 C   0  0  0  0  0  0  0  0  0  0  0  0
    8.2490    0.0169   21.4271 C   0  0  0  0  0  0  0  0  0  0  0  0
    8.4669    3.2198   23.6970 C   0  0  0  0  0  0  0  0  0  0  0  0
    8.0140   -2.1541   22.4331 C   0  0  0  0  0  0  0  0  0  0  0  0
    6.9866   -1.9366   21.3580 C   0  0  0  0  0  0  0  0  0  0  0  0
    7.8721   -0.1194   23.8831 C   0  0  0  0  0  0  0  0  0  0  0  0
    8.6238   -0.7606   22.6929 C   0  0  3  0  0  0  0  0  0  0  0  0
   10.2286    4.9046   23.1758 C   0  0  0  0  0  0  0  0  0  0  0  0
    8.0922    2.2237   24.7645 C   0  0  0  0  0  0  0  0  0  0  0  0
    6.3062    0.3769   17.3421 N   0  0  0  0  0  0  0  0  0  0  0  0
    7.2292   -0.6897   20.7790 N   0  0  0  0  0  0  0  0  0  0  0  0
    8.6609    1.0133   24.4995 N   0  0  0  0  0  0  0  0  0  0  0  0
    9.6355    3.8939   24.0215 N   0  0  0  0  0  0  0  0  0  0  0  0
   10.3214    0.7303   26.1092 O   0  0  0  0  0  0  0  0  0  0  0  0
    8.8193    1.0411   21.0780 O   0  0  0  0  0  0  0  0  0  0  0  0
    7.8085    3.3951   22.6752 O   0  0  0  0  0  0  0  0  0  0  0  0
   13.4274   -2.1468   21.1136 Cl  0  0  0  0  0  0  0  0  0  0  0  0
    5.4623    0.2453   22.7515 Cl  0  0  0  0  0  0  0  0  0  0  0  0
    2.5425    3.3507   20.6372 H   0  0  0  0  0  0  0  0  0  0  0  0
    3.3401    2.9737   18.3362 H   0  0  0  0  0  0  0  0  0  0  0  0
   12.5172    0.5967   24.9716 H   0  0  0  0  0  0  0  0  0  0  0  0
    3.4992    2.1328   22.5080 H   0  0  0  0  0  0  0  0  0  0  0  0
   13.9905   -0.5221   23.3825 H   0  0  0  0  0  0  0  0  0  0  0  0
   10.6130   -2.0249   21.2272 H   0  0  0  0  0  0  0  0  0  0  0  0
    4.9135    1.7511   16.7477 H   0  0  0  0  0  0  0  0  0  0  0  0
    7.6449   -0.9747   18.1006 H   0  0  0  0  0  0  0  0  0  0  0  0
    7.5110   -2.5276   23.3390 H   0  0  0  0  0  0  0  0  0  0  0  0
    8.7575   -2.9105   22.1433 H   0  0  0  0  0  0  0  0  0  0  0  0
    7.0587   -2.7258   20.5724 H   0  0  0  0  0  0  0  0  0  0  0  0
    5.9512   -1.9960   21.7712 H   0  0  0  0  0  0  0  0  0  0  0  0
    6.9203    0.3184   23.5736 H   0  0  0  0  0  0  0  0  0  0  0  0
    7.6659   -0.8542   24.6623 H   0  0  0  0  0  0  0  0  0  0  0  0
   10.9348    4.4312   22.4778 H   0  0  0  0  0  0  0  0  0  0  0  0
    9.4384    5.4164   22.6069 H   0  0  0  0  0  0  0  0  0  0  0  0
   10.7641    5.6360   23.7990 H   0  0  0  0  0  0  0  0  0  0  0  0
    8.4448    2.5768   25.7381 H   0  0  0  0  0  0  0  0  0  0  0  0
    7.0053    2.1037   24.7947 H   0  0  0  0  0  0  0  0  0  0  0  0
   10.0971    3.6657   24.8972 H   0  0  0  0  0  0  0  0  0  0  0  0
  1  2  2  0  0  0  0
  1  4  1  0  0  0  0
  2  9  1  0  0  0  0
  3  5  2  0  0  0  0
  3 11  1  0  0  0  0
  4 15  2  0  0  0  0
  5 14  1  0  0  0  0
  6 12  1  0  0  0  0
  6 14  2  0  0  0  0
  7  9  2  0  0  0  0
  7 25  1  0  0  0  0
  8 13  1  0  0  0  0
  8 25  2  0  0  0  0
  9 10  1  0  0  0  0
 10 13  2  0  0  0  0
 10 15  1  0  0  0  0
 11 12  2  0  0  0  0
 11 16  1  0  0  0  0
 12 22  1  0  0  0  0
 13 26  1  0  0  0  0
 14 32  1  0  0  0  0
 15 33  1  0  0  0  0
 16 27  1  0  0  0  0
 16 29  2  0  0  0  0
 17 22  1  0  0  0  0
 17 26  1  0  0  0  0
 17 30  2  0  0  0  0
 18 24  1  0  0  0  0
 18 28  1  0  0  0  0
 18 31  2  0  0  0  0
 19 20  1  0  0  0  0
 19 22  1  0  0  0  0
 20 26  1  0  0  0  0
 21 22  1  0  0  0  0
 21 27  1  0  0  0  0
 23 28  1  0  0  0  0
 24 27  1  0  0  0  0
  1 34  1  0  0  0  0
  2 35  1  0  0  0  0
  3 36  1  0  0  0  0
  4 37  1  0  0  0  0
  5 38  1  0  0  0  0
  6 39  1  0  0  0  0
  7 40  1  0  0  0  0
  8 41  1  0  0  0  0
 19 42  1  0  0  0  0
 19 43  1  0  0  0  0
 20 44  1  0  0  0  0
 20 45  1  0  0  0  0
 21 46  1  0  0  0  0
 21 47  1  0  0  0  0
 23 48  1  0  0  0  0
 23 49  1  0  0  0  0
 23 50  1  0  0  0  0
 24 51  1  0  0  0  0
 24 52  1  0  0  0  0
 28 53  1  0  0  0  0
M  END
> <compound>
MAT-POS-853c0ffa-1

> <compound_smiles>
CNC(=O)CN1CC2(CCN(C2=O)c3cncc4c3c(ccc4)Cl)c5cc(ccc5C1=O)Cl

> <enantiomer_smiles>
CNC(=O)CN1CC2(CCN(C2=O)c3cncc4c3c(ccc4)Cl)c5cc(ccc5C1=O)Cl

> <scaffold>
tetrahydroisoquinoline-5spiro-isoquinoline

> <clash_score>
0

> <docking_score>
-10.145082473754883

> <overlap_score>
1.0

> <MMFF_internal_energy>
234.3827957841626

> <docked_smiles>
CNC(=O)CN1C[C@]2(CCN(C2=O)c3cncc4c3c(ccc4)Cl)c5cc(ccc5C1=O)Cl

$$$$
EDJ-MED-94fddcec-7_1
  -OEChem-12272114573D

 53 57  0     1  0  0  0  0  0999 V2000
    4.8973    1.0233   21.2988 C   0  0  0  0  0  0  0  0  0  0  0  0
    3.8960    1.9291   21.5050 C   0  0  0  0  0  0  0  0  0  0  0  0
   12.0765    0.0316   24.1541 C   0  0  0  0  0  0  0  0  0  0  0  0
   12.9132   -0.6032   23.2569 C   0  0  0  0  0  0  0  0  0  0  0  0
    3.7865    2.4205   19.1660 C   0  0  0  0  0  0  0  0  0  0  0  0
   10.9991   -1.4331   22.0443 C   0  0  0  0  0  0  0  0  0  0  0  0
    5.3278    1.2339   17.6066 C   0  0  0  0  0  0  0  0  0  0  0  0
    6.8438   -0.2892   18.3752 C   0  0  0  0  0  0  0  0  0  0  0  0
    5.3982    0.7733   19.9948 C   0  0  0  0  0  0  0  0  0  0  0  0
    4.8226    1.4906   18.9054 C   0  0  0  0  0  0  0  0  0  0  0  0
   10.1406   -0.7765   22.9250 C   0  0  0  0  0  0  0  0  0  0  0  0
    6.4440   -0.1472   19.6979 C   0  0  0  0  0  0  0  0  0  0  0  0
    3.3432    2.6279   20.4411 C   0  0  0  0  0  0  0  0  0  0  0  0
   10.7040   -0.0625   23.9898 C   0  0  0  0  0  0  0  0  0  0  0  0
   12.3683   -1.3298   22.2234 C   0  0  0  0  0  0  0  0  0  0  0  0
    8.2490    0.0169   21.4271 C   0  0  0  0  0  0  0  0  0  0  0  0
    8.0140   -2.1541   22.4331 C   0  0  0  0  0  0  0  0  0  0  0  0
    7.8721   -0.1194   23.8831 C   0  0  0  0  0  0  0  0  0  0  0  0
    6.9866   -1.9366   21.3580 C   0  0  0  0  0  0  0  0  0  0  0  0
    8.6609    1.0133   24.4995 C   0  0  0  0  0  0  0  0  0  0  0  0
    8.6238   -0.7606   22.6929 C   0  0  3  0  0  0  0  0  0  0  0  0
   -0.1059    3.5898   21.9018 C   0  0  0  0  0  0  0  0  0  0  0  0
    6.3062    0.3769   17.3421 N   0  0  0  0  0  0  0  0  0  0  0  0
    7.2292   -0.6897   20.7790 N   0  0  0  0  0  0  0  0  0  0  0  0
    2.2936    3.5769   20.6955 N   0  0  0  0  0  0  0  0  0  0  0  0
    8.7559    1.0937   21.1315 O   0  0  0  0  0  0  0  0  0  0  0  0
   10.7450    1.7883   25.4928 O   0  0  0  0  0  0  0  0  0  0  0  0
    9.7102   -0.4301   26.1384 O   0  0  0  0  0  0  0  0  0  0  0  0
    0.1336    3.9486   19.3364 O   0  0  0  0  0  0  0  0  0  0  0  0
    0.5690    1.6528   20.2769 O   0  0  0  0  0  0  0  0  0  0  0  0
    9.9479    0.5589   24.9534 S   0  0  0  0  0  0  0  0  0  0  0  0
    0.6706    3.0950   20.3797 S   0  0  0  0  0  0  0  0  0  0  0  0
   13.4291   -2.1444   21.1126 Cl  0  0  0  0  0  0  0  0  0  0  0  0
    5.3115    0.4893   22.1569 H   0  0  0  0  0  0  0  0  0  0  0  0
    3.5248    2.1066   22.5217 H   0  0  0  0  0  0  0  0  0  0  0  0
   12.5120    0.5953   24.9760 H   0  0  0  0  0  0  0  0  0  0  0  0
   13.9915   -0.5226   23.3833 H   0  0  0  0  0  0  0  0  0  0  0  0
    3.3477    2.9700   18.3285 H   0  0  0  0  0  0  0  0  0  0  0  0
   10.6108   -2.0222   21.2304 H   0  0  0  0  0  0  0  0  0  0  0  0
    4.9135    1.7517   16.7479 H   0  0  0  0  0  0  0  0  0  0  0  0
    7.6449   -0.9757   18.1043 H   0  0  0  0  0  0  0  0  0  0  0  0
    7.5775   -2.6140   23.3286 H   0  0  0  0  0  0  0  0  0  0  0  0
    8.7708   -2.8631   22.0636 H   0  0  0  0  0  0  0  0  0  0  0  0
    7.6611   -0.8658   24.6526 H   0  0  0  0  0  0  0  0  0  0  0  0
    6.9006    0.2556   23.5459 H   0  0  0  0  0  0  0  0  0  0  0  0
    7.0227   -2.7503   20.5949 H   0  0  0  0  0  0  0  0  0  0  0  0
    5.9552   -1.9482   21.7828 H   0  0  0  0  0  0  0  0  0  0  0  0
    8.7031    1.8245   23.7055 H   0  0  0  0  0  0  0  0  0  0  0  0
    7.9987    1.4859   25.2931 H   0  0  0  0  0  0  0  0  0  0  0  0
   -1.1664    3.3396   21.8446 H   0  0  0  0  0  0  0  0  0  0  0  0
    0.3704    3.0510   22.7223 H   0  0  0  0  0  0  0  0  0  0  0  0
    0.0272    4.6659   22.0223 H   0  0  0  0  0  0  0  0  0  0  0  0
    2.5190    4.5435   20.4075 H   0  0  0  0  0  0  0  0  0  0  0  0
  1  2  2  0  0  0  0
  1  9  1  0  0  0  0
  2 13  1  0  0  0  0
  3  4  1  0  0  0  0
  3 14  2  0  0  0  0
  4 15  2  0  0  0  0
  5 10  1  0  0  0  0
  5 13  2  0  0  0  0
  6 11  2  0  0  0  0
  6 15  1  0  0  0  0
  7 10  2  0  0  0  0
  7 23  1  0  0  0  0
  8 12  1  0  0  0  0
  8 23  2  0  0  0  0
  9 10  1  0  0  0  0
  9 12  2  0  0  0  0
 11 14  1  0  0  0  0
 11 21  1  0  0  0  0
 12 24  1  0  0  0  0
 13 25  1  0  0  0  0
 14 31  1  0  0  0  0
 15 33  1  0  0  0  0
 16 21  1  0  0  0  0
 16 24  1  0  0  0  0
 16 26  2  0  0  0  0
 17 19  1  0  0  0  0
 17 21  1  0  0  0  0
 18 20  1  0  0  0  0
 18 21  1  0  0  0  0
 19 24  1  0  0  0  0
 20 31  1  0  0  0  0
 22 32  1  0  0  0  0
 25 32  1  0  0  0  0
 27 31  2  0  0  0  0
 28 31  2  0  0  0  0
 29 32  2  0  0  0  0
 30 32  2  0  0  0  0
  1 34  1  0  0  0  0
  2 35  1  0  0  0  0
  3 36  1  0  0  0  0
  4 37  1  0  0  0  0
  5 38  1  0  0  0  0
  6 39  1  0  0  0  0
  7 40  1  0  0  0  0
  8 41  1  0  0  0  0
 17 42  1  0  0  0  0
 17 43  1  0  0  0  0
 18 44  1  0  0  0  0
 18 45  1  0  0  0  0
 19 46  1  0  0  0  0
 19 47  1  0  0  0  0
 20 48  1  0  0  0  0
 20 49  1  0  0  0  0
 22 50  1  0  0  0  0
 22 51  1  0  0  0  0
 22 52  1  0  0  0  0
 25 53  1  0  0  0  0
M  END
> <compound>
EDJ-MED-94fddcec-7

> <compound_smiles>
CS(=O)(=O)Nc1ccc2c(c1)cncc2N3CCC4(C3=O)CCS(=O)(=O)c5c4cc(cc5)Cl

> <enantiomer_smiles>
CS(=O)(=O)Nc1ccc2c(c1)cncc2N3CCC4(C3=O)CCS(=O)(=O)c5c4cc(cc5)Cl

> <scaffold>
tetralinlike-5spiro-isoquinoline

> <clash_score>
0.7168170439667734

> <docking_score>
-8.637940406799316

> <overlap_score>
1.0

> <MMFF_internal_energy>
242.38625189623673

> <docked_smiles>
CS(=O)(=O)Nc1ccc2c(c1)cncc2N3CC[C@@]4(C3=O)CCS(=O)(=O)c5c4cc(cc5)Cl

$$$$
ALP-POS-ecbed2ba-18_1
  -OEChem-12272114573D

 58 62  0     1  0  0  0  0  0999 V2000
    3.3432    2.6279   20.4411 C   0  0  0  0  0  0  0  0  0  0  0  0
    3.8960    1.9291   21.5050 C   0  0  0  0  0  0  0  0  0  0  0  0
    3.7865    2.4205   19.1660 C   0  0  0  0  0  0  0  0  0  0  0  0
    4.8973    1.0233   21.2988 C   0  0  0  0  0  0  0  0  0  0  0  0
   12.0765    0.0316   24.1541 C   0  0  0  0  0  0  0  0  0  0  0  0
   12.9132   -0.6032   23.2569 C   0  0  0  0  0  0  0  0  0  0  0  0
   10.9991   -1.4331   22.0443 C   0  0  0  0  0  0  0  0  0  0  0  0
    5.3278    1.2339   17.6066 C   0  0  0  0  0  0  0  0  0  0  0  0
    6.8438   -0.2892   18.3752 C   0  0  0  0  0  0  0  0  0  0  0  0
    4.8226    1.4906   18.9054 C   0  0  0  0  0  0  0  0  0  0  0  0
    5.3982    0.7733   19.9948 C   0  0  0  0  0  0  0  0  0  0  0  0
   10.7040   -0.0625   23.9898 C   0  0  0  0  0  0  0  0  0  0  0  0
   10.1406   -0.7765   22.9250 C   0  0  0  0  0  0  0  0  0  0  0  0
    6.4440   -0.1472   19.6979 C   0  0  0  0  0  0  0  0  0  0  0  0
   12.3683   -1.3298   22.2234 C   0  0  0  0  0  0  0  0  0  0  0  0
    8.2490    0.0169   21.4271 C   0  0  0  0  0  0  0  0  0  0  0  0
    9.9479    0.5589   24.9534 C   0  0  0  0  0  0  0  0  0  0  0  0
    8.0140   -2.1541   22.4331 C   0  0  0  0  0  0  0  0  0  0  0  0
    6.9866   -1.9366   21.3580 C   0  0  0  0  0  0  0  0  0  0  0  0
    7.8721   -0.1194   23.8831 C   0  0  0  0  0  0  0  0  0  0  0  0
    8.6238   -0.7606   22.6929 C   0  0  3  0  0  0  0  0  0  0  0  0
    9.7677    5.1568   23.5134 C   0  0  0  0  0  0  0  0  0  0  0  0
    7.1822    3.5140   25.7191 C   0  0  0  0  0  0  0  0  0  0  0  0
    8.7087    5.0606   24.5583 C   0  0  0  0  0  0  0  0  0  0  0  0
    6.3062    0.3769   17.3421 N   0  0  0  0  0  0  0  0  0  0  0  0
    7.2292   -0.6897   20.7790 N   0  0  0  0  0  0  0  0  0  0  0  0
    8.6609    1.0133   24.4995 N   0  0  2  0  0  0  0  0  0  0  0  0
    8.4044    3.6433   24.8844 N   0  0  1  0  0  0  0  0  0  0  0  0
    8.7572    1.0941   21.1350 O   0  0  0  0  0  0  0  0  0  0  0  0
    7.4336    2.4722   22.7864 O   0  0  0  0  0  0  0  0  0  0  0  0
    9.9276    2.6762   23.0243 O   0  0  0  0  0  0  0  0  0  0  0  0
    8.6198    2.4832   23.6217 S   0  0  0  0  0  0  0  0  0  0  0  0
   13.4275   -2.1421   21.1097 Cl  0  0  0  0  0  0  0  0  0  0  0  0
    2.5432    3.3510   20.6369 H   0  0  0  0  0  0  0  0  0  0  0  0
    3.5174    2.1137   22.5168 H   0  0  0  0  0  0  0  0  0  0  0  0
    3.3409    2.9743   18.3364 H   0  0  0  0  0  0  0  0  0  0  0  0
    5.3118    0.4895   22.1572 H   0  0  0  0  0  0  0  0  0  0  0  0
   12.5015    0.5938   24.9776 H   0  0  0  0  0  0  0  0  0  0  0  0
   13.9911   -0.5212   23.3814 H   0  0  0  0  0  0  0  0  0  0  0  0
   10.6037   -2.0228   21.2288 H   0  0  0  0  0  0  0  0  0  0  0  0
    4.9141    1.7511   16.7474 H   0  0  0  0  0  0  0  0  0  0  0  0
    7.6445   -0.9764   18.1043 H   0  0  0  0  0  0  0  0  0  0  0  0
    9.7581   -0.1287   25.8173 H   0  0  0  0  0  0  0  0  0  0  0  0
   10.4931    1.4391   25.3829 H   0  0  0  0  0  0  0  0  0  0  0  0
    7.5801   -2.6060   23.3366 H   0  0  0  0  0  0  0  0  0  0  0  0
    8.7749   -2.8608   22.0657 H   0  0  0  0  0  0  0  0  0  0  0  0
    7.0227   -2.7506   20.5953 H   0  0  0  0  0  0  0  0  0  0  0  0
    5.9554   -1.9484   21.7832 H   0  0  0  0  0  0  0  0  0  0  0  0
    6.8886    0.2769   23.5666 H   0  0  0  0  0  0  0  0  0  0  0  0
    7.6579   -0.8710   24.6633 H   0  0  0  0  0  0  0  0  0  0  0  0
    9.4289    4.6473   22.5993 H   0  0  0  0  0  0  0  0  0  0  0  0
    9.9676    6.2153   23.2905 H   0  0  0  0  0  0  0  0  0  0  0  0
   10.6884    4.6790   23.8795 H   0  0  0  0  0  0  0  0  0  0  0  0
    6.9959    2.4517   25.9353 H   0  0  0  0  0  0  0  0  0  0  0  0
    7.3233    4.0609   26.6630 H   0  0  0  0  0  0  0  0  0  0  0  0
    6.3220    3.9340   25.1770 H   0  0  0  0  0  0  0  0  0  0  0  0
    9.0549    5.5721   25.4686 H   0  0  0  0  0  0  0  0  0  0  0  0
    7.7945    5.5483   24.1890 H   0  0  0  0  0  0  0  0  0  0  0  0
  1  2  1  0  0  0  0
  1  3  2  0  0  0  0
  2  4  2  0  0  0  0
  3 10  1  0  0  0  0
  4 11  1  0  0  0  0
  5  6  2  0  0  0  0
  5 12  1  0  0  0  0
  6 15  1  0  0  0  0
  7 13  1  0  0  0  0
  7 15  2  0  0  0  0
  8 10  2  0  0  0  0
  8 25  1  0  0  0  0
  9 14  1  0  0  0  0
  9 25  2  0  0  0  0
 10 11  1  0  0  0  0
 11 14  2  0  0  0  0
 12 13  2  0  0  0  0
 12 17  1  0  0  0  0
 13 21  1  0  0  0  0
 14 26  1  0  0  0  0
 15 33  1  0  0  0  0
 16 21  1  0  0  0  0
 16 26  1  0  0  0  0
 16 29  2  0  0  0  0
 17 27  1  0  0  0  0
 18 19  1  0  0  0  0
 18 21  1  0  0  0  0
 19 26  1  0  0  0  0
 20 21  1  0  0  0  0
 20 27  1  0  0  0  0
 22 24  1  0  0  0  0
 23 28  1  1  0  0  0
 24 28  1  0  0  0  0
 27 32  1  1  0  0  0
 28 32  1  0  0  0  0
 30 32  2  0  0  0  0
 31 32  2  0  0  0  0
  1 34  1  0  0  0  0
  2 35  1  0  0  0  0
  3 36  1  0  0  0  0
  4 37  1  0  0  0  0
  5 38  1  0  0  0  0
  6 39  1  0  0  0  0
  7 40  1  0  0  0  0
  8 41  1  0  0  0  0
  9 42  1  0  0  0  0
 17 43  1  0  0  0  0
 17 44  1  0  0  0  0
 18 45  1  0  0  0  0
 18 46  1  0  0  0  0
 19 47  1  0  0  0  0
 19 48  1  0  0  0  0
 20 49  1  0  0  0  0
 20 50  1  0  0  0  0
 22 51  1  0  0  0  0
 22 52  1  0  0  0  0
 22 53  1  0  0  0  0
 23 54  1  0  0  0  0
 23 55  1  0  0  0  0
 23 56  1  0  0  0  0
 24 57  1  0  0  0  0
 24 58  1  0  0  0  0
M  END
> <compound>
ALP-POS-ecbed2ba-18

> <compound_smiles>
CCN(C)S(=O)(=O)N1Cc2ccc(cc2C3(C1)CCN(C3=O)c4cncc5c4cccc5)Cl

> <enantiomer_smiles>
CC[N@@](C)S(=O)(=O)[N@@]1Cc2ccc(cc2C3(C1)CCN(C3=O)c4cncc5c4cccc5)Cl

> <scaffold>
tetrahydroisoquinoline-5spiro-isoquinoline

> <clash_score>
0

> <docking_score>
-9.301607131958008

> <overlap_score>
0.9780845046043396

> <MMFF_internal_energy>
-2.748995885098191

> <docked_smiles>
CC[N@@](C)S(=O)(=O)[N@@]1Cc2ccc(cc2[C@]3(C1)CCN(C3=O)c4cncc5c4cccc5)Cl

$$$$
ALP-POS-ecbed2ba-18_2
  -OEChem-12272114573D

 58 62  0     1  0  0  0  0  0999 V2000
    3.3432    2.6279   20.4411 C   0  0  0  0  0  0  0  0  0  0  0  0
    3.8960    1.9291   21.5050 C   0  0  0  0  0  0  0  0  0  0  0  0
    3.7865    2.4205   19.1660 C   0  0  0  0  0  0  0  0  0  0  0  0
    4.8973    1.0233   21.2988 C   0  0  0  0  0  0  0  0  0  0  0  0
   12.0765    0.0316   24.1541 C   0  0  0  0  0  0  0  0  0  0  0  0
   12.9132   -0.6032   23.2569 C   0  0  0  0  0  0  0  0  0  0  0  0
   10.9991   -1.4331   22.0443 C   0  0  0  0  0  0  0  0  0  0  0  0
    5.3278    1.2339   17.6066 C   0  0  0  0  0  0  0  0  0  0  0  0
    6.8438   -0.2892   18.3752 C   0  0  0  0  0  0  0  0  0  0  0  0
    4.8226    1.4906   18.9054 C   0  0  0  0  0  0  0  0  0  0  0  0
    5.3982    0.7733   19.9948 C   0  0  0  0  0  0  0  0  0  0  0  0
   10.7040   -0.0625   23.9898 C   0  0  0  0  0  0  0  0  0  0  0  0
   10.1406   -0.7765   22.9250 C   0  0  0  0  0  0  0  0  0  0  0  0
    6.4440   -0.1472   19.6979 C   0  0  0  0  0  0  0  0  0  0  0  0
   12.3683   -1.3298   22.2234 C   0  0  0  0  0  0  0  0  0  0  0  0
    8.2490    0.0169   21.4271 C   0  0  0  0  0  0  0  0  0  0  0  0
    9.9479    0.5589   24.9534 C   0  0  0  0  0  0  0  0  0  0  0  0
    8.0140   -2.1541   22.4331 C   0  0  0  0  0  0  0  0  0  0  0  0
    6.9866   -1.9366   21.3580 C   0  0  0  0  0  0  0  0  0  0  0  0
    7.8721   -0.1194   23.8831 C   0  0  0  0  0  0  0  0  0  0  0  0
    8.6238   -0.7606   22.6929 C   0  0  3  0  0  0  0  0  0  0  0  0
    9.0850    5.8956   24.1824 C   0  0  0  0  0  0  0  0  0  0  0  0
    9.4564    3.7047   25.9317 C   0  0  0  0  0  0  0  0  0  0  0  0
    7.9357    4.9958   24.4860 C   0  0  0  0  0  0  0  0  0  0  0  0
    6.3062    0.3769   17.3421 N   0  0  0  0  0  0  0  0  0  0  0  0
    7.2292   -0.6897   20.7790 N   0  0  0  0  0  0  0  0  0  0  0  0
    8.6609    1.0133   24.4995 N   0  0  2  0  0  0  0  0  0  0  0  0
    8.4044    3.6433   24.8844 N   0  0  2  0  0  0  0  0  0  0  0  0
    8.7572    1.0941   21.1350 O   0  0  0  0  0  0  0  0  0  0  0  0
    7.4336    2.4722   22.7864 O   0  0  0  0  0  0  0  0  0  0  0  0
    9.9276    2.6762   23.0242 O   0  0  0  0  0  0  0  0  0  0  0  0
    8.6198    2.4832   23.6217 S   0  0  0  0  0  0  0  0  0  0  0  0
   13.4275   -2.1421   21.1097 Cl  0  0  0  0  0  0  0  0  0  0  0  0
    2.5432    3.3510   20.6369 H   0  0  0  0  0  0  0  0  0  0  0  0
    3.5174    2.1137   22.5168 H   0  0  0  0  0  0  0  0  0  0  0  0
    3.3409    2.9743   18.3364 H   0  0  0  0  0  0  0  0  0  0  0  0
    5.3118    0.4895   22.1572 H   0  0  0  0  0  0  0  0  0  0  0  0
   12.5015    0.5938   24.9776 H   0  0  0  0  0  0  0  0  0  0  0  0
   13.9911   -0.5212   23.3814 H   0  0  0  0  0  0  0  0  0  0  0  0
   10.6037   -2.0228   21.2288 H   0  0  0  0  0  0  0  0  0  0  0  0
    4.9141    1.7511   16.7474 H   0  0  0  0  0  0  0  0  0  0  0  0
    7.6445   -0.9764   18.1043 H   0  0  0  0  0  0  0  0  0  0  0  0
    9.7581   -0.1287   25.8173 H   0  0  0  0  0  0  0  0  0  0  0  0
   10.4931    1.4391   25.3829 H   0  0  0  0  0  0  0  0  0  0  0  0
    7.5801   -2.6060   23.3366 H   0  0  0  0  0  0  0  0  0  0  0  0
    8.7749   -2.8608   22.0657 H   0  0  0  0  0  0  0  0  0  0  0  0
    7.0227   -2.7506   20.5953 H   0  0  0  0  0  0  0  0  0  0  0  0
    5.9554   -1.9484   21.7832 H   0  0  0  0  0  0  0  0  0  0  0  0
    6.8886    0.2769   23.5666 H   0  0  0  0  0  0  0  0  0  0  0  0
    7.6579   -0.8710   24.6633 H   0  0  0  0  0  0  0  0  0  0  0  0
    9.6779    5.4691   23.3599 H   0  0  0  0  0  0  0  0  0  0  0  0
    8.7073    6.8856   23.8870 H   0  0  0  0  0  0  0  0  0  0  0  0
    9.7178    5.9964   25.0765 H   0  0  0  0  0  0  0  0  0  0  0  0
    9.7724    2.6844   26.1949 H   0  0  0  0  0  0  0  0  0  0  0  0
   10.3203    4.2692   25.5509 H   0  0  0  0  0  0  0  0  0  0  0  0
    9.0556    4.2061   26.8249 H   0  0  0  0  0  0  0  0  0  0  0  0
    7.3482    5.4290   25.3090 H   0  0  0  0  0  0  0  0  0  0  0  0
    7.3028    4.9072   23.5907 H   0  0  0  0  0  0  0  0  0  0  0  0
  1  2  1  0  0  0  0
  1  3  2  0  0  0  0
  2  4  2  0  0  0  0
  3 10  1  0  0  0  0
  4 11  1  0  0  0  0
  5  6  2  0  0  0  0
  5 12  1  0  0  0  0
  6 15  1  0  0  0  0
  7 13  1  0  0  0  0
  7 15  2  0  0  0  0
  8 10  2  0  0  0  0
  8 25  1  0  0  0  0
  9 14  1  0  0  0  0
  9 25  2  0  0  0  0
 10 11  1  0  0  0  0
 11 14  2  0  0  0  0
 12 13  2  0  0  0  0
 12 17  1  0  0  0  0
 13 21  1  0  0  0  0
 14 26  1  0  0  0  0
 15 33  1  0  0  0  0
 16 21  1  0  0  0  0
 16 26  1  0  0  0  0
 16 29  2  0  0  0  0
 17 27  1  0  0  0  0
 18 19  1  0  0  0  0
 18 21  1  0  0  0  0
 19 26  1  0  0  0  0
 20 21  1  0  0  0  0
 20 27  1  0  0  0  0
 22 24  1  0  0  0  0
 23 28  1  6  0  0  0
 24 28  1  0  0  0  0
 27 32  1  1  0  0  0
 28 32  1  0  0  0  0
 30 32  2  0  0  0  0
 31 32  2  0  0  0  0
  1 34  1  0  0  0  0
  2 35  1  0  0  0  0
  3 36  1  0  0  0  0
  4 37  1  0  0  0  0
  5 38  1  0  0  0  0
  6 39  1  0  0  0  0
  7 40  1  0  0  0  0
  8 41  1  0  0  0  0
  9 42  1  0  0  0  0
 17 43  1  0  0  0  0
 17 44  1  0  0  0  0
 18 45  1  0  0  0  0
 18 46  1  0  0  0  0
 19 47  1  0  0  0  0
 19 48  1  0  0  0  0
 20 49  1  0  0  0  0
 20 50  1  0  0  0  0
 22 51  1  0  0  0  0
 22 52  1  0  0  0  0
 22 53  1  0  0  0  0
 23 54  1  0  0  0  0
 23 55  1  0  0  0  0
 23 56  1  0  0  0  0
 24 57  1  0  0  0  0
 24 58  1  0  0  0  0
M  END
> <compound>
ALP-POS-ecbed2ba-18

> <compound_smiles>
CCN(C)S(=O)(=O)N1Cc2ccc(cc2C3(C1)CCN(C3=O)c4cncc5c4cccc5)Cl

> <enantiomer_smiles>
CC[N@](C)S(=O)(=O)[N@@]1Cc2ccc(cc2C3(C1)CCN(C3=O)c4cncc5c4cccc5)Cl

> <scaffold>
tetrahydroisoquinoline-5spiro-isoquinoline

> <clash_score>
0.7072986808523691

> <docking_score>
-8.618181228637695

> <overlap_score>
0.9783003330230713

> <MMFF_internal_energy>
-0.46646153519166333

> <docked_smiles>
CC[N@](C)S(=O)(=O)[N@@]1Cc2ccc(cc2[C@]3(C1)CCN(C3=O)c4cncc5c4cccc5)Cl

$$$$
ALP-POS-ecbed2ba-14_1
  -OEChem-12272114573D

 56 60  0     1  0  0  0  0  0999 V2000
    6.5427    5.8462   21.5199 C   0  0  0  0  0  0  0  0  0  0  0  0
    3.3432    2.6279   20.4411 C   0  0  0  0  0  0  0  0  0  0  0  0
    3.8960    1.9291   21.5050 C   0  0  0  0  0  0  0  0  0  0  0  0
    3.7865    2.4205   19.1660 C   0  0  0  0  0  0  0  0  0  0  0  0
    4.8973    1.0233   21.2988 C   0  0  0  0  0  0  0  0  0  0  0  0
   12.0765    0.0316   24.1541 C   0  0  0  0  0  0  0  0  0  0  0  0
   12.9132   -0.6032   23.2569 C   0  0  0  0  0  0  0  0  0  0  0  0
   10.9991   -1.4331   22.0443 C   0  0  0  0  0  0  0  0  0  0  0  0
    5.3278    1.2339   17.6066 C   0  0  0  0  0  0  0  0  0  0  0  0
    6.8438   -0.2892   18.3752 C   0  0  0  0  0  0  0  0  0  0  0  0
    4.8226    1.4906   18.9054 C   0  0  0  0  0  0  0  0  0  0  0  0
    5.3982    0.7733   19.9948 C   0  0  0  0  0  0  0  0  0  0  0  0
   10.7040   -0.0625   23.9898 C   0  0  0  0  0  0  0  0  0  0  0  0
   10.1406   -0.7765   22.9250 C   0  0  0  0  0  0  0  0  0  0  0  0
    6.4440   -0.1472   19.6979 C   0  0  0  0  0  0  0  0  0  0  0  0
   12.3683   -1.3298   22.2234 C   0  0  0  0  0  0  0  0  0  0  0  0
    8.2490    0.0169   21.4271 C   0  0  0  0  0  0  0  0  0  0  0  0
    7.3800    2.6707   23.1135 C   0  0  0  0  0  0  0  0  0  0  0  0
    9.9479    0.5589   24.9534 C   0  0  0  0  0  0  0  0  0  0  0  0
    8.0140   -2.1541   22.4331 C   0  0  0  0  0  0  0  0  0  0  0  0
    6.9866   -1.9366   21.3580 C   0  0  0  0  0  0  0  0  0  0  0  0
    7.8721   -0.1194   23.8831 C   0  0  0  0  0  0  0  0  0  0  0  0
    8.6238   -0.7606   22.6929 C   0  0  3  0  0  0  0  0  0  0  0  0
    6.3064    4.4181   21.7238 C   0  0  0  0  0  0  0  0  0  0  0  0
    8.7403    2.1972   23.5605 C   0  0  0  0  0  0  0  0  0  0  0  0
    6.7270    6.9801   21.3564 N   0  0  0  0  0  0  0  0  0  0  0  0
    6.3062    0.3769   17.3421 N   0  0  0  0  0  0  0  0  0  0  0  0
    7.2292   -0.6897   20.7790 N   0  0  0  0  0  0  0  0  0  0  0  0
    7.4727    3.7787   22.2847 N   0  0  0  0  0  0  0  0  0  0  0  0
    8.6609    1.0133   24.4995 N   0  3  1  0  0  0  0  0  0  0  0  0
    8.7573    1.0936   21.1337 O   0  0  0  0  0  0  0  0  0  0  0  0
    6.3322    2.1271   23.4522 O   0  0  0  0  0  0  0  0  0  0  0  0
   13.4273   -2.1424   21.1098 Cl  0  0  0  0  0  0  0  0  0  0  0  0
    2.5432    3.3510   20.6369 H   0  0  0  0  0  0  0  0  0  0  0  0
    3.5174    2.1137   22.5168 H   0  0  0  0  0  0  0  0  0  0  0  0
    3.3409    2.9743   18.3364 H   0  0  0  0  0  0  0  0  0  0  0  0
    5.3118    0.4895   22.1572 H   0  0  0  0  0  0  0  0  0  0  0  0
   12.5019    0.5946   24.9768 H   0  0  0  0  0  0  0  0  0  0  0  0
   13.9911   -0.5203   23.3811 H   0  0  0  0  0  0  0  0  0  0  0  0
   10.6042   -2.0222   21.2286 H   0  0  0  0  0  0  0  0  0  0  0  0
    4.9141    1.7511   16.7474 H   0  0  0  0  0  0  0  0  0  0  0  0
    7.6445   -0.9764   18.1043 H   0  0  0  0  0  0  0  0  0  0  0  0
    9.7388   -0.1131   25.8254 H   0  0  0  0  0  0  0  0  0  0  0  0
   10.4771    1.4544   25.3711 H   0  0  0  0  0  0  0  0  0  0  0  0
    7.5768   -2.6110   23.3318 H   0  0  0  0  0  0  0  0  0  0  0  0
    8.7734   -2.8622   22.0653 H   0  0  0  0  0  0  0  0  0  0  0  0
    7.0225   -2.7503   20.5949 H   0  0  0  0  0  0  0  0  0  0  0  0
    5.9552   -1.9477   21.7830 H   0  0  0  0  0  0  0  0  0  0  0  0
    6.8958    0.3004   23.5785 H   0  0  0  0  0  0  0  0  0  0  0  0
    7.6733   -0.8520   24.6844 H   0  0  0  0  0  0  0  0  0  0  0  0
    5.4738    4.2507   22.4130 H   0  0  0  0  0  0  0  0  0  0  0  0
    6.0775    3.9177   20.7786 H   0  0  0  0  0  0  0  0  0  0  0  0
    9.2580    2.9867   24.1123 H   0  0  0  0  0  0  0  0  0  0  0  0
    9.3353    1.8814   22.6991 H   0  0  0  0  0  0  0  0  0  0  0  0
    8.3848    4.1756   22.0775 H   0  0  0  0  0  0  0  0  0  0  0  0
    8.1123    1.3501   25.3127 H   0  0  0  0  0  0  0  0  0  0  0  0
  1 24  1  0  0  0  0
  1 26  3  0  0  0  0
  2  3  1  0  0  0  0
  2  4  2  0  0  0  0
  3  5  2  0  0  0  0
  4 11  1  0  0  0  0
  5 12  1  0  0  0  0
  6  7  1  0  0  0  0
  6 13  2  0  0  0  0
  7 16  2  0  0  0  0
  8 14  2  0  0  0  0
  8 16  1  0  0  0  0
  9 11  2  0  0  0  0
  9 27  1  0  0  0  0
 10 15  1  0  0  0  0
 10 27  2  0  0  0  0
 11 12  1  0  0  0  0
 12 15  2  0  0  0  0
 13 14  1  0  0  0  0
 13 19  1  0  0  0  0
 14 23  1  0  0  0  0
 15 28  1  0  0  0  0
 16 33  1  0  0  0  0
 17 23  1  0  0  0  0
 17 28  1  0  0  0  0
 17 31  2  0  0  0  0
 18 25  1  0  0  0  0
 18 29  1  0  0  0  0
 18 32  2  0  0  0  0
 19 30  1  0  0  0  0
 20 21  1  0  0  0  0
 20 23  1  0  0  0  0
 21 28  1  0  0  0  0
 22 23  1  0  0  0  0
 22 30  1  0  0  0  0
 24 29  1  0  0  0  0
 25 30  1  1  0  0  0
  2 34  1  0  0  0  0
  3 35  1  0  0  0  0
  4 36  1  0  0  0  0
  5 37  1  0  0  0  0
  6 38  1  0  0  0  0
  7 39  1  0  0  0  0
  8 40  1  0  0  0  0
  9 41  1  0  0  0  0
 10 42  1  0  0  0  0
 19 43  1  0  0  0  0
 19 44  1  0  0  0  0
 20 45  1  0  0  0  0
 20 46  1  0  0  0  0
 21 47  1  0  0  0  0
 21 48  1  0  0  0  0
 22 49  1  0  0  0  0
 22 50  1  0  0  0  0
 24 51  1  0  0  0  0
 24 52  1  0  0  0  0
 25 53  1  0  0  0  0
 25 54  1  0  0  0  0
 29 55  1  0  0  0  0
 30 56  1  0  0  0  0
M  CHG  1  30   1
M  END
> <compound>
ALP-POS-ecbed2ba-14

> <compound_smiles>
c1ccc2c(c1)cncc2N3CCC4(C3=O)CN(Cc5c4cc(cc5)Cl)CC(=O)NCC#N

> <enantiomer_smiles>
c1ccc2c(c1)cncc2N3CCC4(C3=O)C[N@@](Cc5c4cc(cc5)Cl)CC(=O)NCC#N

> <scaffold>
tetrahydroisoquinoline-5spiro-isoquinoline

> <clash_score>
0

> <docking_score>
-10.022822380065918

> <overlap_score>
0.9783805012702942

> <MMFF_internal_energy>
179.9748698315657

> <docked_smiles>
c1ccc2c(c1)cncc2N3CC[C@@]4(C3=O)C[N@@H+](Cc5c4cc(cc5)Cl)CC(=O)NCC#N

$$$$
ALP-POS-ecbed2ba-18_3
  -OEChem-12272114573D

 58 62  0     1  0  0  0  0  0999 V2000
    3.3432    2.6279   20.4411 C   0  0  0  0  0  0  0  0  0  0  0  0
    3.8960    1.9291   21.5050 C   0  0  0  0  0  0  0  0  0  0  0  0
    3.7865    2.4205   19.1660 C   0  0  0  0  0  0  0  0  0  0  0  0
    4.8973    1.0233   21.2988 C   0  0  0  0  0  0  0  0  0  0  0  0
   12.0765    0.0316   24.1541 C   0  0  0  0  0  0  0  0  0  0  0  0
   12.9132   -0.6032   23.2569 C   0  0  0  0  0  0  0  0  0  0  0  0
   10.9991   -1.4331   22.0443 C   0  0  0  0  0  0  0  0  0  0  0  0
    5.3278    1.2339   17.6066 C   0  0  0  0  0  0  0  0  0  0  0  0
    6.8438   -0.2892   18.3752 C   0  0  0  0  0  0  0  0  0  0  0  0
    4.8226    1.4906   18.9054 C   0  0  0  0  0  0  0  0  0  0  0  0
    5.3982    0.7733   19.9948 C   0  0  0  0  0  0  0  0  0  0  0  0
   10.7040   -0.0625   23.9898 C   0  0  0  0  0  0  0  0  0  0  0  0
   10.1406   -0.7765   22.9250 C   0  0  0  0  0  0  0  0  0  0  0  0
    6.4440   -0.1472   19.6979 C   0  0  0  0  0  0  0  0  0  0  0  0
   12.3683   -1.3298   22.2234 C   0  0  0  0  0  0  0  0  0  0  0  0
    8.2490    0.0169   21.4271 C   0  0  0  0  0  0  0  0  0  0  0  0
    9.9479    0.5589   24.9534 C   0  0  0  0  0  0  0  0  0  0  0  0
    8.0140   -2.1541   22.4331 C   0  0  0  0  0  0  0  0  0  0  0  0
    6.9866   -1.9366   21.3580 C   0  0  0  0  0  0  0  0  0  0  0  0
    7.8721   -0.1194   23.8831 C   0  0  0  0  0  0  0  0  0  0  0  0
    8.6238   -0.7606   22.6929 C   0  0  3  0  0  0  0  0  0  0  0  0
    8.5531    5.1624   23.1190 C   0  0  0  0  0  0  0  0  0  0  0  0
    6.4179    3.5203   23.7084 C   0  0  0  0  0  0  0  0  0  0  0  0
    8.8376    3.9346   23.9153 C   0  0  0  0  0  0  0  0  0  0  0  0
    6.3062    0.3769   17.3421 N   0  0  0  0  0  0  0  0  0  0  0  0
    7.2292   -0.6897   20.7790 N   0  0  0  0  0  0  0  0  0  0  0  0
    8.6609    1.0133   24.4995 N   0  0  1  0  0  0  0  0  0  0  0  0
    7.6110    3.4369   24.5899 N   0  0  1  0  0  0  0  0  0  0  0  0
    8.8299    1.0397   21.0799 O   0  0  0  0  0  0  0  0  0  0  0  0
    8.6187    2.3214   26.7008 O   0  0  0  0  0  0  0  0  0  0  0  0
    6.4562    1.4400   25.7707 O   0  0  0  0  0  0  0  0  0  0  0  0
    7.7708    2.0177   25.5632 S   0  0  0  0  0  0  0  0  0  0  0  0
   13.4272   -2.1411   21.1086 Cl  0  0  0  0  0  0  0  0  0  0  0  0
    2.5432    3.3510   20.6369 H   0  0  0  0  0  0  0  0  0  0  0  0
    3.5174    2.1137   22.5168 H   0  0  0  0  0  0  0  0  0  0  0  0
    3.3409    2.9743   18.3364 H   0  0  0  0  0  0  0  0  0  0  0  0
    5.3118    0.4895   22.1572 H   0  0  0  0  0  0  0  0  0  0  0  0
   12.5024    0.5995   24.9735 H   0  0  0  0  0  0  0  0  0  0  0  0
   13.9910   -0.5177   23.3793 H   0  0  0  0  0  0  0  0  0  0  0  0
   10.6036   -2.0162   21.2241 H   0  0  0  0  0  0  0  0  0  0  0  0
    4.9141    1.7511   16.7474 H   0  0  0  0  0  0  0  0  0  0  0  0
    7.6445   -0.9764   18.1043 H   0  0  0  0  0  0  0  0  0  0  0  0
    9.7849   -0.1194   25.8306 H   0  0  0  0  0  0  0  0  0  0  0  0
   10.4793    1.4568   25.3613 H   0  0  0  0  0  0  0  0  0  0  0  0
    7.5152   -2.5456   23.3338 H   0  0  0  0  0  0  0  0  0  0  0  0
    8.7649   -2.9030   22.1434 H   0  0  0  0  0  0  0  0  0  0  0  0
    7.0587   -2.7248   20.5721 H   0  0  0  0  0  0  0  0  0  0  0  0
    5.9518   -1.9952   21.7720 H   0  0  0  0  0  0  0  0  0  0  0  0
    6.8867    0.2641   23.5642 H   0  0  0  0  0  0  0  0  0  0  0  0
    7.6652   -0.8660   24.6733 H   0  0  0  0  0  0  0  0  0  0  0  0
    8.1693    5.9504   23.7836 H   0  0  0  0  0  0  0  0  0  0  0  0
    9.4788    5.5089   22.6362 H   0  0  0  0  0  0  0  0  0  0  0  0
    7.8013    4.9340   22.3491 H   0  0  0  0  0  0  0  0  0  0  0  0
    5.5363    3.1427   24.2471 H   0  0  0  0  0  0  0  0  0  0  0  0
    6.2492    4.5678   23.4180 H   0  0  0  0  0  0  0  0  0  0  0  0
    6.5849    2.9122   22.8071 H   0  0  0  0  0  0  0  0  0  0  0  0
    9.2208    3.1520   23.2439 H   0  0  0  0  0  0  0  0  0  0  0  0
    9.5964    4.1683   24.6766 H   0  0  0  0  0  0  0  0  0  0  0  0
  1  2  1  0  0  0  0
  1  3  2  0  0  0  0
  2  4  2  0  0  0  0
  3 10  1  0  0  0  0
  4 11  1  0  0  0  0
  5  6  2  0  0  0  0
  5 12  1  0  0  0  0
  6 15  1  0  0  0  0
  7 13  1  0  0  0  0
  7 15  2  0  0  0  0
  8 10  2  0  0  0  0
  8 25  1  0  0  0  0
  9 14  1  0  0  0  0
  9 25  2  0  0  0  0
 10 11  1  0  0  0  0
 11 14  2  0  0  0  0
 12 13  2  0  0  0  0
 12 17  1  0  0  0  0
 13 21  1  0  0  0  0
 14 26  1  0  0  0  0
 15 33  1  0  0  0  0
 16 21  1  0  0  0  0
 16 26  1  0  0  0  0
 16 29  2  0  0  0  0
 17 27  1  0  0  0  0
 18 19  1  0  0  0  0
 18 21  1  0  0  0  0
 19 26  1  0  0  0  0
 20 21  1  0  0  0  0
 20 27  1  0  0  0  0
 22 24  1  0  0  0  0
 23 28  1  1  0  0  0
 24 28  1  0  0  0  0
 27 32  1  6  0  0  0
 28 32  1  0  0  0  0
 30 32  2  0  0  0  0
 31 32  2  0  0  0  0
  1 34  1  0  0  0  0
  2 35  1  0  0  0  0
  3 36  1  0  0  0  0
  4 37  1  0  0  0  0
  5 38  1  0  0  0  0
  6 39  1  0  0  0  0
  7 40  1  0  0  0  0
  8 41  1  0  0  0  0
  9 42  1  0  0  0  0
 17 43  1  0  0  0  0
 17 44  1  0  0  0  0
 18 45  1  0  0  0  0
 18 46  1  0  0  0  0
 19 47  1  0  0  0  0
 19 48  1  0  0  0  0
 20 49  1  0  0  0  0
 20 50  1  0  0  0  0
 22 51  1  0  0  0  0
 22 52  1  0  0  0  0
 22 53  1  0  0  0  0
 23 54  1  0  0  0  0
 23 55  1  0  0  0  0
 23 56  1  0  0  0  0
 24 57  1  0  0  0  0
 24 58  1  0  0  0  0
M  END
> <compound>
ALP-POS-ecbed2ba-18

> <compound_smiles>
CCN(C)S(=O)(=O)N1Cc2ccc(cc2C3(C1)CCN(C3=O)c4cncc5c4cccc5)Cl

> <enantiomer_smiles>
CC[N@@](C)S(=O)(=O)[N@]1Cc2ccc(cc2C3(C1)CCN(C3=O)c4cncc5c4cccc5)Cl

> <scaffold>
tetrahydroisoquinoline-5spiro-isoquinoline

> <clash_score>
0

> <docking_score>
-8.688995361328125

> <overlap_score>
0.9747825264930725

> <MMFF_internal_energy>
-23.950823859523418

> <docked_smiles>
CC[N@@](C)S(=O)(=O)[N@]1Cc2ccc(cc2[C@]3(C1)CCN(C3=O)c4cncc5c4cccc5)Cl

$$$$
ALP-POS-ecbed2ba-20_2
  -OEChem-12272114573D

 56 61  0     1  0  0  0  0  0999 V2000
    3.3432    2.6279   20.4411 C   0  0  0  0  0  0  0  0  0  0  0  0
    3.8960    1.9291   21.5050 C   0  0  0  0  0  0  0  0  0  0  0  0
    3.7865    2.4205   19.1660 C   0  0  0  0  0  0  0  0  0  0  0  0
    4.8973    1.0233   21.2988 C   0  0  0  0  0  0  0  0  0  0  0  0
   12.0765    0.0316   24.1541 C   0  0  0  0  0  0  0  0  0  0  0  0
   12.9132   -0.6032   23.2569 C   0  0  0  0  0  0  0  0  0  0  0  0
   10.9991   -1.4331   22.0443 C   0  0  0  0  0  0  0  0  0  0  0  0
    5.3278    1.2339   17.6066 C   0  0  0  0  0  0  0  0  0  0  0  0
    6.8438   -0.2892   18.3752 C   0  0  0  0  0  0  0  0  0  0  0  0
    4.8226    1.4906   18.9054 C   0  0  0  0  0  0  0  0  0  0  0  0
    5.3982    0.7733   19.9948 C   0  0  0  0  0  0  0  0  0  0  0  0
   10.7040   -0.0625   23.9898 C   0  0  0  0  0  0  0  0  0  0  0  0
   10.1406   -0.7765   22.9250 C   0  0  0  0  0  0  0  0  0  0  0  0
    6.4440   -0.1472   19.6979 C   0  0  0  0  0  0  0  0  0  0  0  0
   12.3683   -1.3298   22.2234 C   0  0  0  0  0  0  0  0  0  0  0  0
    8.2490    0.0169   21.4271 C   0  0  0  0  0  0  0  0  0  0  0  0
    9.9479    0.5589   24.9534 C   0  0  0  0  0  0  0  0  0  0  0  0
    8.3312    5.5134   24.2633 C   0  0  0  0  0  0  0  0  0  0  0  0
    8.0140   -2.1541   22.4331 C   0  0  0  0  0  0  0  0  0  0  0  0
    8.2253    4.0977   23.6701 C   0  0  0  0  0  0  0  0  0  0  0  0
    7.9400    4.8613   25.6009 C   0  0  0  0  0  0  0  0  0  0  0  0
    6.9866   -1.9366   21.3580 C   0  0  0  0  0  0  0  0  0  0  0  0
    7.8721   -0.1194   23.8831 C   0  0  0  0  0  0  0  0  0  0  0  0
    8.6238   -0.7606   22.6929 C   0  0  3  0  0  0  0  0  0  0  0  0
    6.3062    0.3769   17.3421 N   0  0  0  0  0  0  0  0  0  0  0  0
    7.2292   -0.6897   20.7790 N   0  0  0  0  0  0  0  0  0  0  0  0
    8.6609    1.0133   24.4995 N   0  0  2  0  0  0  0  0  0  0  0  0
    8.3484    3.5269   25.0516 N   0  0  0  0  0  0  0  0  0  0  0  0
    8.8299    1.0397   21.0799 O   0  0  0  0  0  0  0  0  0  0  0  0
    6.3631    1.9241   25.2230 O   0  0  0  0  0  0  0  0  0  0  0  0
    8.2231    1.7935   26.9240 O   0  0  0  0  0  0  0  0  0  0  0  0
    7.7708    2.0177   25.5632 S   0  0  0  0  0  0  0  0  0  0  0  0
   13.4272   -2.1411   21.1086 Cl  0  0  0  0  0  0  0  0  0  0  0  0
    2.5432    3.3510   20.6369 H   0  0  0  0  0  0  0  0  0  0  0  0
    3.5174    2.1137   22.5168 H   0  0  0  0  0  0  0  0  0  0  0  0
    3.3409    2.9743   18.3364 H   0  0  0  0  0  0  0  0  0  0  0  0
    5.3118    0.4895   22.1572 H   0  0  0  0  0  0  0  0  0  0  0  0
   12.5024    0.5995   24.9735 H   0  0  0  0  0  0  0  0  0  0  0  0
   13.9910   -0.5177   23.3793 H   0  0  0  0  0  0  0  0  0  0  0  0
   10.6036   -2.0162   21.2241 H   0  0  0  0  0  0  0  0  0  0  0  0
    4.9141    1.7511   16.7474 H   0  0  0  0  0  0  0  0  0  0  0  0
    7.6445   -0.9764   18.1043 H   0  0  0  0  0  0  0  0  0  0  0  0
    9.7849   -0.1194   25.8306 H   0  0  0  0  0  0  0  0  0  0  0  0
   10.4793    1.4568   25.3613 H   0  0  0  0  0  0  0  0  0  0  0  0
    9.3446    5.9277   24.2491 H   0  0  0  0  0  0  0  0  0  0  0  0
    7.6263    6.2484   23.8683 H   0  0  0  0  0  0  0  0  0  0  0  0
    7.5152   -2.5456   23.3338 H   0  0  0  0  0  0  0  0  0  0  0  0
    8.7649   -2.9030   22.1434 H   0  0  0  0  0  0  0  0  0  0  0  0
    7.2589    3.8637   23.2119 H   0  0  0  0  0  0  0  0  0  0  0  0
    9.0396    3.7967   23.0076 H   0  0  0  0  0  0  0  0  0  0  0  0
    8.5279    5.1658   26.4694 H   0  0  0  0  0  0  0  0  0  0  0  0
    6.8712    4.9013   25.8351 H   0  0  0  0  0  0  0  0  0  0  0  0
    7.0587   -2.7248   20.5721 H   0  0  0  0  0  0  0  0  0  0  0  0
    5.9518   -1.9952   21.7720 H   0  0  0  0  0  0  0  0  0  0  0  0
    6.8867    0.2641   23.5642 H   0  0  0  0  0  0  0  0  0  0  0  0
    7.6652   -0.8660   24.6733 H   0  0  0  0  0  0  0  0  0  0  0  0
  1  2  1  0  0  0  0
  1  3  2  0  0  0  0
  2  4  2  0  0  0  0
  3 10  1  0  0  0  0
  4 11  1  0  0  0  0
  5  6  1  0  0  0  0
  5 12  2  0  0  0  0
  6 15  2  0  0  0  0
  7 13  2  0  0  0  0
  7 15  1  0  0  0  0
  8 10  2  0  0  0  0
  8 25  1  0  0  0  0
  9 14  1  0  0  0  0
  9 25  2  0  0  0  0
 10 11  1  0  0  0  0
 11 14  2  0  0  0  0
 12 13  1  0  0  0  0
 12 17  1  0  0  0  0
 13 24  1  0  0  0  0
 14 26  1  0  0  0  0
 15 33  1  0  0  0  0
 16 24  1  0  0  0  0
 16 26  1  0  0  0  0
 16 29  2  0  0  0  0
 17 27  1  0  0  0  0
 18 20  1  0  0  0  0
 18 21  1  0  0  0  0
 19 22  1  0  0  0  0
 19 24  1  0  0  0  0
 20 28  1  0  0  0  0
 21 28  1  0  0  0  0
 22 26  1  0  0  0  0
 23 24  1  0  0  0  0
 23 27  1  0  0  0  0
 27 32  1  6  0  0  0
 28 32  1  0  0  0  0
 30 32  2  0  0  0  0
 31 32  2  0  0  0  0
  1 34  1  0  0  0  0
  2 35  1  0  0  0  0
  3 36  1  0  0  0  0
  4 37  1  0  0  0  0
  5 38  1  0  0  0  0
  6 39  1  0  0  0  0
  7 40  1  0  0  0  0
  8 41  1  0  0  0  0
  9 42  1  0  0  0  0
 17 43  1  0  0  0  0
 17 44  1  0  0  0  0
 18 45  1  0  0  0  0
 18 46  1  0  0  0  0
 19 47  1  0  0  0  0
 19 48  1  0  0  0  0
 20 49  1  0  0  0  0
 20 50  1  0  0  0  0
 21 51  1  0  0  0  0
 21 52  1  0  0  0  0
 22 53  1  0  0  0  0
 22 54  1  0  0  0  0
 23 55  1  0  0  0  0
 23 56  1  0  0  0  0
M  END
> <compound>
ALP-POS-ecbed2ba-20

> <compound_smiles>
c1ccc2c(c1)cncc2N3CCC4(C3=O)CN(Cc5c4cc(cc5)Cl)S(=O)(=O)N6CCC6

> <enantiomer_smiles>
c1ccc2c(c1)cncc2N3CCC4(C3=O)C[N@](Cc5c4cc(cc5)Cl)S(=O)(=O)N6CCC6

> <scaffold>
tetrahydroisoquinoline-5spiro-isoquinoline

> <clash_score>
0

> <docking_score>
-8.905410766601562

> <overlap_score>
0.9736530184745789

> <MMFF_internal_energy>
-16.31553960155911

> <docked_smiles>
c1ccc2c(c1)cncc2N3CC[C@@]4(C3=O)C[N@](Cc5c4cc(cc5)Cl)S(=O)(=O)N6CCC6

$$$$
ALP-POS-ecbed2ba-18_4
  -OEChem-12272114573D

 58 62  0     1  0  0  0  0  0999 V2000
    3.3432    2.6279   20.4411 C   0  0  0  0  0  0  0  0  0  0  0  0
    3.8960    1.9291   21.5050 C   0  0  0  0  0  0  0  0  0  0  0  0
    3.7865    2.4205   19.1660 C   0  0  0  0  0  0  0  0  0  0  0  0
    4.8973    1.0233   21.2988 C   0  0  0  0  0  0  0  0  0  0  0  0
   12.0765    0.0316   24.1541 C   0  0  0  0  0  0  0  0  0  0  0  0
   12.9132   -0.6032   23.2569 C   0  0  0  0  0  0  0  0  0  0  0  0
   10.9991   -1.4331   22.0443 C   0  0  0  0  0  0  0  0  0  0  0  0
    5.3278    1.2339   17.6066 C   0  0  0  0  0  0  0  0  0  0  0  0
    6.8438   -0.2892   18.3752 C   0  0  0  0  0  0  0  0  0  0  0  0
    4.8226    1.4906   18.9054 C   0  0  0  0  0  0  0  0  0  0  0  0
    5.3982    0.7733   19.9948 C   0  0  0  0  0  0  0  0  0  0  0  0
   10.7040   -0.0625   23.9898 C   0  0  0  0  0  0  0  0  0  0  0  0
   10.1406   -0.7765   22.9250 C   0  0  0  0  0  0  0  0  0  0  0  0
    6.4440   -0.1472   19.6979 C   0  0  0  0  0  0  0  0  0  0  0  0
   12.3683   -1.3298   22.2234 C   0  0  0  0  0  0  0  0  0  0  0  0
    8.2490    0.0169   21.4271 C   0  0  0  0  0  0  0  0  0  0  0  0
    9.9479    0.5589   24.9534 C   0  0  0  0  0  0  0  0  0  0  0  0
    8.0140   -2.1541   22.4331 C   0  0  0  0  0  0  0  0  0  0  0  0
    6.9866   -1.9366   21.3580 C   0  0  0  0  0  0  0  0  0  0  0  0
    7.8721   -0.1194   23.8831 C   0  0  0  0  0  0  0  0  0  0  0  0
    8.6238   -0.7606   22.6929 C   0  0  3  0  0  0  0  0  0  0  0  0
    7.9389    5.9891   25.2594 C   0  0  0  0  0  0  0  0  0  0  0  0
    8.1000    3.9598   23.6531 C   0  0  0  0  0  0  0  0  0  0  0  0
    8.1016    4.7061   26.0010 C   0  0  0  0  0  0  0  0  0  0  0  0
    6.3062    0.3769   17.3421 N   0  0  0  0  0  0  0  0  0  0  0  0
    7.2292   -0.6897   20.7790 N   0  0  0  0  0  0  0  0  0  0  0  0
    8.6609    1.0133   24.4995 N   0  0  1  0  0  0  0  0  0  0  0  0
    8.3369    3.5738   25.0681 N   0  0  2  0  0  0  0  0  0  0  0  0
    8.8299    1.0397   21.0799 O   0  0  0  0  0  0  0  0  0  0  0  0
    8.2349    1.7566   26.9129 O   0  0  0  0  0  0  0  0  0  0  0  0
    6.3591    1.9089   25.2467 O   0  0  0  0  0  0  0  0  0  0  0  0
    7.7708    2.0177   25.5632 S   0  0  0  0  0  0  0  0  0  0  0  0
   13.4272   -2.1411   21.1086 Cl  0  0  0  0  0  0  0  0  0  0  0  0
    2.5432    3.3510   20.6369 H   0  0  0  0  0  0  0  0  0  0  0  0
    3.5174    2.1137   22.5168 H   0  0  0  0  0  0  0  0  0  0  0  0
    3.3409    2.9743   18.3364 H   0  0  0  0  0  0  0  0  0  0  0  0
    5.3118    0.4895   22.1572 H   0  0  0  0  0  0  0  0  0  0  0  0
   12.5024    0.5995   24.9735 H   0  0  0  0  0  0  0  0  0  0  0  0
   13.9910   -0.5177   23.3793 H   0  0  0  0  0  0  0  0  0  0  0  0
   10.6036   -2.0162   21.2241 H   0  0  0  0  0  0  0  0  0  0  0  0
    4.9141    1.7511   16.7474 H   0  0  0  0  0  0  0  0  0  0  0  0
    7.6445   -0.9764   18.1043 H   0  0  0  0  0  0  0  0  0  0  0  0
    9.7849   -0.1194   25.8306 H   0  0  0  0  0  0  0  0  0  0  0  0
   10.4793    1.4568   25.3613 H   0  0  0  0  0  0  0  0  0  0  0  0
    7.5152   -2.5456   23.3338 H   0  0  0  0  0  0  0  0  0  0  0  0
    8.7649   -2.9030   22.1434 H   0  0  0  0  0  0  0  0  0  0  0  0
    7.0587   -2.7248   20.5721 H   0  0  0  0  0  0  0  0  0  0  0  0
    5.9518   -1.9952   21.7720 H   0  0  0  0  0  0  0  0  0  0  0  0
    6.8867    0.2641   23.5642 H   0  0  0  0  0  0  0  0  0  0  0  0
    7.6652   -0.8660   24.6733 H   0  0  0  0  0  0  0  0  0  0  0  0
    7.0825    5.9107   24.5736 H   0  0  0  0  0  0  0  0  0  0  0  0
    7.7622    6.8060   25.9746 H   0  0  0  0  0  0  0  0  0  0  0  0
    8.8523    6.1977   24.6830 H   0  0  0  0  0  0  0  0  0  0  0  0
    8.2854    3.0940   23.0004 H   0  0  0  0  0  0  0  0  0  0  0  0
    7.0585    4.2926   23.5334 H   0  0  0  0  0  0  0  0  0  0  0  0
    8.7807    4.7788   23.3777 H   0  0  0  0  0  0  0  0  0  0  0  0
    8.9594    4.7926   26.6842 H   0  0  0  0  0  0  0  0  0  0  0  0
    7.1886    4.5089   26.5819 H   0  0  0  0  0  0  0  0  0  0  0  0
  1  2  1  0  0  0  0
  1  3  2  0  0  0  0
  2  4  2  0  0  0  0
  3 10  1  0  0  0  0
  4 11  1  0  0  0  0
  5  6  2  0  0  0  0
  5 12  1  0  0  0  0
  6 15  1  0  0  0  0
  7 13  1  0  0  0  0
  7 15  2  0  0  0  0
  8 10  2  0  0  0  0
  8 25  1  0  0  0  0
  9 14  1  0  0  0  0
  9 25  2  0  0  0  0
 10 11  1  0  0  0  0
 11 14  2  0  0  0  0
 12 13  2  0  0  0  0
 12 17  1  0  0  0  0
 13 21  1  0  0  0  0
 14 26  1  0  0  0  0
 15 33  1  0  0  0  0
 16 21  1  0  0  0  0
 16 26  1  0  0  0  0
 16 29  2  0  0  0  0
 17 27  1  0  0  0  0
 18 19  1  0  0  0  0
 18 21  1  0  0  0  0
 19 26  1  0  0  0  0
 20 21  1  0  0  0  0
 20 27  1  0  0  0  0
 22 24  1  0  0  0  0
 23 28  1  6  0  0  0
 24 28  1  0  0  0  0
 27 32  1  6  0  0  0
 28 32  1  0  0  0  0
 30 32  2  0  0  0  0
 31 32  2  0  0  0  0
  1 34  1  0  0  0  0
  2 35  1  0  0  0  0
  3 36  1  0  0  0  0
  4 37  1  0  0  0  0
  5 38  1  0  0  0  0
  6 39  1  0  0  0  0
  7 40  1  0  0  0  0
  8 41  1  0  0  0  0
  9 42  1  0  0  0  0
 17 43  1  0  0  0  0
 17 44  1  0  0  0  0
 18 45  1  0  0  0  0
 18 46  1  0  0  0  0
 19 47  1  0  0  0  0
 19 48  1  0  0  0  0
 20 49  1  0  0  0  0
 20 50  1  0  0  0  0
 22 51  1  0  0  0  0
 22 52  1  0  0  0  0
 22 53  1  0  0  0  0
 23 54  1  0  0  0  0
 23 55  1  0  0  0  0
 23 56  1  0  0  0  0
 24 57  1  0  0  0  0
 24 58  1  0  0  0  0
M  END
> <compound>
ALP-POS-ecbed2ba-18

> <compound_smiles>
CCN(C)S(=O)(=O)N1Cc2ccc(cc2C3(C1)CCN(C3=O)c4cncc5c4cccc5)Cl

> <enantiomer_smiles>
CC[N@](C)S(=O)(=O)[N@]1Cc2ccc(cc2C3(C1)CCN(C3=O)c4cncc5c4cccc5)Cl

> <scaffold>
tetrahydroisoquinoline-5spiro-isoquinoline

> <clash_score>
0

> <docking_score>
-8.805566787719727

> <overlap_score>
0.9743234515190125

> <MMFF_internal_energy>
-20.44144723369174

> <docked_smiles>
CC[N@](C)S(=O)(=O)[N@]1Cc2ccc(cc2[C@]3(C1)CCN(C3=O)c4cncc5c4cccc5)Cl

$$$$
MAT-POS-69786b79-1_1
  -OEChem-12272114573D

 59 64  0     1  0  0  0  0  0999 V2000
    3.3432    2.6279   20.4411 C   0  0  0  0  0  0  0  0  0  0  0  0
    3.8960    1.9291   21.5050 C   0  0  0  0  0  0  0  0  0  0  0  0
    3.7865    2.4205   19.1660 C   0  0  0  0  0  0  0  0  0  0  0  0
    4.8973    1.0233   21.2988 C   0  0  0  0  0  0  0  0  0  0  0  0
   12.0765    0.0316   24.1541 C   0  0  0  0  0  0  0  0  0  0  0  0
   12.9132   -0.6032   23.2569 C   0  0  0  0  0  0  0  0  0  0  0  0
   10.9991   -1.4331   22.0443 C   0  0  0  0  0  0  0  0  0  0  0  0
    5.3278    1.2339   17.6066 C   0  0  0  0  0  0  0  0  0  0  0  0
    6.8438   -0.2892   18.3752 C   0  0  0  0  0  0  0  0  0  0  0  0
    4.8226    1.4906   18.9054 C   0  0  0  0  0  0  0  0  0  0  0  0
    5.3982    0.7733   19.9948 C   0  0  0  0  0  0  0  0  0  0  0  0
   10.7040   -0.0625   23.9898 C   0  0  0  0  0  0  0  0  0  0  0  0
   10.1406   -0.7765   22.9250 C   0  0  0  0  0  0  0  0  0  0  0  0
    6.4440   -0.1472   19.6979 C   0  0  0  0  0  0  0  0  0  0  0  0
   12.3683   -1.3298   22.2234 C   0  0  0  0  0  0  0  0  0  0  0  0
    8.2490    0.0169   21.4271 C   0  0  0  0  0  0  0  0  0  0  0  0
    7.4472    2.6758   23.0779 C   0  0  0  0  0  0  0  0  0  0  0  0
    9.9479    0.5589   24.9534 C   0  0  0  0  0  0  0  0  0  0  0  0
    9.8683    3.1658   23.7957 C   0  0  0  0  0  0  0  0  0  0  0  0
    9.9395    2.2333   22.6200 C   0  0  0  0  0  0  0  0  0  0  0  0
    8.0140   -2.1541   22.4331 C   0  0  0  0  0  0  0  0  0  0  0  0
    6.9866   -1.9366   21.3580 C   0  0  0  0  0  0  0  0  0  0  0  0
    7.8721   -0.1194   23.8831 C   0  0  0  0  0  0  0  0  0  0  0  0
    8.6238   -0.7606   22.6929 C   0  0  3  0  0  0  0  0  0  0  0  0
    8.7523    2.1891   23.5430 C   0  0  0  0  0  0  0  0  0  0  0  0
    6.3500    4.4724   21.7547 C   0  0  0  0  0  0  0  0  0  0  0  0
    6.3062    0.3769   17.3421 N   0  0  0  0  0  0  0  0  0  0  0  0
    7.2292   -0.6897   20.7790 N   0  0  0  0  0  0  0  0  0  0  0  0
    7.5150    3.8255   22.3144 N   0  0  0  0  0  0  0  0  0  0  0  0
    8.6609    1.0133   24.4995 N   0  3  2  0  0  0  0  0  0  0  0  0
    8.7576    1.0934   21.1338 O   0  0  0  0  0  0  0  0  0  0  0  0
    6.4308    2.0615   23.3798 O   0  0  0  0  0  0  0  0  0  0  0  0
   13.4273   -2.1426   21.1099 Cl  0  0  0  0  0  0  0  0  0  0  0  0
    2.5432    3.3510   20.6369 H   0  0  0  0  0  0  0  0  0  0  0  0
    3.5174    2.1137   22.5168 H   0  0  0  0  0  0  0  0  0  0  0  0
    3.3409    2.9743   18.3364 H   0  0  0  0  0  0  0  0  0  0  0  0
    5.3118    0.4895   22.1572 H   0  0  0  0  0  0  0  0  0  0  0  0
   12.5019    0.5947   24.9768 H   0  0  0  0  0  0  0  0  0  0  0  0
   13.9911   -0.5205   23.3811 H   0  0  0  0  0  0  0  0  0  0  0  0
   10.6043   -2.0223   21.2287 H   0  0  0  0  0  0  0  0  0  0  0  0
    4.9141    1.7511   16.7474 H   0  0  0  0  0  0  0  0  0  0  0  0
    7.6445   -0.9764   18.1043 H   0  0  0  0  0  0  0  0  0  0  0  0
    9.7382   -0.1121   25.8268 H   0  0  0  0  0  0  0  0  0  0  0  0
   10.4781    1.4550   25.3703 H   0  0  0  0  0  0  0  0  0  0  0  0
   10.5428    2.9832   24.6238 H   0  0  0  0  0  0  0  0  0  0  0  0
    9.6938    4.2159   23.5927 H   0  0  0  0  0  0  0  0  0  0  0  0
    9.8126    2.6611   21.6323 H   0  0  0  0  0  0  0  0  0  0  0  0
   10.6614    1.4263   22.6610 H   0  0  0  0  0  0  0  0  0  0  0  0
    7.5773   -2.6110   23.3320 H   0  0  0  0  0  0  0  0  0  0  0  0
    8.7733   -2.8621   22.0650 H   0  0  0  0  0  0  0  0  0  0  0  0
    7.0226   -2.7504   20.5950 H   0  0  0  0  0  0  0  0  0  0  0  0
    5.9553   -1.9476   21.7831 H   0  0  0  0  0  0  0  0  0  0  0  0
    6.8957    0.3010   23.5778 H   0  0  0  0  0  0  0  0  0  0  0  0
    7.6724   -0.8513   24.6855 H   0  0  0  0  0  0  0  0  0  0  0  0
    6.1468    4.0616   20.7547 H   0  0  0  0  0  0  0  0  0  0  0  0
    5.4827    4.2940   22.4074 H   0  0  0  0  0  0  0  0  0  0  0  0
    6.5335    5.5541   21.6763 H   0  0  0  0  0  0  0  0  0  0  0  0
    8.4272    4.2357   22.1381 H   0  0  0  0  0  0  0  0  0  0  0  0
    8.1103    1.3696   25.3026 H   0  0  0  0  0  0  0  0  0  0  0  0
  1  2  1  0  0  0  0
  1  3  2  0  0  0  0
  2  4  2  0  0  0  0
  3 10  1  0  0  0  0
  4 11  1  0  0  0  0
  5  6  2  0  0  0  0
  5 12  1  0  0  0  0
  6 15  1  0  0  0  0
  7 13  1  0  0  0  0
  7 15  2  0  0  0  0
  8 10  2  0  0  0  0
  8 27  1  0  0  0  0
  9 14  1  0  0  0  0
  9 27  2  0  0  0  0
 10 11  1  0  0  0  0
 11 14  2  0  0  0  0
 12 13  2  0  0  0  0
 12 18  1  0  0  0  0
 13 24  1  0  0  0  0
 14 28  1  0  0  0  0
 15 33  1  0  0  0  0
 16 24  1  0  0  0  0
 16 28  1  0  0  0  0
 16 31  2  0  0  0  0
 17 25  1  0  0  0  0
 17 29  1  0  0  0  0
 17 32  2  0  0  0  0
 18 30  1  0  0  0  0
 19 20  1  0  0  0  0
 19 25  1  0  0  0  0
 20 25  1  0  0  0  0
 21 22  1  0  0  0  0
 21 24  1  0  0  0  0
 22 28  1  0  0  0  0
 23 24  1  0  0  0  0
 23 30  1  0  0  0  0
 25 30  1  1  0  0  0
 26 29  1  0  0  0  0
  1 34  1  0  0  0  0
  2 35  1  0  0  0  0
  3 36  1  0  0  0  0
  4 37  1  0  0  0  0
  5 38  1  0  0  0  0
  6 39  1  0  0  0  0
  7 40  1  0  0  0  0
  8 41  1  0  0  0  0
  9 42  1  0  0  0  0
 18 43  1  0  0  0  0
 18 44  1  0  0  0  0
 19 45  1  0  0  0  0
 19 46  1  0  0  0  0
 20 47  1  0  0  0  0
 20 48  1  0  0  0  0
 21 49  1  0  0  0  0
 21 50  1  0  0  0  0
 22 51  1  0  0  0  0
 22 52  1  0  0  0  0
 23 53  1  0  0  0  0
 23 54  1  0  0  0  0
 26 55  1  0  0  0  0
 26 56  1  0  0  0  0
 26 57  1  0  0  0  0
 29 58  1  0  0  0  0
 30 59  1  0  0  0  0
M  CHG  1  30   1
M  END
> <compound>
MAT-POS-69786b79-1

> <compound_smiles>
CNC(=O)C1(CC1)N2Cc3ccc(cc3C4(C2)CCN(C4=O)c5cncc6c5cccc6)Cl

> <enantiomer_smiles>
CNC(=O)C1(CC1)[N@@]2Cc3ccc(cc3C4(C2)CCN(C4=O)c5cncc6c5cccc6)Cl

> <scaffold>
tetrahydroisoquinoline-5spiro-isoquinoline

> <clash_score>
0

> <docking_score>
-9.594880104064941

> <overlap_score>
0.9849509000778198

> <MMFF_internal_energy>
211.1110119736311

> <docked_smiles>
CNC(=O)C1(CC1)[N@@H+]2Cc3ccc(cc3[C@]4(C2)CCN(C4=O)c5cncc6c5cccc6)Cl

$$$$
ALP-POS-ecbed2ba-20_1
  -OEChem-12272114573D

 56 61  0     1  0  0  0  0  0999 V2000
    3.3432    2.6279   20.4411 C   0  0  0  0  0  0  0  0  0  0  0  0
    3.8960    1.9291   21.5050 C   0  0  0  0  0  0  0  0  0  0  0  0
    3.7865    2.4205   19.1660 C   0  0  0  0  0  0  0  0  0  0  0  0
    4.8973    1.0233   21.2988 C   0  0  0  0  0  0  0  0  0  0  0  0
   12.0765    0.0316   24.1541 C   0  0  0  0  0  0  0  0  0  0  0  0
   12.9132   -0.6032   23.2569 C   0  0  0  0  0  0  0  0  0  0  0  0
   10.9991   -1.4331   22.0443 C   0  0  0  0  0  0  0  0  0  0  0  0
    5.3278    1.2339   17.6066 C   0  0  0  0  0  0  0  0  0  0  0  0
    6.8438   -0.2892   18.3752 C   0  0  0  0  0  0  0  0  0  0  0  0
    4.8226    1.4906   18.9054 C   0  0  0  0  0  0  0  0  0  0  0  0
    5.3982    0.7733   19.9948 C   0  0  0  0  0  0  0  0  0  0  0  0
   10.7040   -0.0625   23.9898 C   0  0  0  0  0  0  0  0  0  0  0  0
   10.1406   -0.7765   22.9250 C   0  0  0  0  0  0  0  0  0  0  0  0
    6.4440   -0.1472   19.6979 C   0  0  0  0  0  0  0  0  0  0  0  0
   12.3683   -1.3298   22.2234 C   0  0  0  0  0  0  0  0  0  0  0  0
    8.2490    0.0169   21.4271 C   0  0  0  0  0  0  0  0  0  0  0  0
    9.9479    0.5589   24.9534 C   0  0  0  0  0  0  0  0  0  0  0  0
    6.8024    4.9796   25.2862 C   0  0  0  0  0  0  0  0  0  0  0  0
    8.0140   -2.1541   22.4331 C   0  0  0  0  0  0  0  0  0  0  0  0
    7.2386    3.6132   25.8347 C   0  0  0  0  0  0  0  0  0  0  0  0
    8.2180    5.0831   24.6999 C   0  0  0  0  0  0  0  0  0  0  0  0
    6.9866   -1.9366   21.3580 C   0  0  0  0  0  0  0  0  0  0  0  0
    7.8721   -0.1194   23.8831 C   0  0  0  0  0  0  0  0  0  0  0  0
    8.6238   -0.7606   22.6929 C   0  0  3  0  0  0  0  0  0  0  0  0
    6.3062    0.3769   17.3421 N   0  0  0  0  0  0  0  0  0  0  0  0
    7.2292   -0.6897   20.7790 N   0  0  0  0  0  0  0  0  0  0  0  0
    8.6609    1.0133   24.4995 N   0  0  1  0  0  0  0  0  0  0  0  0
    8.4074    3.6033   24.8886 N   0  0  0  0  0  0  0  0  0  0  0  0
    8.7572    1.0941   21.1350 O   0  0  0  0  0  0  0  0  0  0  0  0
    9.9258    2.7014   23.0280 O   0  0  0  0  0  0  0  0  0  0  0  0
    7.4210    2.4868   22.8036 O   0  0  0  0  0  0  0  0  0  0  0  0
    8.6198    2.4832   23.6217 S   0  0  0  0  0  0  0  0  0  0  0  0
   13.4275   -2.1421   21.1097 Cl  0  0  0  0  0  0  0  0  0  0  0  0
    2.5432    3.3510   20.6369 H   0  0  0  0  0  0  0  0  0  0  0  0
    3.5174    2.1137   22.5168 H   0  0  0  0  0  0  0  0  0  0  0  0
    3.3409    2.9743   18.3364 H   0  0  0  0  0  0  0  0  0  0  0  0
    5.3118    0.4895   22.1572 H   0  0  0  0  0  0  0  0  0  0  0  0
   12.5015    0.5938   24.9776 H   0  0  0  0  0  0  0  0  0  0  0  0
   13.9911   -0.5212   23.3814 H   0  0  0  0  0  0  0  0  0  0  0  0
   10.6037   -2.0228   21.2288 H   0  0  0  0  0  0  0  0  0  0  0  0
    4.9141    1.7511   16.7474 H   0  0  0  0  0  0  0  0  0  0  0  0
    7.6445   -0.9764   18.1043 H   0  0  0  0  0  0  0  0  0  0  0  0
    9.7581   -0.1287   25.8173 H   0  0  0  0  0  0  0  0  0  0  0  0
   10.4931    1.4391   25.3829 H   0  0  0  0  0  0  0  0  0  0  0  0
    6.0086    4.9252   24.5309 H   0  0  0  0  0  0  0  0  0  0  0  0
    6.5405    5.7328   26.0361 H   0  0  0  0  0  0  0  0  0  0  0  0
    7.5801   -2.6060   23.3366 H   0  0  0  0  0  0  0  0  0  0  0  0
    8.7749   -2.8608   22.0657 H   0  0  0  0  0  0  0  0  0  0  0  0
    7.5602    3.6186   26.8838 H   0  0  0  0  0  0  0  0  0  0  0  0
    6.5442    2.7844   25.6634 H   0  0  0  0  0  0  0  0  0  0  0  0
    8.2809    5.3909   23.6512 H   0  0  0  0  0  0  0  0  0  0  0  0
    8.9250    5.6673   25.3023 H   0  0  0  0  0  0  0  0  0  0  0  0
    7.0227   -2.7506   20.5953 H   0  0  0  0  0  0  0  0  0  0  0  0
    5.9554   -1.9484   21.7832 H   0  0  0  0  0  0  0  0  0  0  0  0
    6.8886    0.2769   23.5666 H   0  0  0  0  0  0  0  0  0  0  0  0
    7.6579   -0.8710   24.6633 H   0  0  0  0  0  0  0  0  0  0  0  0
  1  2  1  0  0  0  0
  1  3  2  0  0  0  0
  2  4  2  0  0  0  0
  3 10  1  0  0  0  0
  4 11  1  0  0  0  0
  5  6  1  0  0  0  0
  5 12  2  0  0  0  0
  6 15  2  0  0  0  0
  7 13  2  0  0  0  0
  7 15  1  0  0  0  0
  8 10  2  0  0  0  0
  8 25  1  0  0  0  0
  9 14  1  0  0  0  0
  9 25  2  0  0  0  0
 10 11  1  0  0  0  0
 11 14  2  0  0  0  0
 12 13  1  0  0  0  0
 12 17  1  0  0  0  0
 13 24  1  0  0  0  0
 14 26  1  0  0  0  0
 15 33  1  0  0  0  0
 16 24  1  0  0  0  0
 16 26  1  0  0  0  0
 16 29  2  0  0  0  0
 17 27  1  0  0  0  0
 18 20  1  0  0  0  0
 18 21  1  0  0  0  0
 19 22  1  0  0  0  0
 19 24  1  0  0  0  0
 20 28  1  0  0  0  0
 21 28  1  0  0  0  0
 22 26  1  0  0  0  0
 23 24  1  0  0  0  0
 23 27  1  0  0  0  0
 27 32  1  1  0  0  0
 28 32  1  0  0  0  0
 30 32  2  0  0  0  0
 31 32  2  0  0  0  0
  1 34  1  0  0  0  0
  2 35  1  0  0  0  0
  3 36  1  0  0  0  0
  4 37  1  0  0  0  0
  5 38  1  0  0  0  0
  6 39  1  0  0  0  0
  7 40  1  0  0  0  0
  8 41  1  0  0  0  0
  9 42  1  0  0  0  0
 17 43  1  0  0  0  0
 17 44  1  0  0  0  0
 18 45  1  0  0  0  0
 18 46  1  0  0  0  0
 19 47  1  0  0  0  0
 19 48  1  0  0  0  0
 20 49  1  0  0  0  0
 20 50  1  0  0  0  0
 21 51  1  0  0  0  0
 21 52  1  0  0  0  0
 22 53  1  0  0  0  0
 22 54  1  0  0  0  0
 23 55  1  0  0  0  0
 23 56  1  0  0  0  0
M  END
> <compound>
ALP-POS-ecbed2ba-20

> <compound_smiles>
c1ccc2c(c1)cncc2N3CCC4(C3=O)CN(Cc5c4cc(cc5)Cl)S(=O)(=O)N6CCC6

> <enantiomer_smiles>
c1ccc2c(c1)cncc2N3CCC4(C3=O)C[N@@](Cc5c4cc(cc5)Cl)S(=O)(=O)N6CCC6

> <scaffold>
tetrahydroisoquinoline-5spiro-isoquinoline

> <clash_score>
0

> <docking_score>
-8.990670204162598

> <overlap_score>
0.9773275852203369

> <MMFF_internal_energy>
0.4611302938644766

> <docked_smiles>
c1ccc2c(c1)cncc2N3CC[C@@]4(C3=O)C[N@@](Cc5c4cc(cc5)Cl)S(=O)(=O)N6CCC6

$$$$
PET-UNK-aa57768f-7_1
  -OEChem-12272114573D

 51 56  0     1  0  0  0  0  0999 V2000
    3.3432    2.6279   20.4411 C   0  0  0  0  0  0  0  0  0  0  0  0
    3.8960    1.9291   21.5050 C   0  0  0  0  0  0  0  0  0  0  0  0
    3.7865    2.4205   19.1660 C   0  0  0  0  0  0  0  0  0  0  0  0
    4.8973    1.0233   21.2988 C   0  0  0  0  0  0  0  0  0  0  0  0
   12.0765    0.0316   24.1541 C   0  0  0  0  0  0  0  0  0  0  0  0
   12.9132   -0.6032   23.2569 C   0  0  0  0  0  0  0  0  0  0  0  0
   10.9991   -1.4331   22.0443 C   0  0  0  0  0  0  0  0  0  0  0  0
    5.3278    1.2339   17.6066 C   0  0  0  0  0  0  0  0  0  0  0  0
    6.8438   -0.2892   18.3752 C   0  0  0  0  0  0  0  0  0  0  0  0
    9.2035    5.2794   23.3954 C   0  0  0  0  0  0  0  0  0  0  0  0
    4.8226    1.4906   18.9054 C   0  0  0  0  0  0  0  0  0  0  0  0
    5.3982    0.7733   19.9948 C   0  0  0  0  0  0  0  0  0  0  0  0
   10.7040   -0.0625   23.9898 C   0  0  0  0  0  0  0  0  0  0  0  0
   10.1406   -0.7765   22.9250 C   0  0  0  0  0  0  0  0  0  0  0  0
    6.4440   -0.1472   19.6979 C   0  0  0  0  0  0  0  0  0  0  0  0
   12.3683   -1.3298   22.2234 C   0  0  0  0  0  0  0  0  0  0  0  0
    8.8911    3.3679   24.2107 C   0  0  0  0  0  0  0  0  0  0  0  0
    9.9479    0.5589   24.9534 C   0  0  0  0  0  0  0  0  0  0  0  0
    8.2490    0.0169   21.4271 C   0  0  0  0  0  0  0  0  0  0  0  0
    8.0140   -2.1541   22.4331 C   0  0  0  0  0  0  0  0  0  0  0  0
    6.9866   -1.9366   21.3580 C   0  0  0  0  0  0  0  0  0  0  0  0
    7.8721   -0.1194   23.8831 C   0  0  0  0  0  0  0  0  0  0  0  0
    8.6238   -0.7606   22.6929 C   0  0  3  0  0  0  0  0  0  0  0  0
    8.0922    2.2237   24.7645 C   0  0  0  0  0  0  0  0  0  0  0  0
    6.3062    0.3769   17.3421 N   0  0  0  0  0  0  0  0  0  0  0  0
   10.3921    4.7311   23.4920 N   0  0  0  0  0  0  0  0  0  0  0  0
   10.1865    3.4736   24.0283 N   0  0  0  0  0  0  0  0  0  0  0  0
    7.2292   -0.6897   20.7790 N   0  0  0  0  0  0  0  0  0  0  0  0
    8.6609    1.0133   24.4995 N   0  0  0  0  0  0  0  0  0  0  0  0
   10.3214    0.7303   26.1092 O   0  0  0  0  0  0  0  0  0  0  0  0
    8.8193    1.0411   21.0780 O   0  0  0  0  0  0  0  0  0  0  0  0
    8.1959    4.4753   23.8323 O   0  0  0  0  0  0  0  0  0  0  0  0
   13.4274   -2.1468   21.1136 Cl  0  0  0  0  0  0  0  0  0  0  0  0
    2.5432    3.3510   20.6369 H   0  0  0  0  0  0  0  0  0  0  0  0
    3.5174    2.1137   22.5168 H   0  0  0  0  0  0  0  0  0  0  0  0
    3.3409    2.9743   18.3364 H   0  0  0  0  0  0  0  0  0  0  0  0
    5.3118    0.4895   22.1572 H   0  0  0  0  0  0  0  0  0  0  0  0
   12.5172    0.5967   24.9716 H   0  0  0  0  0  0  0  0  0  0  0  0
   13.9905   -0.5221   23.3825 H   0  0  0  0  0  0  0  0  0  0  0  0
   10.6130   -2.0249   21.2272 H   0  0  0  0  0  0  0  0  0  0  0  0
    4.9141    1.7511   16.7474 H   0  0  0  0  0  0  0  0  0  0  0  0
    7.6445   -0.9764   18.1043 H   0  0  0  0  0  0  0  0  0  0  0  0
    8.9325    6.2556   23.0252 H   0  0  0  0  0  0  0  0  0  0  0  0
    7.5110   -2.5276   23.3390 H   0  0  0  0  0  0  0  0  0  0  0  0
    8.7575   -2.9105   22.1433 H   0  0  0  0  0  0  0  0  0  0  0  0
    7.0587   -2.7258   20.5724 H   0  0  0  0  0  0  0  0  0  0  0  0
    5.9512   -1.9960   21.7712 H   0  0  0  0  0  0  0  0  0  0  0  0
    6.9203    0.3184   23.5736 H   0  0  0  0  0  0  0  0  0  0  0  0
    7.6659   -0.8542   24.6623 H   0  0  0  0  0  0  0  0  0  0  0  0
    7.9882    2.3156   25.8511 H   0  0  0  0  0  0  0  0  0  0  0  0
    7.0823    2.2083   24.3413 H   0  0  0  0  0  0  0  0  0  0  0  0
  1  2  1  0  0  0  0
  1  3  2  0  0  0  0
  2  4  2  0  0  0  0
  3 11  1  0  0  0  0
  4 12  1  0  0  0  0
  5  6  1  0  0  0  0
  5 13  2  0  0  0  0
  6 16  2  0  0  0  0
  7 14  2  0  0  0  0
  7 16  1  0  0  0  0
  8 11  2  0  0  0  0
  8 25  1  0  0  0  0
  9 15  1  0  0  0  0
  9 25  2  0  0  0  0
 10 26  2  0  0  0  0
 10 32  1  0  0  0  0
 11 12  1  0  0  0  0
 12 15  2  0  0  0  0
 13 14  1  0  0  0  0
 13 18  1  0  0  0  0
 14 23  1  0  0  0  0
 15 28  1  0  0  0  0
 16 33  1  0  0  0  0
 17 24  1  0  0  0  0
 17 27  2  0  0  0  0
 17 32  1  0  0  0  0
 18 29  1  0  0  0  0
 18 30  2  0  0  0  0
 19 23  1  0  0  0  0
 19 28  1  0  0  0  0
 19 31  2  0  0  0  0
 20 21  1  0  0  0  0
 20 23  1  0  0  0  0
 21 28  1  0  0  0  0
 22 23  1  0  0  0  0
 22 29  1  0  0  0  0
 24 29  1  0  0  0  0
 26 27  1  0  0  0  0
  1 34  1  0  0  0  0
  2 35  1  0  0  0  0
  3 36  1  0  0  0  0
  4 37  1  0  0  0  0
  5 38  1  0  0  0  0
  6 39  1  0  0  0  0
  7 40  1  0  0  0  0
  8 41  1  0  0  0  0
  9 42  1  0  0  0  0
 10 43  1  0  0  0  0
 20 44  1  0  0  0  0
 20 45  1  0  0  0  0
 21 46  1  0  0  0  0
 21 47  1  0  0  0  0
 22 48  1  0  0  0  0
 22 49  1  0  0  0  0
 24 50  1  0  0  0  0
 24 51  1  0  0  0  0
M  END
> <compound>
PET-UNK-aa57768f-7

> <compound_smiles>
c1ccc2c(c1)cncc2N3CCC4(C3=O)CN(C(=O)c5c4cc(cc5)Cl)Cc6nnco6

> <enantiomer_smiles>
c1ccc2c(c1)cncc2N3CCC4(C3=O)CN(C(=O)c5c4cc(cc5)Cl)Cc6nnco6

> <scaffold>
tetrahydroisoquinoline-5spiro-isoquinoline

> <clash_score>
0

> <docking_score>
-8.18431282043457

> <overlap_score>
0.9864130020141602

> <MMFF_internal_energy>
170.0010659718502

> <docked_smiles>
c1ccc2c(c1)cncc2N3CC[C@@]4(C3=O)CN(C(=O)c5c4cc(cc5)Cl)Cc6nnco6

$$$$
MAT-POS-69786b79-1_2
  -OEChem-12272114573D

 59 64  0     1  0  0  0  0  0999 V2000
    3.3432    2.6279   20.4411 C   0  0  0  0  0  0  0  0  0  0  0  0
    3.8960    1.9291   21.5050 C   0  0  0  0  0  0  0  0  0  0  0  0
    3.7865    2.4205   19.1660 C   0  0  0  0  0  0  0  0  0  0  0  0
    4.8973    1.0233   21.2988 C   0  0  0  0  0  0  0  0  0  0  0  0
   12.0765    0.0316   24.1541 C   0  0  0  0  0  0  0  0  0  0  0  0
   12.9132   -0.6032   23.2569 C   0  0  0  0  0  0  0  0  0  0  0  0
   10.9991   -1.4331   22.0443 C   0  0  0  0  0  0  0  0  0  0  0  0
    5.3278    1.2339   17.6066 C   0  0  0  0  0  0  0  0  0  0  0  0
    6.8438   -0.2892   18.3752 C   0  0  0  0  0  0  0  0  0  0  0  0
    4.8226    1.4906   18.9054 C   0  0  0  0  0  0  0  0  0  0  0  0
    5.3982    0.7733   19.9948 C   0  0  0  0  0  0  0  0  0  0  0  0
   10.7040   -0.0625   23.9898 C   0  0  0  0  0  0  0  0  0  0  0  0
   10.1406   -0.7765   22.9250 C   0  0  0  0  0  0  0  0  0  0  0  0
    6.4440   -0.1472   19.6979 C   0  0  0  0  0  0  0  0  0  0  0  0
   12.3683   -1.3298   22.2234 C   0  0  0  0  0  0  0  0  0  0  0  0
    8.2490    0.0169   21.4271 C   0  0  0  0  0  0  0  0  0  0  0  0
    6.8023    2.5618   25.0441 C   0  0  0  0  0  0  0  0  0  0  0  0
    9.9479    0.5589   24.9534 C   0  0  0  0  0  0  0  0  0  0  0  0
    7.6128    0.9327   26.8624 C   0  0  0  0  0  0  0  0  0  0  0  0
    8.5661    2.0937   26.8571 C   0  0  0  0  0  0  0  0  0  0  0  0
    8.0140   -2.1541   22.4331 C   0  0  0  0  0  0  0  0  0  0  0  0
    6.9866   -1.9366   21.3580 C   0  0  0  0  0  0  0  0  0  0  0  0
    7.8721   -0.1194   23.8831 C   0  0  0  0  0  0  0  0  0  0  0  0
    8.6238   -0.7606   22.6929 C   0  0  3  0  0  0  0  0  0  0  0  0
    7.8569    1.6983   25.5906 C   0  0  0  0  0  0  0  0  0  0  0  0
    4.3358    2.8367   24.8920 C   0  0  0  0  0  0  0  0  0  0  0  0
    6.3062    0.3769   17.3421 N   0  0  0  0  0  0  0  0  0  0  0  0
    7.2292   -0.6897   20.7790 N   0  0  0  0  0  0  0  0  0  0  0  0
    5.5200    2.1343   25.3314 N   0  0  0  0  0  0  0  0  0  0  0  0
    8.6609    1.0133   24.4995 N   0  3  1  0  0  0  0  0  0  0  0  0
    8.8289    1.0400   21.0800 O   0  0  0  0  0  0  0  0  0  0  0  0
    7.1102    3.5584   24.4010 O   0  0  0  0  0  0  0  0  0  0  0  0
   13.4275   -2.1409   21.1088 Cl  0  0  0  0  0  0  0  0  0  0  0  0
    2.5432    3.3510   20.6369 H   0  0  0  0  0  0  0  0  0  0  0  0
    3.5174    2.1137   22.5168 H   0  0  0  0  0  0  0  0  0  0  0  0
    3.3409    2.9743   18.3364 H   0  0  0  0  0  0  0  0  0  0  0  0
    5.3118    0.4895   22.1572 H   0  0  0  0  0  0  0  0  0  0  0  0
   12.5018    0.5968   24.9754 H   0  0  0  0  0  0  0  0  0  0  0  0
   13.9911   -0.5184   23.3796 H   0  0  0  0  0  0  0  0  0  0  0  0
   10.6045   -2.0163   21.2243 H   0  0  0  0  0  0  0  0  0  0  0  0
    4.9141    1.7511   16.7474 H   0  0  0  0  0  0  0  0  0  0  0  0
    7.6445   -0.9764   18.1043 H   0  0  0  0  0  0  0  0  0  0  0  0
    9.7611   -0.1221   25.8249 H   0  0  0  0  0  0  0  0  0  0  0  0
   10.4556    1.4663   25.3727 H   0  0  0  0  0  0  0  0  0  0  0  0
    8.0320   -0.0617   26.9604 H   0  0  0  0  0  0  0  0  0  0  0  0
    6.6658    1.0640   27.3726 H   0  0  0  0  0  0  0  0  0  0  0  0
    8.2555    2.9999   27.3638 H   0  0  0  0  0  0  0  0  0  0  0  0
    9.6236    1.8767   26.9512 H   0  0  0  0  0  0  0  0  0  0  0  0
    7.5145   -2.5481   23.3323 H   0  0  0  0  0  0  0  0  0  0  0  0
    8.7599   -2.9062   22.1408 H   0  0  0  0  0  0  0  0  0  0  0  0
    7.0574   -2.7252   20.5721 H   0  0  0  0  0  0  0  0  0  0  0  0
    5.9515   -1.9958   21.7712 H   0  0  0  0  0  0  0  0  0  0  0  0
    6.8944    0.2931   23.5774 H   0  0  0  0  0  0  0  0  0  0  0  0
    7.6769   -0.8493   24.6909 H   0  0  0  0  0  0  0  0  0  0  0  0
    4.0436    3.5755   25.6528 H   0  0  0  0  0  0  0  0  0  0  0  0
    4.5459    3.3515   23.9429 H   0  0  0  0  0  0  0  0  0  0  0  0
    3.5163    2.1177   24.7456 H   0  0  0  0  0  0  0  0  0  0  0  0
    5.4042    1.2859   25.8775 H   0  0  0  0  0  0  0  0  0  0  0  0
    8.7816    1.7374   23.7670 H   0  0  0  0  0  0  0  0  0  0  0  0
  1  2  1  0  0  0  0
  1  3  2  0  0  0  0
  2  4  2  0  0  0  0
  3 10  1  0  0  0  0
  4 11  1  0  0  0  0
  5  6  2  0  0  0  0
  5 12  1  0  0  0  0
  6 15  1  0  0  0  0
  7 13  1  0  0  0  0
  7 15  2  0  0  0  0
  8 10  2  0  0  0  0
  8 27  1  0  0  0  0
  9 14  1  0  0  0  0
  9 27  2  0  0  0  0
 10 11  1  0  0  0  0
 11 14  2  0  0  0  0
 12 13  2  0  0  0  0
 12 18  1  0  0  0  0
 13 24  1  0  0  0  0
 14 28  1  0  0  0  0
 15 33  1  0  0  0  0
 16 24  1  0  0  0  0
 16 28  1  0  0  0  0
 16 31  2  0  0  0  0
 17 25  1  0  0  0  0
 17 29  1  0  0  0  0
 17 32  2  0  0  0  0
 18 30  1  0  0  0  0
 19 20  1  0  0  0  0
 19 25  1  0  0  0  0
 20 25  1  0  0  0  0
 21 22  1  0  0  0  0
 21 24  1  0  0  0  0
 22 28  1  0  0  0  0
 23 24  1  0  0  0  0
 23 30  1  0  0  0  0
 25 30  1  6  0  0  0
 26 29  1  0  0  0  0
  1 34  1  0  0  0  0
  2 35  1  0  0  0  0
  3 36  1  0  0  0  0
  4 37  1  0  0  0  0
  5 38  1  0  0  0  0
  6 39  1  0  0  0  0
  7 40  1  0  0  0  0
  8 41  1  0  0  0  0
  9 42  1  0  0  0  0
 18 43  1  0  0  0  0
 18 44  1  0  0  0  0
 19 45  1  0  0  0  0
 19 46  1  0  0  0  0
 20 47  1  0  0  0  0
 20 48  1  0  0  0  0
 21 49  1  0  0  0  0
 21 50  1  0  0  0  0
 22 51  1  0  0  0  0
 22 52  1  0  0  0  0
 23 53  1  0  0  0  0
 23 54  1  0  0  0  0
 26 55  1  0  0  0  0
 26 56  1  0  0  0  0
 26 57  1  0  0  0  0
 29 58  1  0  0  0  0
 30 59  1  0  0  0  0
M  CHG  1  30   1
M  END
> <compound>
MAT-POS-69786b79-1

> <compound_smiles>
CNC(=O)C1(CC1)N2Cc3ccc(cc3C4(C2)CCN(C4=O)c5cncc6c5cccc6)Cl

> <enantiomer_smiles>
CNC(=O)C1(CC1)[N@]2Cc3ccc(cc3C4(C2)CCN(C4=O)c5cncc6c5cccc6)Cl

> <scaffold>
tetrahydroisoquinoline-5spiro-isoquinoline

> <clash_score>
0

> <docking_score>
-8.612611770629883

> <overlap_score>
0.9762889742851257

> <MMFF_internal_energy>
167.68396346622552

> <docked_smiles>
CNC(=O)C1(CC1)[N@H+]2Cc3ccc(cc3[C@]4(C2)CCN(C4=O)c5cncc6c5cccc6)Cl

$$$$
MAT-POS-69786b79-2_1
  -OEChem-12272114573D

 59 64  0     1  0  0  0  0  0999 V2000
    3.3432    2.6279   20.4411 C   0  0  0  0  0  0  0  0  0  0  0  0
    3.8960    1.9291   21.5050 C   0  0  0  0  0  0  0  0  0  0  0  0
    3.7865    2.4205   19.1660 C   0  0  0  0  0  0  0  0  0  0  0  0
    4.8973    1.0233   21.2988 C   0  0  0  0  0  0  0  0  0  0  0  0
   12.0765    0.0316   24.1541 C   0  0  0  0  0  0  0  0  0  0  0  0
   12.9132   -0.6032   23.2569 C   0  0  0  0  0  0  0  0  0  0  0  0
   10.9991   -1.4331   22.0443 C   0  0  0  0  0  0  0  0  0  0  0  0
    5.3278    1.2339   17.6066 C   0  0  0  0  0  0  0  0  0  0  0  0
    6.8438   -0.2892   18.3752 C   0  0  0  0  0  0  0  0  0  0  0  0
    4.8226    1.4906   18.9054 C   0  0  0  0  0  0  0  0  0  0  0  0
    5.3982    0.7733   19.9948 C   0  0  0  0  0  0  0  0  0  0  0  0
   10.7040   -0.0625   23.9898 C   0  0  0  0  0  0  0  0  0  0  0  0
   10.1406   -0.7765   22.9250 C   0  0  0  0  0  0  0  0  0  0  0  0
    6.4440   -0.1472   19.6979 C   0  0  0  0  0  0  0  0  0  0  0  0
   12.3683   -1.3298   22.2234 C   0  0  0  0  0  0  0  0  0  0  0  0
    8.2490    0.0169   21.4271 C   0  0  0  0  0  0  0  0  0  0  0  0
    7.3800    2.6707   23.1135 C   0  0  0  0  0  0  0  0  0  0  0  0
    9.9479    0.5589   24.9534 C   0  0  0  0  0  0  0  0  0  0  0  0
    5.5324    5.4483   22.4998 C   0  0  0  0  0  0  0  0  0  0  0  0
    6.3346    5.8617   21.3023 C   0  0  0  0  0  0  0  0  0  0  0  0
    8.0140   -2.1541   22.4331 C   0  0  0  0  0  0  0  0  0  0  0  0
    6.9866   -1.9366   21.3580 C   0  0  0  0  0  0  0  0  0  0  0  0
    7.8721   -0.1194   23.8831 C   0  0  0  0  0  0  0  0  0  0  0  0
    6.3064    4.4181   21.7238 C   0  0  0  0  0  0  0  0  0  0  0  0
    8.6238   -0.7606   22.6929 C   0  0  3  0  0  0  0  0  0  0  0  0
    8.7403    2.1972   23.5605 C   0  0  0  0  0  0  0  0  0  0  0  0
    6.3062    0.3769   17.3421 N   0  0  0  0  0  0  0  0  0  0  0  0
    7.2292   -0.6897   20.7790 N   0  0  0  0  0  0  0  0  0  0  0  0
    7.4727    3.7787   22.2847 N   0  0  0  0  0  0  0  0  0  0  0  0
    8.6609    1.0133   24.4995 N   0  3  1  0  0  0  0  0  0  0  0  0
    8.7573    1.0936   21.1337 O   0  0  0  0  0  0  0  0  0  0  0  0
    6.3322    2.1271   23.4522 O   0  0  0  0  0  0  0  0  0  0  0  0
   13.4273   -2.1424   21.1098 Cl  0  0  0  0  0  0  0  0  0  0  0  0
    2.5432    3.3510   20.6369 H   0  0  0  0  0  0  0  0  0  0  0  0
    3.5174    2.1137   22.5168 H   0  0  0  0  0  0  0  0  0  0  0  0
    3.3409    2.9743   18.3364 H   0  0  0  0  0  0  0  0  0  0  0  0
    5.3118    0.4895   22.1572 H   0  0  0  0  0  0  0  0  0  0  0  0
   12.5019    0.5946   24.9768 H   0  0  0  0  0  0  0  0  0  0  0  0
   13.9911   -0.5203   23.3811 H   0  0  0  0  0  0  0  0  0  0  0  0
   10.6042   -2.0222   21.2286 H   0  0  0  0  0  0  0  0  0  0  0  0
    4.9141    1.7511   16.7474 H   0  0  0  0  0  0  0  0  0  0  0  0
    7.6445   -0.9764   18.1043 H   0  0  0  0  0  0  0  0  0  0  0  0
    9.7388   -0.1131   25.8254 H   0  0  0  0  0  0  0  0  0  0  0  0
   10.4771    1.4544   25.3711 H   0  0  0  0  0  0  0  0  0  0  0  0
    5.8981    5.7419   23.4762 H   0  0  0  0  0  0  0  0  0  0  0  0
    4.4532    5.4431   22.4075 H   0  0  0  0  0  0  0  0  0  0  0  0
    5.7959    6.1351   20.4034 H   0  0  0  0  0  0  0  0  0  0  0  0
    7.2387    6.4327   21.4751 H   0  0  0  0  0  0  0  0  0  0  0  0
    7.5768   -2.6110   23.3318 H   0  0  0  0  0  0  0  0  0  0  0  0
    8.7734   -2.8622   22.0653 H   0  0  0  0  0  0  0  0  0  0  0  0
    7.0225   -2.7503   20.5949 H   0  0  0  0  0  0  0  0  0  0  0  0
    5.9552   -1.9477   21.7830 H   0  0  0  0  0  0  0  0  0  0  0  0
    6.8958    0.3004   23.5785 H   0  0  0  0  0  0  0  0  0  0  0  0
    7.6733   -0.8520   24.6844 H   0  0  0  0  0  0  0  0  0  0  0  0
    5.7288    3.7415   21.1031 H   0  0  0  0  0  0  0  0  0  0  0  0
    9.2580    2.9867   24.1123 H   0  0  0  0  0  0  0  0  0  0  0  0
    9.3353    1.8814   22.6991 H   0  0  0  0  0  0  0  0  0  0  0  0
    8.3848    4.1756   22.0775 H   0  0  0  0  0  0  0  0  0  0  0  0
    8.1123    1.3501   25.3127 H   0  0  0  0  0  0  0  0  0  0  0  0
  1  2  1  0  0  0  0
  1  3  2  0  0  0  0
  2  4  2  0  0  0  0
  3 10  1  0  0  0  0
  4 11  1  0  0  0  0
  5  6  1  0  0  0  0
  5 12  2  0  0  0  0
  6 15  2  0  0  0  0
  7 13  2  0  0  0  0
  7 15  1  0  0  0  0
  8 10  2  0  0  0  0
  8 27  1  0  0  0  0
  9 14  1  0  0  0  0
  9 27  2  0  0  0  0
 10 11  1  0  0  0  0
 11 14  2  0  0  0  0
 12 13  1  0  0  0  0
 12 18  1  0  0  0  0
 13 25  1  0  0  0  0
 14 28  1  0  0  0  0
 15 33  1  0  0  0  0
 16 25  1  0  0  0  0
 16 28  1  0  0  0  0
 16 31  2  0  0  0  0
 17 26  1  0  0  0  0
 17 29  1  0  0  0  0
 17 32  2  0  0  0  0
 18 30  1  0  0  0  0
 19 20  1  0  0  0  0
 19 24  1  0  0  0  0
 20 24  1  0  0  0  0
 21 22  1  0  0  0  0
 21 25  1  0  0  0  0
 22 28  1  0  0  0  0
 23 25  1  0  0  0  0
 23 30  1  0  0  0  0
 24 29  1  0  0  0  0
 26 30  1  1  0  0  0
  1 34  1  0  0  0  0
  2 35  1  0  0  0  0
  3 36  1  0  0  0  0
  4 37  1  0  0  0  0
  5 38  1  0  0  0  0
  6 39  1  0  0  0  0
  7 40  1  0  0  0  0
  8 41  1  0  0  0  0
  9 42  1  0  0  0  0
 18 43  1  0  0  0  0
 18 44  1  0  0  0  0
 19 45  1  0  0  0  0
 19 46  1  0  0  0  0
 20 47  1  0  0  0  0
 20 48  1  0  0  0  0
 21 49  1  0  0  0  0
 21 50  1  0  0  0  0
 22 51  1  0  0  0  0
 22 52  1  0  0  0  0
 23 53  1  0  0  0  0
 23 54  1  0  0  0  0
 24 55  1  0  0  0  0
 26 56  1  0  0  0  0
 26 57  1  0  0  0  0
 29 58  1  0  0  0  0
 30 59  1  0  0  0  0
M  CHG  1  30   1
M  END
> <compound>
MAT-POS-69786b79-2

> <compound_smiles>
c1ccc2c(c1)cncc2N3CCC4(C3=O)CN(Cc5c4cc(cc5)Cl)CC(=O)NC6CC6

> <enantiomer_smiles>
c1ccc2c(c1)cncc2N3CCC4(C3=O)C[N@@](Cc5c4cc(cc5)Cl)CC(=O)NC6CC6

> <scaffold>
tetrahydroisoquinoline-5spiro-isoquinoline

> <clash_score>
0

> <docking_score>
-10.072603225708008

> <overlap_score>
0.9781476259231567

> <MMFF_internal_energy>
182.84419026397396

> <docked_smiles>
c1ccc2c(c1)cncc2N3CC[C@@]4(C3=O)C[N@@H+](Cc5c4cc(cc5)Cl)CC(=O)NC6CC6

$$$$
MAT-POS-69786b79-2_2
  -OEChem-12272114573D

 59 64  0     1  0  0  0  0  0999 V2000
    3.3432    2.6279   20.4411 C   0  0  0  0  0  0  0  0  0  0  0  0
    3.8960    1.9291   21.5050 C   0  0  0  0  0  0  0  0  0  0  0  0
    3.7865    2.4205   19.1660 C   0  0  0  0  0  0  0  0  0  0  0  0
    4.8973    1.0233   21.2988 C   0  0  0  0  0  0  0  0  0  0  0  0
   12.0765    0.0316   24.1541 C   0  0  0  0  0  0  0  0  0  0  0  0
   12.9132   -0.6032   23.2569 C   0  0  0  0  0  0  0  0  0  0  0  0
   10.9991   -1.4331   22.0443 C   0  0  0  0  0  0  0  0  0  0  0  0
    5.3278    1.2339   17.6066 C   0  0  0  0  0  0  0  0  0  0  0  0
    6.8438   -0.2892   18.3752 C   0  0  0  0  0  0  0  0  0  0  0  0
    4.8226    1.4906   18.9054 C   0  0  0  0  0  0  0  0  0  0  0  0
    5.3982    0.7733   19.9948 C   0  0  0  0  0  0  0  0  0  0  0  0
   10.7040   -0.0625   23.9898 C   0  0  0  0  0  0  0  0  0  0  0  0
   10.1406   -0.7765   22.9250 C   0  0  0  0  0  0  0  0  0  0  0  0
    6.4440   -0.1472   19.6979 C   0  0  0  0  0  0  0  0  0  0  0  0
   12.3683   -1.3298   22.2234 C   0  0  0  0  0  0  0  0  0  0  0  0
    8.2490    0.0169   21.4271 C   0  0  0  0  0  0  0  0  0  0  0  0
    6.7919    2.5950   24.9761 C   0  0  0  0  0  0  0  0  0  0  0  0
    9.9479    0.5589   24.9534 C   0  0  0  0  0  0  0  0  0  0  0  0
    7.0027    5.2222   22.2176 C   0  0  0  0  0  0  0  0  0  0  0  0
    5.8861    4.2241   22.1419 C   0  0  0  0  0  0  0  0  0  0  0  0
    8.0140   -2.1541   22.4331 C   0  0  0  0  0  0  0  0  0  0  0  0
    6.9866   -1.9366   21.3580 C   0  0  0  0  0  0  0  0  0  0  0  0
    7.8721   -0.1194   23.8831 C   0  0  0  0  0  0  0  0  0  0  0  0
    6.5186    4.5422   23.4690 C   0  0  0  0  0  0  0  0  0  0  0  0
    8.6238   -0.7606   22.6929 C   0  0  3  0  0  0  0  0  0  0  0  0
    7.8596    1.7144   25.5749 C   0  0  0  0  0  0  0  0  0  0  0  0
    6.3062    0.3769   17.3421 N   0  0  0  0  0  0  0  0  0  0  0  0
    7.2292   -0.6897   20.7790 N   0  0  0  0  0  0  0  0  0  0  0  0
    7.3373    3.5744   24.1596 N   0  0  0  0  0  0  0  0  0  0  0  0
    8.6609    1.0133   24.4995 N   0  3  2  0  0  0  0  0  0  0  0  0
    8.8286    1.0402   21.0803 O   0  0  0  0  0  0  0  0  0  0  0  0
    5.5929    2.4454   25.1962 O   0  0  0  0  0  0  0  0  0  0  0  0
   13.4270   -2.1443   21.1108 Cl  0  0  0  0  0  0  0  0  0  0  0  0
    2.5432    3.3510   20.6369 H   0  0  0  0  0  0  0  0  0  0  0  0
    3.5174    2.1137   22.5168 H   0  0  0  0  0  0  0  0  0  0  0  0
    3.3409    2.9743   18.3364 H   0  0  0  0  0  0  0  0  0  0  0  0
    5.3118    0.4895   22.1572 H   0  0  0  0  0  0  0  0  0  0  0  0
   12.5021    0.5962   24.9756 H   0  0  0  0  0  0  0  0  0  0  0  0
   13.9911   -0.5171   23.3786 H   0  0  0  0  0  0  0  0  0  0  0  0
   10.6045   -2.0170   21.2248 H   0  0  0  0  0  0  0  0  0  0  0  0
    4.9141    1.7511   16.7474 H   0  0  0  0  0  0  0  0  0  0  0  0
    7.6445   -0.9764   18.1043 H   0  0  0  0  0  0  0  0  0  0  0  0
    9.7608   -0.1211   25.8247 H   0  0  0  0  0  0  0  0  0  0  0  0
   10.4565    1.4661   25.3705 H   0  0  0  0  0  0  0  0  0  0  0  0
    7.9643    4.9331   21.8115 H   0  0  0  0  0  0  0  0  0  0  0  0
    6.7549    6.2682   22.0842 H   0  0  0  0  0  0  0  0  0  0  0  0
    4.8864    4.5977   21.9575 H   0  0  0  0  0  0  0  0  0  0  0  0
    6.0985    3.2653   21.6850 H   0  0  0  0  0  0  0  0  0  0  0  0
    7.5144   -2.5472   23.3327 H   0  0  0  0  0  0  0  0  0  0  0  0
    8.7599   -2.9065   22.1418 H   0  0  0  0  0  0  0  0  0  0  0  0
    7.0582   -2.7244   20.5716 H   0  0  0  0  0  0  0  0  0  0  0  0
    5.9516   -1.9958   21.7713 H   0  0  0  0  0  0  0  0  0  0  0  0
    6.8955    0.2929   23.5757 H   0  0  0  0  0  0  0  0  0  0  0  0
    7.6774   -0.8491   24.6905 H   0  0  0  0  0  0  0  0  0  0  0  0
    5.9331    5.1451   24.1547 H   0  0  0  0  0  0  0  0  0  0  0  0
    7.4105    0.9495   26.2145 H   0  0  0  0  0  0  0  0  0  0  0  0
    8.5738    2.3157   26.1441 H   0  0  0  0  0  0  0  0  0  0  0  0
    8.3460    3.6364   24.0553 H   0  0  0  0  0  0  0  0  0  0  0  0
    8.7930    1.7233   23.7554 H   0  0  0  0  0  0  0  0  0  0  0  0
  1  2  1  0  0  0  0
  1  3  2  0  0  0  0
  2  4  2  0  0  0  0
  3 10  1  0  0  0  0
  4 11  1  0  0  0  0
  5  6  1  0  0  0  0
  5 12  2  0  0  0  0
  6 15  2  0  0  0  0
  7 13  2  0  0  0  0
  7 15  1  0  0  0  0
  8 10  2  0  0  0  0
  8 27  1  0  0  0  0
  9 14  1  0  0  0  0
  9 27  2  0  0  0  0
 10 11  1  0  0  0  0
 11 14  2  0  0  0  0
 12 13  1  0  0  0  0
 12 18  1  0  0  0  0
 13 25  1  0  0  0  0
 14 28  1  0  0  0  0
 15 33  1  0  0  0  0
 16 25  1  0  0  0  0
 16 28  1  0  0  0  0
 16 31  2  0  0  0  0
 17 26  1  0  0  0  0
 17 29  1  0  0  0  0
 17 32  2  0  0  0  0
 18 30  1  0  0  0  0
 19 20  1  0  0  0  0
 19 24  1  0  0  0  0
 20 24  1  0  0  0  0
 21 22  1  0  0  0  0
 21 25  1  0  0  0  0
 22 28  1  0  0  0  0
 23 25  1  0  0  0  0
 23 30  1  0  0  0  0
 24 29  1  0  0  0  0
 26 30  1  6  0  0  0
  1 34  1  0  0  0  0
  2 35  1  0  0  0  0
  3 36  1  0  0  0  0
  4 37  1  0  0  0  0
  5 38  1  0  0  0  0
  6 39  1  0  0  0  0
  7 40  1  0  0  0  0
  8 41  1  0  0  0  0
  9 42  1  0  0  0  0
 18 43  1  0  0  0  0
 18 44  1  0  0  0  0
 19 45  1  0  0  0  0
 19 46  1  0  0  0  0
 20 47  1  0  0  0  0
 20 48  1  0  0  0  0
 21 49  1  0  0  0  0
 21 50  1  0  0  0  0
 22 51  1  0  0  0  0
 22 52  1  0  0  0  0
 23 53  1  0  0  0  0
 23 54  1  0  0  0  0
 24 55  1  0  0  0  0
 26 56  1  0  0  0  0
 26 57  1  0  0  0  0
 29 58  1  0  0  0  0
 30 59  1  0  0  0  0
M  CHG  1  30   1
M  END
> <compound>
MAT-POS-69786b79-2

> <compound_smiles>
c1ccc2c(c1)cncc2N3CCC4(C3=O)CN(Cc5c4cc(cc5)Cl)CC(=O)NC6CC6

> <enantiomer_smiles>
c1ccc2c(c1)cncc2N3CCC4(C3=O)C[N@](Cc5c4cc(cc5)Cl)CC(=O)NC6CC6

> <scaffold>
tetrahydroisoquinoline-5spiro-isoquinoline

> <clash_score>
0

> <docking_score>
-9.623381614685059

> <overlap_score>
0.9739347100257874

> <MMFF_internal_energy>
176.67777238475617

> <docked_smiles>
c1ccc2c(c1)cncc2N3CC[C@@]4(C3=O)C[N@H+](Cc5c4cc(cc5)Cl)CC(=O)NC6CC6

$$$$
MAT-POS-576f7758-1_1
  -OEChem-12272114573D

 59 64  0     1  0  0  0  0  0999 V2000
    3.3432    2.6279   20.4411 C   0  0  0  0  0  0  0  0  0  0  0  0
    3.8960    1.9291   21.5050 C   0  0  0  0  0  0  0  0  0  0  0  0
    3.7865    2.4205   19.1660 C   0  0  0  0  0  0  0  0  0  0  0  0
    4.8973    1.0233   21.2988 C   0  0  0  0  0  0  0  0  0  0  0  0
   12.0765    0.0316   24.1541 C   0  0  0  0  0  0  0  0  0  0  0  0
   12.9132   -0.6032   23.2569 C   0  0  0  0  0  0  0  0  0  0  0  0
   10.9991   -1.4331   22.0443 C   0  0  0  0  0  0  0  0  0  0  0  0
    5.3278    1.2339   17.6066 C   0  0  0  0  0  0  0  0  0  0  0  0
    6.8438   -0.2892   18.3752 C   0  0  0  0  0  0  0  0  0  0  0  0
    4.8226    1.4906   18.9054 C   0  0  0  0  0  0  0  0  0  0  0  0
    5.3982    0.7733   19.9948 C   0  0  0  0  0  0  0  0  0  0  0  0
   10.7040   -0.0625   23.9898 C   0  0  0  0  0  0  0  0  0  0  0  0
   10.1406   -0.7765   22.9250 C   0  0  0  0  0  0  0  0  0  0  0  0
    6.4440   -0.1472   19.6979 C   0  0  0  0  0  0  0  0  0  0  0  0
   12.3683   -1.3298   22.2234 C   0  0  0  0  0  0  0  0  0  0  0  0
    8.2490    0.0169   21.4271 C   0  0  0  0  0  0  0  0  0  0  0  0
    7.4314    2.6829   23.1051 C   0  0  0  0  0  0  0  0  0  0  0  0
    9.9479    0.5589   24.9534 C   0  0  0  0  0  0  0  0  0  0  0  0
    9.8523    3.1763   23.8211 C   0  0  0  0  0  0  0  0  0  0  0  0
    9.9244    2.2579   22.6345 C   0  0  0  0  0  0  0  0  0  0  0  0
    8.0140   -2.1541   22.4331 C   0  0  0  0  0  0  0  0  0  0  0  0
    6.9866   -1.9366   21.3580 C   0  0  0  0  0  0  0  0  0  0  0  0
    7.8721   -0.1194   23.8831 C   0  0  0  0  0  0  0  0  0  0  0  0
    8.6238   -0.7606   22.6929 C   0  0  3  0  0  0  0  0  0  0  0  0
    8.7403    2.1972   23.5605 C   0  0  0  0  0  0  0  0  0  0  0  0
    6.3215    4.4895   21.8063 C   0  0  0  0  0  0  0  0  0  0  0  0
    6.3062    0.3769   17.3421 N   0  0  0  0  0  0  0  0  0  0  0  0
    7.2292   -0.6897   20.7790 N   0  0  0  0  0  0  0  0  0  0  0  0
    7.4914    3.8418   22.3548 N   0  0  0  0  0  0  0  0  0  0  0  0
    8.6609    1.0133   24.4995 N   0  3  2  0  0  0  0  0  0  0  0  0
    8.7573    1.0936   21.1337 O   0  0  0  0  0  0  0  0  0  0  0  0
    6.4189    2.0603   23.4029 O   0  0  0  0  0  0  0  0  0  0  0  0
   13.4272   -2.1415   21.1091 Cl  0  0  0  0  0  0  0  0  0  0  0  0
    2.5432    3.3510   20.6369 H   0  0  0  0  0  0  0  0  0  0  0  0
    3.5174    2.1137   22.5168 H   0  0  0  0  0  0  0  0  0  0  0  0
    3.3409    2.9743   18.3364 H   0  0  0  0  0  0  0  0  0  0  0  0
    5.3118    0.4895   22.1572 H   0  0  0  0  0  0  0  0  0  0  0  0
   12.5024    0.5944   24.9766 H   0  0  0  0  0  0  0  0  0  0  0  0
   13.9911   -0.5201   23.3808 H   0  0  0  0  0  0  0  0  0  0  0  0
   10.6043   -2.0220   21.2284 H   0  0  0  0  0  0  0  0  0  0  0  0
    4.9141    1.7511   16.7474 H   0  0  0  0  0  0  0  0  0  0  0  0
    7.6445   -0.9764   18.1043 H   0  0  0  0  0  0  0  0  0  0  0  0
    9.7383   -0.1122   25.8261 H   0  0  0  0  0  0  0  0  0  0  0  0
   10.4781    1.4547   25.3698 H   0  0  0  0  0  0  0  0  0  0  0  0
   10.5303    2.9873   24.6450 H   0  0  0  0  0  0  0  0  0  0  0  0
    9.6722    4.2278   23.6310 H   0  0  0  0  0  0  0  0  0  0  0  0
    9.7924    2.6964   21.6523 H   0  0  0  0  0  0  0  0  0  0  0  0
   10.6503    1.4539   22.6639 H   0  0  0  0  0  0  0  0  0  0  0  0
    7.5769   -2.6103   23.3321 H   0  0  0  0  0  0  0  0  0  0  0  0
    8.7732   -2.8625   22.0656 H   0  0  0  0  0  0  0  0  0  0  0  0
    7.0227   -2.7505   20.5949 H   0  0  0  0  0  0  0  0  0  0  0  0
    5.9553   -1.9475   21.7830 H   0  0  0  0  0  0  0  0  0  0  0  0
    6.8956    0.3001   23.5781 H   0  0  0  0  0  0  0  0  0  0  0  0
    7.6738   -0.8513   24.6854 H   0  0  0  0  0  0  0  0  0  0  0  0
    6.1172    4.0894   20.8022 H   0  0  0  0  0  0  0  0  0  0  0  0
    5.4571    4.2994   22.4595 H   0  0  0  0  0  0  0  0  0  0  0  0
    6.4996    5.5729   21.7398 H   0  0  0  0  0  0  0  0  0  0  0  0
    8.4010    4.2584   22.1805 H   0  0  0  0  0  0  0  0  0  0  0  0
    8.1070    1.3619   25.3132 H   0  0  0  0  0  0  0  0  0  0  0  0
  1  2  1  0  0  0  0
  1  3  2  0  0  0  0
  2  4  2  0  0  0  0
  3 10  1  0  0  0  0
  4 11  1  0  0  0  0
  5  6  2  0  0  0  0
  5 12  1  0  0  0  0
  6 15  1  0  0  0  0
  7 13  1  0  0  0  0
  7 15  2  0  0  0  0
  8 10  2  0  0  0  0
  8 27  1  0  0  0  0
  9 14  1  0  0  0  0
  9 27  2  0  0  0  0
 10 11  1  0  0  0  0
 11 14  2  0  0  0  0
 12 13  2  0  0  0  0
 12 18  1  0  0  0  0
 13 24  1  0  0  0  0
 14 28  1  0  0  0  0
 15 33  1  0  0  0  0
 16 24  1  0  0  0  0
 16 28  1  0  0  0  0
 16 31  2  0  0  0  0
 17 25  1  0  0  0  0
 17 29  1  0  0  0  0
 17 32  2  0  0  0  0
 18 30  1  0  0  0  0
 19 20  1  0  0  0  0
 19 25  1  0  0  0  0
 20 25  1  0  0  0  0
 21 22  1  0  0  0  0
 21 24  1  0  0  0  0
 22 28  1  0  0  0  0
 23 24  1  0  0  0  0
 23 30  1  0  0  0  0
 25 30  1  1  0  0  0
 26 29  1  0  0  0  0
  1 34  1  0  0  0  0
  2 35  1  0  0  0  0
  3 36  1  0  0  0  0
  4 37  1  0  0  0  0
  5 38  1  0  0  0  0
  6 39  1  0  0  0  0
  7 40  1  0  0  0  0
  8 41  1  0  0  0  0
  9 42  1  0  0  0  0
 18 43  1  0  0  0  0
 18 44  1  0  0  0  0
 19 45  1  0  0  0  0
 19 46  1  0  0  0  0
 20 47  1  0  0  0  0
 20 48  1  0  0  0  0
 21 49  1  0  0  0  0
 21 50  1  0  0  0  0
 22 51  1  0  0  0  0
 22 52  1  0  0  0  0
 23 53  1  0  0  0  0
 23 54  1  0  0  0  0
 26 55  1  0  0  0  0
 26 56  1  0  0  0  0
 26 57  1  0  0  0  0
 29 58  1  0  0  0  0
 30 59  1  0  0  0  0
M  CHG  1  30   1
M  END
> <compound>
MAT-POS-576f7758-1

> <compound_smiles>
CNC(=O)C1(CC1)N2Cc3ccc(cc3C4(C2)CCN(C4=O)c5cncc6c5cccc6)Cl

> <enantiomer_smiles>
CNC(=O)C1(CC1)[N@@]2Cc3ccc(cc3C4(C2)CCN(C4=O)c5cncc6c5cccc6)Cl

> <scaffold>
tetrahydroisoquinoline-5spiro-isoquinoline

> <clash_score>
0

> <docking_score>
-9.535204887390137

> <overlap_score>
0.9846963882446289

> <MMFF_internal_energy>
208.18512413160306

> <docked_smiles>
CNC(=O)C1(CC1)[N@@H+]2Cc3ccc(cc3[C@]4(C2)CCN(C4=O)c5cncc6c5cccc6)Cl

$$$$
ALP-POS-afe0272e-2_1
  -OEChem-12272114573D

 53 57  0     1  0  0  0  0  0999 V2000
    3.3432    2.6279   20.4411 C   0  0  0  0  0  0  0  0  0  0  0  0
    3.8960    1.9291   21.5050 C   0  0  0  0  0  0  0  0  0  0  0  0
    3.7865    2.4205   19.1660 C   0  0  0  0  0  0  0  0  0  0  0  0
    4.8973    1.0233   21.2988 C   0  0  0  0  0  0  0  0  0  0  0  0
   12.0765    0.0316   24.1541 C   0  0  0  0  0  0  0  0  0  0  0  0
   10.9991   -1.4331   22.0443 C   0  0  0  0  0  0  0  0  0  0  0  0
    5.3278    1.2339   17.6066 C   0  0  0  0  0  0  0  0  0  0  0  0
    6.8438   -0.2892   18.3752 C   0  0  0  0  0  0  0  0  0  0  0  0
    4.8226    1.4906   18.9054 C   0  0  0  0  0  0  0  0  0  0  0  0
    5.3982    0.7733   19.9948 C   0  0  0  0  0  0  0  0  0  0  0  0
   10.7040   -0.0625   23.9898 C   0  0  0  0  0  0  0  0  0  0  0  0
   10.1406   -0.7765   22.9250 C   0  0  0  0  0  0  0  0  0  0  0  0
    6.4440   -0.1472   19.6979 C   0  0  0  0  0  0  0  0  0  0  0  0
   12.9132   -0.6032   23.2569 C   0  0  0  0  0  0  0  0  0  0  0  0
   12.3683   -1.3298   22.2234 C   0  0  0  0  0  0  0  0  0  0  0  0
    9.9479    0.5589   24.9534 C   0  0  0  0  0  0  0  0  0  0  0  0
    8.2490    0.0169   21.4271 C   0  0  0  0  0  0  0  0  0  0  0  0
    8.4669    3.2198   23.6970 C   0  0  0  0  0  0  0  0  0  0  0  0
    8.0140   -2.1541   22.4331 C   0  0  0  0  0  0  0  0  0  0  0  0
    6.9866   -1.9366   21.3580 C   0  0  0  0  0  0  0  0  0  0  0  0
    7.8721   -0.1194   23.8831 C   0  0  0  0  0  0  0  0  0  0  0  0
    8.6238   -0.7606   22.6929 C   0  0  3  0  0  0  0  0  0  0  0  0
   10.2286    4.9046   23.1758 C   0  0  0  0  0  0  0  0  0  0  0  0
    8.0922    2.2237   24.7645 C   0  0  0  0  0  0  0  0  0  0  0  0
    6.3062    0.3769   17.3421 N   0  0  0  0  0  0  0  0  0  0  0  0
    7.2292   -0.6897   20.7790 N   0  0  0  0  0  0  0  0  0  0  0  0
    8.6609    1.0133   24.4995 N   0  0  0  0  0  0  0  0  0  0  0  0
    9.6355    3.8939   24.0215 N   0  0  0  0  0  0  0  0  0  0  0  0
   10.3214    0.7303   26.1092 O   0  0  0  0  0  0  0  0  0  0  0  0
    8.8193    1.0411   21.0780 O   0  0  0  0  0  0  0  0  0  0  0  0
    7.8085    3.3951   22.6752 O   0  0  0  0  0  0  0  0  0  0  0  0
   14.6204   -0.4509   23.4882 Cl  0  0  0  0  0  0  0  0  0  0  0  0
   13.3790   -2.1724   21.0756 Cl  0  0  0  0  0  0  0  0  0  0  0  0
    2.5432    3.3510   20.6369 H   0  0  0  0  0  0  0  0  0  0  0  0
    3.5174    2.1137   22.5168 H   0  0  0  0  0  0  0  0  0  0  0  0
    3.3409    2.9743   18.3364 H   0  0  0  0  0  0  0  0  0  0  0  0
    5.3118    0.4895   22.1572 H   0  0  0  0  0  0  0  0  0  0  0  0
   12.5007    0.6023   24.9777 H   0  0  0  0  0  0  0  0  0  0  0  0
   10.6097   -2.0243   21.2283 H   0  0  0  0  0  0  0  0  0  0  0  0
    4.9141    1.7511   16.7474 H   0  0  0  0  0  0  0  0  0  0  0  0
    7.6445   -0.9764   18.1043 H   0  0  0  0  0  0  0  0  0  0  0  0
    7.5110   -2.5279   23.3389 H   0  0  0  0  0  0  0  0  0  0  0  0
    8.7576   -2.9106   22.1436 H   0  0  0  0  0  0  0  0  0  0  0  0
    7.0576   -2.7261   20.5726 H   0  0  0  0  0  0  0  0  0  0  0  0
    5.9514   -1.9955   21.7718 H   0  0  0  0  0  0  0  0  0  0  0  0
    6.9195    0.3174   23.5747 H   0  0  0  0  0  0  0  0  0  0  0  0
    7.6674   -0.8546   24.6624 H   0  0  0  0  0  0  0  0  0  0  0  0
   10.9348    4.4312   22.4778 H   0  0  0  0  0  0  0  0  0  0  0  0
    9.4384    5.4164   22.6069 H   0  0  0  0  0  0  0  0  0  0  0  0
   10.7641    5.6360   23.7990 H   0  0  0  0  0  0  0  0  0  0  0  0
    8.4448    2.5768   25.7381 H   0  0  0  0  0  0  0  0  0  0  0  0
    7.0053    2.1037   24.7947 H   0  0  0  0  0  0  0  0  0  0  0  0
   10.0971    3.6657   24.8972 H   0  0  0  0  0  0  0  0  0  0  0  0
  1  2  1  0  0  0  0
  1  3  2  0  0  0  0
  2  4  2  0  0  0  0
  3  9  1  0  0  0  0
  4 10  1  0  0  0  0
  5 11  1  0  0  0  0
  5 14  2  0  0  0  0
  6 12  1  0  0  0  0
  6 15  2  0  0  0  0
  7  9  2  0  0  0  0
  7 25  1  0  0  0  0
  8 13  1  0  0  0  0
  8 25  2  0  0  0  0
  9 10  1  0  0  0  0
 10 13  2  0  0  0  0
 11 12  2  0  0  0  0
 11 16  1  0  0  0  0
 12 22  1  0  0  0  0
 13 26  1  0  0  0  0
 14 15  1  0  0  0  0
 14 32  1  0  0  0  0
 15 33  1  0  0  0  0
 16 27  1  0  0  0  0
 16 29  2  0  0  0  0
 17 22  1  0  0  0  0
 17 26  1  0  0  0  0
 17 30  2  0  0  0  0
 18 24  1  0  0  0  0
 18 28  1  0  0  0  0
 18 31  2  0  0  0  0
 19 20  1  0  0  0  0
 19 22  1  0  0  0  0
 20 26  1  0  0  0  0
 21 22  1  0  0  0  0
 21 27  1  0  0  0  0
 23 28  1  0  0  0  0
 24 27  1  0  0  0  0
  1 34  1  0  0  0  0
  2 35  1  0  0  0  0
  3 36  1  0  0  0  0
  4 37  1  0  0  0  0
  5 38  1  0  0  0  0
  6 39  1  0  0  0  0
  7 40  1  0  0  0  0
  8 41  1  0  0  0  0
 19 42  1  0  0  0  0
 19 43  1  0  0  0  0
 20 44  1  0  0  0  0
 20 45  1  0  0  0  0
 21 46  1  0  0  0  0
 21 47  1  0  0  0  0
 23 48  1  0  0  0  0
 23 49  1  0  0  0  0
 23 50  1  0  0  0  0
 24 51  1  0  0  0  0
 24 52  1  0  0  0  0
 28 53  1  0  0  0  0
M  END
> <compound>
ALP-POS-afe0272e-2

> <compound_smiles>
CNC(=O)CN1CC2(CCN(C2=O)c3cncc4c3cccc4)c5cc(c(cc5C1=O)Cl)Cl

> <enantiomer_smiles>
CNC(=O)CN1CC2(CCN(C2=O)c3cncc4c3cccc4)c5cc(c(cc5C1=O)Cl)Cl

> <scaffold>
tetrahydroisoquinoline-5spiro-isoquinoline

> <clash_score>
0

> <docking_score>
-9.351130485534668

> <overlap_score>
1.0

> <MMFF_internal_energy>
165.004050079926

> <docked_smiles>
CNC(=O)CN1C[C@]2(CCN(C2=O)c3cncc4c3cccc4)c5cc(c(cc5C1=O)Cl)Cl

$$$$
MAT-POS-50a80394-5_2
  -OEChem-12272114573D

 61 65  0     1  0  0  0  0  0999 V2000
    3.3432    2.6279   20.4411 C   0  0  0  0  0  0  0  0  0  0  0  0
    3.8960    1.9291   21.5050 C   0  0  0  0  0  0  0  0  0  0  0  0
    3.7865    2.4205   19.1660 C   0  0  0  0  0  0  0  0  0  0  0  0
    4.8973    1.0233   21.2988 C   0  0  0  0  0  0  0  0  0  0  0  0
   12.0765    0.0316   24.1541 C   0  0  0  0  0  0  0  0  0  0  0  0
   12.9132   -0.6032   23.2569 C   0  0  0  0  0  0  0  0  0  0  0  0
   10.9991   -1.4331   22.0443 C   0  0  0  0  0  0  0  0  0  0  0  0
    5.3278    1.2339   17.6066 C   0  0  0  0  0  0  0  0  0  0  0  0
    6.8438   -0.2892   18.3752 C   0  0  0  0  0  0  0  0  0  0  0  0
    4.8226    1.4906   18.9054 C   0  0  0  0  0  0  0  0  0  0  0  0
    5.3982    0.7733   19.9948 C   0  0  0  0  0  0  0  0  0  0  0  0
   10.7040   -0.0625   23.9898 C   0  0  0  0  0  0  0  0  0  0  0  0
   10.1406   -0.7765   22.9250 C   0  0  0  0  0  0  0  0  0  0  0  0
    6.4440   -0.1472   19.6979 C   0  0  0  0  0  0  0  0  0  0  0  0
   12.3683   -1.3298   22.2234 C   0  0  0  0  0  0  0  0  0  0  0  0
    8.2490    0.0169   21.4271 C   0  0  0  0  0  0  0  0  0  0  0  0
    7.3616    2.6430   23.1451 C   0  0  0  0  0  0  0  0  0  0  0  0
    9.9479    0.5589   24.9534 C   0  0  0  0  0  0  0  0  0  0  0  0
    6.9866   -1.9366   21.3580 C   0  0  0  0  0  0  0  0  0  0  0  0
    7.8721   -0.1194   23.8831 C   0  0  0  0  0  0  0  0  0  0  0  0
    8.0140   -2.1541   22.4331 C   0  0  1  0  0  0  0  0  0  0  0  0
    8.6238   -0.7606   22.6929 C   0  0  3  0  0  0  0  0  0  0  0  0
    6.8229   -4.2082   23.2288 C   0  0  0  0  0  0  0  0  0  0  0  0
    6.2243    4.3451   21.7499 C   0  0  0  0  0  0  0  0  0  0  0  0
    8.7408    2.1946   23.5588 C   0  0  0  0  0  0  0  0  0  0  0  0
    7.4296   -2.9034   23.6364 C   0  0  0  0  0  0  0  0  0  0  0  0
    6.3062    0.3769   17.3421 N   0  0  0  0  0  0  0  0  0  0  0  0
    7.2292   -0.6897   20.7790 N   0  0  0  0  0  0  0  0  0  0  0  0
    7.4152    3.7316   22.2876 N   0  0  0  0  0  0  0  0  0  0  0  0
    8.6609    1.0133   24.4995 N   0  3  1  0  0  0  0  0  0  0  0  0
    8.7526    1.0953   21.1303 O   0  0  0  0  0  0  0  0  0  0  0  0
    6.3313    2.0969   23.5305 O   0  0  0  0  0  0  0  0  0  0  0  0
   13.4277   -2.1374   21.1064 Cl  0  0  0  0  0  0  0  0  0  0  0  0
    2.5432    3.3510   20.6369 H   0  0  0  0  0  0  0  0  0  0  0  0
    3.5174    2.1137   22.5168 H   0  0  0  0  0  0  0  0  0  0  0  0
    3.3409    2.9743   18.3364 H   0  0  0  0  0  0  0  0  0  0  0  0
    5.3118    0.4895   22.1572 H   0  0  0  0  0  0  0  0  0  0  0  0
   12.5029    0.5960   24.9750 H   0  0  0  0  0  0  0  0  0  0  0  0
   13.9913   -0.5164   23.3787 H   0  0  0  0  0  0  0  0  0  0  0  0
   10.6068   -2.0161   21.2243 H   0  0  0  0  0  0  0  0  0  0  0  0
    4.9141    1.7511   16.7474 H   0  0  0  0  0  0  0  0  0  0  0  0
    7.6445   -0.9764   18.1043 H   0  0  0  0  0  0  0  0  0  0  0  0
    9.7375   -0.1148   25.8249 H   0  0  0  0  0  0  0  0  0  0  0  0
   10.4772    1.4534   25.3761 H   0  0  0  0  0  0  0  0  0  0  0  0
    7.0297   -2.7469   20.5879 H   0  0  0  0  0  0  0  0  0  0  0  0
    5.9441   -1.9496   21.7626 H   0  0  0  0  0  0  0  0  0  0  0  0
    6.9074    0.3116   23.5753 H   0  0  0  0  0  0  0  0  0  0  0  0
    7.6662   -0.8455   24.6807 H   0  0  0  0  0  0  0  0  0  0  0  0
    8.7865   -2.8279   22.0143 H   0  0  0  0  0  0  0  0  0  0  0  0
    6.0356   -4.0357   22.4855 H   0  0  0  0  0  0  0  0  0  0  0  0
    6.3723   -4.7136   24.0895 H   0  0  0  0  0  0  0  0  0  0  0  0
    7.5763   -4.8639   22.7796 H   0  0  0  0  0  0  0  0  0  0  0  0
    5.9733    3.8774   20.7864 H   0  0  0  0  0  0  0  0  0  0  0  0
    5.3903    4.2054   22.4534 H   0  0  0  0  0  0  0  0  0  0  0  0
    6.4015    5.4204   21.6002 H   0  0  0  0  0  0  0  0  0  0  0  0
    9.2672    3.0025   24.0746 H   0  0  0  0  0  0  0  0  0  0  0  0
    9.3112    1.8642   22.6863 H   0  0  0  0  0  0  0  0  0  0  0  0
    8.2144   -3.0840   24.3783 H   0  0  0  0  0  0  0  0  0  0  0  0
    6.6650   -2.2807   24.1124 H   0  0  0  0  0  0  0  0  0  0  0  0
    8.3156    4.1328   22.0415 H   0  0  0  0  0  0  0  0  0  0  0  0
    8.1217    1.3533   25.3127 H   0  0  0  0  0  0  0  0  0  0  0  0
  1  2  1  0  0  0  0
  1  3  2  0  0  0  0
  2  4  2  0  0  0  0
  3 10  1  0  0  0  0
  4 11  1  0  0  0  0
  5  6  1  0  0  0  0
  5 12  2  0  0  0  0
  6 15  2  0  0  0  0
  7 13  2  0  0  0  0
  7 15  1  0  0  0  0
  8 10  2  0  0  0  0
  8 27  1  0  0  0  0
  9 14  1  0  0  0  0
  9 27  2  0  0  0  0
 10 11  1  0  0  0  0
 11 14  2  0  0  0  0
 12 13  1  0  0  0  0
 12 18  1  0  0  0  0
 13 22  1  0  0  0  0
 14 28  1  0  0  0  0
 15 33  1  0  0  0  0
 16 22  1  0  0  0  0
 16 28  1  0  0  0  0
 16 31  2  0  0  0  0
 17 25  1  0  0  0  0
 17 29  1  0  0  0  0
 17 32  2  0  0  0  0
 18 30  1  0  0  0  0
 19 21  1  0  0  0  0
 19 28  1  0  0  0  0
 20 22  1  0  0  0  0
 20 30  1  0  0  0  0
 21 22  1  0  0  0  0
 21 26  1  6  0  0  0
 23 26  1  0  0  0  0
 24 29  1  0  0  0  0
 25 30  1  1  0  0  0
  1 34  1  0  0  0  0
  2 35  1  0  0  0  0
  3 36  1  0  0  0  0
  4 37  1  0  0  0  0
  5 38  1  0  0  0  0
  6 39  1  0  0  0  0
  7 40  1  0  0  0  0
  8 41  1  0  0  0  0
  9 42  1  0  0  0  0
 18 43  1  0  0  0  0
 18 44  1  0  0  0  0
 19 45  1  0  0  0  0
 19 46  1  0  0  0  0
 20 47  1  0  0  0  0
 20 48  1  0  0  0  0
 21 49  1  0  0  0  0
 23 50  1  0  0  0  0
 23 51  1  0  0  0  0
 23 52  1  0  0  0  0
 24 53  1  0  0  0  0
 24 54  1  0  0  0  0
 24 55  1  0  0  0  0
 25 56  1  0  0  0  0
 25 57  1  0  0  0  0
 26 58  1  0  0  0  0
 26 59  1  0  0  0  0
 29 60  1  0  0  0  0
 30 61  1  0  0  0  0
M  CHG  1  30   1
M  END
> <compound>
MAT-POS-50a80394-5

> <compound_smiles>
CCC1CN(C(=O)C12CN(Cc3c2cc(cc3)Cl)CC(=O)NC)c4cncc5c4cccc5

> <enantiomer_smiles>
CC[C@H]1CN(C(=O)C12C[N@@](Cc3c2cc(cc3)Cl)CC(=O)NC)c4cncc5c4cccc5

> <scaffold>
tetrahydroisoquinoline-5spiro-isoquinoline

> <clash_score>
0

> <docking_score>
-10.449676513671875

> <overlap_score>
0.9903936982154846

> <MMFF_internal_energy>
181.4425869203975

> <docked_smiles>
CC[C@H]1CN(C(=O)[C@@]12C[N@@H+](Cc3c2cc(cc3)Cl)CC(=O)NC)c4cncc5c4cccc5

$$$$
EDJ-MED-a12e3a20-2_1
  -OEChem-12272114573D

 52 56  0     1  0  0  0  0  0999 V2000
    3.3432    2.6279   20.4411 C   0  0  0  0  0  0  0  0  0  0  0  0
    3.8960    1.9291   21.5050 C   0  0  0  0  0  0  0  0  0  0  0  0
    3.7865    2.4205   19.1660 C   0  0  0  0  0  0  0  0  0  0  0  0
    4.8973    1.0233   21.2988 C   0  0  0  0  0  0  0  0  0  0  0  0
   12.0765    0.0316   24.1541 C   0  0  0  0  0  0  0  0  0  0  0  0
   12.9132   -0.6032   23.2569 C   0  0  0  0  0  0  0  0  0  0  0  0
   10.9991   -1.4331   22.0443 C   0  0  0  0  0  0  0  0  0  0  0  0
    5.3278    1.2339   17.6066 C   0  0  0  0  0  0  0  0  0  0  0  0
    6.8438   -0.2892   18.3752 C   0  0  0  0  0  0  0  0  0  0  0  0
    4.8226    1.4906   18.9054 C   0  0  0  0  0  0  0  0  0  0  0  0
    5.3982    0.7733   19.9948 C   0  0  0  0  0  0  0  0  0  0  0  0
   10.7040   -0.0625   23.9898 C   0  0  0  0  0  0  0  0  0  0  0  0
   10.1406   -0.7765   22.9250 C   0  0  0  0  0  0  0  0  0  0  0  0
    6.4440   -0.1472   19.6979 C   0  0  0  0  0  0  0  0  0  0  0  0
   12.3683   -1.3298   22.2234 C   0  0  0  0  0  0  0  0  0  0  0  0
    9.9479    0.5589   24.9534 C   0  0  0  0  0  0  0  0  0  0  0  0
    8.0140   -2.1541   22.4331 C   0  0  0  0  0  0  0  0  0  0  0  0
    8.2490    0.0169   21.4271 C   0  0  0  0  0  0  0  0  0  0  0  0
    8.4830    3.2198   23.7492 C   0  0  0  0  0  0  0  0  0  0  0  0
    6.9866   -1.9366   21.3580 C   0  0  0  0  0  0  0  0  0  0  0  0
    7.8721   -0.1194   23.8831 C   0  0  0  0  0  0  0  0  0  0  0  0
    8.6238   -0.7606   22.6929 C   0  0  3  0  0  0  0  0  0  0  0  0
   10.2661    4.8998   23.2886 C   0  0  0  0  0  0  0  0  0  0  0  0
    8.0798    2.2111   24.7942 C   0  0  0  0  0  0  0  0  0  0  0  0
    6.3062    0.3769   17.3421 N   0  0  0  0  0  0  0  0  0  0  0  0
    7.2292   -0.6897   20.7790 N   0  0  0  0  0  0  0  0  0  0  0  0
    8.6609    1.0133   24.4995 N   0  0  0  0  0  0  0  0  0  0  0  0
    9.6490    3.8812   24.1073 N   0  0  0  0  0  0  0  0  0  0  0  0
   10.3267    0.7384   26.1049 O   0  0  0  0  0  0  0  0  0  0  0  0
    8.2911   -3.1651   22.9544 O   0  0  0  0  0  0  0  0  0  0  0  0
    8.8018    1.0667   21.1165 O   0  0  0  0  0  0  0  0  0  0  0  0
    7.8470    3.4142   22.7166 O   0  0  0  0  0  0  0  0  0  0  0  0
   13.4274   -2.1474   21.1136 Cl  0  0  0  0  0  0  0  0  0  0  0  0
    2.5432    3.3510   20.6369 H   0  0  0  0  0  0  0  0  0  0  0  0
    3.5174    2.1137   22.5168 H   0  0  0  0  0  0  0  0  0  0  0  0
    3.3409    2.9743   18.3364 H   0  0  0  0  0  0  0  0  0  0  0  0
    5.3118    0.4895   22.1572 H   0  0  0  0  0  0  0  0  0  0  0  0
   12.5180    0.5889   24.9756 H   0  0  0  0  0  0  0  0  0  0  0  0
   13.9905   -0.5287   23.3867 H   0  0  0  0  0  0  0  0  0  0  0  0
   10.6067   -2.0234   21.2279 H   0  0  0  0  0  0  0  0  0  0  0  0
    4.9141    1.7511   16.7474 H   0  0  0  0  0  0  0  0  0  0  0  0
    7.6445   -0.9764   18.1043 H   0  0  0  0  0  0  0  0  0  0  0  0
    7.0701   -2.7505   20.5929 H   0  0  0  0  0  0  0  0  0  0  0  0
    5.9619   -1.9713   21.8095 H   0  0  0  0  0  0  0  0  0  0  0  0
    6.9278    0.3224   23.5735 H   0  0  0  0  0  0  0  0  0  0  0  0
    7.6792   -0.8507   24.6628 H   0  0  0  0  0  0  0  0  0  0  0  0
   10.9834    4.4315   22.5985 H   0  0  0  0  0  0  0  0  0  0  0  0
    9.4912    5.4251   22.7111 H   0  0  0  0  0  0  0  0  0  0  0  0
   10.7934    5.6185   23.9332 H   0  0  0  0  0  0  0  0  0  0  0  0
    8.4145    2.5478   25.7798 H   0  0  0  0  0  0  0  0  0  0  0  0
    6.9917    2.0981   24.8003 H   0  0  0  0  0  0  0  0  0  0  0  0
   10.0909    3.6372   24.9889 H   0  0  0  0  0  0  0  0  0  0  0  0
  1  2  1  0  0  0  0
  1  3  2  0  0  0  0
  2  4  2  0  0  0  0
  3 10  1  0  0  0  0
  4 11  1  0  0  0  0
  5  6  2  0  0  0  0
  5 12  1  0  0  0  0
  6 15  1  0  0  0  0
  7 13  1  0  0  0  0
  7 15  2  0  0  0  0
  8 10  2  0  0  0  0
  8 25  1  0  0  0  0
  9 14  1  0  0  0  0
  9 25  2  0  0  0  0
 10 11  1  0  0  0  0
 11 14  2  0  0  0  0
 12 13  2  0  0  0  0
 12 16  1  0  0  0  0
 13 22  1  0  0  0  0
 14 26  1  0  0  0  0
 15 33  1  0  0  0  0
 16 27  1  0  0  0  0
 16 29  2  0  0  0  0
 17 20  1  0  0  0  0
 17 22  1  0  0  0  0
 17 30  2  0  0  0  0
 18 22  1  0  0  0  0
 18 26  1  0  0  0  0
 18 31  2  0  0  0  0
 19 24  1  0  0  0  0
 19 28  1  0  0  0  0
 19 32  2  0  0  0  0
 20 26  1  0  0  0  0
 21 22  1  0  0  0  0
 21 27  1  0  0  0  0
 23 28  1  0  0  0  0
 24 27  1  0  0  0  0
  1 34  1  0  0  0  0
  2 35  1  0  0  0  0
  3 36  1  0  0  0  0
  4 37  1  0  0  0  0
  5 38  1  0  0  0  0
  6 39  1  0  0  0  0
  7 40  1  0  0  0  0
  8 41  1  0  0  0  0
  9 42  1  0  0  0  0
 20 43  1  0  0  0  0
 20 44  1  0  0  0  0
 21 45  1  0  0  0  0
 21 46  1  0  0  0  0
 23 47  1  0  0  0  0
 23 48  1  0  0  0  0
 23 49  1  0  0  0  0
 24 50  1  0  0  0  0
 24 51  1  0  0  0  0
 28 52  1  0  0  0  0
M  END
> <compound>
EDJ-MED-a12e3a20-2

> <compound_smiles>
CNC(=O)CN1CC2(c3cc(ccc3C1=O)Cl)C(=O)CN(C2=O)c4cncc5c4cccc5

> <enantiomer_smiles>
CNC(=O)CN1CC2(c3cc(ccc3C1=O)Cl)C(=O)CN(C2=O)c4cncc5c4cccc5

> <scaffold>
tetrahydroisoquinoline-5spiro-isoquinoline

> <clash_score>
0

> <docking_score>
-9.32764720916748

> <overlap_score>
1.0

> <MMFF_internal_energy>
166.68937796308077

> <docked_smiles>
CNC(=O)CN1C[C@@]2(c3cc(ccc3C1=O)Cl)C(=O)CN(C2=O)c4cncc5c4cccc5

$$$$
MAT-POS-576f7758-1_2
  -OEChem-12272114573D

 59 64  0     1  0  0  0  0  0999 V2000
    3.3432    2.6279   20.4411 C   0  0  0  0  0  0  0  0  0  0  0  0
    3.8960    1.9291   21.5050 C   0  0  0  0  0  0  0  0  0  0  0  0
    3.7865    2.4205   19.1660 C   0  0  0  0  0  0  0  0  0  0  0  0
    4.8973    1.0233   21.2988 C   0  0  0  0  0  0  0  0  0  0  0  0
   12.0765    0.0316   24.1541 C   0  0  0  0  0  0  0  0  0  0  0  0
   12.9132   -0.6032   23.2569 C   0  0  0  0  0  0  0  0  0  0  0  0
   10.9991   -1.4331   22.0443 C   0  0  0  0  0  0  0  0  0  0  0  0
    5.3278    1.2339   17.6066 C   0  0  0  0  0  0  0  0  0  0  0  0
    6.8438   -0.2892   18.3752 C   0  0  0  0  0  0  0  0  0  0  0  0
    4.8226    1.4906   18.9054 C   0  0  0  0  0  0  0  0  0  0  0  0
    5.3982    0.7733   19.9948 C   0  0  0  0  0  0  0  0  0  0  0  0
   10.7040   -0.0625   23.9898 C   0  0  0  0  0  0  0  0  0  0  0  0
   10.1406   -0.7765   22.9250 C   0  0  0  0  0  0  0  0  0  0  0  0
    6.4440   -0.1472   19.6979 C   0  0  0  0  0  0  0  0  0  0  0  0
   12.3683   -1.3298   22.2234 C   0  0  0  0  0  0  0  0  0  0  0  0
    8.2490    0.0169   21.4271 C   0  0  0  0  0  0  0  0  0  0  0  0
    6.8023    2.5618   25.0441 C   0  0  0  0  0  0  0  0  0  0  0  0
    9.9479    0.5589   24.9534 C   0  0  0  0  0  0  0  0  0  0  0  0
    7.6128    0.9327   26.8624 C   0  0  0  0  0  0  0  0  0  0  0  0
    8.5661    2.0937   26.8571 C   0  0  0  0  0  0  0  0  0  0  0  0
    8.0140   -2.1541   22.4331 C   0  0  0  0  0  0  0  0  0  0  0  0
    6.9866   -1.9366   21.3580 C   0  0  0  0  0  0  0  0  0  0  0  0
    7.8721   -0.1194   23.8831 C   0  0  0  0  0  0  0  0  0  0  0  0
    8.6238   -0.7606   22.6929 C   0  0  3  0  0  0  0  0  0  0  0  0
    7.8569    1.6983   25.5906 C   0  0  0  0  0  0  0  0  0  0  0  0
    4.3358    2.8367   24.8920 C   0  0  0  0  0  0  0  0  0  0  0  0
    6.3062    0.3769   17.3421 N   0  0  0  0  0  0  0  0  0  0  0  0
    7.2292   -0.6897   20.7790 N   0  0  0  0  0  0  0  0  0  0  0  0
    5.5200    2.1343   25.3314 N   0  0  0  0  0  0  0  0  0  0  0  0
    8.6609    1.0133   24.4995 N   0  3  1  0  0  0  0  0  0  0  0  0
    8.8289    1.0400   21.0800 O   0  0  0  0  0  0  0  0  0  0  0  0
    7.1102    3.5584   24.4010 O   0  0  0  0  0  0  0  0  0  0  0  0
   13.4275   -2.1409   21.1088 Cl  0  0  0  0  0  0  0  0  0  0  0  0
    2.5432    3.3510   20.6369 H   0  0  0  0  0  0  0  0  0  0  0  0
    3.5174    2.1137   22.5168 H   0  0  0  0  0  0  0  0  0  0  0  0
    3.3409    2.9743   18.3364 H   0  0  0  0  0  0  0  0  0  0  0  0
    5.3118    0.4895   22.1572 H   0  0  0  0  0  0  0  0  0  0  0  0
   12.5018    0.5968   24.9754 H   0  0  0  0  0  0  0  0  0  0  0  0
   13.9911   -0.5184   23.3796 H   0  0  0  0  0  0  0  0  0  0  0  0
   10.6045   -2.0163   21.2243 H   0  0  0  0  0  0  0  0  0  0  0  0
    4.9141    1.7511   16.7474 H   0  0  0  0  0  0  0  0  0  0  0  0
    7.6445   -0.9764   18.1043 H   0  0  0  0  0  0  0  0  0  0  0  0
    9.7611   -0.1221   25.8249 H   0  0  0  0  0  0  0  0  0  0  0  0
   10.4556    1.4663   25.3727 H   0  0  0  0  0  0  0  0  0  0  0  0
    8.0320   -0.0617   26.9604 H   0  0  0  0  0  0  0  0  0  0  0  0
    6.6658    1.0640   27.3726 H   0  0  0  0  0  0  0  0  0  0  0  0
    8.2555    2.9999   27.3638 H   0  0  0  0  0  0  0  0  0  0  0  0
    9.6236    1.8767   26.9512 H   0  0  0  0  0  0  0  0  0  0  0  0
    7.5145   -2.5481   23.3323 H   0  0  0  0  0  0  0  0  0  0  0  0
    8.7599   -2.9062   22.1408 H   0  0  0  0  0  0  0  0  0  0  0  0
    7.0574   -2.7252   20.5721 H   0  0  0  0  0  0  0  0  0  0  0  0
    5.9515   -1.9958   21.7712 H   0  0  0  0  0  0  0  0  0  0  0  0
    6.8944    0.2931   23.5774 H   0  0  0  0  0  0  0  0  0  0  0  0
    7.6769   -0.8493   24.6909 H   0  0  0  0  0  0  0  0  0  0  0  0
    4.0436    3.5755   25.6528 H   0  0  0  0  0  0  0  0  0  0  0  0
    4.5459    3.3515   23.9429 H   0  0  0  0  0  0  0  0  0  0  0  0
    3.5163    2.1177   24.7456 H   0  0  0  0  0  0  0  0  0  0  0  0
    5.4042    1.2859   25.8775 H   0  0  0  0  0  0  0  0  0  0  0  0
    8.7816    1.7374   23.7670 H   0  0  0  0  0  0  0  0  0  0  0  0
  1  2  1  0  0  0  0
  1  3  2  0  0  0  0
  2  4  2  0  0  0  0
  3 10  1  0  0  0  0
  4 11  1  0  0  0  0
  5  6  2  0  0  0  0
  5 12  1  0  0  0  0
  6 15  1  0  0  0  0
  7 13  1  0  0  0  0
  7 15  2  0  0  0  0
  8 10  2  0  0  0  0
  8 27  1  0  0  0  0
  9 14  1  0  0  0  0
  9 27  2  0  0  0  0
 10 11  1  0  0  0  0
 11 14  2  0  0  0  0
 12 13  2  0  0  0  0
 12 18  1  0  0  0  0
 13 24  1  0  0  0  0
 14 28  1  0  0  0  0
 15 33  1  0  0  0  0
 16 24  1  0  0  0  0
 16 28  1  0  0  0  0
 16 31  2  0  0  0  0
 17 25  1  0  0  0  0
 17 29  1  0  0  0  0
 17 32  2  0  0  0  0
 18 30  1  0  0  0  0
 19 20  1  0  0  0  0
 19 25  1  0  0  0  0
 20 25  1  0  0  0  0
 21 22  1  0  0  0  0
 21 24  1  0  0  0  0
 22 28  1  0  0  0  0
 23 24  1  0  0  0  0
 23 30  1  0  0  0  0
 25 30  1  6  0  0  0
 26 29  1  0  0  0  0
  1 34  1  0  0  0  0
  2 35  1  0  0  0  0
  3 36  1  0  0  0  0
  4 37  1  0  0  0  0
  5 38  1  0  0  0  0
  6 39  1  0  0  0  0
  7 40  1  0  0  0  0
  8 41  1  0  0  0  0
  9 42  1  0  0  0  0
 18 43  1  0  0  0  0
 18 44  1  0  0  0  0
 19 45  1  0  0  0  0
 19 46  1  0  0  0  0
 20 47  1  0  0  0  0
 20 48  1  0  0  0  0
 21 49  1  0  0  0  0
 21 50  1  0  0  0  0
 22 51  1  0  0  0  0
 22 52  1  0  0  0  0
 23 53  1  0  0  0  0
 23 54  1  0  0  0  0
 26 55  1  0  0  0  0
 26 56  1  0  0  0  0
 26 57  1  0  0  0  0
 29 58  1  0  0  0  0
 30 59  1  0  0  0  0
M  CHG  1  30   1
M  END
> <compound>
MAT-POS-576f7758-1

> <compound_smiles>
CNC(=O)C1(CC1)N2Cc3ccc(cc3C4(C2)CCN(C4=O)c5cncc6c5cccc6)Cl

> <enantiomer_smiles>
CNC(=O)C1(CC1)[N@]2Cc3ccc(cc3C4(C2)CCN(C4=O)c5cncc6c5cccc6)Cl

> <scaffold>
tetrahydroisoquinoline-5spiro-isoquinoline

> <clash_score>
0

> <docking_score>
-8.612611770629883

> <overlap_score>
0.9762889742851257

> <MMFF_internal_energy>
167.68396346622552

> <docked_smiles>
CNC(=O)C1(CC1)[N@H+]2Cc3ccc(cc3[C@]4(C2)CCN(C4=O)c5cncc6c5cccc6)Cl

$$$$
MAT-POS-1d5ab790-3_1
  -OEChem-12272114573D

 53 57  0     1  0  0  0  0  0999 V2000
    3.3432    2.6279   20.4411 C   0  0  0  0  0  0  0  0  0  0  0  0
    3.7865    2.4205   19.1660 C   0  0  0  0  0  0  0  0  0  0  0  0
   12.0765    0.0316   24.1541 C   0  0  0  0  0  0  0  0  0  0  0  0
    3.8960    1.9291   21.5050 C   0  0  0  0  0  0  0  0  0  0  0  0
   12.9132   -0.6032   23.2569 C   0  0  0  0  0  0  0  0  0  0  0  0
   10.9991   -1.4331   22.0443 C   0  0  0  0  0  0  0  0  0  0  0  0
    5.3278    1.2339   17.6066 C   0  0  0  0  0  0  0  0  0  0  0  0
    6.8438   -0.2892   18.3752 C   0  0  0  0  0  0  0  0  0  0  0  0
    4.8226    1.4906   18.9054 C   0  0  0  0  0  0  0  0  0  0  0  0
    5.3982    0.7733   19.9948 C   0  0  0  0  0  0  0  0  0  0  0  0
   10.7040   -0.0625   23.9898 C   0  0  0  0  0  0  0  0  0  0  0  0
   10.1406   -0.7765   22.9250 C   0  0  0  0  0  0  0  0  0  0  0  0
    6.4440   -0.1472   19.6979 C   0  0  0  0  0  0  0  0  0  0  0  0
   12.3683   -1.3298   22.2234 C   0  0  0  0  0  0  0  0  0  0  0  0
    4.8973    1.0233   21.2988 C   0  0  0  0  0  0  0  0  0  0  0  0
    9.9479    0.5589   24.9534 C   0  0  0  0  0  0  0  0  0  0  0  0
    8.2490    0.0169   21.4271 C   0  0  0  0  0  0  0  0  0  0  0  0
    8.4669    3.2198   23.6970 C   0  0  0  0  0  0  0  0  0  0  0  0
    8.0140   -2.1541   22.4331 C   0  0  0  0  0  0  0  0  0  0  0  0
    6.9866   -1.9366   21.3580 C   0  0  0  0  0  0  0  0  0  0  0  0
    7.8721   -0.1194   23.8831 C   0  0  0  0  0  0  0  0  0  0  0  0
    8.6238   -0.7606   22.6929 C   0  0  3  0  0  0  0  0  0  0  0  0
   10.2286    4.9046   23.1758 C   0  0  0  0  0  0  0  0  0  0  0  0
    8.0922    2.2237   24.7645 C   0  0  0  0  0  0  0  0  0  0  0  0
    6.3062    0.3769   17.3421 N   0  0  0  0  0  0  0  0  0  0  0  0
    7.2292   -0.6897   20.7790 N   0  0  0  0  0  0  0  0  0  0  0  0
    8.6609    1.0133   24.4995 N   0  0  0  0  0  0  0  0  0  0  0  0
    9.6355    3.8939   24.0215 N   0  0  0  0  0  0  0  0  0  0  0  0
   10.3214    0.7303   26.1092 O   0  0  0  0  0  0  0  0  0  0  0  0
    8.8193    1.0411   21.0780 O   0  0  0  0  0  0  0  0  0  0  0  0
    7.8085    3.3951   22.6752 O   0  0  0  0  0  0  0  0  0  0  0  0
   13.4274   -2.1468   21.1136 Cl  0  0  0  0  0  0  0  0  0  0  0  0
    5.4623    0.2453   22.7515 Cl  0  0  0  0  0  0  0  0  0  0  0  0
    2.5425    3.3507   20.6372 H   0  0  0  0  0  0  0  0  0  0  0  0
    3.3401    2.9737   18.3362 H   0  0  0  0  0  0  0  0  0  0  0  0
   12.5172    0.5967   24.9716 H   0  0  0  0  0  0  0  0  0  0  0  0
    3.4992    2.1328   22.5080 H   0  0  0  0  0  0  0  0  0  0  0  0
   13.9905   -0.5221   23.3825 H   0  0  0  0  0  0  0  0  0  0  0  0
   10.6130   -2.0249   21.2272 H   0  0  0  0  0  0  0  0  0  0  0  0
    4.9135    1.7511   16.7477 H   0  0  0  0  0  0  0  0  0  0  0  0
    7.6449   -0.9747   18.1006 H   0  0  0  0  0  0  0  0  0  0  0  0
    7.5110   -2.5276   23.3390 H   0  0  0  0  0  0  0  0  0  0  0  0
    8.7575   -2.9105   22.1433 H   0  0  0  0  0  0  0  0  0  0  0  0
    7.0587   -2.7258   20.5724 H   0  0  0  0  0  0  0  0  0  0  0  0
    5.9512   -1.9960   21.7712 H   0  0  0  0  0  0  0  0  0  0  0  0
    6.9203    0.3184   23.5736 H   0  0  0  0  0  0  0  0  0  0  0  0
    7.6659   -0.8542   24.6623 H   0  0  0  0  0  0  0  0  0  0  0  0
   10.9348    4.4312   22.4778 H   0  0  0  0  0  0  0  0  0  0  0  0
    9.4384    5.4164   22.6069 H   0  0  0  0  0  0  0  0  0  0  0  0
   10.7641    5.6360   23.7990 H   0  0  0  0  0  0  0  0  0  0  0  0
    8.4448    2.5768   25.7381 H   0  0  0  0  0  0  0  0  0  0  0  0
    7.0053    2.1037   24.7947 H   0  0  0  0  0  0  0  0  0  0  0  0
   10.0971    3.6657   24.8972 H   0  0  0  0  0  0  0  0  0  0  0  0
  1  2  2  0  0  0  0
  1  4  1  0  0  0  0
  2  9  1  0  0  0  0
  3  5  2  0  0  0  0
  3 11  1  0  0  0  0
  4 15  2  0  0  0  0
  5 14  1  0  0  0  0
  6 12  1  0  0  0  0
  6 14  2  0  0  0  0
  7  9  2  0  0  0  0
  7 25  1  0  0  0  0
  8 13  1  0  0  0  0
  8 25  2  0  0  0  0
  9 10  1  0  0  0  0
 10 13  2  0  0  0  0
 10 15  1  0  0  0  0
 11 12  2  0  0  0  0
 11 16  1  0  0  0  0
 12 22  1  0  0  0  0
 13 26  1  0  0  0  0
 14 32  1  0  0  0  0
 15 33  1  0  0  0  0
 16 27  1  0  0  0  0
 16 29  2  0  0  0  0
 17 22  1  0  0  0  0
 17 26  1  0  0  0  0
 17 30  2  0  0  0  0
 18 24  1  0  0  0  0
 18 28  1  0  0  0  0
 18 31  2  0  0  0  0
 19 20  1  0  0  0  0
 19 22  1  0  0  0  0
 20 26  1  0  0  0  0
 21 22  1  0  0  0  0
 21 27  1  0  0  0  0
 23 28  1  0  0  0  0
 24 27  1  0  0  0  0
  1 34  1  0  0  0  0
  2 35  1  0  0  0  0
  3 36  1  0  0  0  0
  4 37  1  0  0  0  0
  5 38  1  0  0  0  0
  6 39  1  0  0  0  0
  7 40  1  0  0  0  0
  8 41  1  0  0  0  0
 19 42  1  0  0  0  0
 19 43  1  0  0  0  0
 20 44  1  0  0  0  0
 20 45  1  0  0  0  0
 21 46  1  0  0  0  0
 21 47  1  0  0  0  0
 23 48  1  0  0  0  0
 23 49  1  0  0  0  0
 23 50  1  0  0  0  0
 24 51  1  0  0  0  0
 24 52  1  0  0  0  0
 28 53  1  0  0  0  0
M  END
> <compound>
MAT-POS-1d5ab790-3

> <compound_smiles>
CNC(=O)CN1CC2(CCN(C2=O)c3cncc4c3c(ccc4)Cl)c5cc(ccc5C1=O)Cl

> <enantiomer_smiles>
CNC(=O)CN1CC2(CCN(C2=O)c3cncc4c3c(ccc4)Cl)c5cc(ccc5C1=O)Cl

> <scaffold>
tetrahydroisoquinoline-5spiro-isoquinoline

> <clash_score>
0

> <docking_score>
-10.145082473754883

> <overlap_score>
1.0

> <MMFF_internal_energy>
234.3827957841626

> <docked_smiles>
CNC(=O)CN1C[C@]2(CCN(C2=O)c3cncc4c3c(ccc4)Cl)c5cc(ccc5C1=O)Cl

$$$$
MAT-POS-50a80394-7_1
  -OEChem-12272114573D

 61 65  0     1  0  0  0  0  0999 V2000
    3.3432    2.6279   20.4411 C   0  0  0  0  0  0  0  0  0  0  0  0
    3.8960    1.9291   21.5050 C   0  0  0  0  0  0  0  0  0  0  0  0
    3.7865    2.4205   19.1660 C   0  0  0  0  0  0  0  0  0  0  0  0
    4.8973    1.0233   21.2988 C   0  0  0  0  0  0  0  0  0  0  0  0
   12.0765    0.0316   24.1541 C   0  0  0  0  0  0  0  0  0  0  0  0
   12.9132   -0.6032   23.2569 C   0  0  0  0  0  0  0  0  0  0  0  0
   10.9991   -1.4331   22.0443 C   0  0  0  0  0  0  0  0  0  0  0  0
    5.3278    1.2339   17.6066 C   0  0  0  0  0  0  0  0  0  0  0  0
    6.8438   -0.2892   18.3752 C   0  0  0  0  0  0  0  0  0  0  0  0
    4.8226    1.4906   18.9054 C   0  0  0  0  0  0  0  0  0  0  0  0
    5.3982    0.7733   19.9948 C   0  0  0  0  0  0  0  0  0  0  0  0
   10.7040   -0.0625   23.9898 C   0  0  0  0  0  0  0  0  0  0  0  0
   10.1406   -0.7765   22.9250 C   0  0  0  0  0  0  0  0  0  0  0  0
    6.4440   -0.1472   19.6979 C   0  0  0  0  0  0  0  0  0  0  0  0
   12.3683   -1.3298   22.2234 C   0  0  0  0  0  0  0  0  0  0  0  0
    8.2490    0.0169   21.4271 C   0  0  0  0  0  0  0  0  0  0  0  0
    7.4274    2.9486   23.5204 C   0  0  0  0  0  0  0  0  0  0  0  0
    9.9479    0.5589   24.9534 C   0  0  0  0  0  0  0  0  0  0  0  0
    6.9866   -1.9366   21.3580 C   0  0  0  0  0  0  0  0  0  0  0  0
    7.8721   -0.1194   23.8831 C   0  0  0  0  0  0  0  0  0  0  0  0
    8.6238   -0.7606   22.6929 C   0  0  3  0  0  0  0  0  0  0  0  0
    8.0140   -2.1541   22.4331 C   0  0  0  0  0  0  0  0  0  0  0  0
    7.2767   -2.7542   23.6785 C   0  0  0  0  0  0  0  0  0  0  0  0
    9.0146   -3.2552   21.9661 C   0  0  0  0  0  0  0  0  0  0  0  0
    6.3841    4.9497   22.4985 C   0  0  0  0  0  0  0  0  0  0  0  0
    8.7365    2.2014   23.5674 C   0  0  0  0  0  0  0  0  0  0  0  0
    6.3062    0.3769   17.3421 N   0  0  0  0  0  0  0  0  0  0  0  0
    7.2292   -0.6897   20.7790 N   0  0  0  0  0  0  0  0  0  0  0  0
    7.5087    4.0692   22.7075 N   0  0  0  0  0  0  0  0  0  0  0  0
    8.6609    1.0133   24.4995 N   0  3  1  0  0  0  0  0  0  0  0  0
    8.8267    1.0345   21.0676 O   0  0  0  0  0  0  0  0  0  0  0  0
    6.4248    2.5910   24.1329 O   0  0  0  0  0  0  0  0  0  0  0  0
   13.4285   -2.1432   21.1120 Cl  0  0  0  0  0  0  0  0  0  0  0  0
    2.5432    3.3510   20.6369 H   0  0  0  0  0  0  0  0  0  0  0  0
    3.5174    2.1137   22.5168 H   0  0  0  0  0  0  0  0  0  0  0  0
    3.3409    2.9743   18.3364 H   0  0  0  0  0  0  0  0  0  0  0  0
    5.3118    0.4895   22.1572 H   0  0  0  0  0  0  0  0  0  0  0  0
   12.5032    0.6008   24.9711 H   0  0  0  0  0  0  0  0  0  0  0  0
   13.9915   -0.5140   23.3773 H   0  0  0  0  0  0  0  0  0  0  0  0
   10.6203   -2.0241   21.2272 H   0  0  0  0  0  0  0  0  0  0  0  0
    4.9141    1.7511   16.7474 H   0  0  0  0  0  0  0  0  0  0  0  0
    7.6445   -0.9764   18.1043 H   0  0  0  0  0  0  0  0  0  0  0  0
    9.7406   -0.1058   25.8265 H   0  0  0  0  0  0  0  0  0  0  0  0
   10.4768    1.4569   25.3552 H   0  0  0  0  0  0  0  0  0  0  0  0
    7.0403   -2.7135   20.5570 H   0  0  0  0  0  0  0  0  0  0  0  0
    5.9382   -1.9853   21.7442 H   0  0  0  0  0  0  0  0  0  0  0  0
    6.8979    0.3092   23.5805 H   0  0  0  0  0  0  0  0  0  0  0  0
    7.6463   -0.8442   24.6832 H   0  0  0  0  0  0  0  0  0  0  0  0
    7.9963   -2.9401   24.4647 H   0  0  0  0  0  0  0  0  0  0  0  0
    6.7895   -3.6771   23.3934 H   0  0  0  0  0  0  0  0  0  0  0  0
    6.5424   -2.0313   24.0084 H   0  0  0  0  0  0  0  0  0  0  0  0
    9.7502   -3.4340   22.7431 H   0  0  0  0  0  0  0  0  0  0  0  0
    9.5099   -2.9056   21.0667 H   0  0  0  0  0  0  0  0  0  0  0  0
    8.4752   -4.1722   21.7545 H   0  0  0  0  0  0  0  0  0  0  0  0
    5.8190    4.6202   21.6141 H   0  0  0  0  0  0  0  0  0  0  0  0
    5.7294    4.9243   23.3822 H   0  0  0  0  0  0  0  0  0  0  0  0
    6.7466    5.9762   22.3403 H   0  0  0  0  0  0  0  0  0  0  0  0
    9.5298    2.8437   23.9597 H   0  0  0  0  0  0  0  0  0  0  0  0
    9.0010    1.8341   22.5719 H   0  0  0  0  0  0  0  0  0  0  0  0
    8.3900    4.3002   22.2579 H   0  0  0  0  0  0  0  0  0  0  0  0
    8.1126    1.3470   25.3102 H   0  0  0  0  0  0  0  0  0  0  0  0
  1  2  1  0  0  0  0
  1  3  2  0  0  0  0
  2  4  2  0  0  0  0
  3 10  1  0  0  0  0
  4 11  1  0  0  0  0
  5  6  1  0  0  0  0
  5 12  2  0  0  0  0
  6 15  2  0  0  0  0
  7 13  2  0  0  0  0
  7 15  1  0  0  0  0
  8 10  2  0  0  0  0
  8 27  1  0  0  0  0
  9 14  1  0  0  0  0
  9 27  2  0  0  0  0
 10 11  1  0  0  0  0
 11 14  2  0  0  0  0
 12 13  1  0  0  0  0
 12 18  1  0  0  0  0
 13 21  1  0  0  0  0
 14 28  1  0  0  0  0
 15 33  1  0  0  0  0
 16 21  1  0  0  0  0
 16 28  1  0  0  0  0
 16 31  2  0  0  0  0
 17 26  1  0  0  0  0
 17 29  1  0  0  0  0
 17 32  2  0  0  0  0
 18 30  1  0  0  0  0
 19 22  1  0  0  0  0
 19 28  1  0  0  0  0
 20 21  1  0  0  0  0
 20 30  1  0  0  0  0
 21 22  1  0  0  0  0
 22 23  1  0  0  0  0
 22 24  1  0  0  0  0
 25 29  1  0  0  0  0
 26 30  1  1  0  0  0
  1 34  1  0  0  0  0
  2 35  1  0  0  0  0
  3 36  1  0  0  0  0
  4 37  1  0  0  0  0
  5 38  1  0  0  0  0
  6 39  1  0  0  0  0
  7 40  1  0  0  0  0
  8 41  1  0  0  0  0
  9 42  1  0  0  0  0
 18 43  1  0  0  0  0
 18 44  1  0  0  0  0
 19 45  1  0  0  0  0
 19 46  1  0  0  0  0
 20 47  1  0  0  0  0
 20 48  1  0  0  0  0
 23 49  1  0  0  0  0
 23 50  1  0  0  0  0
 23 51  1  0  0  0  0
 24 52  1  0  0  0  0
 24 53  1  0  0  0  0
 24 54  1  0  0  0  0
 25 55  1  0  0  0  0
 25 56  1  0  0  0  0
 25 57  1  0  0  0  0
 26 58  1  0  0  0  0
 26 59  1  0  0  0  0
 29 60  1  0  0  0  0
 30 61  1  0  0  0  0
M  CHG  1  30   1
M  END
> <compound>
MAT-POS-50a80394-7

> <compound_smiles>
CC1(CN(C(=O)C12CN(Cc3c2cc(cc3)Cl)CC(=O)NC)c4cncc5c4cccc5)C

> <enantiomer_smiles>
CC1(CN(C(=O)C12C[N@@](Cc3c2cc(cc3)Cl)CC(=O)NC)c4cncc5c4cccc5)C

> <scaffold>
tetrahydroisoquinoline-5spiro-isoquinoline

> <clash_score>
0

> <docking_score>
-9.082444190979004

> <overlap_score>
1.0

> <MMFF_internal_energy>
219.54632605046754

> <docked_smiles>
CC1(CN(C(=O)[C@@]12C[N@@H+](Cc3c2cc(cc3)Cl)CC(=O)NC)c4cncc5c4cccc5)C

$$$$
EDJ-MED-fd8ed875-5_1
  -OEChem-12272114573D

 51 55  0     1  0  0  0  0  0999 V2000
    3.3432    2.6279   20.4411 C   0  0  0  0  0  0  0  0  0  0  0  0
    3.8960    1.9291   21.5050 C   0  0  0  0  0  0  0  0  0  0  0  0
    3.7865    2.4205   19.1660 C   0  0  0  0  0  0  0  0  0  0  0  0
    4.8973    1.0233   21.2988 C   0  0  0  0  0  0  0  0  0  0  0  0
   12.0765    0.0316   24.1541 C   0  0  0  0  0  0  0  0  0  0  0  0
   12.9132   -0.6032   23.2569 C   0  0  0  0  0  0  0  0  0  0  0  0
   10.9991   -1.4331   22.0443 C   0  0  0  0  0  0  0  0  0  0  0  0
    5.3278    1.2339   17.6066 C   0  0  0  0  0  0  0  0  0  0  0  0
    6.8438   -0.2892   18.3752 C   0  0  0  0  0  0  0  0  0  0  0  0
    4.8226    1.4906   18.9054 C   0  0  0  0  0  0  0  0  0  0  0  0
    5.3982    0.7733   19.9948 C   0  0  0  0  0  0  0  0  0  0  0  0
   10.7040   -0.0625   23.9898 C   0  0  0  0  0  0  0  0  0  0  0  0
   10.1406   -0.7765   22.9250 C   0  0  0  0  0  0  0  0  0  0  0  0
    6.4440   -0.1472   19.6979 C   0  0  0  0  0  0  0  0  0  0  0  0
   12.3683   -1.3298   22.2234 C   0  0  0  0  0  0  0  0  0  0  0  0
    6.9866   -1.9366   21.3580 C   0  0  0  0  0  0  0  0  0  0  0  0
    9.9479    0.5589   24.9534 C   0  0  0  0  0  0  0  0  0  0  0  0
    8.0140   -2.1541   22.4331 C   0  0  0  0  0  0  0  0  0  0  0  0
    8.2490    0.0169   21.4271 C   0  0  0  0  0  0  0  0  0  0  0  0
    8.4806    3.2273   23.7451 C   0  0  0  0  0  0  0  0  0  0  0  0
    7.8721   -0.1194   23.8831 C   0  0  0  0  0  0  0  0  0  0  0  0
    8.6238   -0.7606   22.6929 C   0  0  3  0  0  0  0  0  0  0  0  0
   10.2676    4.9010   23.2767 C   0  0  0  0  0  0  0  0  0  0  0  0
    8.0830    2.2140   24.7878 C   0  0  0  0  0  0  0  0  0  0  0  0
    6.3062    0.3769   17.3421 N   0  0  0  0  0  0  0  0  0  0  0  0
    7.2292   -0.6897   20.7790 N   0  0  0  0  0  0  0  0  0  0  0  0
    8.6609    1.0133   24.4995 N   0  0  0  0  0  0  0  0  0  0  0  0
    9.6538    3.8803   24.0952 N   0  0  0  0  0  0  0  0  0  0  0  0
   10.3255    0.7366   26.1056 O   0  0  0  0  0  0  0  0  0  0  0  0
    8.8027    1.0675   21.1093 O   0  0  0  0  0  0  0  0  0  0  0  0
    7.8349    3.4317   22.7205 O   0  0  0  0  0  0  0  0  0  0  0  0
    8.2511   -3.2615   22.9627 F   0  0  0  0  0  0  0  0  0  0  0  0
   13.4272   -2.1475   21.1136 Cl  0  0  0  0  0  0  0  0  0  0  0  0
    2.5432    3.3510   20.6369 H   0  0  0  0  0  0  0  0  0  0  0  0
    3.5174    2.1137   22.5168 H   0  0  0  0  0  0  0  0  0  0  0  0
    3.3409    2.9743   18.3364 H   0  0  0  0  0  0  0  0  0  0  0  0
    5.3118    0.4895   22.1572 H   0  0  0  0  0  0  0  0  0  0  0  0
   12.5176    0.5922   24.9740 H   0  0  0  0  0  0  0  0  0  0  0  0
   13.9904   -0.5265   23.3849 H   0  0  0  0  0  0  0  0  0  0  0  0
   10.6083   -2.0244   21.2277 H   0  0  0  0  0  0  0  0  0  0  0  0
    4.9141    1.7511   16.7474 H   0  0  0  0  0  0  0  0  0  0  0  0
    7.6445   -0.9764   18.1043 H   0  0  0  0  0  0  0  0  0  0  0  0
    6.2482   -2.5935   21.1087 H   0  0  0  0  0  0  0  0  0  0  0  0
    6.9265    0.3216   23.5673 H   0  0  0  0  0  0  0  0  0  0  0  0
    7.6642   -0.8500   24.6632 H   0  0  0  0  0  0  0  0  0  0  0  0
   10.9752    4.4334   22.5761 H   0  0  0  0  0  0  0  0  0  0  0  0
    9.4895    5.4340   22.7106 H   0  0  0  0  0  0  0  0  0  0  0  0
   10.8053    5.6127   23.9203 H   0  0  0  0  0  0  0  0  0  0  0  0
    8.4298    2.5426   25.7720 H   0  0  0  0  0  0  0  0  0  0  0  0
    6.9945    2.1067   24.8046 H   0  0  0  0  0  0  0  0  0  0  0  0
   10.1036    3.6284   24.9706 H   0  0  0  0  0  0  0  0  0  0  0  0
  1  2  1  0  0  0  0
  1  3  2  0  0  0  0
  2  4  2  0  0  0  0
  3 10  1  0  0  0  0
  4 11  1  0  0  0  0
  5  6  2  0  0  0  0
  5 12  1  0  0  0  0
  6 15  1  0  0  0  0
  7 13  1  0  0  0  0
  7 15  2  0  0  0  0
  8 10  2  0  0  0  0
  8 25  1  0  0  0  0
  9 14  1  0  0  0  0
  9 25  2  0  0  0  0
 10 11  1  0  0  0  0
 11 14  2  0  0  0  0
 12 13  2  0  0  0  0
 12 17  1  0  0  0  0
 13 22  1  0  0  0  0
 14 26  1  0  0  0  0
 15 33  1  0  0  0  0
 16 18  2  0  0  0  0
 16 26  1  0  0  0  0
 17 27  1  0  0  0  0
 17 29  2  0  0  0  0
 18 22  1  0  0  0  0
 18 32  1  0  0  0  0
 19 22  1  0  0  0  0
 19 26  1  0  0  0  0
 19 30  2  0  0  0  0
 20 24  1  0  0  0  0
 20 28  1  0  0  0  0
 20 31  2  0  0  0  0
 21 22  1  0  0  0  0
 21 27  1  0  0  0  0
 23 28  1  0  0  0  0
 24 27  1  0  0  0  0
  1 34  1  0  0  0  0
  2 35  1  0  0  0  0
  3 36  1  0  0  0  0
  4 37  1  0  0  0  0
  5 38  1  0  0  0  0
  6 39  1  0  0  0  0
  7 40  1  0  0  0  0
  8 41  1  0  0  0  0
  9 42  1  0  0  0  0
 16 43  1  0  0  0  0
 21 44  1  0  0  0  0
 21 45  1  0  0  0  0
 23 46  1  0  0  0  0
 23 47  1  0  0  0  0
 23 48  1  0  0  0  0
 24 49  1  0  0  0  0
 24 50  1  0  0  0  0
 28 51  1  0  0  0  0
M  END
> <compound>
EDJ-MED-fd8ed875-5

> <compound_smiles>
CNC(=O)CN1CC2(c3cc(ccc3C1=O)Cl)C(=CN(C2=O)c4cncc5c4cccc5)F

> <enantiomer_smiles>
CNC(=O)CN1CC2(c3cc(ccc3C1=O)Cl)C(=CN(C2=O)c4cncc5c4cccc5)F

> <scaffold>
tetrahydroisoquinoline-5spiro-isoquinoline

> <clash_score>
0

> <docking_score>
-9.72862720489502

> <overlap_score>
1.0

> <MMFF_internal_energy>
210.61019990535917

> <docked_smiles>
CNC(=O)CN1C[C@@]2(c3cc(ccc3C1=O)Cl)C(=CN(C2=O)c4cncc5c4cccc5)F

$$$$
EDJ-MED-b6c6ee2b-2_2
  -OEChem-12272114573D

 59 63  0     1  0  0  0  0  0999 V2000
    3.7865    2.4205   19.1660 C   0  0  0  0  0  0  0  0  0  0  0  0
   12.0765    0.0316   24.1541 C   0  0  0  0  0  0  0  0  0  0  0  0
    3.3432    2.6279   20.4411 C   0  0  0  0  0  0  0  0  0  0  0  0
   12.9132   -0.6032   23.2569 C   0  0  0  0  0  0  0  0  0  0  0  0
    4.8973    1.0233   21.2988 C   0  0  0  0  0  0  0  0  0  0  0  0
   10.9991   -1.4331   22.0443 C   0  0  0  0  0  0  0  0  0  0  0  0
    5.3278    1.2339   17.6066 C   0  0  0  0  0  0  0  0  0  0  0  0
    6.8438   -0.2892   18.3752 C   0  0  0  0  0  0  0  0  0  0  0  0
    4.8226    1.4906   18.9054 C   0  0  0  0  0  0  0  0  0  0  0  0
    5.3982    0.7733   19.9948 C   0  0  0  0  0  0  0  0  0  0  0  0
   10.7040   -0.0625   23.9898 C   0  0  0  0  0  0  0  0  0  0  0  0
   10.1406   -0.7765   22.9250 C   0  0  0  0  0  0  0  0  0  0  0  0
    6.4440   -0.1472   19.6979 C   0  0  0  0  0  0  0  0  0  0  0  0
    3.8960    1.9291   21.5050 C   0  0  0  0  0  0  0  0  0  0  0  0
   12.3683   -1.3298   22.2234 C   0  0  0  0  0  0  0  0  0  0  0  0
    8.2490    0.0169   21.4271 C   0  0  0  0  0  0  0  0  0  0  0  0
    6.7919    2.5950   24.9761 C   0  0  0  0  0  0  0  0  0  0  0  0
    9.9479    0.5589   24.9534 C   0  0  0  0  0  0  0  0  0  0  0  0
    8.0140   -2.1541   22.4331 C   0  0  0  0  0  0  0  0  0  0  0  0
    6.9866   -1.9366   21.3580 C   0  0  0  0  0  0  0  0  0  0  0  0
    7.8721   -0.1194   23.8831 C   0  0  0  0  0  0  0  0  0  0  0  0
    8.6238   -0.7606   22.6929 C   0  0  3  0  0  0  0  0  0  0  0  0
    6.5186    4.5422   23.4690 C   0  0  0  0  0  0  0  0  0  0  0  0
    2.3754    3.1171   22.9086 C   0  0  0  0  0  0  0  0  0  0  0  0
    7.8596    1.7144   25.5749 C   0  0  0  0  0  0  0  0  0  0  0  0
    6.3062    0.3769   17.3421 N   0  0  0  0  0  0  0  0  0  0  0  0
    7.2292   -0.6897   20.7790 N   0  0  0  0  0  0  0  0  0  0  0  0
    7.3373    3.5744   24.1596 N   0  0  0  0  0  0  0  0  0  0  0  0
    8.6609    1.0133   24.4995 N   0  3  1  0  0  0  0  0  0  0  0  0
    8.8286    1.0402   21.0803 O   0  0  0  0  0  0  0  0  0  0  0  0
    5.5929    2.4454   25.1962 O   0  0  0  0  0  0  0  0  0  0  0  0
    3.4227    2.1582   22.7714 O   0  0  0  0  0  0  0  0  0  0  0  0
   13.4270   -2.1443   21.1108 Cl  0  0  0  0  0  0  0  0  0  0  0  0
    3.3406    2.9746   18.3368 H   0  0  0  0  0  0  0  0  0  0  0  0
   12.5021    0.5962   24.9756 H   0  0  0  0  0  0  0  0  0  0  0  0
    2.5407    3.3506   20.6306 H   0  0  0  0  0  0  0  0  0  0  0  0
   13.9911   -0.5171   23.3786 H   0  0  0  0  0  0  0  0  0  0  0  0
    5.3162    0.4858   22.1535 H   0  0  0  0  0  0  0  0  0  0  0  0
   10.6045   -2.0170   21.2248 H   0  0  0  0  0  0  0  0  0  0  0  0
    4.9131    1.7514   16.7479 H   0  0  0  0  0  0  0  0  0  0  0  0
    7.6448   -0.9758   18.1041 H   0  0  0  0  0  0  0  0  0  0  0  0
    9.7608   -0.1211   25.8247 H   0  0  0  0  0  0  0  0  0  0  0  0
   10.4565    1.4661   25.3705 H   0  0  0  0  0  0  0  0  0  0  0  0
    7.5144   -2.5472   23.3327 H   0  0  0  0  0  0  0  0  0  0  0  0
    8.7599   -2.9065   22.1418 H   0  0  0  0  0  0  0  0  0  0  0  0
    7.0582   -2.7244   20.5716 H   0  0  0  0  0  0  0  0  0  0  0  0
    5.9516   -1.9958   21.7713 H   0  0  0  0  0  0  0  0  0  0  0  0
    6.8955    0.2929   23.5757 H   0  0  0  0  0  0  0  0  0  0  0  0
    7.6774   -0.8491   24.6905 H   0  0  0  0  0  0  0  0  0  0  0  0
    6.2637    4.1608   22.4692 H   0  0  0  0  0  0  0  0  0  0  0  0
    5.5955    4.7165   24.0413 H   0  0  0  0  0  0  0  0  0  0  0  0
    7.0728    5.4873   23.3704 H   0  0  0  0  0  0  0  0  0  0  0  0
    2.0990    3.2077   23.9619 H   0  0  0  0  0  0  0  0  0  0  0  0
    1.5108    2.8003   22.3199 H   0  0  0  0  0  0  0  0  0  0  0  0
    2.7286    4.0840   22.5424 H   0  0  0  0  0  0  0  0  0  0  0  0
    7.4105    0.9495   26.2145 H   0  0  0  0  0  0  0  0  0  0  0  0
    8.5738    2.3157   26.1441 H   0  0  0  0  0  0  0  0  0  0  0  0
    8.3460    3.6364   24.0553 H   0  0  0  0  0  0  0  0  0  0  0  0
    8.7930    1.7233   23.7554 H   0  0  0  0  0  0  0  0  0  0  0  0
  1  3  2  0  0  0  0
  1  9  1  0  0  0  0
  2  4  2  0  0  0  0
  2 11  1  0  0  0  0
  3 14  1  0  0  0  0
  4 15  1  0  0  0  0
  5 10  1  0  0  0  0
  5 14  2  0  0  0  0
  6 12  1  0  0  0  0
  6 15  2  0  0  0  0
  7  9  2  0  0  0  0
  7 26  1  0  0  0  0
  8 13  1  0  0  0  0
  8 26  2  0  0  0  0
  9 10  1  0  0  0  0
 10 13  2  0  0  0  0
 11 12  2  0  0  0  0
 11 18  1  0  0  0  0
 12 22  1  0  0  0  0
 13 27  1  0  0  0  0
 14 32  1  0  0  0  0
 15 33  1  0  0  0  0
 16 22  1  0  0  0  0
 16 27  1  0  0  0  0
 16 30  2  0  0  0  0
 17 25  1  0  0  0  0
 17 28  1  0  0  0  0
 17 31  2  0  0  0  0
 18 29  1  0  0  0  0
 19 20  1  0  0  0  0
 19 22  1  0  0  0  0
 20 27  1  0  0  0  0
 21 22  1  0  0  0  0
 21 29  1  0  0  0  0
 23 28  1  0  0  0  0
 24 32  1  0  0  0  0
 25 29  1  6  0  0  0
  1 34  1  0  0  0  0
  2 35  1  0  0  0  0
  3 36  1  0  0  0  0
  4 37  1  0  0  0  0
  5 38  1  0  0  0  0
  6 39  1  0  0  0  0
  7 40  1  0  0  0  0
  8 41  1  0  0  0  0
 18 42  1  0  0  0  0
 18 43  1  0  0  0  0
 19 44  1  0  0  0  0
 19 45  1  0  0  0  0
 20 46  1  0  0  0  0
 20 47  1  0  0  0  0
 21 48  1  0  0  0  0
 21 49  1  0  0  0  0
 23 50  1  0  0  0  0
 23 51  1  0  0  0  0
 23 52  1  0  0  0  0
 24 53  1  0  0  0  0
 24 54  1  0  0  0  0
 24 55  1  0  0  0  0
 25 56  1  0  0  0  0
 25 57  1  0  0  0  0
 28 58  1  0  0  0  0
 29 59  1  0  0  0  0
M  CHG  1  29   1
M  END
> <compound>
EDJ-MED-b6c6ee2b-2

> <compound_smiles>
CNC(=O)CN1Cc2ccc(cc2C3(C1)CCN(C3=O)c4cncc5c4cc(cc5)OC)Cl

> <enantiomer_smiles>
CNC(=O)C[N@]1Cc2ccc(cc2C3(C1)CCN(C3=O)c4cncc5c4cc(cc5)OC)Cl

> <scaffold>
tetrahydroisoquinoline-5spiro-isoquinoline

> <clash_score>
0

> <docking_score>
-8.610163688659668

> <overlap_score>
0.9862743020057678

> <MMFF_internal_energy>
163.2427901243007

> <docked_smiles>
CNC(=O)C[N@H+]1Cc2ccc(cc2[C@]3(C1)CCN(C3=O)c4cncc5c4cc(cc5)OC)Cl

$$$$
MAT-POS-50a80394-5_1
  -OEChem-12272114573D

 61 65  0     1  0  0  0  0  0999 V2000
    3.3432    2.6279   20.4411 C   0  0  0  0  0  0  0  0  0  0  0  0
    3.8960    1.9291   21.5050 C   0  0  0  0  0  0  0  0  0  0  0  0
    3.7865    2.4205   19.1660 C   0  0  0  0  0  0  0  0  0  0  0  0
    4.8973    1.0233   21.2988 C   0  0  0  0  0  0  0  0  0  0  0  0
   12.0765    0.0316   24.1541 C   0  0  0  0  0  0  0  0  0  0  0  0
   12.9132   -0.6032   23.2569 C   0  0  0  0  0  0  0  0  0  0  0  0
   10.9991   -1.4331   22.0443 C   0  0  0  0  0  0  0  0  0  0  0  0
    5.3278    1.2339   17.6066 C   0  0  0  0  0  0  0  0  0  0  0  0
    6.8438   -0.2892   18.3752 C   0  0  0  0  0  0  0  0  0  0  0  0
    4.8226    1.4906   18.9054 C   0  0  0  0  0  0  0  0  0  0  0  0
    5.3982    0.7733   19.9948 C   0  0  0  0  0  0  0  0  0  0  0  0
   10.7040   -0.0625   23.9898 C   0  0  0  0  0  0  0  0  0  0  0  0
   10.1406   -0.7765   22.9250 C   0  0  0  0  0  0  0  0  0  0  0  0
    6.4440   -0.1472   19.6979 C   0  0  0  0  0  0  0  0  0  0  0  0
   12.3683   -1.3298   22.2234 C   0  0  0  0  0  0  0  0  0  0  0  0
    8.2490    0.0169   21.4271 C   0  0  0  0  0  0  0  0  0  0  0  0
    7.4333    2.9425   23.5097 C   0  0  0  0  0  0  0  0  0  0  0  0
    9.9479    0.5589   24.9534 C   0  0  0  0  0  0  0  0  0  0  0  0
    6.9866   -1.9366   21.3580 C   0  0  0  0  0  0  0  0  0  0  0  0
    7.8721   -0.1194   23.8831 C   0  0  0  0  0  0  0  0  0  0  0  0
    8.0140   -2.1541   22.4331 C   0  0  2  0  0  0  0  0  0  0  0  0
    8.6238   -0.7606   22.6929 C   0  0  3  0  0  0  0  0  0  0  0  0
    8.3065   -4.5638   21.7677 C   0  0  0  0  0  0  0  0  0  0  0  0
    6.3840    4.9359   22.4787 C   0  0  0  0  0  0  0  0  0  0  0  0
    8.7440    2.1982   23.5582 C   0  0  0  0  0  0  0  0  0  0  0  0
    9.0007   -3.2768   22.0776 C   0  0  0  0  0  0  0  0  0  0  0  0
    6.3062    0.3769   17.3421 N   0  0  0  0  0  0  0  0  0  0  0  0
    7.2292   -0.6897   20.7790 N   0  0  0  0  0  0  0  0  0  0  0  0
    7.5107    4.0587   22.6903 N   0  0  0  0  0  0  0  0  0  0  0  0
    8.6609    1.0133   24.4995 N   0  3  1  0  0  0  0  0  0  0  0  0
    8.8276    1.0399   21.0744 O   0  0  0  0  0  0  0  0  0  0  0  0
    6.4327    2.5865   24.1264 O   0  0  0  0  0  0  0  0  0  0  0  0
   13.4291   -2.1467   21.1148 Cl  0  0  0  0  0  0  0  0  0  0  0  0
    2.5432    3.3510   20.6369 H   0  0  0  0  0  0  0  0  0  0  0  0
    3.5174    2.1137   22.5168 H   0  0  0  0  0  0  0  0  0  0  0  0
    3.3409    2.9743   18.3364 H   0  0  0  0  0  0  0  0  0  0  0  0
    5.3118    0.4895   22.1572 H   0  0  0  0  0  0  0  0  0  0  0  0
   12.5034    0.5852   24.9820 H   0  0  0  0  0  0  0  0  0  0  0  0
   13.9918   -0.5304   23.3885 H   0  0  0  0  0  0  0  0  0  0  0  0
   10.6195   -2.0349   21.2358 H   0  0  0  0  0  0  0  0  0  0  0  0
    4.9141    1.7511   16.7474 H   0  0  0  0  0  0  0  0  0  0  0  0
    7.6445   -0.9764   18.1043 H   0  0  0  0  0  0  0  0  0  0  0  0
    9.7357   -0.1163   25.8246 H   0  0  0  0  0  0  0  0  0  0  0  0
   10.4772    1.4526   25.3809 H   0  0  0  0  0  0  0  0  0  0  0  0
    7.0346   -2.7228   20.5623 H   0  0  0  0  0  0  0  0  0  0  0  0
    5.9483   -1.9858   21.7748 H   0  0  0  0  0  0  0  0  0  0  0  0
    6.9031    0.3192   23.5884 H   0  0  0  0  0  0  0  0  0  0  0  0
    7.6829   -0.8448   24.6936 H   0  0  0  0  0  0  0  0  0  0  0  0
    7.4669   -2.5181   23.3220 H   0  0  0  0  0  0  0  0  0  0  0  0
    7.7114   -4.8806   22.6323 H   0  0  0  0  0  0  0  0  0  0  0  0
    9.0314   -5.3544   21.5466 H   0  0  0  0  0  0  0  0  0  0  0  0
    7.6301   -4.4460   20.9145 H   0  0  0  0  0  0  0  0  0  0  0  0
    5.8177    4.6001   21.5974 H   0  0  0  0  0  0  0  0  0  0  0  0
    5.7313    4.9142   23.3638 H   0  0  0  0  0  0  0  0  0  0  0  0
    6.7442    5.9620   22.3138 H   0  0  0  0  0  0  0  0  0  0  0  0
    9.5369    2.8443   23.9451 H   0  0  0  0  0  0  0  0  0  0  0  0
    9.0071    1.8258   22.5642 H   0  0  0  0  0  0  0  0  0  0  0  0
    9.5932   -2.9646   21.2124 H   0  0  0  0  0  0  0  0  0  0  0  0
    9.6908   -3.4270   22.9133 H   0  0  0  0  0  0  0  0  0  0  0  0
    8.3906    4.2889   22.2375 H   0  0  0  0  0  0  0  0  0  0  0  0
    8.1081    1.3539   25.3123 H   0  0  0  0  0  0  0  0  0  0  0  0
  1  2  1  0  0  0  0
  1  3  2  0  0  0  0
  2  4  2  0  0  0  0
  3 10  1  0  0  0  0
  4 11  1  0  0  0  0
  5  6  1  0  0  0  0
  5 12  2  0  0  0  0
  6 15  2  0  0  0  0
  7 13  2  0  0  0  0
  7 15  1  0  0  0  0
  8 10  2  0  0  0  0
  8 27  1  0  0  0  0
  9 14  1  0  0  0  0
  9 27  2  0  0  0  0
 10 11  1  0  0  0  0
 11 14  2  0  0  0  0
 12 13  1  0  0  0  0
 12 18  1  0  0  0  0
 13 22  1  0  0  0  0
 14 28  1  0  0  0  0
 15 33  1  0  0  0  0
 16 22  1  0  0  0  0
 16 28  1  0  0  0  0
 16 31  2  0  0  0  0
 17 25  1  0  0  0  0
 17 29  1  0  0  0  0
 17 32  2  0  0  0  0
 18 30  1  0  0  0  0
 19 21  1  0  0  0  0
 19 28  1  0  0  0  0
 20 22  1  0  0  0  0
 20 30  1  0  0  0  0
 21 22  1  0  0  0  0
 21 26  1  1  0  0  0
 23 26  1  0  0  0  0
 24 29  1  0  0  0  0
 25 30  1  1  0  0  0
  1 34  1  0  0  0  0
  2 35  1  0  0  0  0
  3 36  1  0  0  0  0
  4 37  1  0  0  0  0
  5 38  1  0  0  0  0
  6 39  1  0  0  0  0
  7 40  1  0  0  0  0
  8 41  1  0  0  0  0
  9 42  1  0  0  0  0
 18 43  1  0  0  0  0
 18 44  1  0  0  0  0
 19 45  1  0  0  0  0
 19 46  1  0  0  0  0
 20 47  1  0  0  0  0
 20 48  1  0  0  0  0
 21 49  1  0  0  0  0
 23 50  1  0  0  0  0
 23 51  1  0  0  0  0
 23 52  1  0  0  0  0
 24 53  1  0  0  0  0
 24 54  1  0  0  0  0
 24 55  1  0  0  0  0
 25 56  1  0  0  0  0
 25 57  1  0  0  0  0
 26 58  1  0  0  0  0
 26 59  1  0  0  0  0
 29 60  1  0  0  0  0
 30 61  1  0  0  0  0
M  CHG  1  30   1
M  END
> <compound>
MAT-POS-50a80394-5

> <compound_smiles>
CCC1CN(C(=O)C12CN(Cc3c2cc(cc3)Cl)CC(=O)NC)c4cncc5c4cccc5

> <enantiomer_smiles>
CC[C@@H]1CN(C(=O)C12C[N@@](Cc3c2cc(cc3)Cl)CC(=O)NC)c4cncc5c4cccc5

> <scaffold>
tetrahydroisoquinoline-5spiro-isoquinoline

> <clash_score>
0

> <docking_score>
-8.025425910949707

> <overlap_score>
0.9880667328834534

> <MMFF_internal_energy>
207.80563413032257

> <docked_smiles>
CC[C@@H]1CN(C(=O)[C@@]12C[N@@H+](Cc3c2cc(cc3)Cl)CC(=O)NC)c4cncc5c4cccc5

$$$$
MAT-POS-50a80394-5_3
  -OEChem-12272114573D

 61 65  0     1  0  0  0  0  0999 V2000
    3.3432    2.6279   20.4411 C   0  0  0  0  0  0  0  0  0  0  0  0
    3.8960    1.9291   21.5050 C   0  0  0  0  0  0  0  0  0  0  0  0
    3.7865    2.4205   19.1660 C   0  0  0  0  0  0  0  0  0  0  0  0
    4.8973    1.0233   21.2988 C   0  0  0  0  0  0  0  0  0  0  0  0
   12.0765    0.0316   24.1541 C   0  0  0  0  0  0  0  0  0  0  0  0
   12.9132   -0.6032   23.2569 C   0  0  0  0  0  0  0  0  0  0  0  0
   10.9991   -1.4331   22.0443 C   0  0  0  0  0  0  0  0  0  0  0  0
    5.3278    1.2339   17.6066 C   0  0  0  0  0  0  0  0  0  0  0  0
    6.8438   -0.2892   18.3752 C   0  0  0  0  0  0  0  0  0  0  0  0
    4.8226    1.4906   18.9054 C   0  0  0  0  0  0  0  0  0  0  0  0
    5.3982    0.7733   19.9948 C   0  0  0  0  0  0  0  0  0  0  0  0
   10.7040   -0.0625   23.9898 C   0  0  0  0  0  0  0  0  0  0  0  0
   10.1406   -0.7765   22.9250 C   0  0  0  0  0  0  0  0  0  0  0  0
    6.4440   -0.1472   19.6979 C   0  0  0  0  0  0  0  0  0  0  0  0
   12.3683   -1.3298   22.2234 C   0  0  0  0  0  0  0  0  0  0  0  0
    8.2490    0.0169   21.4271 C   0  0  0  0  0  0  0  0  0  0  0  0
    6.8037    2.5965   24.9622 C   0  0  0  0  0  0  0  0  0  0  0  0
    9.9479    0.5589   24.9534 C   0  0  0  0  0  0  0  0  0  0  0  0
    6.9866   -1.9366   21.3580 C   0  0  0  0  0  0  0  0  0  0  0  0
    7.8721   -0.1194   23.8831 C   0  0  0  0  0  0  0  0  0  0  0  0
    8.0140   -2.1541   22.4331 C   0  0  2  0  0  0  0  0  0  0  0  0
    8.6238   -0.7606   22.6929 C   0  0  3  0  0  0  0  0  0  0  0  0
    8.2630   -4.5723   21.7924 C   0  0  0  0  0  0  0  0  0  0  0  0
    6.5615    4.5744   23.4902 C   0  0  0  0  0  0  0  0  0  0  0  0
    7.8595    1.7112   25.5752 C   0  0  0  0  0  0  0  0  0  0  0  0
    8.9794   -3.2907   22.0769 C   0  0  0  0  0  0  0  0  0  0  0  0
    6.3062    0.3769   17.3421 N   0  0  0  0  0  0  0  0  0  0  0  0
    7.2292   -0.6897   20.7790 N   0  0  0  0  0  0  0  0  0  0  0  0
    7.3662    3.5980   24.1852 N   0  0  0  0  0  0  0  0  0  0  0  0
    8.6609    1.0133   24.4995 N   0  3  2  0  0  0  0  0  0  0  0  0
    8.8273    1.0393   21.0736 O   0  0  0  0  0  0  0  0  0  0  0  0
    5.5997    2.4325   25.1407 O   0  0  0  0  0  0  0  0  0  0  0  0
   13.4276   -2.1462   21.1127 Cl  0  0  0  0  0  0  0  0  0  0  0  0
    2.5432    3.3510   20.6369 H   0  0  0  0  0  0  0  0  0  0  0  0
    3.5174    2.1137   22.5168 H   0  0  0  0  0  0  0  0  0  0  0  0
    3.3409    2.9743   18.3364 H   0  0  0  0  0  0  0  0  0  0  0  0
    5.3118    0.4895   22.1572 H   0  0  0  0  0  0  0  0  0  0  0  0
   12.5030    0.5945   24.9759 H   0  0  0  0  0  0  0  0  0  0  0  0
   13.9913   -0.5220   23.3825 H   0  0  0  0  0  0  0  0  0  0  0  0
   10.6065   -2.0229   21.2292 H   0  0  0  0  0  0  0  0  0  0  0  0
    4.9141    1.7511   16.7474 H   0  0  0  0  0  0  0  0  0  0  0  0
    7.6445   -0.9764   18.1043 H   0  0  0  0  0  0  0  0  0  0  0  0
    9.7627   -0.1179   25.8290 H   0  0  0  0  0  0  0  0  0  0  0  0
   10.4567    1.4675   25.3699 H   0  0  0  0  0  0  0  0  0  0  0  0
    7.0367   -2.7204   20.5618 H   0  0  0  0  0  0  0  0  0  0  0  0
    5.9493   -1.9848   21.7743 H   0  0  0  0  0  0  0  0  0  0  0  0
    6.8965    0.2867   23.5848 H   0  0  0  0  0  0  0  0  0  0  0  0
    7.6923   -0.8433   24.6922 H   0  0  0  0  0  0  0  0  0  0  0  0
    7.4732   -2.4994   23.3360 H   0  0  0  0  0  0  0  0  0  0  0  0
    7.6768   -4.8724   22.6689 H   0  0  0  0  0  0  0  0  0  0  0  0
    8.9744   -5.3745   21.5688 H   0  0  0  0  0  0  0  0  0  0  0  0
    7.5756   -4.4544   20.9481 H   0  0  0  0  0  0  0  0  0  0  0  0
    6.3417    4.2132   22.4747 H   0  0  0  0  0  0  0  0  0  0  0  0
    5.6193    4.7285   24.0364 H   0  0  0  0  0  0  0  0  0  0  0  0
    7.1104    5.5258   23.4300 H   0  0  0  0  0  0  0  0  0  0  0  0
    7.3970    0.9288   26.1833 H   0  0  0  0  0  0  0  0  0  0  0  0
    8.5501    2.3054   26.1800 H   0  0  0  0  0  0  0  0  0  0  0  0
    9.5623   -2.9976   21.1976 H   0  0  0  0  0  0  0  0  0  0  0  0
    9.6835   -3.4438   22.9013 H   0  0  0  0  0  0  0  0  0  0  0  0
    8.3772    3.6702   24.1143 H   0  0  0  0  0  0  0  0  0  0  0  0
    8.7993    1.7244   23.7628 H   0  0  0  0  0  0  0  0  0  0  0  0
  1  2  1  0  0  0  0
  1  3  2  0  0  0  0
  2  4  2  0  0  0  0
  3 10  1  0  0  0  0
  4 11  1  0  0  0  0
  5  6  1  0  0  0  0
  5 12  2  0  0  0  0
  6 15  2  0  0  0  0
  7 13  2  0  0  0  0
  7 15  1  0  0  0  0
  8 10  2  0  0  0  0
  8 27  1  0  0  0  0
  9 14  1  0  0  0  0
  9 27  2  0  0  0  0
 10 11  1  0  0  0  0
 11 14  2  0  0  0  0
 12 13  1  0  0  0  0
 12 18  1  0  0  0  0
 13 22  1  0  0  0  0
 14 28  1  0  0  0  0
 15 33  1  0  0  0  0
 16 22  1  0  0  0  0
 16 28  1  0  0  0  0
 16 31  2  0  0  0  0
 17 25  1  0  0  0  0
 17 29  1  0  0  0  0
 17 32  2  0  0  0  0
 18 30  1  0  0  0  0
 19 21  1  0  0  0  0
 19 28  1  0  0  0  0
 20 22  1  0  0  0  0
 20 30  1  0  0  0  0
 21 22  1  0  0  0  0
 21 26  1  1  0  0  0
 23 26  1  0  0  0  0
 24 29  1  0  0  0  0
 25 30  1  6  0  0  0
  1 34  1  0  0  0  0
  2 35  1  0  0  0  0
  3 36  1  0  0  0  0
  4 37  1  0  0  0  0
  5 38  1  0  0  0  0
  6 39  1  0  0  0  0
  7 40  1  0  0  0  0
  8 41  1  0  0  0  0
  9 42  1  0  0  0  0
 18 43  1  0  0  0  0
 18 44  1  0  0  0  0
 19 45  1  0  0  0  0
 19 46  1  0  0  0  0
 20 47  1  0  0  0  0
 20 48  1  0  0  0  0
 21 49  1  0  0  0  0
 23 50  1  0  0  0  0
 23 51  1  0  0  0  0
 23 52  1  0  0  0  0
 24 53  1  0  0  0  0
 24 54  1  0  0  0  0
 24 55  1  0  0  0  0
 25 56  1  0  0  0  0
 25 57  1  0  0  0  0
 26 58  1  0  0  0  0
 26 59  1  0  0  0  0
 29 60  1  0  0  0  0
 30 61  1  0  0  0  0
M  CHG  1  30   1
M  END
> <compound>
MAT-POS-50a80394-5

> <compound_smiles>
CCC1CN(C(=O)C12CN(Cc3c2cc(cc3)Cl)CC(=O)NC)c4cncc5c4cccc5

> <enantiomer_smiles>
CC[C@@H]1CN(C(=O)C12C[N@](Cc3c2cc(cc3)Cl)CC(=O)NC)c4cncc5c4cccc5

> <scaffold>
tetrahydroisoquinoline-5spiro-isoquinoline

> <clash_score>
0

> <docking_score>
-7.530256271362305

> <overlap_score>
0.9856905937194824

> <MMFF_internal_energy>
192.95888630866915

> <docked_smiles>
CC[C@@H]1CN(C(=O)[C@@]12C[N@H+](Cc3c2cc(cc3)Cl)CC(=O)NC)c4cncc5c4cccc5

$$$$
VLA-UCB-34f3ed0c-14_1
  -OEChem-12272114573D

 60 65  0     1  0  0  0  0  0999 V2000
    3.3432    2.6279   20.4411 C   0  0  0  0  0  0  0  0  0  0  0  0
    3.8960    1.9291   21.5050 C   0  0  0  0  0  0  0  0  0  0  0  0
    3.7865    2.4205   19.1660 C   0  0  0  0  0  0  0  0  0  0  0  0
    4.8973    1.0233   21.2988 C   0  0  0  0  0  0  0  0  0  0  0  0
   12.0765    0.0316   24.1541 C   0  0  0  0  0  0  0  0  0  0  0  0
   12.9132   -0.6032   23.2569 C   0  0  0  0  0  0  0  0  0  0  0  0
   10.9991   -1.4331   22.0443 C   0  0  0  0  0  0  0  0  0  0  0  0
    5.3278    1.2339   17.6066 C   0  0  0  0  0  0  0  0  0  0  0  0
    6.8438   -0.2892   18.3752 C   0  0  0  0  0  0  0  0  0  0  0  0
    4.8226    1.4906   18.9054 C   0  0  0  0  0  0  0  0  0  0  0  0
    5.3982    0.7733   19.9948 C   0  0  0  0  0  0  0  0  0  0  0  0
   10.1406   -0.7765   22.9250 C   0  0  0  0  0  0  0  0  0  0  0  0
    6.4440   -0.1472   19.6979 C   0  0  0  0  0  0  0  0  0  0  0  0
   10.7040   -0.0625   23.9898 C   0  0  0  0  0  0  0  0  0  0  0  0
   12.3683   -1.3298   22.2234 C   0  0  0  0  0  0  0  0  0  0  0  0
    8.2490    0.0169   21.4271 C   0  0  0  0  0  0  0  0  0  0  0  0
    6.9866   -1.9366   21.3580 C   0  0  0  0  0  0  0  0  0  0  0  0
    7.1087   -4.0681   27.2527 C   0  0  0  0  0  0  0  0  0  0  0  0
    6.3113   -3.0402   26.4559 C   0  0  0  0  0  0  0  0  0  0  0  0
    8.5957   -4.0071   26.9174 C   0  0  0  0  0  0  0  0  0  0  0  0
    6.5530   -3.1802   24.9547 C   0  0  0  0  0  0  0  0  0  0  0  0
    8.8412   -4.1486   25.4169 C   0  0  0  0  0  0  0  0  0  0  0  0
    7.8721   -0.1194   23.8831 C   0  0  0  0  0  0  0  0  0  0  0  0
    8.6609    1.0133   24.4995 C   0  0  0  0  0  0  0  0  0  0  0  0
    8.0474   -3.1104   24.6125 C   0  0  0  0  0  0  0  0  0  0  0  0
    8.6238   -0.7606   22.6929 C   0  0  2  0  0  0  0  0  0  0  0  0
    8.2673   -3.3062   23.1136 C   0  0  0  0  0  0  0  0  0  0  0  0
    6.3062    0.3769   17.3421 N   0  0  0  0  0  0  0  0  0  0  0  0
    7.2292   -0.6897   20.7790 N   0  0  0  0  0  0  0  0  0  0  0  0
    8.0140   -2.1541   22.4331 N   0  0  0  0  0  0  0  0  0  0  0  0
    8.8016    1.0414   21.0847 O   0  0  0  0  0  0  0  0  0  0  0  0
    6.1144   -2.7515   21.1388 O   0  0  0  0  0  0  0  0  0  0  0  0
    9.9479    0.5589   24.9534 O   0  0  0  0  0  0  0  0  0  0  0  0
   13.4262   -2.1470   21.1121 Cl  0  0  0  0  0  0  0  0  0  0  0  0
    2.5432    3.3510   20.6369 H   0  0  0  0  0  0  0  0  0  0  0  0
    3.5174    2.1137   22.5168 H   0  0  0  0  0  0  0  0  0  0  0  0
    3.3409    2.9743   18.3364 H   0  0  0  0  0  0  0  0  0  0  0  0
    5.3118    0.4895   22.1572 H   0  0  0  0  0  0  0  0  0  0  0  0
   12.4997    0.6069   24.9723 H   0  0  0  0  0  0  0  0  0  0  0  0
   13.9909   -0.5152   23.3780 H   0  0  0  0  0  0  0  0  0  0  0  0
   10.6017   -2.0254   21.2306 H   0  0  0  0  0  0  0  0  0  0  0  0
    4.9141    1.7511   16.7474 H   0  0  0  0  0  0  0  0  0  0  0  0
    7.6445   -0.9764   18.1043 H   0  0  0  0  0  0  0  0  0  0  0  0
    6.9652   -3.8952   28.3253 H   0  0  0  0  0  0  0  0  0  0  0  0
    6.7270   -5.0733   27.0356 H   0  0  0  0  0  0  0  0  0  0  0  0
    5.2429   -3.1571   26.6701 H   0  0  0  0  0  0  0  0  0  0  0  0
    6.5928   -2.0300   26.7779 H   0  0  0  0  0  0  0  0  0  0  0  0
    9.0101   -3.0532   27.2664 H   0  0  0  0  0  0  0  0  0  0  0  0
    9.1267   -4.8011   27.4546 H   0  0  0  0  0  0  0  0  0  0  0  0
    6.1353   -4.1351   24.6104 H   0  0  0  0  0  0  0  0  0  0  0  0
    6.0103   -2.3878   24.4254 H   0  0  0  0  0  0  0  0  0  0  0  0
    9.9133   -4.0395   25.2140 H   0  0  0  0  0  0  0  0  0  0  0  0
    8.5599   -5.1611   25.1001 H   0  0  0  0  0  0  0  0  0  0  0  0
    7.7129   -0.8754   24.6698 H   0  0  0  0  0  0  0  0  0  0  0  0
    6.8746    0.2355   23.5743 H   0  0  0  0  0  0  0  0  0  0  0  0
    8.8013    1.8559   23.8158 H   0  0  0  0  0  0  0  0  0  0  0  0
    8.1340    1.3960   25.3781 H   0  0  0  0  0  0  0  0  0  0  0  0
    8.4193   -2.1115   24.8655 H   0  0  0  0  0  0  0  0  0  0  0  0
    9.3106   -3.6084   22.9403 H   0  0  0  0  0  0  0  0  0  0  0  0
    7.5920   -4.0955   22.7518 H   0  0  0  0  0  0  0  0  0  0  0  0
  1  2  1  0  0  0  0
  1  3  2  0  0  0  0
  2  4  2  0  0  0  0
  3 10  1  0  0  0  0
  4 11  1  0  0  0  0
  5  6  1  0  0  0  0
  5 14  2  0  0  0  0
  6 15  2  0  0  0  0
  7 12  2  0  0  0  0
  7 15  1  0  0  0  0
  8 10  2  0  0  0  0
  8 28  1  0  0  0  0
  9 13  1  0  0  0  0
  9 28  2  0  0  0  0
 10 11  1  0  0  0  0
 11 13  2  0  0  0  0
 12 14  1  0  0  0  0
 12 26  1  6  0  0  0
 13 29  1  0  0  0  0
 14 33  1  0  0  0  0
 15 34  1  0  0  0  0
 16 26  1  1  0  0  0
 16 29  1  0  0  0  0
 16 31  2  0  0  0  0
 17 29  1  0  0  0  0
 17 30  1  0  0  0  0
 17 32  2  0  0  0  0
 18 19  1  0  0  0  0
 18 20  1  0  0  0  0
 19 21  1  0  0  0  0
 20 22  1  0  0  0  0
 21 25  1  0  0  0  0
 22 25  1  0  0  0  0
 23 24  1  0  0  0  0
 23 26  1  1  0  0  0
 24 33  1  0  0  0  0
 25 27  1  0  0  0  0
 26 30  1  6  0  0  0
 27 30  1  0  0  0  0
  1 35  1  0  0  0  0
  2 36  1  0  0  0  0
  3 37  1  0  0  0  0
  4 38  1  0  0  0  0
  5 39  1  0  0  0  0
  6 40  1  0  0  0  0
  7 41  1  0  0  0  0
  8 42  1  0  0  0  0
  9 43  1  0  0  0  0
 18 44  1  0  0  0  0
 18 45  1  0  0  0  0
 19 46  1  0  0  0  0
 19 47  1  0  0  0  0
 20 48  1  0  0  0  0
 20 49  1  0  0  0  0
 21 50  1  0  0  0  0
 21 51  1  0  0  0  0
 22 52  1  0  0  0  0
 22 53  1  0  0  0  0
 23 54  1  0  0  0  0
 23 55  1  0  0  0  0
 24 56  1  0  0  0  0
 24 57  1  0  0  0  0
 25 58  1  0  0  0  0
 27 59  1  0  0  0  0
 27 60  1  0  0  0  0
M  END
> <compound>
VLA-UCB-34f3ed0c-14

> <compound_smiles>
c1ccc2c(c1)cncc2N3C(=O)[C@@]4(CCOc5c4cc(cc5)Cl)N(C3=O)CC6CCCCC6

> <enantiomer_smiles>
c1ccc2c(c1)cncc2N3C(=O)[C@@]4(CCOc5c4cc(cc5)Cl)N(C3=O)CC6CCCCC6

> <scaffold>
chromane-5spiro-isoquinoline

> <clash_score>
0

> <docking_score>
-9.87397575378418

> <overlap_score>
1.0

> <MMFF_internal_energy>
96.9012600075801

> <docked_smiles>
c1ccc2c(c1)cncc2N3C(=O)[C@@]4(CCOc5c4cc(cc5)Cl)N(C3=O)CC6CCCCC6

$$$$
MAT-POS-50a80394-5_4
  -OEChem-12272114573D

 61 65  0     1  0  0  0  0  0999 V2000
    3.3432    2.6279   20.4411 C   0  0  0  0  0  0  0  0  0  0  0  0
    3.8960    1.9291   21.5050 C   0  0  0  0  0  0  0  0  0  0  0  0
    3.7865    2.4205   19.1660 C   0  0  0  0  0  0  0  0  0  0  0  0
    4.8973    1.0233   21.2988 C   0  0  0  0  0  0  0  0  0  0  0  0
   12.0765    0.0316   24.1541 C   0  0  0  0  0  0  0  0  0  0  0  0
   12.9132   -0.6032   23.2569 C   0  0  0  0  0  0  0  0  0  0  0  0
   10.9991   -1.4331   22.0443 C   0  0  0  0  0  0  0  0  0  0  0  0
    5.3278    1.2339   17.6066 C   0  0  0  0  0  0  0  0  0  0  0  0
    6.8438   -0.2892   18.3752 C   0  0  0  0  0  0  0  0  0  0  0  0
    4.8226    1.4906   18.9054 C   0  0  0  0  0  0  0  0  0  0  0  0
    5.3982    0.7733   19.9948 C   0  0  0  0  0  0  0  0  0  0  0  0
   10.7040   -0.0625   23.9898 C   0  0  0  0  0  0  0  0  0  0  0  0
   10.1406   -0.7765   22.9250 C   0  0  0  0  0  0  0  0  0  0  0  0
    6.4440   -0.1472   19.6979 C   0  0  0  0  0  0  0  0  0  0  0  0
   12.3683   -1.3298   22.2234 C   0  0  0  0  0  0  0  0  0  0  0  0
    8.2490    0.0169   21.4271 C   0  0  0  0  0  0  0  0  0  0  0  0
    6.7896    2.5939   24.9849 C   0  0  0  0  0  0  0  0  0  0  0  0
    9.9479    0.5589   24.9534 C   0  0  0  0  0  0  0  0  0  0  0  0
    6.9866   -1.9366   21.3580 C   0  0  0  0  0  0  0  0  0  0  0  0
    7.8721   -0.1194   23.8831 C   0  0  0  0  0  0  0  0  0  0  0  0
    8.0140   -2.1541   22.4331 C   0  0  1  0  0  0  0  0  0  0  0  0
    8.6238   -0.7606   22.6929 C   0  0  3  0  0  0  0  0  0  0  0  0
    6.7979   -4.1871   23.2864 C   0  0  0  0  0  0  0  0  0  0  0  0
    6.5129    4.5813   23.5318 C   0  0  0  0  0  0  0  0  0  0  0  0
    7.8603    1.7137   25.5791 C   0  0  0  0  0  0  0  0  0  0  0  0
    7.4343   -2.8852   23.6536 C   0  0  0  0  0  0  0  0  0  0  0  0
    6.3062    0.3769   17.3421 N   0  0  0  0  0  0  0  0  0  0  0  0
    7.2292   -0.6897   20.7790 N   0  0  0  0  0  0  0  0  0  0  0  0
    7.3342    3.6070   24.2100 N   0  0  0  0  0  0  0  0  0  0  0  0
    8.6609    1.0133   24.4995 N   0  3  2  0  0  0  0  0  0  0  0  0
    8.7541    1.0950   21.1300 O   0  0  0  0  0  0  0  0  0  0  0  0
    5.5893    2.4172   25.1752 O   0  0  0  0  0  0  0  0  0  0  0  0
   13.4290   -2.1352   21.1063 Cl  0  0  0  0  0  0  0  0  0  0  0  0
    2.5432    3.3510   20.6369 H   0  0  0  0  0  0  0  0  0  0  0  0
    3.5174    2.1137   22.5168 H   0  0  0  0  0  0  0  0  0  0  0  0
    3.3409    2.9743   18.3364 H   0  0  0  0  0  0  0  0  0  0  0  0
    5.3118    0.4895   22.1572 H   0  0  0  0  0  0  0  0  0  0  0  0
   12.5037    0.6050   24.9685 H   0  0  0  0  0  0  0  0  0  0  0  0
   13.9917   -0.5076   23.3724 H   0  0  0  0  0  0  0  0  0  0  0  0
   10.6200   -2.0055   21.2143 H   0  0  0  0  0  0  0  0  0  0  0  0
    4.9141    1.7511   16.7474 H   0  0  0  0  0  0  0  0  0  0  0  0
    7.6445   -0.9764   18.1043 H   0  0  0  0  0  0  0  0  0  0  0  0
    9.7639   -0.1157   25.8326 H   0  0  0  0  0  0  0  0  0  0  0  0
   10.4569    1.4697   25.3678 H   0  0  0  0  0  0  0  0  0  0  0  0
    7.0295   -2.7476   20.5870 H   0  0  0  0  0  0  0  0  0  0  0  0
    5.9426   -1.9527   21.7621 H   0  0  0  0  0  0  0  0  0  0  0  0
    6.9005    0.3073   23.5788 H   0  0  0  0  0  0  0  0  0  0  0  0
    7.6858   -0.8331   24.7040 H   0  0  0  0  0  0  0  0  0  0  0  0
    8.7685   -2.8434   22.0120 H   0  0  0  0  0  0  0  0  0  0  0  0
    5.9923   -4.0142   22.5632 H   0  0  0  0  0  0  0  0  0  0  0  0
    6.3646   -4.6715   24.1679 H   0  0  0  0  0  0  0  0  0  0  0  0
    7.5281   -4.8616   22.8268 H   0  0  0  0  0  0  0  0  0  0  0  0
    6.2852    4.2262   22.5159 H   0  0  0  0  0  0  0  0  0  0  0  0
    5.5753    4.7221   24.0896 H   0  0  0  0  0  0  0  0  0  0  0  0
    7.0521    5.5382   23.4734 H   0  0  0  0  0  0  0  0  0  0  0  0
    7.4118    0.9221   26.1858 H   0  0  0  0  0  0  0  0  0  0  0  0
    8.5520    2.3095   26.1811 H   0  0  0  0  0  0  0  0  0  0  0  0
    8.2374   -3.0630   24.3754 H   0  0  0  0  0  0  0  0  0  0  0  0
    6.6934   -2.2411   24.1369 H   0  0  0  0  0  0  0  0  0  0  0  0
    8.3436    3.6893   24.1287 H   0  0  0  0  0  0  0  0  0  0  0  0
    8.7897    1.7273   23.7542 H   0  0  0  0  0  0  0  0  0  0  0  0
  1  2  1  0  0  0  0
  1  3  2  0  0  0  0
  2  4  2  0  0  0  0
  3 10  1  0  0  0  0
  4 11  1  0  0  0  0
  5  6  1  0  0  0  0
  5 12  2  0  0  0  0
  6 15  2  0  0  0  0
  7 13  2  0  0  0  0
  7 15  1  0  0  0  0
  8 10  2  0  0  0  0
  8 27  1  0  0  0  0
  9 14  1  0  0  0  0
  9 27  2  0  0  0  0
 10 11  1  0  0  0  0
 11 14  2  0  0  0  0
 12 13  1  0  0  0  0
 12 18  1  0  0  0  0
 13 22  1  0  0  0  0
 14 28  1  0  0  0  0
 15 33  1  0  0  0  0
 16 22  1  0  0  0  0
 16 28  1  0  0  0  0
 16 31  2  0  0  0  0
 17 25  1  0  0  0  0
 17 29  1  0  0  0  0
 17 32  2  0  0  0  0
 18 30  1  0  0  0  0
 19 21  1  0  0  0  0
 19 28  1  0  0  0  0
 20 22  1  0  0  0  0
 20 30  1  0  0  0  0
 21 22  1  0  0  0  0
 21 26  1  6  0  0  0
 23 26  1  0  0  0  0
 24 29  1  0  0  0  0
 25 30  1  6  0  0  0
  1 34  1  0  0  0  0
  2 35  1  0  0  0  0
  3 36  1  0  0  0  0
  4 37  1  0  0  0  0
  5 38  1  0  0  0  0
  6 39  1  0  0  0  0
  7 40  1  0  0  0  0
  8 41  1  0  0  0  0
  9 42  1  0  0  0  0
 18 43  1  0  0  0  0
 18 44  1  0  0  0  0
 19 45  1  0  0  0  0
 19 46  1  0  0  0  0
 20 47  1  0  0  0  0
 20 48  1  0  0  0  0
 21 49  1  0  0  0  0
 23 50  1  0  0  0  0
 23 51  1  0  0  0  0
 23 52  1  0  0  0  0
 24 53  1  0  0  0  0
 24 54  1  0  0  0  0
 24 55  1  0  0  0  0
 25 56  1  0  0  0  0
 25 57  1  0  0  0  0
 26 58  1  0  0  0  0
 26 59  1  0  0  0  0
 29 60  1  0  0  0  0
 30 61  1  0  0  0  0
M  CHG  1  30   1
M  END
> <compound>
MAT-POS-50a80394-5

> <compound_smiles>
CCC1CN(C(=O)C12CN(Cc3c2cc(cc3)Cl)CC(=O)NC)c4cncc5c4cccc5

> <enantiomer_smiles>
CC[C@H]1CN(C(=O)C12C[N@](Cc3c2cc(cc3)Cl)CC(=O)NC)c4cncc5c4cccc5

> <scaffold>
tetrahydroisoquinoline-5spiro-isoquinoline

> <clash_score>
0

> <docking_score>
-9.662650108337402

> <overlap_score>
0.9853149056434631

> <MMFF_internal_energy>
167.1495093233692

> <docked_smiles>
CC[C@H]1CN(C(=O)[C@@]12C[N@H+](Cc3c2cc(cc3)Cl)CC(=O)NC)c4cncc5c4cccc5

$$$$
EDJ-MED-ede5c6cb-1_1
  -OEChem-12272114573D

 53 57  0     1  0  0  0  0  0999 V2000
    4.8973    1.0233   21.2988 C   0  0  0  0  0  0  0  0  0  0  0  0
    3.8960    1.9291   21.5050 C   0  0  0  0  0  0  0  0  0  0  0  0
   12.0765    0.0316   24.1541 C   0  0  0  0  0  0  0  0  0  0  0  0
   12.9132   -0.6032   23.2569 C   0  0  0  0  0  0  0  0  0  0  0  0
    3.7865    2.4205   19.1660 C   0  0  0  0  0  0  0  0  0  0  0  0
   10.9991   -1.4331   22.0443 C   0  0  0  0  0  0  0  0  0  0  0  0
    5.3278    1.2339   17.6066 C   0  0  0  0  0  0  0  0  0  0  0  0
    6.8438   -0.2892   18.3752 C   0  0  0  0  0  0  0  0  0  0  0  0
    5.3982    0.7733   19.9948 C   0  0  0  0  0  0  0  0  0  0  0  0
    4.8226    1.4906   18.9054 C   0  0  0  0  0  0  0  0  0  0  0  0
   10.1406   -0.7765   22.9250 C   0  0  0  0  0  0  0  0  0  0  0  0
    6.4440   -0.1472   19.6979 C   0  0  0  0  0  0  0  0  0  0  0  0
    3.3432    2.6279   20.4411 C   0  0  0  0  0  0  0  0  0  0  0  0
   10.7040   -0.0625   23.9898 C   0  0  0  0  0  0  0  0  0  0  0  0
   12.3683   -1.3298   22.2234 C   0  0  0  0  0  0  0  0  0  0  0  0
    8.2490    0.0169   21.4271 C   0  0  0  0  0  0  0  0  0  0  0  0
    8.0140   -2.1541   22.4331 C   0  0  0  0  0  0  0  0  0  0  0  0
    7.8721   -0.1194   23.8831 C   0  0  0  0  0  0  0  0  0  0  0  0
    6.9866   -1.9366   21.3580 C   0  0  0  0  0  0  0  0  0  0  0  0
    8.6609    1.0133   24.4995 C   0  0  0  0  0  0  0  0  0  0  0  0
    8.6238   -0.7606   22.6929 C   0  0  3  0  0  0  0  0  0  0  0  0
   -0.1059    3.5898   21.9018 C   0  0  0  0  0  0  0  0  0  0  0  0
    6.3062    0.3769   17.3421 N   0  0  0  0  0  0  0  0  0  0  0  0
    7.2292   -0.6897   20.7790 N   0  0  0  0  0  0  0  0  0  0  0  0
    2.2936    3.5769   20.6955 N   0  0  0  0  0  0  0  0  0  0  0  0
    8.7559    1.0937   21.1315 O   0  0  0  0  0  0  0  0  0  0  0  0
   10.7450    1.7883   25.4928 O   0  0  0  0  0  0  0  0  0  0  0  0
    9.7102   -0.4301   26.1384 O   0  0  0  0  0  0  0  0  0  0  0  0
    0.1336    3.9486   19.3364 O   0  0  0  0  0  0  0  0  0  0  0  0
    0.5690    1.6528   20.2769 O   0  0  0  0  0  0  0  0  0  0  0  0
    9.9479    0.5589   24.9534 S   0  0  0  0  0  0  0  0  0  0  0  0
    0.6706    3.0950   20.3797 S   0  0  0  0  0  0  0  0  0  0  0  0
   13.4291   -2.1444   21.1126 Cl  0  0  0  0  0  0  0  0  0  0  0  0
    5.3115    0.4893   22.1569 H   0  0  0  0  0  0  0  0  0  0  0  0
    3.5248    2.1066   22.5217 H   0  0  0  0  0  0  0  0  0  0  0  0
   12.5120    0.5953   24.9760 H   0  0  0  0  0  0  0  0  0  0  0  0
   13.9915   -0.5226   23.3833 H   0  0  0  0  0  0  0  0  0  0  0  0
    3.3477    2.9700   18.3285 H   0  0  0  0  0  0  0  0  0  0  0  0
   10.6108   -2.0222   21.2304 H   0  0  0  0  0  0  0  0  0  0  0  0
    4.9135    1.7517   16.7479 H   0  0  0  0  0  0  0  0  0  0  0  0
    7.6449   -0.9757   18.1043 H   0  0  0  0  0  0  0  0  0  0  0  0
    7.5775   -2.6140   23.3286 H   0  0  0  0  0  0  0  0  0  0  0  0
    8.7708   -2.8631   22.0636 H   0  0  0  0  0  0  0  0  0  0  0  0
    7.6611   -0.8658   24.6526 H   0  0  0  0  0  0  0  0  0  0  0  0
    6.9006    0.2556   23.5459 H   0  0  0  0  0  0  0  0  0  0  0  0
    7.0227   -2.7503   20.5949 H   0  0  0  0  0  0  0  0  0  0  0  0
    5.9552   -1.9482   21.7828 H   0  0  0  0  0  0  0  0  0  0  0  0
    8.7031    1.8245   23.7055 H   0  0  0  0  0  0  0  0  0  0  0  0
    7.9987    1.4859   25.2931 H   0  0  0  0  0  0  0  0  0  0  0  0
   -1.1664    3.3396   21.8446 H   0  0  0  0  0  0  0  0  0  0  0  0
    0.3704    3.0510   22.7223 H   0  0  0  0  0  0  0  0  0  0  0  0
    0.0272    4.6659   22.0223 H   0  0  0  0  0  0  0  0  0  0  0  0
    2.5190    4.5435   20.4075 H   0  0  0  0  0  0  0  0  0  0  0  0
  1  2  2  0  0  0  0
  1  9  1  0  0  0  0
  2 13  1  0  0  0  0
  3  4  1  0  0  0  0
  3 14  2  0  0  0  0
  4 15  2  0  0  0  0
  5 10  1  0  0  0  0
  5 13  2  0  0  0  0
  6 11  2  0  0  0  0
  6 15  1  0  0  0  0
  7 10  2  0  0  0  0
  7 23  1  0  0  0  0
  8 12  1  0  0  0  0
  8 23  2  0  0  0  0
  9 10  1  0  0  0  0
  9 12  2  0  0  0  0
 11 14  1  0  0  0  0
 11 21  1  0  0  0  0
 12 24  1  0  0  0  0
 13 25  1  0  0  0  0
 14 31  1  0  0  0  0
 15 33  1  0  0  0  0
 16 21  1  0  0  0  0
 16 24  1  0  0  0  0
 16 26  2  0  0  0  0
 17 19  1  0  0  0  0
 17 21  1  0  0  0  0
 18 20  1  0  0  0  0
 18 21  1  0  0  0  0
 19 24  1  0  0  0  0
 20 31  1  0  0  0  0
 22 32  1  0  0  0  0
 25 32  1  0  0  0  0
 27 31  2  0  0  0  0
 28 31  2  0  0  0  0
 29 32  2  0  0  0  0
 30 32  2  0  0  0  0
  1 34  1  0  0  0  0
  2 35  1  0  0  0  0
  3 36  1  0  0  0  0
  4 37  1  0  0  0  0
  5 38  1  0  0  0  0
  6 39  1  0  0  0  0
  7 40  1  0  0  0  0
  8 41  1  0  0  0  0
 17 42  1  0  0  0  0
 17 43  1  0  0  0  0
 18 44  1  0  0  0  0
 18 45  1  0  0  0  0
 19 46  1  0  0  0  0
 19 47  1  0  0  0  0
 20 48  1  0  0  0  0
 20 49  1  0  0  0  0
 22 50  1  0  0  0  0
 22 51  1  0  0  0  0
 22 52  1  0  0  0  0
 25 53  1  0  0  0  0
M  END
> <compound>
EDJ-MED-ede5c6cb-1

> <compound_smiles>
CS(=O)(=O)Nc1ccc2c(c1)cncc2N3CCC4(C3=O)CCS(=O)(=O)c5c4cc(cc5)Cl

> <enantiomer_smiles>
CS(=O)(=O)Nc1ccc2c(c1)cncc2N3CCC4(C3=O)CCS(=O)(=O)c5c4cc(cc5)Cl

> <scaffold>
tetralinlike-5spiro-isoquinoline

> <clash_score>
0.7168170439667734

> <docking_score>
-8.637940406799316

> <overlap_score>
1.0

> <MMFF_internal_energy>
242.38625189623673

> <docked_smiles>
CS(=O)(=O)Nc1ccc2c(c1)cncc2N3CC[C@@]4(C3=O)CCS(=O)(=O)c5c4cc(cc5)Cl

$$$$
LUO-POS-8c3e556a-1_1
  -OEChem-12272114573D

 53 57  0     1  0  0  0  0  0999 V2000
    3.7865    2.4205   19.1660 C   0  0  0  0  0  0  0  0  0  0  0  0
   12.0765    0.0316   24.1541 C   0  0  0  0  0  0  0  0  0  0  0  0
    3.3432    2.6279   20.4411 C   0  0  0  0  0  0  0  0  0  0  0  0
   12.9132   -0.6032   23.2569 C   0  0  0  0  0  0  0  0  0  0  0  0
    4.8973    1.0233   21.2988 C   0  0  0  0  0  0  0  0  0  0  0  0
   10.9991   -1.4331   22.0443 C   0  0  0  0  0  0  0  0  0  0  0  0
    5.3278    1.2339   17.6066 C   0  0  0  0  0  0  0  0  0  0  0  0
    6.8438   -0.2892   18.3752 C   0  0  0  0  0  0  0  0  0  0  0  0
    4.8226    1.4906   18.9054 C   0  0  0  0  0  0  0  0  0  0  0  0
    5.3982    0.7733   19.9948 C   0  0  0  0  0  0  0  0  0  0  0  0
   10.7040   -0.0625   23.9898 C   0  0  0  0  0  0  0  0  0  0  0  0
   10.1406   -0.7765   22.9250 C   0  0  0  0  0  0  0  0  0  0  0  0
    6.4440   -0.1472   19.6979 C   0  0  0  0  0  0  0  0  0  0  0  0
    3.8960    1.9291   21.5050 C   0  0  0  0  0  0  0  0  0  0  0  0
   12.3683   -1.3298   22.2234 C   0  0  0  0  0  0  0  0  0  0  0  0
    9.9479    0.5589   24.9534 C   0  0  0  0  0  0  0  0  0  0  0  0
    8.2490    0.0169   21.4271 C   0  0  0  0  0  0  0  0  0  0  0  0
    8.4681    3.2130   23.6913 C   0  0  0  0  0  0  0  0  0  0  0  0
    8.0140   -2.1541   22.4331 C   0  0  0  0  0  0  0  0  0  0  0  0
    6.9866   -1.9366   21.3580 C   0  0  0  0  0  0  0  0  0  0  0  0
    7.8721   -0.1194   23.8831 C   0  0  0  0  0  0  0  0  0  0  0  0
    8.6238   -0.7606   22.6929 C   0  0  1  0  0  0  0  0  0  0  0  0
   10.2257    4.9007   23.1656 C   0  0  0  0  0  0  0  0  0  0  0  0
    8.0921    2.2235   24.7646 C   0  0  0  0  0  0  0  0  0  0  0  0
    6.3062    0.3769   17.3421 N   0  0  0  0  0  0  0  0  0  0  0  0
    7.2292   -0.6897   20.7790 N   0  0  0  0  0  0  0  0  0  0  0  0
    8.6609    1.0133   24.4995 N   0  0  0  0  0  0  0  0  0  0  0  0
    9.6325    3.8941   24.0162 N   0  0  0  0  0  0  0  0  0  0  0  0
   10.3214    0.7301   26.1092 O   0  0  0  0  0  0  0  0  0  0  0  0
    8.8192    1.0413   21.0783 O   0  0  0  0  0  0  0  0  0  0  0  0
    7.8139    3.3779   22.6651 O   0  0  0  0  0  0  0  0  0  0  0  0
    3.3000    2.2178   23.1047 Cl  0  0  0  0  0  0  0  0  0  0  0  0
   13.4275   -2.1467   21.1136 Cl  0  0  0  0  0  0  0  0  0  0  0  0
    3.3416    2.9748   18.3364 H   0  0  0  0  0  0  0  0  0  0  0  0
   12.5172    0.5961   24.9720 H   0  0  0  0  0  0  0  0  0  0  0  0
    2.5415    3.3543   20.6218 H   0  0  0  0  0  0  0  0  0  0  0  0
   13.9905   -0.5226   23.3828 H   0  0  0  0  0  0  0  0  0  0  0  0
    5.3220    0.4801   22.1475 H   0  0  0  0  0  0  0  0  0  0  0  0
   10.6129   -2.0250   21.2273 H   0  0  0  0  0  0  0  0  0  0  0  0
    4.9132    1.7509   16.7476 H   0  0  0  0  0  0  0  0  0  0  0  0
    7.6448   -0.9761   18.1046 H   0  0  0  0  0  0  0  0  0  0  0  0
    7.5112   -2.5276   23.3392 H   0  0  0  0  0  0  0  0  0  0  0  0
    8.7578   -2.9102   22.1437 H   0  0  0  0  0  0  0  0  0  0  0  0
    7.0588   -2.7254   20.5721 H   0  0  0  0  0  0  0  0  0  0  0  0
    5.9512   -1.9962   21.7710 H   0  0  0  0  0  0  0  0  0  0  0  0
    6.9201    0.3181   23.5738 H   0  0  0  0  0  0  0  0  0  0  0  0
    7.6662   -0.8543   24.6623 H   0  0  0  0  0  0  0  0  0  0  0  0
   10.9370    4.4247   22.4746 H   0  0  0  0  0  0  0  0  0  0  0  0
    9.4362    5.4050   22.5891 H   0  0  0  0  0  0  0  0  0  0  0  0
   10.7553    5.6389   23.7858 H   0  0  0  0  0  0  0  0  0  0  0  0
    8.4387    2.5854   25.7371 H   0  0  0  0  0  0  0  0  0  0  0  0
    7.0056    2.0995   24.7905 H   0  0  0  0  0  0  0  0  0  0  0  0
   10.0907    3.6743   24.8958 H   0  0  0  0  0  0  0  0  0  0  0  0
  1  3  2  0  0  0  0
  1  9  1  0  0  0  0
  2  4  2  0  0  0  0
  2 11  1  0  0  0  0
  3 14  1  0  0  0  0
  4 15  1  0  0  0  0
  5 10  1  0  0  0  0
  5 14  2  0  0  0  0
  6 12  1  0  0  0  0
  6 15  2  0  0  0  0
  7  9  2  0  0  0  0
  7 25  1  0  0  0  0
  8 13  1  0  0  0  0
  8 25  2  0  0  0  0
  9 10  1  0  0  0  0
 10 13  2  0  0  0  0
 11 12  2  0  0  0  0
 11 16  1  0  0  0  0
 12 22  1  1  0  0  0
 13 26  1  0  0  0  0
 14 32  1  0  0  0  0
 15 33  1  0  0  0  0
 16 27  1  0  0  0  0
 16 29  2  0  0  0  0
 17 22  1  1  0  0  0
 17 26  1  0  0  0  0
 17 30  2  0  0  0  0
 18 24  1  0  0  0  0
 18 28  1  0  0  0  0
 18 31  2  0  0  0  0
 19 20  1  0  0  0  0
 19 22  1  6  0  0  0
 20 26  1  0  0  0  0
 21 22  1  6  0  0  0
 21 27  1  0  0  0  0
 23 28  1  0  0  0  0
 24 27  1  0  0  0  0
  1 34  1  0  0  0  0
  2 35  1  0  0  0  0
  3 36  1  0  0  0  0
  4 37  1  0  0  0  0
  5 38  1  0  0  0  0
  6 39  1  0  0  0  0
  7 40  1  0  0  0  0
  8 41  1  0  0  0  0
 19 42  1  0  0  0  0
 19 43  1  0  0  0  0
 20 44  1  0  0  0  0
 20 45  1  0  0  0  0
 21 46  1  0  0  0  0
 21 47  1  0  0  0  0
 23 48  1  0  0  0  0
 23 49  1  0  0  0  0
 23 50  1  0  0  0  0
 24 51  1  0  0  0  0
 24 52  1  0  0  0  0
 28 53  1  0  0  0  0
M  END
> <compound>
LUO-POS-8c3e556a-1

> <compound_smiles>
CNC(=O)CN1C[C@]2(CCN(C2=O)c3cncc4c3cc(cc4)Cl)c5cc(ccc5C1=O)Cl

> <enantiomer_smiles>
CNC(=O)CN1C[C@]2(CCN(C2=O)c3cncc4c3cc(cc4)Cl)c5cc(ccc5C1=O)Cl

> <scaffold>
tetrahydroisoquinoline-5spiro-isoquinoline

> <clash_score>
0

> <docking_score>
-9.891169548034668

> <overlap_score>
1.0

> <MMFF_internal_energy>
157.35189627563489

> <docked_smiles>
CNC(=O)CN1C[C@]2(CCN(C2=O)c3cncc4c3cc(cc4)Cl)c5cc(ccc5C1=O)Cl

$$$$
EDJ-MED-b6c6ee2b-2_1
  -OEChem-12272114573D

 59 63  0     1  0  0  0  0  0999 V2000
    3.7865    2.4205   19.1660 C   0  0  0  0  0  0  0  0  0  0  0  0
   12.0765    0.0316   24.1541 C   0  0  0  0  0  0  0  0  0  0  0  0
    3.3432    2.6279   20.4411 C   0  0  0  0  0  0  0  0  0  0  0  0
   12.9132   -0.6032   23.2569 C   0  0  0  0  0  0  0  0  0  0  0  0
    4.8973    1.0233   21.2988 C   0  0  0  0  0  0  0  0  0  0  0  0
   10.9991   -1.4331   22.0443 C   0  0  0  0  0  0  0  0  0  0  0  0
    5.3278    1.2339   17.6066 C   0  0  0  0  0  0  0  0  0  0  0  0
    6.8438   -0.2892   18.3752 C   0  0  0  0  0  0  0  0  0  0  0  0
    4.8226    1.4906   18.9054 C   0  0  0  0  0  0  0  0  0  0  0  0
    5.3982    0.7733   19.9948 C   0  0  0  0  0  0  0  0  0  0  0  0
   10.7040   -0.0625   23.9898 C   0  0  0  0  0  0  0  0  0  0  0  0
   10.1406   -0.7765   22.9250 C   0  0  0  0  0  0  0  0  0  0  0  0
    6.4440   -0.1472   19.6979 C   0  0  0  0  0  0  0  0  0  0  0  0
    3.8960    1.9291   21.5050 C   0  0  0  0  0  0  0  0  0  0  0  0
   12.3683   -1.3298   22.2234 C   0  0  0  0  0  0  0  0  0  0  0  0
    8.2490    0.0169   21.4271 C   0  0  0  0  0  0  0  0  0  0  0  0
    7.3800    2.6707   23.1135 C   0  0  0  0  0  0  0  0  0  0  0  0
    9.9479    0.5589   24.9534 C   0  0  0  0  0  0  0  0  0  0  0  0
    8.0140   -2.1541   22.4331 C   0  0  0  0  0  0  0  0  0  0  0  0
    6.9866   -1.9366   21.3580 C   0  0  0  0  0  0  0  0  0  0  0  0
    7.8721   -0.1194   23.8831 C   0  0  0  0  0  0  0  0  0  0  0  0
    8.6238   -0.7606   22.6929 C   0  0  3  0  0  0  0  0  0  0  0  0
    6.3064    4.4181   21.7238 C   0  0  0  0  0  0  0  0  0  0  0  0
    2.3755    3.1181   22.9018 C   0  0  0  0  0  0  0  0  0  0  0  0
    8.7403    2.1972   23.5605 C   0  0  0  0  0  0  0  0  0  0  0  0
    6.3062    0.3769   17.3421 N   0  0  0  0  0  0  0  0  0  0  0  0
    7.2292   -0.6897   20.7790 N   0  0  0  0  0  0  0  0  0  0  0  0
    7.4727    3.7787   22.2847 N   0  0  0  0  0  0  0  0  0  0  0  0
    8.6609    1.0133   24.4995 N   0  3  2  0  0  0  0  0  0  0  0  0
    8.7573    1.0936   21.1337 O   0  0  0  0  0  0  0  0  0  0  0  0
    6.3322    2.1271   23.4522 O   0  0  0  0  0  0  0  0  0  0  0  0
    3.4227    2.1582   22.7714 O   0  0  0  0  0  0  0  0  0  0  0  0
   13.4273   -2.1424   21.1098 Cl  0  0  0  0  0  0  0  0  0  0  0  0
    3.3406    2.9746   18.3368 H   0  0  0  0  0  0  0  0  0  0  0  0
   12.5019    0.5946   24.9768 H   0  0  0  0  0  0  0  0  0  0  0  0
    2.5407    3.3506   20.6306 H   0  0  0  0  0  0  0  0  0  0  0  0
   13.9911   -0.5203   23.3811 H   0  0  0  0  0  0  0  0  0  0  0  0
    5.3162    0.4858   22.1535 H   0  0  0  0  0  0  0  0  0  0  0  0
   10.6042   -2.0222   21.2286 H   0  0  0  0  0  0  0  0  0  0  0  0
    4.9131    1.7514   16.7479 H   0  0  0  0  0  0  0  0  0  0  0  0
    7.6448   -0.9758   18.1041 H   0  0  0  0  0  0  0  0  0  0  0  0
    9.7388   -0.1131   25.8254 H   0  0  0  0  0  0  0  0  0  0  0  0
   10.4771    1.4544   25.3711 H   0  0  0  0  0  0  0  0  0  0  0  0
    7.5768   -2.6110   23.3318 H   0  0  0  0  0  0  0  0  0  0  0  0
    8.7734   -2.8622   22.0653 H   0  0  0  0  0  0  0  0  0  0  0  0
    7.0225   -2.7503   20.5949 H   0  0  0  0  0  0  0  0  0  0  0  0
    5.9552   -1.9477   21.7830 H   0  0  0  0  0  0  0  0  0  0  0  0
    6.8958    0.3004   23.5785 H   0  0  0  0  0  0  0  0  0  0  0  0
    7.6733   -0.8520   24.6844 H   0  0  0  0  0  0  0  0  0  0  0  0
    6.0820    3.9763   20.7417 H   0  0  0  0  0  0  0  0  0  0  0  0
    5.4486    4.2710   22.3965 H   0  0  0  0  0  0  0  0  0  0  0  0
    6.4995    5.4946   21.6059 H   0  0  0  0  0  0  0  0  0  0  0  0
    2.0934    3.2101   23.9535 H   0  0  0  0  0  0  0  0  0  0  0  0
    1.5139    2.8015   22.3087 H   0  0  0  0  0  0  0  0  0  0  0  0
    2.7315    4.0844   22.5367 H   0  0  0  0  0  0  0  0  0  0  0  0
    9.2580    2.9867   24.1123 H   0  0  0  0  0  0  0  0  0  0  0  0
    9.3353    1.8814   22.6991 H   0  0  0  0  0  0  0  0  0  0  0  0
    8.3848    4.1756   22.0775 H   0  0  0  0  0  0  0  0  0  0  0  0
    8.1123    1.3501   25.3127 H   0  0  0  0  0  0  0  0  0  0  0  0
  1  3  2  0  0  0  0
  1  9  1  0  0  0  0
  2  4  2  0  0  0  0
  2 11  1  0  0  0  0
  3 14  1  0  0  0  0
  4 15  1  0  0  0  0
  5 10  1  0  0  0  0
  5 14  2  0  0  0  0
  6 12  1  0  0  0  0
  6 15  2  0  0  0  0
  7  9  2  0  0  0  0
  7 26  1  0  0  0  0
  8 13  1  0  0  0  0
  8 26  2  0  0  0  0
  9 10  1  0  0  0  0
 10 13  2  0  0  0  0
 11 12  2  0  0  0  0
 11 18  1  0  0  0  0
 12 22  1  0  0  0  0
 13 27  1  0  0  0  0
 14 32  1  0  0  0  0
 15 33  1  0  0  0  0
 16 22  1  0  0  0  0
 16 27  1  0  0  0  0
 16 30  2  0  0  0  0
 17 25  1  0  0  0  0
 17 28  1  0  0  0  0
 17 31  2  0  0  0  0
 18 29  1  0  0  0  0
 19 20  1  0  0  0  0
 19 22  1  0  0  0  0
 20 27  1  0  0  0  0
 21 22  1  0  0  0  0
 21 29  1  0  0  0  0
 23 28  1  0  0  0  0
 24 32  1  0  0  0  0
 25 29  1  1  0  0  0
  1 34  1  0  0  0  0
  2 35  1  0  0  0  0
  3 36  1  0  0  0  0
  4 37  1  0  0  0  0
  5 38  1  0  0  0  0
  6 39  1  0  0  0  0
  7 40  1  0  0  0  0
  8 41  1  0  0  0  0
 18 42  1  0  0  0  0
 18 43  1  0  0  0  0
 19 44  1  0  0  0  0
 19 45  1  0  0  0  0
 20 46  1  0  0  0  0
 20 47  1  0  0  0  0
 21 48  1  0  0  0  0
 21 49  1  0  0  0  0
 23 50  1  0  0  0  0
 23 51  1  0  0  0  0
 23 52  1  0  0  0  0
 24 53  1  0  0  0  0
 24 54  1  0  0  0  0
 24 55  1  0  0  0  0
 25 56  1  0  0  0  0
 25 57  1  0  0  0  0
 28 58  1  0  0  0  0
 29 59  1  0  0  0  0
M  CHG  1  29   1
M  END
> <compound>
EDJ-MED-b6c6ee2b-2

> <compound_smiles>
CNC(=O)CN1Cc2ccc(cc2C3(C1)CCN(C3=O)c4cncc5c4cc(cc5)OC)Cl

> <enantiomer_smiles>
CNC(=O)C[N@@]1Cc2ccc(cc2C3(C1)CCN(C3=O)c4cncc5c4cc(cc5)OC)Cl

> <scaffold>
tetrahydroisoquinoline-5spiro-isoquinoline

> <clash_score>
0

> <docking_score>
-9.326685905456543

> <overlap_score>
0.9909834861755371

> <MMFF_internal_energy>
174.88804058524275

> <docked_smiles>
CNC(=O)C[N@@H+]1Cc2ccc(cc2[C@]3(C1)CCN(C3=O)c4cncc5c4cc(cc5)OC)Cl

$$$$
MAT-POS-50a80394-7_2
  -OEChem-12272114573D

 61 65  0     1  0  0  0  0  0999 V2000
    3.3432    2.6279   20.4411 C   0  0  0  0  0  0  0  0  0  0  0  0
    3.8960    1.9291   21.5050 C   0  0  0  0  0  0  0  0  0  0  0  0
    3.7865    2.4205   19.1660 C   0  0  0  0  0  0  0  0  0  0  0  0
    4.8973    1.0233   21.2988 C   0  0  0  0  0  0  0  0  0  0  0  0
   12.0765    0.0316   24.1541 C   0  0  0  0  0  0  0  0  0  0  0  0
   12.9132   -0.6032   23.2569 C   0  0  0  0  0  0  0  0  0  0  0  0
   10.9991   -1.4331   22.0443 C   0  0  0  0  0  0  0  0  0  0  0  0
    5.3278    1.2339   17.6066 C   0  0  0  0  0  0  0  0  0  0  0  0
    6.8438   -0.2892   18.3752 C   0  0  0  0  0  0  0  0  0  0  0  0
    4.8226    1.4906   18.9054 C   0  0  0  0  0  0  0  0  0  0  0  0
    5.3982    0.7733   19.9948 C   0  0  0  0  0  0  0  0  0  0  0  0
   10.7040   -0.0625   23.9898 C   0  0  0  0  0  0  0  0  0  0  0  0
   10.1406   -0.7765   22.9250 C   0  0  0  0  0  0  0  0  0  0  0  0
    6.4440   -0.1472   19.6979 C   0  0  0  0  0  0  0  0  0  0  0  0
   12.3683   -1.3298   22.2234 C   0  0  0  0  0  0  0  0  0  0  0  0
    8.2490    0.0169   21.4271 C   0  0  0  0  0  0  0  0  0  0  0  0
    6.7995    2.5974   24.9519 C   0  0  0  0  0  0  0  0  0  0  0  0
    9.9479    0.5589   24.9534 C   0  0  0  0  0  0  0  0  0  0  0  0
    6.9866   -1.9366   21.3580 C   0  0  0  0  0  0  0  0  0  0  0  0
    7.8721   -0.1194   23.8831 C   0  0  0  0  0  0  0  0  0  0  0  0
    8.6238   -0.7606   22.6929 C   0  0  3  0  0  0  0  0  0  0  0  0
    8.0140   -2.1541   22.4331 C   0  0  0  0  0  0  0  0  0  0  0  0
    7.3318   -2.8346   23.6592 C   0  0  0  0  0  0  0  0  0  0  0  0
    9.0506   -3.1976   21.8935 C   0  0  0  0  0  0  0  0  0  0  0  0
    6.5421    4.5316   23.4254 C   0  0  0  0  0  0  0  0  0  0  0  0
    7.8609    1.7218   25.5692 C   0  0  0  0  0  0  0  0  0  0  0  0
    6.3062    0.3769   17.3421 N   0  0  0  0  0  0  0  0  0  0  0  0
    7.2292   -0.6897   20.7790 N   0  0  0  0  0  0  0  0  0  0  0  0
    7.3534    3.5697   24.1327 N   0  0  0  0  0  0  0  0  0  0  0  0
    8.6609    1.0133   24.4995 N   0  3  2  0  0  0  0  0  0  0  0  0
    8.7445    1.0960   21.1296 O   0  0  0  0  0  0  0  0  0  0  0  0
    5.5983    2.4498   25.1610 O   0  0  0  0  0  0  0  0  0  0  0  0
   13.4284   -2.1394   21.1093 Cl  0  0  0  0  0  0  0  0  0  0  0  0
    2.5432    3.3510   20.6369 H   0  0  0  0  0  0  0  0  0  0  0  0
    3.5174    2.1137   22.5168 H   0  0  0  0  0  0  0  0  0  0  0  0
    3.3409    2.9743   18.3364 H   0  0  0  0  0  0  0  0  0  0  0  0
    5.3118    0.4895   22.1572 H   0  0  0  0  0  0  0  0  0  0  0  0
   12.5029    0.5889   24.9793 H   0  0  0  0  0  0  0  0  0  0  0  0
   13.9915   -0.5245   23.3843 H   0  0  0  0  0  0  0  0  0  0  0  0
   10.6205   -2.0189   21.2234 H   0  0  0  0  0  0  0  0  0  0  0  0
    4.9141    1.7511   16.7474 H   0  0  0  0  0  0  0  0  0  0  0  0
    7.6445   -0.9764   18.1043 H   0  0  0  0  0  0  0  0  0  0  0  0
    9.7555   -0.1292   25.8120 H   0  0  0  0  0  0  0  0  0  0  0  0
   10.4531    1.4612   25.3755 H   0  0  0  0  0  0  0  0  0  0  0  0
    7.0030   -2.7353   20.5754 H   0  0  0  0  0  0  0  0  0  0  0  0
    5.9441   -1.9412   21.7597 H   0  0  0  0  0  0  0  0  0  0  0  0
    6.8840    0.2782   23.5968 H   0  0  0  0  0  0  0  0  0  0  0  0
    7.6812   -0.8444   24.6970 H   0  0  0  0  0  0  0  0  0  0  0  0
    8.0689   -3.0137   24.4345 H   0  0  0  0  0  0  0  0  0  0  0  0
    6.8863   -3.7749   23.3532 H   0  0  0  0  0  0  0  0  0  0  0  0
    6.5615   -2.1686   24.0328 H   0  0  0  0  0  0  0  0  0  0  0  0
    9.7945   -3.3897   22.6553 H   0  0  0  0  0  0  0  0  0  0  0  0
    9.5186   -2.7753   21.0141 H   0  0  0  0  0  0  0  0  0  0  0  0
    8.5344   -4.1134   21.6375 H   0  0  0  0  0  0  0  0  0  0  0  0
    6.2973    4.1416   22.4264 H   0  0  0  0  0  0  0  0  0  0  0  0
    5.6132    4.7108   23.9867 H   0  0  0  0  0  0  0  0  0  0  0  0
    7.0974    5.4757   23.3244 H   0  0  0  0  0  0  0  0  0  0  0  0
    7.4051    0.9625   26.2107 H   0  0  0  0  0  0  0  0  0  0  0  0
    8.5694    2.3279   26.1405 H   0  0  0  0  0  0  0  0  0  0  0  0
    8.3632    3.6306   24.0382 H   0  0  0  0  0  0  0  0  0  0  0  0
    8.7925    1.7194   23.7558 H   0  0  0  0  0  0  0  0  0  0  0  0
  1  2  1  0  0  0  0
  1  3  2  0  0  0  0
  2  4  2  0  0  0  0
  3 10  1  0  0  0  0
  4 11  1  0  0  0  0
  5  6  1  0  0  0  0
  5 12  2  0  0  0  0
  6 15  2  0  0  0  0
  7 13  2  0  0  0  0
  7 15  1  0  0  0  0
  8 10  2  0  0  0  0
  8 27  1  0  0  0  0
  9 14  1  0  0  0  0
  9 27  2  0  0  0  0
 10 11  1  0  0  0  0
 11 14  2  0  0  0  0
 12 13  1  0  0  0  0
 12 18  1  0  0  0  0
 13 21  1  0  0  0  0
 14 28  1  0  0  0  0
 15 33  1  0  0  0  0
 16 21  1  0  0  0  0
 16 28  1  0  0  0  0
 16 31  2  0  0  0  0
 17 26  1  0  0  0  0
 17 29  1  0  0  0  0
 17 32  2  0  0  0  0
 18 30  1  0  0  0  0
 19 22  1  0  0  0  0
 19 28  1  0  0  0  0
 20 21  1  0  0  0  0
 20 30  1  0  0  0  0
 21 22  1  0  0  0  0
 22 23  1  0  0  0  0
 22 24  1  0  0  0  0
 25 29  1  0  0  0  0
 26 30  1  6  0  0  0
  1 34  1  0  0  0  0
  2 35  1  0  0  0  0
  3 36  1  0  0  0  0
  4 37  1  0  0  0  0
  5 38  1  0  0  0  0
  6 39  1  0  0  0  0
  7 40  1  0  0  0  0
  8 41  1  0  0  0  0
  9 42  1  0  0  0  0
 18 43  1  0  0  0  0
 18 44  1  0  0  0  0
 19 45  1  0  0  0  0
 19 46  1  0  0  0  0
 20 47  1  0  0  0  0
 20 48  1  0  0  0  0
 23 49  1  0  0  0  0
 23 50  1  0  0  0  0
 23 51  1  0  0  0  0
 24 52  1  0  0  0  0
 24 53  1  0  0  0  0
 24 54  1  0  0  0  0
 25 55  1  0  0  0  0
 25 56  1  0  0  0  0
 25 57  1  0  0  0  0
 26 58  1  0  0  0  0
 26 59  1  0  0  0  0
 29 60  1  0  0  0  0
 30 61  1  0  0  0  0
M  CHG  1  30   1
M  END
> <compound>
MAT-POS-50a80394-7

> <compound_smiles>
CC1(CN(C(=O)C12CN(Cc3c2cc(cc3)Cl)CC(=O)NC)c4cncc5c4cccc5)C

> <enantiomer_smiles>
CC1(CN(C(=O)C12C[N@](Cc3c2cc(cc3)Cl)CC(=O)NC)c4cncc5c4cccc5)C

> <scaffold>
tetrahydroisoquinoline-5spiro-isoquinoline

> <clash_score>
0

> <docking_score>
-8.7235746383667

> <overlap_score>
1.0

> <MMFF_internal_energy>
216.0275983886844

> <docked_smiles>
CC1(CN(C(=O)[C@@]12C[N@H+](Cc3c2cc(cc3)Cl)CC(=O)NC)c4cncc5c4cccc5)C

$$$$
LUO-POS-8c3e556a-2_1
  -OEChem-12272114573D

 53 57  0     1  0  0  0  0  0999 V2000
    3.7865    2.4205   19.1660 C   0  0  0  0  0  0  0  0  0  0  0  0
   12.0765    0.0316   24.1541 C   0  0  0  0  0  0  0  0  0  0  0  0
    3.3432    2.6279   20.4411 C   0  0  0  0  0  0  0  0  0  0  0  0
   12.9132   -0.6032   23.2569 C   0  0  0  0  0  0  0  0  0  0  0  0
    4.8973    1.0233   21.2988 C   0  0  0  0  0  0  0  0  0  0  0  0
   10.9991   -1.4331   22.0443 C   0  0  0  0  0  0  0  0  0  0  0  0
    5.3278    1.2339   17.6066 C   0  0  0  0  0  0  0  0  0  0  0  0
    6.8438   -0.2892   18.3752 C   0  0  0  0  0  0  0  0  0  0  0  0
    4.8226    1.4906   18.9054 C   0  0  0  0  0  0  0  0  0  0  0  0
    5.3982    0.7733   19.9948 C   0  0  0  0  0  0  0  0  0  0  0  0
   10.7040   -0.0625   23.9898 C   0  0  0  0  0  0  0  0  0  0  0  0
   10.1406   -0.7765   22.9250 C   0  0  0  0  0  0  0  0  0  0  0  0
    6.4440   -0.1472   19.6979 C   0  0  0  0  0  0  0  0  0  0  0  0
    3.8960    1.9291   21.5050 C   0  0  0  0  0  0  0  0  0  0  0  0
   12.3683   -1.3298   22.2234 C   0  0  0  0  0  0  0  0  0  0  0  0
    9.9479    0.5589   24.9534 C   0  0  0  0  0  0  0  0  0  0  0  0
    8.2490    0.0169   21.4271 C   0  0  0  0  0  0  0  0  0  0  0  0
    8.4870    3.2066   23.6987 C   0  0  0  0  0  0  0  0  0  0  0  0
    8.0140   -2.1541   22.4331 C   0  0  0  0  0  0  0  0  0  0  0  0
    6.9866   -1.9366   21.3580 C   0  0  0  0  0  0  0  0  0  0  0  0
    7.8721   -0.1194   23.8831 C   0  0  0  0  0  0  0  0  0  0  0  0
    8.6238   -0.7606   22.6929 C   0  0  2  0  0  0  0  0  0  0  0  0
   10.2730    4.8679   23.1851 C   0  0  0  0  0  0  0  0  0  0  0  0
    8.0879    2.2244   24.7703 C   0  0  0  0  0  0  0  0  0  0  0  0
    6.3062    0.3769   17.3421 N   0  0  0  0  0  0  0  0  0  0  0  0
    7.2292   -0.6897   20.7790 N   0  0  0  0  0  0  0  0  0  0  0  0
    8.6609    1.0133   24.4995 N   0  0  0  0  0  0  0  0  0  0  0  0
    9.6583    3.8714   24.0322 N   0  0  0  0  0  0  0  0  0  0  0  0
   10.3228    0.7291   26.1107 O   0  0  0  0  0  0  0  0  0  0  0  0
    8.7579    1.0937   21.1353 O   0  0  0  0  0  0  0  0  0  0  0  0
    7.8438    3.3792   22.6668 O   0  0  0  0  0  0  0  0  0  0  0  0
    3.3000    2.2178   23.1047 Cl  0  0  0  0  0  0  0  0  0  0  0  0
   13.4283   -2.1376   21.1077 Cl  0  0  0  0  0  0  0  0  0  0  0  0
    3.3416    2.9748   18.3364 H   0  0  0  0  0  0  0  0  0  0  0  0
   12.5172    0.5915   24.9751 H   0  0  0  0  0  0  0  0  0  0  0  0
    2.5415    3.3543   20.6218 H   0  0  0  0  0  0  0  0  0  0  0  0
   13.9905   -0.5158   23.3787 H   0  0  0  0  0  0  0  0  0  0  0  0
    5.3220    0.4801   22.1475 H   0  0  0  0  0  0  0  0  0  0  0  0
   10.6132   -2.0175   21.2218 H   0  0  0  0  0  0  0  0  0  0  0  0
    4.9132    1.7509   16.7476 H   0  0  0  0  0  0  0  0  0  0  0  0
    7.6448   -0.9761   18.1046 H   0  0  0  0  0  0  0  0  0  0  0  0
    7.5776   -2.6154   23.3305 H   0  0  0  0  0  0  0  0  0  0  0  0
    8.7844   -2.8460   22.0575 H   0  0  0  0  0  0  0  0  0  0  0  0
    7.0224   -2.7511   20.5952 H   0  0  0  0  0  0  0  0  0  0  0  0
    5.9553   -1.9486   21.7839 H   0  0  0  0  0  0  0  0  0  0  0  0
    6.9018    0.2704   23.5732 H   0  0  0  0  0  0  0  0  0  0  0  0
    7.7050   -0.8358   24.6904 H   0  0  0  0  0  0  0  0  0  0  0  0
   10.9831    4.3807   22.5007 H   0  0  0  0  0  0  0  0  0  0  0  0
    9.4957    5.3827   22.6012 H   0  0  0  0  0  0  0  0  0  0  0  0
   10.8080    5.5994   23.8085 H   0  0  0  0  0  0  0  0  0  0  0  0
    8.4316    2.5829   25.7451 H   0  0  0  0  0  0  0  0  0  0  0  0
    6.9995    2.1161   24.7873 H   0  0  0  0  0  0  0  0  0  0  0  0
   10.1061    3.6465   24.9159 H   0  0  0  0  0  0  0  0  0  0  0  0
  1  3  2  0  0  0  0
  1  9  1  0  0  0  0
  2  4  2  0  0  0  0
  2 11  1  0  0  0  0
  3 14  1  0  0  0  0
  4 15  1  0  0  0  0
  5 10  1  0  0  0  0
  5 14  2  0  0  0  0
  6 12  1  0  0  0  0
  6 15  2  0  0  0  0
  7  9  2  0  0  0  0
  7 25  1  0  0  0  0
  8 13  1  0  0  0  0
  8 25  2  0  0  0  0
  9 10  1  0  0  0  0
 10 13  2  0  0  0  0
 11 12  2  0  0  0  0
 11 16  1  0  0  0  0
 12 22  1  6  0  0  0
 13 26  1  0  0  0  0
 14 32  1  0  0  0  0
 15 33  1  0  0  0  0
 16 27  1  0  0  0  0
 16 29  2  0  0  0  0
 17 22  1  6  0  0  0
 17 26  1  0  0  0  0
 17 30  2  0  0  0  0
 18 24  1  0  0  0  0
 18 28  1  0  0  0  0
 18 31  2  0  0  0  0
 19 20  1  0  0  0  0
 19 22  1  1  0  0  0
 20 26  1  0  0  0  0
 21 22  1  1  0  0  0
 21 27  1  0  0  0  0
 23 28  1  0  0  0  0
 24 27  1  0  0  0  0
  1 34  1  0  0  0  0
  2 35  1  0  0  0  0
  3 36  1  0  0  0  0
  4 37  1  0  0  0  0
  5 38  1  0  0  0  0
  6 39  1  0  0  0  0
  7 40  1  0  0  0  0
  8 41  1  0  0  0  0
 19 42  1  0  0  0  0
 19 43  1  0  0  0  0
 20 44  1  0  0  0  0
 20 45  1  0  0  0  0
 21 46  1  0  0  0  0
 21 47  1  0  0  0  0
 23 48  1  0  0  0  0
 23 49  1  0  0  0  0
 23 50  1  0  0  0  0
 24 51  1  0  0  0  0
 24 52  1  0  0  0  0
 28 53  1  0  0  0  0
M  END
> <compound>
LUO-POS-8c3e556a-2

> <compound_smiles>
CNC(=O)CN1C[C@@]2(CCN(C2=O)c3cncc4c3cc(cc4)Cl)c5cc(ccc5C1=O)Cl

> <enantiomer_smiles>
CNC(=O)CN1C[C@@]2(CCN(C2=O)c3cncc4c3cc(cc4)Cl)c5cc(ccc5C1=O)Cl

> <scaffold>
tetrahydroisoquinoline-5spiro-isoquinoline

> <clash_score>
0

> <docking_score>
-9.929425239562988

> <overlap_score>
1.0

> <MMFF_internal_energy>
156.46210183853984

> <docked_smiles>
CNC(=O)CN1C[C@]2(CCN(C2=O)c3cncc4c3cc(cc4)Cl)c5cc(ccc5C1=O)Cl

$$$$
VLA-UNK-f702bf1c-6_1
  -OEChem-12272114573D

 60 65  0     1  0  0  0  0  0999 V2000
    3.3432    2.6279   20.4411 C   0  0  0  0  0  0  0  0  0  0  0  0
    3.8960    1.9291   21.5050 C   0  0  0  0  0  0  0  0  0  0  0  0
    3.7865    2.4205   19.1660 C   0  0  0  0  0  0  0  0  0  0  0  0
    4.8973    1.0233   21.2988 C   0  0  0  0  0  0  0  0  0  0  0  0
   12.0765    0.0316   24.1541 C   0  0  0  0  0  0  0  0  0  0  0  0
   12.9132   -0.6032   23.2569 C   0  0  0  0  0  0  0  0  0  0  0  0
   10.9991   -1.4331   22.0443 C   0  0  0  0  0  0  0  0  0  0  0  0
    5.3278    1.2339   17.6066 C   0  0  0  0  0  0  0  0  0  0  0  0
    6.8438   -0.2892   18.3752 C   0  0  0  0  0  0  0  0  0  0  0  0
    4.8226    1.4906   18.9054 C   0  0  0  0  0  0  0  0  0  0  0  0
    5.3982    0.7733   19.9948 C   0  0  0  0  0  0  0  0  0  0  0  0
   10.1406   -0.7765   22.9250 C   0  0  0  0  0  0  0  0  0  0  0  0
    6.4440   -0.1472   19.6979 C   0  0  0  0  0  0  0  0  0  0  0  0
   10.7040   -0.0625   23.9898 C   0  0  0  0  0  0  0  0  0  0  0  0
   12.3683   -1.3298   22.2234 C   0  0  0  0  0  0  0  0  0  0  0  0
    8.2490    0.0169   21.4271 C   0  0  0  0  0  0  0  0  0  0  0  0
    6.9866   -1.9366   21.3580 C   0  0  0  0  0  0  0  0  0  0  0  0
    7.1087   -4.0681   27.2527 C   0  0  0  0  0  0  0  0  0  0  0  0
    6.3113   -3.0402   26.4559 C   0  0  0  0  0  0  0  0  0  0  0  0
    8.5957   -4.0071   26.9174 C   0  0  0  0  0  0  0  0  0  0  0  0
    6.5530   -3.1802   24.9547 C   0  0  0  0  0  0  0  0  0  0  0  0
    8.8412   -4.1486   25.4169 C   0  0  0  0  0  0  0  0  0  0  0  0
    7.8721   -0.1194   23.8831 C   0  0  0  0  0  0  0  0  0  0  0  0
    8.6609    1.0133   24.4995 C   0  0  0  0  0  0  0  0  0  0  0  0
    8.0474   -3.1104   24.6125 C   0  0  0  0  0  0  0  0  0  0  0  0
    8.6238   -0.7606   22.6929 C   0  0  2  0  0  0  0  0  0  0  0  0
    8.2673   -3.3062   23.1136 C   0  0  0  0  0  0  0  0  0  0  0  0
    6.3062    0.3769   17.3421 N   0  0  0  0  0  0  0  0  0  0  0  0
    7.2292   -0.6897   20.7790 N   0  0  0  0  0  0  0  0  0  0  0  0
    8.0140   -2.1541   22.4331 N   0  0  0  0  0  0  0  0  0  0  0  0
    8.8016    1.0414   21.0847 O   0  0  0  0  0  0  0  0  0  0  0  0
    6.1144   -2.7515   21.1388 O   0  0  0  0  0  0  0  0  0  0  0  0
    9.9479    0.5589   24.9534 O   0  0  0  0  0  0  0  0  0  0  0  0
   13.4262   -2.1470   21.1121 Cl  0  0  0  0  0  0  0  0  0  0  0  0
    2.5432    3.3510   20.6369 H   0  0  0  0  0  0  0  0  0  0  0  0
    3.5174    2.1137   22.5168 H   0  0  0  0  0  0  0  0  0  0  0  0
    3.3409    2.9743   18.3364 H   0  0  0  0  0  0  0  0  0  0  0  0
    5.3118    0.4895   22.1572 H   0  0  0  0  0  0  0  0  0  0  0  0
   12.4997    0.6069   24.9723 H   0  0  0  0  0  0  0  0  0  0  0  0
   13.9909   -0.5152   23.3780 H   0  0  0  0  0  0  0  0  0  0  0  0
   10.6017   -2.0254   21.2306 H   0  0  0  0  0  0  0  0  0  0  0  0
    4.9141    1.7511   16.7474 H   0  0  0  0  0  0  0  0  0  0  0  0
    7.6445   -0.9764   18.1043 H   0  0  0  0  0  0  0  0  0  0  0  0
    6.9652   -3.8952   28.3253 H   0  0  0  0  0  0  0  0  0  0  0  0
    6.7270   -5.0733   27.0356 H   0  0  0  0  0  0  0  0  0  0  0  0
    5.2429   -3.1571   26.6701 H   0  0  0  0  0  0  0  0  0  0  0  0
    6.5928   -2.0300   26.7779 H   0  0  0  0  0  0  0  0  0  0  0  0
    9.0101   -3.0532   27.2664 H   0  0  0  0  0  0  0  0  0  0  0  0
    9.1267   -4.8011   27.4546 H   0  0  0  0  0  0  0  0  0  0  0  0
    6.1353   -4.1351   24.6104 H   0  0  0  0  0  0  0  0  0  0  0  0
    6.0103   -2.3878   24.4254 H   0  0  0  0  0  0  0  0  0  0  0  0
    9.9133   -4.0395   25.2140 H   0  0  0  0  0  0  0  0  0  0  0  0
    8.5599   -5.1611   25.1001 H   0  0  0  0  0  0  0  0  0  0  0  0
    7.7129   -0.8754   24.6698 H   0  0  0  0  0  0  0  0  0  0  0  0
    6.8746    0.2355   23.5743 H   0  0  0  0  0  0  0  0  0  0  0  0
    8.8013    1.8559   23.8158 H   0  0  0  0  0  0  0  0  0  0  0  0
    8.1340    1.3960   25.3781 H   0  0  0  0  0  0  0  0  0  0  0  0
    8.4193   -2.1115   24.8655 H   0  0  0  0  0  0  0  0  0  0  0  0
    9.3106   -3.6084   22.9403 H   0  0  0  0  0  0  0  0  0  0  0  0
    7.5920   -4.0955   22.7518 H   0  0  0  0  0  0  0  0  0  0  0  0
  1  2  1  0  0  0  0
  1  3  2  0  0  0  0
  2  4  2  0  0  0  0
  3 10  1  0  0  0  0
  4 11  1  0  0  0  0
  5  6  1  0  0  0  0
  5 14  2  0  0  0  0
  6 15  2  0  0  0  0
  7 12  2  0  0  0  0
  7 15  1  0  0  0  0
  8 10  2  0  0  0  0
  8 28  1  0  0  0  0
  9 13  1  0  0  0  0
  9 28  2  0  0  0  0
 10 11  1  0  0  0  0
 11 13  2  0  0  0  0
 12 14  1  0  0  0  0
 12 26  1  6  0  0  0
 13 29  1  0  0  0  0
 14 33  1  0  0  0  0
 15 34  1  0  0  0  0
 16 26  1  1  0  0  0
 16 29  1  0  0  0  0
 16 31  2  0  0  0  0
 17 29  1  0  0  0  0
 17 30  1  0  0  0  0
 17 32  2  0  0  0  0
 18 19  1  0  0  0  0
 18 20  1  0  0  0  0
 19 21  1  0  0  0  0
 20 22  1  0  0  0  0
 21 25  1  0  0  0  0
 22 25  1  0  0  0  0
 23 24  1  0  0  0  0
 23 26  1  1  0  0  0
 24 33  1  0  0  0  0
 25 27  1  0  0  0  0
 26 30  1  6  0  0  0
 27 30  1  0  0  0  0
  1 35  1  0  0  0  0
  2 36  1  0  0  0  0
  3 37  1  0  0  0  0
  4 38  1  0  0  0  0
  5 39  1  0  0  0  0
  6 40  1  0  0  0  0
  7 41  1  0  0  0  0
  8 42  1  0  0  0  0
  9 43  1  0  0  0  0
 18 44  1  0  0  0  0
 18 45  1  0  0  0  0
 19 46  1  0  0  0  0
 19 47  1  0  0  0  0
 20 48  1  0  0  0  0
 20 49  1  0  0  0  0
 21 50  1  0  0  0  0
 21 51  1  0  0  0  0
 22 52  1  0  0  0  0
 22 53  1  0  0  0  0
 23 54  1  0  0  0  0
 23 55  1  0  0  0  0
 24 56  1  0  0  0  0
 24 57  1  0  0  0  0
 25 58  1  0  0  0  0
 27 59  1  0  0  0  0
 27 60  1  0  0  0  0
M  END
> <compound>
VLA-UNK-f702bf1c-6

> <compound_smiles>
c1ccc2c(c1)cncc2N3C(=O)[C@@]4(CCOc5c4cc(cc5)Cl)N(C3=O)CC6CCCCC6

> <enantiomer_smiles>
c1ccc2c(c1)cncc2N3C(=O)[C@@]4(CCOc5c4cc(cc5)Cl)N(C3=O)CC6CCCCC6

> <scaffold>
chromane-5spiro-isoquinoline

> <clash_score>
0

> <docking_score>
-9.87397575378418

> <overlap_score>
1.0

> <MMFF_internal_energy>
96.9012600075801

> <docked_smiles>
c1ccc2c(c1)cncc2N3C(=O)[C@@]4(CCOc5c4cc(cc5)Cl)N(C3=O)CC6CCCCC6

$$$$
PET-UNK-94036022-7_1
  -OEChem-12272114573D

 55 59  0     1  0  0  0  0  0999 V2000
    3.3432    2.6279   20.4411 C   0  0  0  0  0  0  0  0  0  0  0  0
    3.8960    1.9291   21.5050 C   0  0  0  0  0  0  0  0  0  0  0  0
    3.7865    2.4205   19.1660 C   0  0  0  0  0  0  0  0  0  0  0  0
    4.8973    1.0233   21.2988 C   0  0  0  0  0  0  0  0  0  0  0  0
   12.0765    0.0316   24.1541 C   0  0  0  0  0  0  0  0  0  0  0  0
   12.9132   -0.6032   23.2569 C   0  0  0  0  0  0  0  0  0  0  0  0
   10.9991   -1.4331   22.0443 C   0  0  0  0  0  0  0  0  0  0  0  0
    5.3278    1.2339   17.6066 C   0  0  0  0  0  0  0  0  0  0  0  0
    6.8438   -0.2892   18.3752 C   0  0  0  0  0  0  0  0  0  0  0  0
    4.8226    1.4906   18.9054 C   0  0  0  0  0  0  0  0  0  0  0  0
    5.3982    0.7733   19.9948 C   0  0  0  0  0  0  0  0  0  0  0  0
   10.7040   -0.0625   23.9898 C   0  0  0  0  0  0  0  0  0  0  0  0
   10.1406   -0.7765   22.9250 C   0  0  0  0  0  0  0  0  0  0  0  0
    6.4440   -0.1472   19.6979 C   0  0  0  0  0  0  0  0  0  0  0  0
   12.3683   -1.3298   22.2234 C   0  0  0  0  0  0  0  0  0  0  0  0
    6.9866   -1.9366   21.3580 C   0  0  0  0  0  0  0  0  0  0  0  0
    8.0140   -2.1541   22.4331 C   0  0  0  0  0  0  0  0  0  0  0  0
    8.2490    0.0169   21.4271 C   0  0  0  0  0  0  0  0  0  0  0  0
    6.0107   -2.8146   21.1730 C   0  0  0  0  0  0  0  0  0  0  0  0
    7.4197    2.9273   23.5235 C   0  0  0  0  0  0  0  0  0  0  0  0
    9.9479    0.5589   24.9534 C   0  0  0  0  0  0  0  0  0  0  0  0
    7.8721   -0.1194   23.8831 C   0  0  0  0  0  0  0  0  0  0  0  0
    8.6238   -0.7606   22.6929 C   0  0  2  0  0  0  0  0  0  0  0  0
    6.3372    4.9029   22.4927 C   0  0  0  0  0  0  0  0  0  0  0  0
    8.7390    2.1978   23.5618 C   0  0  0  0  0  0  0  0  0  0  0  0
    6.3062    0.3769   17.3421 N   0  0  0  0  0  0  0  0  0  0  0  0
    7.2292   -0.6897   20.7790 N   0  0  0  0  0  0  0  0  0  0  0  0
    7.4758    4.0395   22.6970 N   0  0  0  0  0  0  0  0  0  0  0  0
    8.6609    1.0133   24.4995 N   0  3  2  0  0  0  0  0  0  0  0  0
    8.2869   -3.1786   22.9755 O   0  0  0  0  0  0  0  0  0  0  0  0
    8.8178    1.0533   21.0841 O   0  0  0  0  0  0  0  0  0  0  0  0
    6.4299    2.5638   24.1531 O   0  0  0  0  0  0  0  0  0  0  0  0
   13.4269   -2.1427   21.1097 Cl  0  0  0  0  0  0  0  0  0  0  0  0
    2.5432    3.3510   20.6369 H   0  0  0  0  0  0  0  0  0  0  0  0
    3.5174    2.1137   22.5168 H   0  0  0  0  0  0  0  0  0  0  0  0
    3.3409    2.9743   18.3364 H   0  0  0  0  0  0  0  0  0  0  0  0
    5.3118    0.4895   22.1572 H   0  0  0  0  0  0  0  0  0  0  0  0
   12.5020    0.5933   24.9782 H   0  0  0  0  0  0  0  0  0  0  0  0
   13.9910   -0.5222   23.3824 H   0  0  0  0  0  0  0  0  0  0  0  0
   10.6042   -2.0213   21.2272 H   0  0  0  0  0  0  0  0  0  0  0  0
    4.9141    1.7511   16.7474 H   0  0  0  0  0  0  0  0  0  0  0  0
    7.6445   -0.9764   18.1043 H   0  0  0  0  0  0  0  0  0  0  0  0
    5.2690   -2.6582   20.3980 H   0  0  0  0  0  0  0  0  0  0  0  0
    5.9350   -3.7029   21.7898 H   0  0  0  0  0  0  0  0  0  0  0  0
    9.7372   -0.1157   25.8241 H   0  0  0  0  0  0  0  0  0  0  0  0
   10.4767    1.4539   25.3759 H   0  0  0  0  0  0  0  0  0  0  0  0
    6.8949    0.2993   23.5816 H   0  0  0  0  0  0  0  0  0  0  0  0
    7.6835   -0.8563   24.6839 H   0  0  0  0  0  0  0  0  0  0  0  0
    5.7651    4.5559   21.6196 H   0  0  0  0  0  0  0  0  0  0  0  0
    5.6944    4.8791   23.3851 H   0  0  0  0  0  0  0  0  0  0  0  0
    6.6842    5.9320   22.3181 H   0  0  0  0  0  0  0  0  0  0  0  0
    9.5288    2.8548   23.9364 H   0  0  0  0  0  0  0  0  0  0  0  0
    8.9954    1.8225   22.5672 H   0  0  0  0  0  0  0  0  0  0  0  0
    8.3481    4.2767   22.2333 H   0  0  0  0  0  0  0  0  0  0  0  0
    8.1082    1.3446   25.3132 H   0  0  0  0  0  0  0  0  0  0  0  0
  1  2  1  0  0  0  0
  1  3  2  0  0  0  0
  2  4  2  0  0  0  0
  3 10  1  0  0  0  0
  4 11  1  0  0  0  0
  5  6  2  0  0  0  0
  5 12  1  0  0  0  0
  6 15  1  0  0  0  0
  7 13  1  0  0  0  0
  7 15  2  0  0  0  0
  8 10  2  0  0  0  0
  8 26  1  0  0  0  0
  9 14  1  0  0  0  0
  9 26  2  0  0  0  0
 10 11  1  0  0  0  0
 11 14  2  0  0  0  0
 12 13  2  0  0  0  0
 12 21  1  0  0  0  0
 13 23  1  6  0  0  0
 14 27  1  0  0  0  0
 15 33  1  0  0  0  0
 16 17  1  0  0  0  0
 16 19  2  0  0  0  0
 16 27  1  0  0  0  0
 17 23  1  1  0  0  0
 17 30  2  0  0  0  0
 18 23  1  1  0  0  0
 18 27  1  0  0  0  0
 18 31  2  0  0  0  0
 20 25  1  0  0  0  0
 20 28  1  0  0  0  0
 20 32  2  0  0  0  0
 21 29  1  0  0  0  0
 22 23  1  6  0  0  0
 22 29  1  0  0  0  0
 24 28  1  0  0  0  0
 25 29  1  1  0  0  0
  1 34  1  0  0  0  0
  2 35  1  0  0  0  0
  3 36  1  0  0  0  0
  4 37  1  0  0  0  0
  5 38  1  0  0  0  0
  6 39  1  0  0  0  0
  7 40  1  0  0  0  0
  8 41  1  0  0  0  0
  9 42  1  0  0  0  0
 19 43  1  0  0  0  0
 19 44  1  0  0  0  0
 21 45  1  0  0  0  0
 21 46  1  0  0  0  0
 22 47  1  0  0  0  0
 22 48  1  0  0  0  0
 24 49  1  0  0  0  0
 24 50  1  0  0  0  0
 24 51  1  0  0  0  0
 25 52  1  0  0  0  0
 25 53  1  0  0  0  0
 28 54  1  0  0  0  0
 29 55  1  0  0  0  0
M  CHG  1  29   1
M  END
> <compound>
PET-UNK-94036022-7

> <compound_smiles>
CNC(=O)CN1Cc2ccc(cc2[C@]3(C1)C(=O)C(=C)N(C3=O)c4cncc5c4cccc5)Cl

> <enantiomer_smiles>
CNC(=O)C[N@@]1Cc2ccc(cc2[C@]3(C1)C(=O)C(=C)N(C3=O)c4cncc5c4cccc5)Cl

> <scaffold>
tetrahydroisoquinoline-5spiro-isoquinoline

> <clash_score>
0

> <docking_score>
-8.305304527282715

> <overlap_score>
1.0140166282653809

> <MMFF_internal_energy>
185.1151749830109

> <docked_smiles>
CNC(=O)C[N@@H+]1Cc2ccc(cc2[C@]3(C1)C(=O)C(=C)N(C3=O)c4cncc5c4cccc5)Cl

$$$$
EDJ-MED-b6c6ee2b-6_1
  -OEChem-12272114573D

 53 57  0     1  0  0  0  0  0999 V2000
    3.7865    2.4205   19.1660 C   0  0  0  0  0  0  0  0  0  0  0  0
   12.0765    0.0316   24.1541 C   0  0  0  0  0  0  0  0  0  0  0  0
    3.3432    2.6279   20.4411 C   0  0  0  0  0  0  0  0  0  0  0  0
   12.9132   -0.6032   23.2569 C   0  0  0  0  0  0  0  0  0  0  0  0
    4.8973    1.0233   21.2988 C   0  0  0  0  0  0  0  0  0  0  0  0
   10.9991   -1.4331   22.0443 C   0  0  0  0  0  0  0  0  0  0  0  0
    5.3278    1.2339   17.6066 C   0  0  0  0  0  0  0  0  0  0  0  0
    6.8438   -0.2892   18.3752 C   0  0  0  0  0  0  0  0  0  0  0  0
    4.8226    1.4906   18.9054 C   0  0  0  0  0  0  0  0  0  0  0  0
    5.3982    0.7733   19.9948 C   0  0  0  0  0  0  0  0  0  0  0  0
   10.7040   -0.0625   23.9898 C   0  0  0  0  0  0  0  0  0  0  0  0
   10.1406   -0.7765   22.9250 C   0  0  0  0  0  0  0  0  0  0  0  0
    6.4440   -0.1472   19.6979 C   0  0  0  0  0  0  0  0  0  0  0  0
    3.8960    1.9291   21.5050 C   0  0  0  0  0  0  0  0  0  0  0  0
   12.3683   -1.3298   22.2234 C   0  0  0  0  0  0  0  0  0  0  0  0
    9.9479    0.5589   24.9534 C   0  0  0  0  0  0  0  0  0  0  0  0
    8.2490    0.0169   21.4271 C   0  0  0  0  0  0  0  0  0  0  0  0
    8.4669    3.2198   23.6970 C   0  0  0  0  0  0  0  0  0  0  0  0
    8.0140   -2.1541   22.4331 C   0  0  0  0  0  0  0  0  0  0  0  0
    6.9866   -1.9366   21.3580 C   0  0  0  0  0  0  0  0  0  0  0  0
    7.8721   -0.1194   23.8831 C   0  0  0  0  0  0  0  0  0  0  0  0
    8.6238   -0.7606   22.6929 C   0  0  3  0  0  0  0  0  0  0  0  0
   10.2286    4.9046   23.1758 C   0  0  0  0  0  0  0  0  0  0  0  0
    8.0922    2.2237   24.7645 C   0  0  0  0  0  0  0  0  0  0  0  0
    6.3062    0.3769   17.3421 N   0  0  0  0  0  0  0  0  0  0  0  0
    7.2292   -0.6897   20.7790 N   0  0  0  0  0  0  0  0  0  0  0  0
    8.6609    1.0133   24.4995 N   0  0  0  0  0  0  0  0  0  0  0  0
    9.6355    3.8939   24.0215 N   0  0  0  0  0  0  0  0  0  0  0  0
   10.3214    0.7303   26.1092 O   0  0  0  0  0  0  0  0  0  0  0  0
    8.8193    1.0411   21.0780 O   0  0  0  0  0  0  0  0  0  0  0  0
    7.8085    3.3951   22.6752 O   0  0  0  0  0  0  0  0  0  0  0  0
    3.4314    2.1555   22.7514 F   0  0  0  0  0  0  0  0  0  0  0  0
   13.4274   -2.1468   21.1136 Cl  0  0  0  0  0  0  0  0  0  0  0  0
    3.3399    2.9734   18.3365 H   0  0  0  0  0  0  0  0  0  0  0  0
   12.5172    0.5967   24.9716 H   0  0  0  0  0  0  0  0  0  0  0  0
    2.5430    3.3508   20.6361 H   0  0  0  0  0  0  0  0  0  0  0  0
   13.9905   -0.5221   23.3825 H   0  0  0  0  0  0  0  0  0  0  0  0
    5.3103    0.4884   22.1571 H   0  0  0  0  0  0  0  0  0  0  0  0
   10.6130   -2.0249   21.2272 H   0  0  0  0  0  0  0  0  0  0  0  0
    4.9138    1.7515   16.7475 H   0  0  0  0  0  0  0  0  0  0  0  0
    7.6445   -0.9762   18.1044 H   0  0  0  0  0  0  0  0  0  0  0  0
    7.5110   -2.5276   23.3390 H   0  0  0  0  0  0  0  0  0  0  0  0
    8.7575   -2.9105   22.1433 H   0  0  0  0  0  0  0  0  0  0  0  0
    7.0587   -2.7258   20.5724 H   0  0  0  0  0  0  0  0  0  0  0  0
    5.9512   -1.9960   21.7712 H   0  0  0  0  0  0  0  0  0  0  0  0
    6.9203    0.3184   23.5736 H   0  0  0  0  0  0  0  0  0  0  0  0
    7.6659   -0.8542   24.6623 H   0  0  0  0  0  0  0  0  0  0  0  0
   10.9348    4.4312   22.4778 H   0  0  0  0  0  0  0  0  0  0  0  0
    9.4384    5.4164   22.6069 H   0  0  0  0  0  0  0  0  0  0  0  0
   10.7641    5.6360   23.7990 H   0  0  0  0  0  0  0  0  0  0  0  0
    8.4448    2.5768   25.7381 H   0  0  0  0  0  0  0  0  0  0  0  0
    7.0053    2.1037   24.7947 H   0  0  0  0  0  0  0  0  0  0  0  0
   10.0971    3.6657   24.8972 H   0  0  0  0  0  0  0  0  0  0  0  0
  1  3  2  0  0  0  0
  1  9  1  0  0  0  0
  2  4  2  0  0  0  0
  2 11  1  0  0  0  0
  3 14  1  0  0  0  0
  4 15  1  0  0  0  0
  5 10  1  0  0  0  0
  5 14  2  0  0  0  0
  6 12  1  0  0  0  0
  6 15  2  0  0  0  0
  7  9  2  0  0  0  0
  7 25  1  0  0  0  0
  8 13  1  0  0  0  0
  8 25  2  0  0  0  0
  9 10  1  0  0  0  0
 10 13  2  0  0  0  0
 11 12  2  0  0  0  0
 11 16  1  0  0  0  0
 12 22  1  0  0  0  0
 13 26  1  0  0  0  0
 14 32  1  0  0  0  0
 15 33  1  0  0  0  0
 16 27  1  0  0  0  0
 16 29  2  0  0  0  0
 17 22  1  0  0  0  0
 17 26  1  0  0  0  0
 17 30  2  0  0  0  0
 18 24  1  0  0  0  0
 18 28  1  0  0  0  0
 18 31  2  0  0  0  0
 19 20  1  0  0  0  0
 19 22  1  0  0  0  0
 20 26  1  0  0  0  0
 21 22  1  0  0  0  0
 21 27  1  0  0  0  0
 23 28  1  0  0  0  0
 24 27  1  0  0  0  0
  1 34  1  0  0  0  0
  2 35  1  0  0  0  0
  3 36  1  0  0  0  0
  4 37  1  0  0  0  0
  5 38  1  0  0  0  0
  6 39  1  0  0  0  0
  7 40  1  0  0  0  0
  8 41  1  0  0  0  0
 19 42  1  0  0  0  0
 19 43  1  0  0  0  0
 20 44  1  0  0  0  0
 20 45  1  0  0  0  0
 21 46  1  0  0  0  0
 21 47  1  0  0  0  0
 23 48  1  0  0  0  0
 23 49  1  0  0  0  0
 23 50  1  0  0  0  0
 24 51  1  0  0  0  0
 24 52  1  0  0  0  0
 28 53  1  0  0  0  0
M  END
> <compound>
EDJ-MED-b6c6ee2b-6

> <compound_smiles>
CNC(=O)CN1CC2(CCN(C2=O)c3cncc4c3cc(cc4)F)c5cc(ccc5C1=O)Cl

> <enantiomer_smiles>
CNC(=O)CN1CC2(CCN(C2=O)c3cncc4c3cc(cc4)F)c5cc(ccc5C1=O)Cl

> <scaffold>
tetrahydroisoquinoline-5spiro-isoquinoline

> <clash_score>
0

> <docking_score>
-9.805887222290039

> <overlap_score>
1.0

> <MMFF_internal_energy>
156.079178606297

> <docked_smiles>
CNC(=O)CN1C[C@]2(CCN(C2=O)c3cncc4c3cc(cc4)F)c5cc(ccc5C1=O)Cl

$$$$
PET-UNK-94036022-14_1
  -OEChem-12272114573D

 55 59  0     1  0  0  0  0  0999 V2000
    3.3432    2.6279   20.4411 C   0  0  0  0  0  0  0  0  0  0  0  0
    3.8960    1.9291   21.5050 C   0  0  0  0  0  0  0  0  0  0  0  0
    3.7865    2.4205   19.1660 C   0  0  0  0  0  0  0  0  0  0  0  0
    4.8973    1.0233   21.2988 C   0  0  0  0  0  0  0  0  0  0  0  0
   12.0765    0.0316   24.1541 C   0  0  0  0  0  0  0  0  0  0  0  0
   12.9132   -0.6032   23.2569 C   0  0  0  0  0  0  0  0  0  0  0  0
   10.9991   -1.4331   22.0443 C   0  0  0  0  0  0  0  0  0  0  0  0
    5.3278    1.2339   17.6066 C   0  0  0  0  0  0  0  0  0  0  0  0
    6.8438   -0.2892   18.3752 C   0  0  0  0  0  0  0  0  0  0  0  0
    4.8226    1.4906   18.9054 C   0  0  0  0  0  0  0  0  0  0  0  0
    5.3982    0.7733   19.9948 C   0  0  0  0  0  0  0  0  0  0  0  0
   10.7040   -0.0625   23.9898 C   0  0  0  0  0  0  0  0  0  0  0  0
   10.1406   -0.7765   22.9250 C   0  0  0  0  0  0  0  0  0  0  0  0
    6.4440   -0.1472   19.6979 C   0  0  0  0  0  0  0  0  0  0  0  0
   12.3683   -1.3298   22.2234 C   0  0  0  0  0  0  0  0  0  0  0  0
    6.9866   -1.9366   21.3580 C   0  0  0  0  0  0  0  0  0  0  0  0
    8.0140   -2.1541   22.4331 C   0  0  0  0  0  0  0  0  0  0  0  0
    8.2490    0.0169   21.4271 C   0  0  0  0  0  0  0  0  0  0  0  0
    6.0110   -2.8147   21.1725 C   0  0  0  0  0  0  0  0  0  0  0  0
    7.4204    2.9278   23.5225 C   0  0  0  0  0  0  0  0  0  0  0  0
    9.9479    0.5589   24.9534 C   0  0  0  0  0  0  0  0  0  0  0  0
    7.8721   -0.1194   23.8831 C   0  0  0  0  0  0  0  0  0  0  0  0
    8.6238   -0.7606   22.6929 C   0  0  3  0  0  0  0  0  0  0  0  0
    6.3399    4.9048   22.4922 C   0  0  0  0  0  0  0  0  0  0  0  0
    8.7393    2.1976   23.5616 C   0  0  0  0  0  0  0  0  0  0  0  0
    6.3062    0.3769   17.3421 N   0  0  0  0  0  0  0  0  0  0  0  0
    7.2292   -0.6897   20.7790 N   0  0  0  0  0  0  0  0  0  0  0  0
    7.4779    4.0406   22.6969 N   0  0  0  0  0  0  0  0  0  0  0  0
    8.6609    1.0133   24.4995 N   0  3  2  0  0  0  0  0  0  0  0  0
    8.2872   -3.1787   22.9751 O   0  0  0  0  0  0  0  0  0  0  0  0
    8.8183    1.0531   21.0840 O   0  0  0  0  0  0  0  0  0  0  0  0
    6.4297    2.5643   24.1507 O   0  0  0  0  0  0  0  0  0  0  0  0
   13.4269   -2.1424   21.1095 Cl  0  0  0  0  0  0  0  0  0  0  0  0
    2.5432    3.3510   20.6369 H   0  0  0  0  0  0  0  0  0  0  0  0
    3.5174    2.1137   22.5168 H   0  0  0  0  0  0  0  0  0  0  0  0
    3.3409    2.9743   18.3364 H   0  0  0  0  0  0  0  0  0  0  0  0
    5.3118    0.4895   22.1572 H   0  0  0  0  0  0  0  0  0  0  0  0
   12.5019    0.5930   24.9783 H   0  0  0  0  0  0  0  0  0  0  0  0
   13.9910   -0.5218   23.3820 H   0  0  0  0  0  0  0  0  0  0  0  0
   10.6048   -2.0209   21.2266 H   0  0  0  0  0  0  0  0  0  0  0  0
    4.9141    1.7511   16.7474 H   0  0  0  0  0  0  0  0  0  0  0  0
    7.6445   -0.9764   18.1043 H   0  0  0  0  0  0  0  0  0  0  0  0
    5.2694   -2.6581   20.3975 H   0  0  0  0  0  0  0  0  0  0  0  0
    5.9355   -3.7032   21.7889 H   0  0  0  0  0  0  0  0  0  0  0  0
    9.7381   -0.1151   25.8247 H   0  0  0  0  0  0  0  0  0  0  0  0
   10.4774    1.4540   25.3755 H   0  0  0  0  0  0  0  0  0  0  0  0
    6.8944    0.2981   23.5818 H   0  0  0  0  0  0  0  0  0  0  0  0
    7.6849   -0.8568   24.6835 H   0  0  0  0  0  0  0  0  0  0  0  0
    5.7686    4.5587   21.6182 H   0  0  0  0  0  0  0  0  0  0  0  0
    5.6962    4.8806   23.3838 H   0  0  0  0  0  0  0  0  0  0  0  0
    6.6876    5.9339   22.3187 H   0  0  0  0  0  0  0  0  0  0  0  0
    9.5291    2.8539   23.9375 H   0  0  0  0  0  0  0  0  0  0  0  0
    8.9965    1.8230   22.5669 H   0  0  0  0  0  0  0  0  0  0  0  0
    8.3509    4.2778   22.2343 H   0  0  0  0  0  0  0  0  0  0  0  0
    8.1083    1.3445   25.3129 H   0  0  0  0  0  0  0  0  0  0  0  0
  1  2  1  0  0  0  0
  1  3  2  0  0  0  0
  2  4  2  0  0  0  0
  3 10  1  0  0  0  0
  4 11  1  0  0  0  0
  5  6  2  0  0  0  0
  5 12  1  0  0  0  0
  6 15  1  0  0  0  0
  7 13  1  0  0  0  0
  7 15  2  0  0  0  0
  8 10  2  0  0  0  0
  8 26  1  0  0  0  0
  9 14  1  0  0  0  0
  9 26  2  0  0  0  0
 10 11  1  0  0  0  0
 11 14  2  0  0  0  0
 12 13  2  0  0  0  0
 12 21  1  0  0  0  0
 13 23  1  0  0  0  0
 14 27  1  0  0  0  0
 15 33  1  0  0  0  0
 16 17  1  0  0  0  0
 16 19  2  0  0  0  0
 16 27  1  0  0  0  0
 17 23  1  0  0  0  0
 17 30  2  0  0  0  0
 18 23  1  0  0  0  0
 18 27  1  0  0  0  0
 18 31  2  0  0  0  0
 20 25  1  0  0  0  0
 20 28  1  0  0  0  0
 20 32  2  0  0  0  0
 21 29  1  0  0  0  0
 22 23  1  0  0  0  0
 22 29  1  0  0  0  0
 24 28  1  0  0  0  0
 25 29  1  1  0  0  0
  1 34  1  0  0  0  0
  2 35  1  0  0  0  0
  3 36  1  0  0  0  0
  4 37  1  0  0  0  0
  5 38  1  0  0  0  0
  6 39  1  0  0  0  0
  7 40  1  0  0  0  0
  8 41  1  0  0  0  0
  9 42  1  0  0  0  0
 19 43  1  0  0  0  0
 19 44  1  0  0  0  0
 21 45  1  0  0  0  0
 21 46  1  0  0  0  0
 22 47  1  0  0  0  0
 22 48  1  0  0  0  0
 24 49  1  0  0  0  0
 24 50  1  0  0  0  0
 24 51  1  0  0  0  0
 25 52  1  0  0  0  0
 25 53  1  0  0  0  0
 28 54  1  0  0  0  0
 29 55  1  0  0  0  0
M  CHG  1  29   1
M  END
> <compound>
PET-UNK-94036022-14

> <compound_smiles>
CNC(=O)CN1Cc2ccc(cc2C3(C1)C(=O)C(=C)N(C3=O)c4cncc5c4cccc5)Cl

> <enantiomer_smiles>
CNC(=O)C[N@@]1Cc2ccc(cc2C3(C1)C(=O)C(=C)N(C3=O)c4cncc5c4cccc5)Cl

> <scaffold>
tetrahydroisoquinoline-5spiro-isoquinoline

> <clash_score>
0

> <docking_score>
-8.304231643676758

> <overlap_score>
1.0140162706375122

> <MMFF_internal_energy>
185.09679157191948

> <docked_smiles>
CNC(=O)C[N@@H+]1Cc2ccc(cc2[C@]3(C1)C(=O)C(=C)N(C3=O)c4cncc5c4cccc5)Cl

$$$$
PET-UNK-94036022-7_2
  -OEChem-12272114573D

 55 59  0     1  0  0  0  0  0999 V2000
    3.3432    2.6279   20.4411 C   0  0  0  0  0  0  0  0  0  0  0  0
    3.8960    1.9291   21.5050 C   0  0  0  0  0  0  0  0  0  0  0  0
    3.7865    2.4205   19.1660 C   0  0  0  0  0  0  0  0  0  0  0  0
    4.8973    1.0233   21.2988 C   0  0  0  0  0  0  0  0  0  0  0  0
   12.0765    0.0316   24.1541 C   0  0  0  0  0  0  0  0  0  0  0  0
   12.9132   -0.6032   23.2569 C   0  0  0  0  0  0  0  0  0  0  0  0
   10.9991   -1.4331   22.0443 C   0  0  0  0  0  0  0  0  0  0  0  0
    5.3278    1.2339   17.6066 C   0  0  0  0  0  0  0  0  0  0  0  0
    6.8438   -0.2892   18.3752 C   0  0  0  0  0  0  0  0  0  0  0  0
    4.8226    1.4906   18.9054 C   0  0  0  0  0  0  0  0  0  0  0  0
    5.3982    0.7733   19.9948 C   0  0  0  0  0  0  0  0  0  0  0  0
   10.7040   -0.0625   23.9898 C   0  0  0  0  0  0  0  0  0  0  0  0
   10.1406   -0.7765   22.9250 C   0  0  0  0  0  0  0  0  0  0  0  0
    6.4440   -0.1472   19.6979 C   0  0  0  0  0  0  0  0  0  0  0  0
   12.3683   -1.3298   22.2234 C   0  0  0  0  0  0  0  0  0  0  0  0
    6.9866   -1.9366   21.3580 C   0  0  0  0  0  0  0  0  0  0  0  0
    8.0140   -2.1541   22.4331 C   0  0  0  0  0  0  0  0  0  0  0  0
    8.2490    0.0169   21.4271 C   0  0  0  0  0  0  0  0  0  0  0  0
    6.0111   -2.8150   21.1721 C   0  0  0  0  0  0  0  0  0  0  0  0
    6.7946    2.5835   24.9513 C   0  0  0  0  0  0  0  0  0  0  0  0
    9.9479    0.5589   24.9534 C   0  0  0  0  0  0  0  0  0  0  0  0
    7.8721   -0.1194   23.8831 C   0  0  0  0  0  0  0  0  0  0  0  0
    8.6238   -0.7606   22.6929 C   0  0  2  0  0  0  0  0  0  0  0  0
    6.5316    4.5316   23.4435 C   0  0  0  0  0  0  0  0  0  0  0  0
    7.8594    1.7154   25.5732 C   0  0  0  0  0  0  0  0  0  0  0  0
    6.3062    0.3769   17.3421 N   0  0  0  0  0  0  0  0  0  0  0  0
    7.2292   -0.6897   20.7790 N   0  0  0  0  0  0  0  0  0  0  0  0
    7.3463    3.5728   24.1510 N   0  0  0  0  0  0  0  0  0  0  0  0
    8.6609    1.0133   24.4995 N   0  3  1  0  0  0  0  0  0  0  0  0
    8.2871   -3.1785   22.9759 O   0  0  0  0  0  0  0  0  0  0  0  0
    8.8162    1.0541   21.0844 O   0  0  0  0  0  0  0  0  0  0  0  0
    5.5929    2.4171   25.1419 O   0  0  0  0  0  0  0  0  0  0  0  0
   13.4268   -2.1399   21.1077 Cl  0  0  0  0  0  0  0  0  0  0  0  0
    2.5432    3.3510   20.6369 H   0  0  0  0  0  0  0  0  0  0  0  0
    3.5174    2.1137   22.5168 H   0  0  0  0  0  0  0  0  0  0  0  0
    3.3409    2.9743   18.3364 H   0  0  0  0  0  0  0  0  0  0  0  0
    5.3118    0.4895   22.1572 H   0  0  0  0  0  0  0  0  0  0  0  0
   12.5021    0.5995   24.9737 H   0  0  0  0  0  0  0  0  0  0  0  0
   13.9911   -0.5161   23.3781 H   0  0  0  0  0  0  0  0  0  0  0  0
   10.6052   -2.0176   21.2242 H   0  0  0  0  0  0  0  0  0  0  0  0
    4.9141    1.7511   16.7474 H   0  0  0  0  0  0  0  0  0  0  0  0
    7.6445   -0.9764   18.1043 H   0  0  0  0  0  0  0  0  0  0  0  0
    5.2695   -2.6585   20.3971 H   0  0  0  0  0  0  0  0  0  0  0  0
    5.9358   -3.7037   21.7883 H   0  0  0  0  0  0  0  0  0  0  0  0
    9.7629   -0.1183   25.8289 H   0  0  0  0  0  0  0  0  0  0  0  0
   10.4574    1.4677   25.3688 H   0  0  0  0  0  0  0  0  0  0  0  0
    6.9009    0.2989   23.5654 H   0  0  0  0  0  0  0  0  0  0  0  0
    7.6723   -0.8468   24.6905 H   0  0  0  0  0  0  0  0  0  0  0  0
    6.3060    4.1500   22.4368 H   0  0  0  0  0  0  0  0  0  0  0  0
    5.5926    4.6916   23.9938 H   0  0  0  0  0  0  0  0  0  0  0  0
    7.0751    5.4844   23.3610 H   0  0  0  0  0  0  0  0  0  0  0  0
    7.4054    0.9426   26.1996 H   0  0  0  0  0  0  0  0  0  0  0  0
    8.5515    2.3246   26.1613 H   0  0  0  0  0  0  0  0  0  0  0  0
    8.3564    3.6486   24.0713 H   0  0  0  0  0  0  0  0  0  0  0  0
    8.7912    1.7189   23.7499 H   0  0  0  0  0  0  0  0  0  0  0  0
  1  2  1  0  0  0  0
  1  3  2  0  0  0  0
  2  4  2  0  0  0  0
  3 10  1  0  0  0  0
  4 11  1  0  0  0  0
  5  6  2  0  0  0  0
  5 12  1  0  0  0  0
  6 15  1  0  0  0  0
  7 13  1  0  0  0  0
  7 15  2  0  0  0  0
  8 10  2  0  0  0  0
  8 26  1  0  0  0  0
  9 14  1  0  0  0  0
  9 26  2  0  0  0  0
 10 11  1  0  0  0  0
 11 14  2  0  0  0  0
 12 13  2  0  0  0  0
 12 21  1  0  0  0  0
 13 23  1  6  0  0  0
 14 27  1  0  0  0  0
 15 33  1  0  0  0  0
 16 17  1  0  0  0  0
 16 19  2  0  0  0  0
 16 27  1  0  0  0  0
 17 23  1  1  0  0  0
 17 30  2  0  0  0  0
 18 23  1  1  0  0  0
 18 27  1  0  0  0  0
 18 31  2  0  0  0  0
 20 25  1  0  0  0  0
 20 28  1  0  0  0  0
 20 32  2  0  0  0  0
 21 29  1  0  0  0  0
 22 23  1  6  0  0  0
 22 29  1  0  0  0  0
 24 28  1  0  0  0  0
 25 29  1  6  0  0  0
  1 34  1  0  0  0  0
  2 35  1  0  0  0  0
  3 36  1  0  0  0  0
  4 37  1  0  0  0  0
  5 38  1  0  0  0  0
  6 39  1  0  0  0  0
  7 40  1  0  0  0  0
  8 41  1  0  0  0  0
  9 42  1  0  0  0  0
 19 43  1  0  0  0  0
 19 44  1  0  0  0  0
 21 45  1  0  0  0  0
 21 46  1  0  0  0  0
 22 47  1  0  0  0  0
 22 48  1  0  0  0  0
 24 49  1  0  0  0  0
 24 50  1  0  0  0  0
 24 51  1  0  0  0  0
 25 52  1  0  0  0  0
 25 53  1  0  0  0  0
 28 54  1  0  0  0  0
 29 55  1  0  0  0  0
M  CHG  1  29   1
M  END
> <compound>
PET-UNK-94036022-7

> <compound_smiles>
CNC(=O)CN1Cc2ccc(cc2[C@]3(C1)C(=O)C(=C)N(C3=O)c4cncc5c4cccc5)Cl

> <enantiomer_smiles>
CNC(=O)C[N@]1Cc2ccc(cc2[C@]3(C1)C(=O)C(=C)N(C3=O)c4cncc5c4cccc5)Cl

> <scaffold>
tetrahydroisoquinoline-5spiro-isoquinoline

> <clash_score>
0

> <docking_score>
-7.847473621368408

> <overlap_score>
1.0115885734558105

> <MMFF_internal_energy>
173.8318505813976

> <docked_smiles>
CNC(=O)C[N@H+]1Cc2ccc(cc2[C@]3(C1)C(=O)C(=C)N(C3=O)c4cncc5c4cccc5)Cl

$$$$
PET-UNK-94036022-14_2
  -OEChem-12272114573D

 55 59  0     1  0  0  0  0  0999 V2000
    3.3432    2.6279   20.4411 C   0  0  0  0  0  0  0  0  0  0  0  0
    3.8960    1.9291   21.5050 C   0  0  0  0  0  0  0  0  0  0  0  0
    3.7865    2.4205   19.1660 C   0  0  0  0  0  0  0  0  0  0  0  0
    4.8973    1.0233   21.2988 C   0  0  0  0  0  0  0  0  0  0  0  0
   12.0765    0.0316   24.1541 C   0  0  0  0  0  0  0  0  0  0  0  0
   12.9132   -0.6032   23.2569 C   0  0  0  0  0  0  0  0  0  0  0  0
   10.9991   -1.4331   22.0443 C   0  0  0  0  0  0  0  0  0  0  0  0
    5.3278    1.2339   17.6066 C   0  0  0  0  0  0  0  0  0  0  0  0
    6.8438   -0.2892   18.3752 C   0  0  0  0  0  0  0  0  0  0  0  0
    4.8226    1.4906   18.9054 C   0  0  0  0  0  0  0  0  0  0  0  0
    5.3982    0.7733   19.9948 C   0  0  0  0  0  0  0  0  0  0  0  0
   10.7040   -0.0625   23.9898 C   0  0  0  0  0  0  0  0  0  0  0  0
   10.1406   -0.7765   22.9250 C   0  0  0  0  0  0  0  0  0  0  0  0
    6.4440   -0.1472   19.6979 C   0  0  0  0  0  0  0  0  0  0  0  0
   12.3683   -1.3298   22.2234 C   0  0  0  0  0  0  0  0  0  0  0  0
    6.9866   -1.9366   21.3580 C   0  0  0  0  0  0  0  0  0  0  0  0
    8.0140   -2.1541   22.4331 C   0  0  0  0  0  0  0  0  0  0  0  0
    8.2490    0.0169   21.4271 C   0  0  0  0  0  0  0  0  0  0  0  0
    6.1248   -2.8949   21.0476 C   0  0  0  0  0  0  0  0  0  0  0  0
    8.2973    3.1439   25.7811 C   0  0  0  0  0  0  0  0  0  0  0  0
    9.9479    0.5589   24.9534 C   0  0  0  0  0  0  0  0  0  0  0  0
    7.8721   -0.1194   23.8831 C   0  0  0  0  0  0  0  0  0  0  0  0
    8.6238   -0.7606   22.6929 C   0  0  3  0  0  0  0  0  0  0  0  0
    9.3076    5.0488   24.5613 C   0  0  0  0  0  0  0  0  0  0  0  0
    7.8596    1.7158   25.5732 C   0  0  0  0  0  0  0  0  0  0  0  0
    6.3062    0.3769   17.3421 N   0  0  0  0  0  0  0  0  0  0  0  0
    7.2292   -0.6897   20.7790 N   0  0  0  0  0  0  0  0  0  0  0  0
    8.8201    3.6914   24.6191 N   0  0  0  0  0  0  0  0  0  0  0  0
    8.6609    1.0133   24.4995 N   0  3  1  0  0  0  0  0  0  0  0  0
    8.3030   -3.1826   22.9593 O   0  0  0  0  0  0  0  0  0  0  0  0
    8.7694    1.0896   21.1207 O   0  0  0  0  0  0  0  0  0  0  0  0
    8.1935    3.7313   26.8547 O   0  0  0  0  0  0  0  0  0  0  0  0
   13.4267   -2.1443   21.1107 Cl  0  0  0  0  0  0  0  0  0  0  0  0
    2.5432    3.3510   20.6369 H   0  0  0  0  0  0  0  0  0  0  0  0
    3.5174    2.1137   22.5168 H   0  0  0  0  0  0  0  0  0  0  0  0
    3.3409    2.9743   18.3364 H   0  0  0  0  0  0  0  0  0  0  0  0
    5.3118    0.4895   22.1572 H   0  0  0  0  0  0  0  0  0  0  0  0
   12.5017    0.5995   24.9740 H   0  0  0  0  0  0  0  0  0  0  0  0
   13.9910   -0.5172   23.3788 H   0  0  0  0  0  0  0  0  0  0  0  0
   10.6052   -2.0185   21.2248 H   0  0  0  0  0  0  0  0  0  0  0  0
    4.9141    1.7511   16.7474 H   0  0  0  0  0  0  0  0  0  0  0  0
    7.6445   -0.9764   18.1043 H   0  0  0  0  0  0  0  0  0  0  0  0
    5.3838   -2.7388   20.2720 H   0  0  0  0  0  0  0  0  0  0  0  0
    6.1432   -3.8494   21.5610 H   0  0  0  0  0  0  0  0  0  0  0  0
    9.7625   -0.1187   25.8284 H   0  0  0  0  0  0  0  0  0  0  0  0
   10.4575    1.4674   25.3684 H   0  0  0  0  0  0  0  0  0  0  0  0
    6.8997    0.2977   23.5663 H   0  0  0  0  0  0  0  0  0  0  0  0
    7.6732   -0.8470   24.6908 H   0  0  0  0  0  0  0  0  0  0  0  0
    8.4929    5.7186   24.2490 H   0  0  0  0  0  0  0  0  0  0  0  0
    9.6698    5.3508   25.5551 H   0  0  0  0  0  0  0  0  0  0  0  0
   10.1321    5.1116   23.8358 H   0  0  0  0  0  0  0  0  0  0  0  0
    6.8145    1.6786   25.2534 H   0  0  0  0  0  0  0  0  0  0  0  0
    7.9979    1.1379   26.4912 H   0  0  0  0  0  0  0  0  0  0  0  0
    8.8881    3.1202   23.7816 H   0  0  0  0  0  0  0  0  0  0  0  0
    8.7923    1.7186   23.7498 H   0  0  0  0  0  0  0  0  0  0  0  0
  1  2  1  0  0  0  0
  1  3  2  0  0  0  0
  2  4  2  0  0  0  0
  3 10  1  0  0  0  0
  4 11  1  0  0  0  0
  5  6  2  0  0  0  0
  5 12  1  0  0  0  0
  6 15  1  0  0  0  0
  7 13  1  0  0  0  0
  7 15  2  0  0  0  0
  8 10  2  0  0  0  0
  8 26  1  0  0  0  0
  9 14  1  0  0  0  0
  9 26  2  0  0  0  0
 10 11  1  0  0  0  0
 11 14  2  0  0  0  0
 12 13  2  0  0  0  0
 12 21  1  0  0  0  0
 13 23  1  0  0  0  0
 14 27  1  0  0  0  0
 15 33  1  0  0  0  0
 16 17  1  0  0  0  0
 16 19  2  0  0  0  0
 16 27  1  0  0  0  0
 17 23  1  0  0  0  0
 17 30  2  0  0  0  0
 18 23  1  0  0  0  0
 18 27  1  0  0  0  0
 18 31  2  0  0  0  0
 20 25  1  0  0  0  0
 20 28  1  0  0  0  0
 20 32  2  0  0  0  0
 21 29  1  0  0  0  0
 22 23  1  0  0  0  0
 22 29  1  0  0  0  0
 24 28  1  0  0  0  0
 25 29  1  6  0  0  0
  1 34  1  0  0  0  0
  2 35  1  0  0  0  0
  3 36  1  0  0  0  0
  4 37  1  0  0  0  0
  5 38  1  0  0  0  0
  6 39  1  0  0  0  0
  7 40  1  0  0  0  0
  8 41  1  0  0  0  0
  9 42  1  0  0  0  0
 19 43  1  0  0  0  0
 19 44  1  0  0  0  0
 21 45  1  0  0  0  0
 21 46  1  0  0  0  0
 22 47  1  0  0  0  0
 22 48  1  0  0  0  0
 24 49  1  0  0  0  0
 24 50  1  0  0  0  0
 24 51  1  0  0  0  0
 25 52  1  0  0  0  0
 25 53  1  0  0  0  0
 28 54  1  0  0  0  0
 29 55  1  0  0  0  0
M  CHG  1  29   1
M  END
> <compound>
PET-UNK-94036022-14

> <compound_smiles>
CNC(=O)CN1Cc2ccc(cc2C3(C1)C(=O)C(=C)N(C3=O)c4cncc5c4cccc5)Cl

> <enantiomer_smiles>
CNC(=O)C[N@]1Cc2ccc(cc2C3(C1)C(=O)C(=C)N(C3=O)c4cncc5c4cccc5)Cl

> <scaffold>
tetrahydroisoquinoline-5spiro-isoquinoline

> <clash_score>
0

> <docking_score>
-7.7718071937561035

> <overlap_score>
1.0115880966186523

> <MMFF_internal_energy>
189.55231833782318

> <docked_smiles>
CNC(=O)C[N@H+]1Cc2ccc(cc2[C@]3(C1)C(=O)C(=C)N(C3=O)c4cncc5c4cccc5)Cl

$$$$
VLA-UNK-f702bf1c-4_2
  -OEChem-12272114573D

 55 60  0     1  0  0  0  0  0999 V2000
    3.3432    2.6279   20.4411 C   0  0  0  0  0  0  0  0  0  0  0  0
    3.8960    1.9291   21.5050 C   0  0  0  0  0  0  0  0  0  0  0  0
    3.7865    2.4205   19.1660 C   0  0  0  0  0  0  0  0  0  0  0  0
    4.8973    1.0233   21.2988 C   0  0  0  0  0  0  0  0  0  0  0  0
   12.0765    0.0316   24.1541 C   0  0  0  0  0  0  0  0  0  0  0  0
   12.9132   -0.6032   23.2569 C   0  0  0  0  0  0  0  0  0  0  0  0
   10.9991   -1.4331   22.0443 C   0  0  0  0  0  0  0  0  0  0  0  0
    5.3278    1.2339   17.6066 C   0  0  0  0  0  0  0  0  0  0  0  0
    6.8438   -0.2892   18.3752 C   0  0  0  0  0  0  0  0  0  0  0  0
    4.8226    1.4906   18.9054 C   0  0  0  0  0  0  0  0  0  0  0  0
    5.3982    0.7733   19.9948 C   0  0  0  0  0  0  0  0  0  0  0  0
   10.1406   -0.7765   22.9250 C   0  0  0  0  0  0  0  0  0  0  0  0
    6.4440   -0.1472   19.6979 C   0  0  0  0  0  0  0  0  0  0  0  0
   10.7040   -0.0625   23.9898 C   0  0  0  0  0  0  0  0  0  0  0  0
   12.3683   -1.3298   22.2234 C   0  0  0  0  0  0  0  0  0  0  0  0
    6.6275   -3.6529   26.4382 C   0  0  0  0  0  0  0  0  0  0  0  0
    8.2490    0.0169   21.4271 C   0  0  0  0  0  0  0  0  0  0  0  0
    6.9866   -1.9366   21.3580 C   0  0  0  0  0  0  0  0  0  0  0  0
    6.5725   -3.1710   25.0088 C   0  0  0  0  0  0  0  0  0  0  0  0
    7.8721   -0.1194   23.8831 C   0  0  0  0  0  0  0  0  0  0  0  0
    8.6926   -4.1993   25.4505 C   0  0  0  0  0  0  0  0  0  0  0  0
    8.6609    1.0133   24.4995 C   0  0  0  0  0  0  0  0  0  0  0  0
    8.0487   -3.1115   24.6035 C   0  0  1  0  0  0  0  0  0  0  0  0
    8.6238   -0.7606   22.6929 C   0  0  2  0  0  0  0  0  0  0  0  0
    8.2673   -3.3062   23.1136 C   0  0  0  0  0  0  0  0  0  0  0  0
    6.3062    0.3769   17.3421 N   0  0  0  0  0  0  0  0  0  0  0  0
    7.8777   -4.2278   26.6331 N   0  0  0  0  0  0  0  0  0  0  0  0
    7.2292   -0.6897   20.7790 N   0  0  0  0  0  0  0  0  0  0  0  0
    8.0140   -2.1541   22.4331 N   0  0  0  0  0  0  0  0  0  0  0  0
    5.7137   -3.5772   27.2451 O   0  0  0  0  0  0  0  0  0  0  0  0
    8.8016    1.0414   21.0847 O   0  0  0  0  0  0  0  0  0  0  0  0
    6.1144   -2.7515   21.1388 O   0  0  0  0  0  0  0  0  0  0  0  0
    9.9479    0.5589   24.9534 O   0  0  0  0  0  0  0  0  0  0  0  0
   13.4262   -2.1470   21.1121 Cl  0  0  0  0  0  0  0  0  0  0  0  0
    2.5432    3.3510   20.6369 H   0  0  0  0  0  0  0  0  0  0  0  0
    3.5174    2.1137   22.5168 H   0  0  0  0  0  0  0  0  0  0  0  0
    3.3409    2.9743   18.3364 H   0  0  0  0  0  0  0  0  0  0  0  0
    5.3118    0.4895   22.1572 H   0  0  0  0  0  0  0  0  0  0  0  0
   12.4997    0.6069   24.9723 H   0  0  0  0  0  0  0  0  0  0  0  0
   13.9909   -0.5152   23.3780 H   0  0  0  0  0  0  0  0  0  0  0  0
   10.6017   -2.0254   21.2306 H   0  0  0  0  0  0  0  0  0  0  0  0
    4.9141    1.7511   16.7474 H   0  0  0  0  0  0  0  0  0  0  0  0
    7.6445   -0.9764   18.1043 H   0  0  0  0  0  0  0  0  0  0  0  0
    5.9853   -3.8520   24.3900 H   0  0  0  0  0  0  0  0  0  0  0  0
    6.1215   -2.1747   25.0010 H   0  0  0  0  0  0  0  0  0  0  0  0
    7.7129   -0.8754   24.6698 H   0  0  0  0  0  0  0  0  0  0  0  0
    6.8746    0.2355   23.5743 H   0  0  0  0  0  0  0  0  0  0  0  0
    8.7025   -5.1850   24.9809 H   0  0  0  0  0  0  0  0  0  0  0  0
    9.7070   -3.9261   25.7546 H   0  0  0  0  0  0  0  0  0  0  0  0
    8.8013    1.8559   23.8158 H   0  0  0  0  0  0  0  0  0  0  0  0
    8.1340    1.3960   25.3781 H   0  0  0  0  0  0  0  0  0  0  0  0
    8.4730   -2.1171   24.8676 H   0  0  0  0  0  0  0  0  0  0  0  0
    9.3106   -3.6084   22.9403 H   0  0  0  0  0  0  0  0  0  0  0  0
    7.5920   -4.0955   22.7518 H   0  0  0  0  0  0  0  0  0  0  0  0
    8.1967   -4.5781   27.5310 H   0  0  0  0  0  0  0  0  0  0  0  0
  1  2  1  0  0  0  0
  1  3  2  0  0  0  0
  2  4  2  0  0  0  0
  3 10  1  0  0  0  0
  4 11  1  0  0  0  0
  5  6  1  0  0  0  0
  5 14  2  0  0  0  0
  6 15  2  0  0  0  0
  7 12  2  0  0  0  0
  7 15  1  0  0  0  0
  8 10  2  0  0  0  0
  8 26  1  0  0  0  0
  9 13  1  0  0  0  0
  9 26  2  0  0  0  0
 10 11  1  0  0  0  0
 11 13  2  0  0  0  0
 12 14  1  0  0  0  0
 12 24  1  6  0  0  0
 13 28  1  0  0  0  0
 14 33  1  0  0  0  0
 15 34  1  0  0  0  0
 16 19  1  0  0  0  0
 16 27  1  0  0  0  0
 16 30  2  0  0  0  0
 17 24  1  1  0  0  0
 17 28  1  0  0  0  0
 17 31  2  0  0  0  0
 18 28  1  0  0  0  0
 18 29  1  0  0  0  0
 18 32  2  0  0  0  0
 19 23  1  0  0  0  0
 20 22  1  0  0  0  0
 20 24  1  1  0  0  0
 21 23  1  0  0  0  0
 21 27  1  0  0  0  0
 22 33  1  0  0  0  0
 23 25  1  6  0  0  0
 24 29  1  6  0  0  0
 25 29  1  0  0  0  0
  1 35  1  0  0  0  0
  2 36  1  0  0  0  0
  3 37  1  0  0  0  0
  4 38  1  0  0  0  0
  5 39  1  0  0  0  0
  6 40  1  0  0  0  0
  7 41  1  0  0  0  0
  8 42  1  0  0  0  0
  9 43  1  0  0  0  0
 19 44  1  0  0  0  0
 19 45  1  0  0  0  0
 20 46  1  0  0  0  0
 20 47  1  0  0  0  0
 21 48  1  0  0  0  0
 21 49  1  0  0  0  0
 22 50  1  0  0  0  0
 22 51  1  0  0  0  0
 23 52  1  0  0  0  0
 25 53  1  0  0  0  0
 25 54  1  0  0  0  0
 27 55  1  0  0  0  0
M  END
> <compound>
VLA-UNK-f702bf1c-4

> <compound_smiles>
c1ccc2c(c1)cncc2N3C(=O)[C@@]4(CCOc5c4cc(cc5)Cl)N(C3=O)CC6CC(=O)NC6

> <enantiomer_smiles>
c1ccc2c(c1)cncc2N3C(=O)[C@@]4(CCOc5c4cc(cc5)Cl)N(C3=O)C[C@H]6CC(=O)NC6

> <scaffold>
chromane-5spiro-isoquinoline

> <clash_score>
0

> <docking_score>
-9.620546340942383

> <overlap_score>
1.0

> <MMFF_internal_energy>
69.957519527908

> <docked_smiles>
c1ccc2c(c1)cncc2N3C(=O)[C@@]4(CCOc5c4cc(cc5)Cl)N(C3=O)C[C@H]6CC(=O)NC6

$$$$
VLA-UCB-34f3ed0c-15_1
  -OEChem-12272114573D

 59 64  0     1  0  0  0  0  0999 V2000
    3.3432    2.6279   20.4411 C   0  0  0  0  0  0  0  0  0  0  0  0
    3.8960    1.9291   21.5050 C   0  0  0  0  0  0  0  0  0  0  0  0
    3.7865    2.4205   19.1660 C   0  0  0  0  0  0  0  0  0  0  0  0
    4.8973    1.0233   21.2988 C   0  0  0  0  0  0  0  0  0  0  0  0
   12.0765    0.0316   24.1541 C   0  0  0  0  0  0  0  0  0  0  0  0
   12.9132   -0.6032   23.2569 C   0  0  0  0  0  0  0  0  0  0  0  0
   10.9991   -1.4331   22.0443 C   0  0  0  0  0  0  0  0  0  0  0  0
    5.3278    1.2339   17.6066 C   0  0  0  0  0  0  0  0  0  0  0  0
    6.8438   -0.2892   18.3752 C   0  0  0  0  0  0  0  0  0  0  0  0
    4.8226    1.4906   18.9054 C   0  0  0  0  0  0  0  0  0  0  0  0
    5.3982    0.7733   19.9948 C   0  0  0  0  0  0  0  0  0  0  0  0
   10.1406   -0.7765   22.9250 C   0  0  0  0  0  0  0  0  0  0  0  0
    6.4440   -0.1472   19.6979 C   0  0  0  0  0  0  0  0  0  0  0  0
   10.7040   -0.0625   23.9898 C   0  0  0  0  0  0  0  0  0  0  0  0
   12.3683   -1.3298   22.2234 C   0  0  0  0  0  0  0  0  0  0  0  0
    8.2490    0.0169   21.4271 C   0  0  0  0  0  0  0  0  0  0  0  0
    6.9866   -1.9366   21.3580 C   0  0  0  0  0  0  0  0  0  0  0  0
    7.8721   -0.1194   23.8831 C   0  0  0  0  0  0  0  0  0  0  0  0
    6.6303   -3.2494   24.8824 C   0  0  0  0  0  0  0  0  0  0  0  0
    8.8270   -4.1885   25.2862 C   0  0  0  0  0  0  0  0  0  0  0  0
    6.3984   -3.0689   26.3779 C   0  0  0  0  0  0  0  0  0  0  0  0
    8.6511   -4.0324   26.7919 C   0  0  0  0  0  0  0  0  0  0  0  0
    8.6609    1.0133   24.4995 C   0  0  0  0  0  0  0  0  0  0  0  0
    8.6238   -0.7606   22.6929 C   0  0  2  0  0  0  0  0  0  0  0  0
    8.2673   -3.3062   23.1136 C   0  0  0  0  0  0  0  0  0  0  0  0
    6.3062    0.3769   17.3421 N   0  0  0  0  0  0  0  0  0  0  0  0
    7.2292   -0.6897   20.7790 N   0  0  0  0  0  0  0  0  0  0  0  0
    8.0140   -2.1541   22.4331 N   0  0  0  0  0  0  0  0  0  0  0  0
    8.0616   -3.1679   24.5549 N   0  0  0  0  0  0  0  0  0  0  0  0
    7.1964   -4.0884   27.1197 N   0  3  0  0  0  0  0  0  0  0  0  0
    8.8016    1.0414   21.0847 O   0  0  0  0  0  0  0  0  0  0  0  0
    6.1144   -2.7515   21.1388 O   0  0  0  0  0  0  0  0  0  0  0  0
    9.9479    0.5589   24.9534 O   0  0  0  0  0  0  0  0  0  0  0  0
   13.4262   -2.1470   21.1121 Cl  0  0  0  0  0  0  0  0  0  0  0  0
    2.5432    3.3510   20.6369 H   0  0  0  0  0  0  0  0  0  0  0  0
    3.5174    2.1137   22.5168 H   0  0  0  0  0  0  0  0  0  0  0  0
    3.3409    2.9743   18.3364 H   0  0  0  0  0  0  0  0  0  0  0  0
    5.3118    0.4895   22.1572 H   0  0  0  0  0  0  0  0  0  0  0  0
   12.4997    0.6069   24.9723 H   0  0  0  0  0  0  0  0  0  0  0  0
   13.9909   -0.5152   23.3780 H   0  0  0  0  0  0  0  0  0  0  0  0
   10.6017   -2.0254   21.2306 H   0  0  0  0  0  0  0  0  0  0  0  0
    4.9141    1.7511   16.7474 H   0  0  0  0  0  0  0  0  0  0  0  0
    7.6445   -0.9764   18.1043 H   0  0  0  0  0  0  0  0  0  0  0  0
    7.7129   -0.8754   24.6698 H   0  0  0  0  0  0  0  0  0  0  0  0
    6.8746    0.2355   23.5743 H   0  0  0  0  0  0  0  0  0  0  0  0
    6.2472   -4.2331   24.5977 H   0  0  0  0  0  0  0  0  0  0  0  0
    6.0612   -2.4976   24.3267 H   0  0  0  0  0  0  0  0  0  0  0  0
    9.8902   -4.1344   25.0305 H   0  0  0  0  0  0  0  0  0  0  0  0
    8.4685   -5.1826   25.0057 H   0  0  0  0  0  0  0  0  0  0  0  0
    6.7362   -2.0868   26.7216 H   0  0  0  0  0  0  0  0  0  0  0  0
    5.3482   -3.2092   26.6559 H   0  0  0  0  0  0  0  0  0  0  0  0
    9.1444   -4.8329   27.3537 H   0  0  0  0  0  0  0  0  0  0  0  0
    9.0203   -3.0638   27.1416 H   0  0  0  0  0  0  0  0  0  0  0  0
    8.8013    1.8559   23.8158 H   0  0  0  0  0  0  0  0  0  0  0  0
    8.1340    1.3960   25.3781 H   0  0  0  0  0  0  0  0  0  0  0  0
    9.3051   -3.5981   22.9353 H   0  0  0  0  0  0  0  0  0  0  0  0
    7.5952   -4.0818   22.7382 H   0  0  0  0  0  0  0  0  0  0  0  0
    7.0663   -3.9572   28.1326 H   0  0  0  0  0  0  0  0  0  0  0  0
    6.8329   -5.0283   26.9102 H   0  0  0  0  0  0  0  0  0  0  0  0
  1  2  1  0  0  0  0
  1  3  2  0  0  0  0
  2  4  2  0  0  0  0
  3 10  1  0  0  0  0
  4 11  1  0  0  0  0
  5  6  1  0  0  0  0
  5 14  2  0  0  0  0
  6 15  2  0  0  0  0
  7 12  2  0  0  0  0
  7 15  1  0  0  0  0
  8 10  2  0  0  0  0
  8 26  1  0  0  0  0
  9 13  1  0  0  0  0
  9 26  2  0  0  0  0
 10 11  1  0  0  0  0
 11 13  2  0  0  0  0
 12 14  1  0  0  0  0
 12 24  1  6  0  0  0
 13 27  1  0  0  0  0
 14 33  1  0  0  0  0
 15 34  1  0  0  0  0
 16 24  1  1  0  0  0
 16 27  1  0  0  0  0
 16 31  2  0  0  0  0
 17 27  1  0  0  0  0
 17 28  1  0  0  0  0
 17 32  2  0  0  0  0
 18 23  1  0  0  0  0
 18 24  1  1  0  0  0
 19 21  1  0  0  0  0
 19 29  1  0  0  0  0
 20 22  1  0  0  0  0
 20 29  1  0  0  0  0
 21 30  1  0  0  0  0
 22 30  1  0  0  0  0
 23 33  1  0  0  0  0
 24 28  1  6  0  0  0
 25 28  1  0  0  0  0
 25 29  1  0  0  0  0
  1 35  1  0  0  0  0
  2 36  1  0  0  0  0
  3 37  1  0  0  0  0
  4 38  1  0  0  0  0
  5 39  1  0  0  0  0
  6 40  1  0  0  0  0
  7 41  1  0  0  0  0
  8 42  1  0  0  0  0
  9 43  1  0  0  0  0
 18 44  1  0  0  0  0
 18 45  1  0  0  0  0
 19 46  1  0  0  0  0
 19 47  1  0  0  0  0
 20 48  1  0  0  0  0
 20 49  1  0  0  0  0
 21 50  1  0  0  0  0
 21 51  1  0  0  0  0
 22 52  1  0  0  0  0
 22 53  1  0  0  0  0
 23 54  1  0  0  0  0
 23 55  1  0  0  0  0
 25 56  1  0  0  0  0
 25 57  1  0  0  0  0
 30 58  1  0  0  0  0
 30 59  1  0  0  0  0
M  CHG  1  30   1
M  END
> <compound>
VLA-UCB-34f3ed0c-15

> <compound_smiles>
c1ccc2c(c1)cncc2N3C(=O)[C@@]4(CCOc5c4cc(cc5)Cl)N(C3=O)CN6CCNCC6

> <enantiomer_smiles>
c1ccc2c(c1)cncc2N3C(=O)[C@@]4(CCOc5c4cc(cc5)Cl)N(C3=O)CN6CCNCC6

> <scaffold>
chromane-5spiro-isoquinoline

> <clash_score>
0

> <docking_score>
-9.417261123657227

> <overlap_score>
1.0

> <MMFF_internal_energy>
114.1482126415831

> <docked_smiles>
c1ccc2c(c1)cncc2N3C(=O)[C@@]4(CCOc5c4cc(cc5)Cl)N(C3=O)CN6CC[NH2+]CC6

$$$$
VLA-UNK-f702bf1c-4_1
  -OEChem-12272114573D

 55 60  0     1  0  0  0  0  0999 V2000
    3.3432    2.6279   20.4411 C   0  0  0  0  0  0  0  0  0  0  0  0
    3.8960    1.9291   21.5050 C   0  0  0  0  0  0  0  0  0  0  0  0
    3.7865    2.4205   19.1660 C   0  0  0  0  0  0  0  0  0  0  0  0
    4.8973    1.0233   21.2988 C   0  0  0  0  0  0  0  0  0  0  0  0
   12.0765    0.0316   24.1541 C   0  0  0  0  0  0  0  0  0  0  0  0
   12.9132   -0.6032   23.2569 C   0  0  0  0  0  0  0  0  0  0  0  0
   10.9991   -1.4331   22.0443 C   0  0  0  0  0  0  0  0  0  0  0  0
    5.3278    1.2339   17.6066 C   0  0  0  0  0  0  0  0  0  0  0  0
    6.8438   -0.2892   18.3752 C   0  0  0  0  0  0  0  0  0  0  0  0
    4.8226    1.4906   18.9054 C   0  0  0  0  0  0  0  0  0  0  0  0
    5.3982    0.7733   19.9948 C   0  0  0  0  0  0  0  0  0  0  0  0
   10.1406   -0.7765   22.9250 C   0  0  0  0  0  0  0  0  0  0  0  0
    6.4440   -0.1472   19.6979 C   0  0  0  0  0  0  0  0  0  0  0  0
   10.7040   -0.0625   23.9898 C   0  0  0  0  0  0  0  0  0  0  0  0
   12.3683   -1.3298   22.2234 C   0  0  0  0  0  0  0  0  0  0  0  0
    8.0036   -6.4777   21.1846 C   0  0  0  0  0  0  0  0  0  0  0  0
    8.2490    0.0169   21.4271 C   0  0  0  0  0  0  0  0  0  0  0  0
    6.9866   -1.9366   21.3580 C   0  0  0  0  0  0  0  0  0  0  0  0
    7.5016   -5.0808   21.4572 C   0  0  0  0  0  0  0  0  0  0  0  0
    7.8721   -0.1194   23.8831 C   0  0  0  0  0  0  0  0  0  0  0  0
    9.3834   -5.5708   22.8626 C   0  0  0  0  0  0  0  0  0  0  0  0
    8.6609    1.0133   24.4995 C   0  0  0  0  0  0  0  0  0  0  0  0
    8.6865   -4.4135   22.1623 C   0  0  2  0  0  0  0  0  0  0  0  0
    8.6238   -0.7606   22.6929 C   0  0  2  0  0  0  0  0  0  0  0  0
    8.2673   -3.3062   23.1136 C   0  0  0  0  0  0  0  0  0  0  0  0
    6.3062    0.3769   17.3421 N   0  0  0  0  0  0  0  0  0  0  0  0
    9.0915   -6.6974   22.0206 N   0  0  0  0  0  0  0  0  0  0  0  0
    7.2292   -0.6897   20.7790 N   0  0  0  0  0  0  0  0  0  0  0  0
    8.0140   -2.1541   22.4331 N   0  0  0  0  0  0  0  0  0  0  0  0
    7.5038   -7.2670   20.3977 O   0  0  0  0  0  0  0  0  0  0  0  0
    8.8016    1.0414   21.0847 O   0  0  0  0  0  0  0  0  0  0  0  0
    6.1144   -2.7515   21.1388 O   0  0  0  0  0  0  0  0  0  0  0  0
    9.9479    0.5589   24.9534 O   0  0  0  0  0  0  0  0  0  0  0  0
   13.4262   -2.1470   21.1121 Cl  0  0  0  0  0  0  0  0  0  0  0  0
    2.5432    3.3510   20.6369 H   0  0  0  0  0  0  0  0  0  0  0  0
    3.5174    2.1137   22.5168 H   0  0  0  0  0  0  0  0  0  0  0  0
    3.3409    2.9743   18.3364 H   0  0  0  0  0  0  0  0  0  0  0  0
    5.3118    0.4895   22.1572 H   0  0  0  0  0  0  0  0  0  0  0  0
   12.4997    0.6069   24.9723 H   0  0  0  0  0  0  0  0  0  0  0  0
   13.9909   -0.5152   23.3780 H   0  0  0  0  0  0  0  0  0  0  0  0
   10.6017   -2.0254   21.2306 H   0  0  0  0  0  0  0  0  0  0  0  0
    4.9141    1.7511   16.7474 H   0  0  0  0  0  0  0  0  0  0  0  0
    7.6445   -0.9764   18.1043 H   0  0  0  0  0  0  0  0  0  0  0  0
    7.2498   -4.5714   20.5233 H   0  0  0  0  0  0  0  0  0  0  0  0
    6.6162   -5.1469   22.0978 H   0  0  0  0  0  0  0  0  0  0  0  0
    7.7129   -0.8754   24.6698 H   0  0  0  0  0  0  0  0  0  0  0  0
    6.8746    0.2355   23.5743 H   0  0  0  0  0  0  0  0  0  0  0  0
   10.4657   -5.4327   22.9325 H   0  0  0  0  0  0  0  0  0  0  0  0
    8.9746   -5.7779   23.8568 H   0  0  0  0  0  0  0  0  0  0  0  0
    8.8013    1.8559   23.8158 H   0  0  0  0  0  0  0  0  0  0  0  0
    8.1340    1.3960   25.3781 H   0  0  0  0  0  0  0  0  0  0  0  0
    9.3588   -3.9886   21.4081 H   0  0  0  0  0  0  0  0  0  0  0  0
    7.3590   -3.6184   23.6499 H   0  0  0  0  0  0  0  0  0  0  0  0
    9.0770   -3.1283   23.8366 H   0  0  0  0  0  0  0  0  0  0  0  0
    9.5926   -7.5790   22.0639 H   0  0  0  0  0  0  0  0  0  0  0  0
  1  2  1  0  0  0  0
  1  3  2  0  0  0  0
  2  4  2  0  0  0  0
  3 10  1  0  0  0  0
  4 11  1  0  0  0  0
  5  6  1  0  0  0  0
  5 14  2  0  0  0  0
  6 15  2  0  0  0  0
  7 12  2  0  0  0  0
  7 15  1  0  0  0  0
  8 10  2  0  0  0  0
  8 26  1  0  0  0  0
  9 13  1  0  0  0  0
  9 26  2  0  0  0  0
 10 11  1  0  0  0  0
 11 13  2  0  0  0  0
 12 14  1  0  0  0  0
 12 24  1  6  0  0  0
 13 28  1  0  0  0  0
 14 33  1  0  0  0  0
 15 34  1  0  0  0  0
 16 19  1  0  0  0  0
 16 27  1  0  0  0  0
 16 30  2  0  0  0  0
 17 24  1  1  0  0  0
 17 28  1  0  0  0  0
 17 31  2  0  0  0  0
 18 28  1  0  0  0  0
 18 29  1  0  0  0  0
 18 32  2  0  0  0  0
 19 23  1  0  0  0  0
 20 22  1  0  0  0  0
 20 24  1  1  0  0  0
 21 23  1  0  0  0  0
 21 27  1  0  0  0  0
 22 33  1  0  0  0  0
 23 25  1  1  0  0  0
 24 29  1  6  0  0  0
 25 29  1  0  0  0  0
  1 35  1  0  0  0  0
  2 36  1  0  0  0  0
  3 37  1  0  0  0  0
  4 38  1  0  0  0  0
  5 39  1  0  0  0  0
  6 40  1  0  0  0  0
  7 41  1  0  0  0  0
  8 42  1  0  0  0  0
  9 43  1  0  0  0  0
 19 44  1  0  0  0  0
 19 45  1  0  0  0  0
 20 46  1  0  0  0  0
 20 47  1  0  0  0  0
 21 48  1  0  0  0  0
 21 49  1  0  0  0  0
 22 50  1  0  0  0  0
 22 51  1  0  0  0  0
 23 52  1  0  0  0  0
 25 53  1  0  0  0  0
 25 54  1  0  0  0  0
 27 55  1  0  0  0  0
M  END
> <compound>
VLA-UNK-f702bf1c-4

> <compound_smiles>
c1ccc2c(c1)cncc2N3C(=O)[C@@]4(CCOc5c4cc(cc5)Cl)N(C3=O)CC6CC(=O)NC6

> <enantiomer_smiles>
c1ccc2c(c1)cncc2N3C(=O)[C@@]4(CCOc5c4cc(cc5)Cl)N(C3=O)C[C@@H]6CC(=O)NC6

> <scaffold>
chromane-5spiro-isoquinoline

> <clash_score>
1.5119573854108004

> <docking_score>
3.4028234663852886e+38

> <overlap_score>
1.0

> <MMFF_internal_energy>
53.957818427288565

> <docked_smiles>
c1ccc2c(c1)cncc2N3C(=O)[C@@]4(CCOc5c4cc(cc5)Cl)N(C3=O)C[C@@H]6CC(=O)NC6

$$$$
VLA-UNK-f702bf1c-1_1
  -OEChem-12272114573D

 54 59  0     1  0  0  0  0  0999 V2000
    3.3432    2.6279   20.4411 C   0  0  0  0  0  0  0  0  0  0  0  0
    3.8960    1.9291   21.5050 C   0  0  0  0  0  0  0  0  0  0  0  0
    3.7865    2.4205   19.1660 C   0  0  0  0  0  0  0  0  0  0  0  0
    4.8973    1.0233   21.2988 C   0  0  0  0  0  0  0  0  0  0  0  0
   12.0765    0.0316   24.1541 C   0  0  0  0  0  0  0  0  0  0  0  0
   12.9132   -0.6032   23.2569 C   0  0  0  0  0  0  0  0  0  0  0  0
    6.0930   -2.0978   26.0216 C   0  0  0  0  0  0  0  0  0  0  0  0
   10.9991   -1.4331   22.0443 C   0  0  0  0  0  0  0  0  0  0  0  0
    4.7046   -2.1142   25.7896 C   0  0  0  0  0  0  0  0  0  0  0  0
    5.3278    1.2339   17.6066 C   0  0  0  0  0  0  0  0  0  0  0  0
    6.8438   -0.2892   18.3752 C   0  0  0  0  0  0  0  0  0  0  0  0
    4.8226    1.4906   18.9054 C   0  0  0  0  0  0  0  0  0  0  0  0
    5.3982    0.7733   19.9948 C   0  0  0  0  0  0  0  0  0  0  0  0
   10.1406   -0.7765   22.9250 C   0  0  0  0  0  0  0  0  0  0  0  0
    6.4440   -0.1472   19.6979 C   0  0  0  0  0  0  0  0  0  0  0  0
   10.7040   -0.0625   23.9898 C   0  0  0  0  0  0  0  0  0  0  0  0
   12.3683   -1.3298   22.2234 C   0  0  0  0  0  0  0  0  0  0  0  0
    6.6247   -2.8088   24.9736 C   0  0  0  0  0  0  0  0  0  0  0  0
    8.2490    0.0169   21.4271 C   0  0  0  0  0  0  0  0  0  0  0  0
    6.9866   -1.9366   21.3580 C   0  0  0  0  0  0  0  0  0  0  0  0
    7.8721   -0.1194   23.8831 C   0  0  0  0  0  0  0  0  0  0  0  0
    8.6609    1.0133   24.4995 C   0  0  0  0  0  0  0  0  0  0  0  0
    8.6238   -0.7606   22.6929 C   0  0  2  0  0  0  0  0  0  0  0  0
    8.0463   -3.1686   24.6180 C   0  0  0  0  0  0  0  0  0  0  0  0
    8.2673   -3.3062   23.1136 C   0  0  0  0  0  0  0  0  0  0  0  0
    6.3062    0.3769   17.3421 N   0  0  0  0  0  0  0  0  0  0  0  0
    4.3749   -2.7824   24.6811 N   0  0  0  0  0  0  0  0  0  0  0  0
    5.5637   -3.1926   24.2072 N   0  0  0  0  0  0  0  0  0  0  0  0
    7.2292   -0.6897   20.7790 N   0  0  0  0  0  0  0  0  0  0  0  0
    8.0140   -2.1541   22.4331 N   0  0  0  0  0  0  0  0  0  0  0  0
    8.8016    1.0414   21.0847 O   0  0  0  0  0  0  0  0  0  0  0  0
    6.1144   -2.7515   21.1388 O   0  0  0  0  0  0  0  0  0  0  0  0
    9.9479    0.5589   24.9534 O   0  0  0  0  0  0  0  0  0  0  0  0
   13.4262   -2.1470   21.1121 Cl  0  0  0  0  0  0  0  0  0  0  0  0
    2.5432    3.3510   20.6369 H   0  0  0  0  0  0  0  0  0  0  0  0
    3.5174    2.1137   22.5168 H   0  0  0  0  0  0  0  0  0  0  0  0
    3.3409    2.9743   18.3364 H   0  0  0  0  0  0  0  0  0  0  0  0
    5.3118    0.4895   22.1572 H   0  0  0  0  0  0  0  0  0  0  0  0
   12.4997    0.6069   24.9723 H   0  0  0  0  0  0  0  0  0  0  0  0
   13.9909   -0.5152   23.3780 H   0  0  0  0  0  0  0  0  0  0  0  0
    6.6308   -1.6359   26.8367 H   0  0  0  0  0  0  0  0  0  0  0  0
   10.6017   -2.0254   21.2306 H   0  0  0  0  0  0  0  0  0  0  0  0
    3.9193   -1.6673   26.3823 H   0  0  0  0  0  0  0  0  0  0  0  0
    4.9141    1.7511   16.7474 H   0  0  0  0  0  0  0  0  0  0  0  0
    7.6445   -0.9764   18.1043 H   0  0  0  0  0  0  0  0  0  0  0  0
    7.7129   -0.8754   24.6698 H   0  0  0  0  0  0  0  0  0  0  0  0
    6.8746    0.2355   23.5743 H   0  0  0  0  0  0  0  0  0  0  0  0
    8.8013    1.8559   23.8158 H   0  0  0  0  0  0  0  0  0  0  0  0
    8.1340    1.3960   25.3781 H   0  0  0  0  0  0  0  0  0  0  0  0
    8.2989   -4.1165   25.1098 H   0  0  0  0  0  0  0  0  0  0  0  0
    8.7335   -2.4205   25.0337 H   0  0  0  0  0  0  0  0  0  0  0  0
    9.3111   -3.5670   22.9123 H   0  0  0  0  0  0  0  0  0  0  0  0
    7.6312   -4.0858   22.6815 H   0  0  0  0  0  0  0  0  0  0  0  0
    5.5767   -3.7328   23.3509 H   0  0  0  0  0  0  0  0  0  0  0  0
  1  2  1  0  0  0  0
  1  3  2  0  0  0  0
  2  4  2  0  0  0  0
  3 12  1  0  0  0  0
  4 13  1  0  0  0  0
  5  6  1  0  0  0  0
  5 16  2  0  0  0  0
  6 17  2  0  0  0  0
  7  9  1  0  0  0  0
  7 18  2  0  0  0  0
  8 14  2  0  0  0  0
  8 17  1  0  0  0  0
  9 27  2  0  0  0  0
 10 12  2  0  0  0  0
 10 26  1  0  0  0  0
 11 15  1  0  0  0  0
 11 26  2  0  0  0  0
 12 13  1  0  0  0  0
 13 15  2  0  0  0  0
 14 16  1  0  0  0  0
 14 23  1  6  0  0  0
 15 29  1  0  0  0  0
 16 33  1  0  0  0  0
 17 34  1  0  0  0  0
 18 24  1  0  0  0  0
 18 28  1  0  0  0  0
 19 23  1  1  0  0  0
 19 29  1  0  0  0  0
 19 31  2  0  0  0  0
 20 29  1  0  0  0  0
 20 30  1  0  0  0  0
 20 32  2  0  0  0  0
 21 22  1  0  0  0  0
 21 23  1  1  0  0  0
 22 33  1  0  0  0  0
 23 30  1  6  0  0  0
 24 25  1  0  0  0  0
 25 30  1  0  0  0  0
 27 28  1  0  0  0  0
  1 35  1  0  0  0  0
  2 36  1  0  0  0  0
  3 37  1  0  0  0  0
  4 38  1  0  0  0  0
  5 39  1  0  0  0  0
  6 40  1  0  0  0  0
  7 41  1  0  0  0  0
  8 42  1  0  0  0  0
  9 43  1  0  0  0  0
 10 44  1  0  0  0  0
 11 45  1  0  0  0  0
 21 46  1  0  0  0  0
 21 47  1  0  0  0  0
 22 48  1  0  0  0  0
 22 49  1  0  0  0  0
 24 50  1  0  0  0  0
 24 51  1  0  0  0  0
 25 52  1  0  0  0  0
 25 53  1  0  0  0  0
 28 54  1  0  0  0  0
M  END
> <compound>
VLA-UNK-f702bf1c-1

> <compound_smiles>
c1ccc2c(c1)cncc2N3C(=O)[C@@]4(CCOc5c4cc(cc5)Cl)N(C3=O)CCc6cc[nH]n6

> <enantiomer_smiles>
c1ccc2c(c1)cncc2N3C(=O)[C@@]4(CCOc5c4cc(cc5)Cl)N(C3=O)CCc6cc[nH]n6

> <scaffold>
chromane-5spiro-isoquinoline

> <clash_score>
0.6476086592848915

> <docking_score>
-9.409634590148926

> <overlap_score>
1.0

> <MMFF_internal_energy>
95.58979481615675

> <docked_smiles>
c1ccc2c(c1)cncc2N3C(=O)[C@@]4(CCOc5c4cc(cc5)Cl)N(C3=O)CCc6ccn[nH]6

$$$$
EDJ-MED-8bb691af-2_1
  -OEChem-12272114573D

 59 64  0     1  0  0  0  0  0999 V2000
    7.0193    5.4401   23.9847 C   0  0  0  0  0  0  0  0  0  0  0  0
    3.3432    2.6279   20.4411 C   0  0  0  0  0  0  0  0  0  0  0  0
    3.8960    1.9291   21.5050 C   0  0  0  0  0  0  0  0  0  0  0  0
    3.7865    2.4205   19.1660 C   0  0  0  0  0  0  0  0  0  0  0  0
    4.8973    1.0233   21.2988 C   0  0  0  0  0  0  0  0  0  0  0  0
   12.0765    0.0316   24.1541 C   0  0  0  0  0  0  0  0  0  0  0  0
   12.9132   -0.6032   23.2569 C   0  0  0  0  0  0  0  0  0  0  0  0
   10.9991   -1.4331   22.0443 C   0  0  0  0  0  0  0  0  0  0  0  0
    5.3278    1.2339   17.6066 C   0  0  0  0  0  0  0  0  0  0  0  0
    6.8438   -0.2892   18.3752 C   0  0  0  0  0  0  0  0  0  0  0  0
    4.8226    1.4906   18.9054 C   0  0  0  0  0  0  0  0  0  0  0  0
    5.3982    0.7733   19.9948 C   0  0  0  0  0  0  0  0  0  0  0  0
   10.7040   -0.0625   23.9898 C   0  0  0  0  0  0  0  0  0  0  0  0
   10.1406   -0.7765   22.9250 C   0  0  0  0  0  0  0  0  0  0  0  0
    6.4440   -0.1472   19.6979 C   0  0  0  0  0  0  0  0  0  0  0  0
   12.3683   -1.3298   22.2234 C   0  0  0  0  0  0  0  0  0  0  0  0
    9.9479    0.5589   24.9534 C   0  0  0  0  0  0  0  0  0  0  0  0
    9.5293    5.6665   23.9189 C   0  0  0  0  0  0  0  0  0  0  0  0
    9.0786    6.0897   25.2858 C   0  0  0  0  0  0  0  0  0  0  0  0
    8.0140   -2.1541   22.4331 C   0  0  0  0  0  0  0  0  0  0  0  0
    6.9866   -1.9366   21.3580 C   0  0  0  0  0  0  0  0  0  0  0  0
    8.2490    0.0169   21.4271 C   0  0  0  0  0  0  0  0  0  0  0  0
    7.8721   -0.1194   23.8831 C   0  0  0  0  0  0  0  0  0  0  0  0
    8.2929    5.0435   24.5273 C   0  0  0  0  0  0  0  0  0  0  0  0
    8.6238   -0.7606   22.6929 C   0  0  3  0  0  0  0  0  0  0  0  0
    8.3771    3.6091   24.9990 C   0  0  0  0  0  0  0  0  0  0  0  0
    5.9932    5.7596   23.5475 N   0  0  0  0  0  0  0  0  0  0  0  0
    6.3062    0.3769   17.3421 N   0  0  0  0  0  0  0  0  0  0  0  0
    7.2292   -0.6897   20.7790 N   0  0  2  0  0  0  0  0  0  0  0  0
    8.6609    1.0133   24.4995 N   0  0  1  0  0  0  0  0  0  0  0  0
    7.4203    2.5313   22.8195 O   0  0  0  0  0  0  0  0  0  0  0  0
    9.9252    2.7294   23.0866 O   0  0  0  0  0  0  0  0  0  0  0  0
    8.6104    2.4902   23.6416 S   0  0  0  0  0  0  0  0  0  0  0  0
   13.4287   -2.1422   21.1116 Cl  0  0  0  0  0  0  0  0  0  0  0  0
    2.5434    3.3513   20.6369 H   0  0  0  0  0  0  0  0  0  0  0  0
    3.5178    2.1138   22.5169 H   0  0  0  0  0  0  0  0  0  0  0  0
    3.3410    2.9744   18.3364 H   0  0  0  0  0  0  0  0  0  0  0  0
    5.3113    0.4888   22.1570 H   0  0  0  0  0  0  0  0  0  0  0  0
   12.5033    0.5979   24.9735 H   0  0  0  0  0  0  0  0  0  0  0  0
   13.9916   -0.5171   23.3792 H   0  0  0  0  0  0  0  0  0  0  0  0
   10.6203   -2.0220   21.2260 H   0  0  0  0  0  0  0  0  0  0  0  0
    4.9138    1.7514   16.7477 H   0  0  0  0  0  0  0  0  0  0  0  0
    7.6447   -0.9761   18.1049 H   0  0  0  0  0  0  0  0  0  0  0  0
    9.7589   -0.1254   25.8166 H   0  0  0  0  0  0  0  0  0  0  0  0
   10.4902    1.4418   25.3736 H   0  0  0  0  0  0  0  0  0  0  0  0
    9.4150    6.3788   23.1096 H   0  0  0  0  0  0  0  0  0  0  0  0
   10.4305    5.0683   23.8495 H   0  0  0  0  0  0  0  0  0  0  0  0
    9.6786    5.7756   26.1320 H   0  0  0  0  0  0  0  0  0  0  0  0
    8.6636    7.0857   25.3909 H   0  0  0  0  0  0  0  0  0  0  0  0
    7.5120   -2.5256   23.3394 H   0  0  0  0  0  0  0  0  0  0  0  0
    8.7599   -2.9071   22.1434 H   0  0  0  0  0  0  0  0  0  0  0  0
    7.0409   -2.7507   20.5906 H   0  0  0  0  0  0  0  0  0  0  0  0
    5.9561   -2.0165   21.7926 H   0  0  0  0  0  0  0  0  0  0  0  0
    7.8793    1.0377   21.6889 H   0  0  0  0  0  0  0  0  0  0  0  0
    9.1364    0.1917   20.7693 H   0  0  0  0  0  0  0  0  0  0  0  0
    6.8832    0.2670   23.5710 H   0  0  0  0  0  0  0  0  0  0  0  0
    7.6788   -0.8758   24.6657 H   0  0  0  0  0  0  0  0  0  0  0  0
    7.4569    3.3100   25.5086 H   0  0  0  0  0  0  0  0  0  0  0  0
    9.2208    3.4699   25.6803 H   0  0  0  0  0  0  0  0  0  0  0  0
  1 24  1  0  0  0  0
  1 27  3  0  0  0  0
  2  3  1  0  0  0  0
  2  4  2  0  0  0  0
  3  5  2  0  0  0  0
  4 11  1  0  0  0  0
  5 12  1  0  0  0  0
  6  7  1  0  0  0  0
  6 13  2  0  0  0  0
  7 16  2  0  0  0  0
  8 14  2  0  0  0  0
  8 16  1  0  0  0  0
  9 11  2  0  0  0  0
  9 28  1  0  0  0  0
 10 15  1  0  0  0  0
 10 28  2  0  0  0  0
 11 12  1  0  0  0  0
 12 15  2  0  0  0  0
 13 14  1  0  0  0  0
 13 17  1  0  0  0  0
 14 25  1  0  0  0  0
 15 29  1  1  0  0  0
 16 34  1  0  0  0  0
 17 30  1  0  0  0  0
 18 19  1  0  0  0  0
 18 24  1  0  0  0  0
 19 24  1  0  0  0  0
 20 21  1  0  0  0  0
 20 25  1  0  0  0  0
 21 29  1  0  0  0  0
 22 25  1  0  0  0  0
 22 29  1  0  0  0  0
 23 25  1  0  0  0  0
 23 30  1  0  0  0  0
 24 26  1  0  0  0  0
 26 33  1  0  0  0  0
 30 33  1  1  0  0  0
 31 33  2  0  0  0  0
 32 33  2  0  0  0  0
  2 35  1  0  0  0  0
  3 36  1  0  0  0  0
  4 37  1  0  0  0  0
  5 38  1  0  0  0  0
  6 39  1  0  0  0  0
  7 40  1  0  0  0  0
  8 41  1  0  0  0  0
  9 42  1  0  0  0  0
 10 43  1  0  0  0  0
 17 44  1  0  0  0  0
 17 45  1  0  0  0  0
 18 46  1  0  0  0  0
 18 47  1  0  0  0  0
 19 48  1  0  0  0  0
 19 49  1  0  0  0  0
 20 50  1  0  0  0  0
 20 51  1  0  0  0  0
 21 52  1  0  0  0  0
 21 53  1  0  0  0  0
 22 54  1  0  0  0  0
 22 55  1  0  0  0  0
 23 56  1  0  0  0  0
 23 57  1  0  0  0  0
 26 58  1  0  0  0  0
 26 59  1  0  0  0  0
M  END
> <compound>
EDJ-MED-8bb691af-2

> <compound_smiles>
c1ccc2c(c1)cncc2N3CCC4(C3)CN(Cc5c4cc(cc5)Cl)S(=O)(=O)CC6(CC6)C#N

> <enantiomer_smiles>
c1ccc2c(c1)cncc2[N@@]3CCC4(C3)C[N@@](Cc5c4cc(cc5)Cl)S(=O)(=O)CC6(CC6)C#N

> <scaffold>
tetrahydroisoquinoline-5spiro-isoquinoline

> <clash_score>
0

> <docking_score>
-8.239612579345703

> <overlap_score>
0.9474354386329651

> <MMFF_internal_energy>
139.29714048089397

> <docked_smiles>
c1ccc2c(c1)cncc2N3CC[C@@]4(C3)C[N@@](Cc5c4cc(cc5)Cl)S(=O)(=O)CC6(CC6)C#N

$$$$
VLA-UNK-f702bf1c-8_1
  -OEChem-12272114573D

 53 58  0     1  0  0  0  0  0999 V2000
    3.3432    2.6279   20.4411 C   0  0  0  0  0  0  0  0  0  0  0  0
    3.8960    1.9291   21.5050 C   0  0  0  0  0  0  0  0  0  0  0  0
    3.7865    2.4205   19.1660 C   0  0  0  0  0  0  0  0  0  0  0  0
    4.8973    1.0233   21.2988 C   0  0  0  0  0  0  0  0  0  0  0  0
   12.0765    0.0316   24.1541 C   0  0  0  0  0  0  0  0  0  0  0  0
   12.9132   -0.6032   23.2569 C   0  0  0  0  0  0  0  0  0  0  0  0
   10.9991   -1.4331   22.0443 C   0  0  0  0  0  0  0  0  0  0  0  0
    5.3278    1.2339   17.6066 C   0  0  0  0  0  0  0  0  0  0  0  0
    6.8438   -0.2892   18.3752 C   0  0  0  0  0  0  0  0  0  0  0  0
    6.1982   -1.5000   26.4533 C   0  0  0  0  0  0  0  0  0  0  0  0
    4.8226    1.4906   18.9054 C   0  0  0  0  0  0  0  0  0  0  0  0
    5.3982    0.7733   19.9948 C   0  0  0  0  0  0  0  0  0  0  0  0
   10.1406   -0.7765   22.9250 C   0  0  0  0  0  0  0  0  0  0  0  0
    6.4440   -0.1472   19.6979 C   0  0  0  0  0  0  0  0  0  0  0  0
   10.7040   -0.0625   23.9898 C   0  0  0  0  0  0  0  0  0  0  0  0
   12.3683   -1.3298   22.2234 C   0  0  0  0  0  0  0  0  0  0  0  0
    6.5203   -2.8381   24.8839 C   0  0  0  0  0  0  0  0  0  0  0  0
    8.2490    0.0169   21.4271 C   0  0  0  0  0  0  0  0  0  0  0  0
    6.9866   -1.9366   21.3580 C   0  0  0  0  0  0  0  0  0  0  0  0
    7.8721   -0.1194   23.8831 C   0  0  0  0  0  0  0  0  0  0  0  0
    8.6609    1.0133   24.4995 C   0  0  0  0  0  0  0  0  0  0  0  0
    8.6238   -0.7606   22.6929 C   0  0  2  0  0  0  0  0  0  0  0  0
    7.0503   -3.8267   23.8746 C   0  0  0  0  0  0  0  0  0  0  0  0
    8.2673   -3.3062   23.1136 C   0  0  0  0  0  0  0  0  0  0  0  0
    6.3062    0.3769   17.3421 N   0  0  0  0  0  0  0  0  0  0  0  0
    7.1543   -2.3039   25.9018 N   0  0  0  0  0  0  0  0  0  0  0  0
    5.0124   -1.5032   25.8407 N   0  0  0  0  0  0  0  0  0  0  0  0
    5.2452   -2.3668   24.8406 N   0  0  0  0  0  0  0  0  0  0  0  0
    7.2292   -0.6897   20.7790 N   0  0  0  0  0  0  0  0  0  0  0  0
    8.0140   -2.1541   22.4331 N   0  0  0  0  0  0  0  0  0  0  0  0
    8.8016    1.0414   21.0847 O   0  0  0  0  0  0  0  0  0  0  0  0
    6.1144   -2.7515   21.1388 O   0  0  0  0  0  0  0  0  0  0  0  0
    9.9479    0.5589   24.9534 O   0  0  0  0  0  0  0  0  0  0  0  0
   13.4262   -2.1470   21.1121 Cl  0  0  0  0  0  0  0  0  0  0  0  0
    2.5432    3.3510   20.6369 H   0  0  0  0  0  0  0  0  0  0  0  0
    3.5174    2.1137   22.5168 H   0  0  0  0  0  0  0  0  0  0  0  0
    3.3409    2.9743   18.3364 H   0  0  0  0  0  0  0  0  0  0  0  0
    5.3118    0.4895   22.1572 H   0  0  0  0  0  0  0  0  0  0  0  0
   12.4997    0.6069   24.9723 H   0  0  0  0  0  0  0  0  0  0  0  0
   13.9909   -0.5152   23.3780 H   0  0  0  0  0  0  0  0  0  0  0  0
   10.6017   -2.0254   21.2306 H   0  0  0  0  0  0  0  0  0  0  0  0
    4.9141    1.7511   16.7474 H   0  0  0  0  0  0  0  0  0  0  0  0
    7.6445   -0.9764   18.1043 H   0  0  0  0  0  0  0  0  0  0  0  0
    6.3710   -0.8928   27.3293 H   0  0  0  0  0  0  0  0  0  0  0  0
    7.7129   -0.8754   24.6698 H   0  0  0  0  0  0  0  0  0  0  0  0
    6.8746    0.2355   23.5743 H   0  0  0  0  0  0  0  0  0  0  0  0
    8.8013    1.8559   23.8158 H   0  0  0  0  0  0  0  0  0  0  0  0
    8.1340    1.3960   25.3781 H   0  0  0  0  0  0  0  0  0  0  0  0
    6.2492   -4.0594   23.1616 H   0  0  0  0  0  0  0  0  0  0  0  0
    7.2938   -4.7729   24.3745 H   0  0  0  0  0  0  0  0  0  0  0  0
    9.0787   -3.0853   23.8142 H   0  0  0  0  0  0  0  0  0  0  0  0
    8.6334   -4.0392   22.3873 H   0  0  0  0  0  0  0  0  0  0  0  0
    4.5014   -2.5777   24.1855 H   0  0  0  0  0  0  0  0  0  0  0  0
  1  2  1  0  0  0  0
  1  3  2  0  0  0  0
  2  4  2  0  0  0  0
  3 11  1  0  0  0  0
  4 12  1  0  0  0  0
  5  6  1  0  0  0  0
  5 15  2  0  0  0  0
  6 16  2  0  0  0  0
  7 13  2  0  0  0  0
  7 16  1  0  0  0  0
  8 11  2  0  0  0  0
  8 25  1  0  0  0  0
  9 14  1  0  0  0  0
  9 25  2  0  0  0  0
 10 26  1  0  0  0  0
 10 27  2  0  0  0  0
 11 12  1  0  0  0  0
 12 14  2  0  0  0  0
 13 15  1  0  0  0  0
 13 22  1  6  0  0  0
 14 29  1  0  0  0  0
 15 33  1  0  0  0  0
 16 34  1  0  0  0  0
 17 23  1  0  0  0  0
 17 26  2  0  0  0  0
 17 28  1  0  0  0  0
 18 22  1  1  0  0  0
 18 29  1  0  0  0  0
 18 31  2  0  0  0  0
 19 29  1  0  0  0  0
 19 30  1  0  0  0  0
 19 32  2  0  0  0  0
 20 21  1  0  0  0  0
 20 22  1  1  0  0  0
 21 33  1  0  0  0  0
 22 30  1  6  0  0  0
 23 24  1  0  0  0  0
 24 30  1  0  0  0  0
 27 28  1  0  0  0  0
  1 35  1  0  0  0  0
  2 36  1  0  0  0  0
  3 37  1  0  0  0  0
  4 38  1  0  0  0  0
  5 39  1  0  0  0  0
  6 40  1  0  0  0  0
  7 41  1  0  0  0  0
  8 42  1  0  0  0  0
  9 43  1  0  0  0  0
 10 44  1  0  0  0  0
 20 45  1  0  0  0  0
 20 46  1  0  0  0  0
 21 47  1  0  0  0  0
 21 48  1  0  0  0  0
 23 49  1  0  0  0  0
 23 50  1  0  0  0  0
 24 51  1  0  0  0  0
 24 52  1  0  0  0  0
 28 53  1  0  0  0  0
M  END
> <compound>
VLA-UNK-f702bf1c-8

> <compound_smiles>
c1ccc2c(c1)cncc2N3C(=O)[C@@]4(CCOc5c4cc(cc5)Cl)N(C3=O)CCc6nc[nH]n6

> <enantiomer_smiles>
c1ccc2c(c1)cncc2N3C(=O)[C@@]4(CCOc5c4cc(cc5)Cl)N(C3=O)CCc6nc[nH]n6

> <scaffold>
chromane-5spiro-isoquinoline

> <clash_score>
0

> <docking_score>
-10.435145378112793

> <overlap_score>
1.0

> <MMFF_internal_energy>
91.84732178617409

> <docked_smiles>
c1ccc2c(c1)cncc2N3C(=O)[C@@]4(CCOc5c4cc(cc5)Cl)N(C3=O)CCc6[nH]ncn6

$$$$
EDJ-MED-8bb691af-2_3
  -OEChem-12272114573D

 59 64  0     1  0  0  0  0  0999 V2000
    7.3241    3.3891   22.7362 C   0  0  0  0  0  0  0  0  0  0  0  0
    3.3432    2.6279   20.4411 C   0  0  0  0  0  0  0  0  0  0  0  0
    3.8960    1.9291   21.5050 C   0  0  0  0  0  0  0  0  0  0  0  0
    3.7865    2.4205   19.1660 C   0  0  0  0  0  0  0  0  0  0  0  0
    4.8973    1.0233   21.2988 C   0  0  0  0  0  0  0  0  0  0  0  0
   12.0765    0.0316   24.1541 C   0  0  0  0  0  0  0  0  0  0  0  0
   12.9132   -0.6032   23.2569 C   0  0  0  0  0  0  0  0  0  0  0  0
   10.9991   -1.4331   22.0443 C   0  0  0  0  0  0  0  0  0  0  0  0
    5.3278    1.2339   17.6066 C   0  0  0  0  0  0  0  0  0  0  0  0
    6.8438   -0.2892   18.3752 C   0  0  0  0  0  0  0  0  0  0  0  0
    4.8226    1.4906   18.9054 C   0  0  0  0  0  0  0  0  0  0  0  0
    5.3982    0.7733   19.9948 C   0  0  0  0  0  0  0  0  0  0  0  0
   10.7040   -0.0625   23.9898 C   0  0  0  0  0  0  0  0  0  0  0  0
   10.1406   -0.7765   22.9250 C   0  0  0  0  0  0  0  0  0  0  0  0
    6.4440   -0.1472   19.6979 C   0  0  0  0  0  0  0  0  0  0  0  0
   12.3683   -1.3298   22.2234 C   0  0  0  0  0  0  0  0  0  0  0  0
    9.9479    0.5589   24.9534 C   0  0  0  0  0  0  0  0  0  0  0  0
    9.8253    3.1051   22.8745 C   0  0  0  0  0  0  0  0  0  0  0  0
    9.5427    4.5784   22.8729 C   0  0  0  0  0  0  0  0  0  0  0  0
    8.0140   -2.1541   22.4331 C   0  0  0  0  0  0  0  0  0  0  0  0
    6.9866   -1.9366   21.3580 C   0  0  0  0  0  0  0  0  0  0  0  0
    8.2490    0.0169   21.4271 C   0  0  0  0  0  0  0  0  0  0  0  0
    7.8721   -0.1194   23.8831 C   0  0  0  0  0  0  0  0  0  0  0  0
    8.5376    3.6225   23.4755 C   0  0  0  0  0  0  0  0  0  0  0  0
    8.6238   -0.7606   22.6929 C   0  0  3  0  0  0  0  0  0  0  0  0
    8.3937    3.5964   24.9808 C   0  0  0  0  0  0  0  0  0  0  0  0
    6.3463    3.2010   22.1406 N   0  0  0  0  0  0  0  0  0  0  0  0
    6.3062    0.3769   17.3421 N   0  0  0  0  0  0  0  0  0  0  0  0
    7.2292   -0.6897   20.7790 N   0  0  2  0  0  0  0  0  0  0  0  0
    8.6609    1.0133   24.4995 N   0  0  2  0  0  0  0  0  0  0  0  0
    8.2534    1.8284   26.8995 O   0  0  0  0  0  0  0  0  0  0  0  0
    6.3691    1.9621   25.2211 O   0  0  0  0  0  0  0  0  0  0  0  0
    7.7768    2.0324   25.5485 S   0  0  0  0  0  0  0  0  0  0  0  0
   13.4286   -2.1397   21.1095 Cl  0  0  0  0  0  0  0  0  0  0  0  0
    2.5434    3.3513   20.6369 H   0  0  0  0  0  0  0  0  0  0  0  0
    3.5178    2.1138   22.5169 H   0  0  0  0  0  0  0  0  0  0  0  0
    3.3410    2.9744   18.3364 H   0  0  0  0  0  0  0  0  0  0  0  0
    5.3113    0.4888   22.1570 H   0  0  0  0  0  0  0  0  0  0  0  0
   12.5032    0.5925   24.9773 H   0  0  0  0  0  0  0  0  0  0  0  0
   13.9915   -0.5209   23.3822 H   0  0  0  0  0  0  0  0  0  0  0  0
   10.6204   -2.0200   21.2245 H   0  0  0  0  0  0  0  0  0  0  0  0
    4.9138    1.7514   16.7477 H   0  0  0  0  0  0  0  0  0  0  0  0
    7.6447   -0.9761   18.1049 H   0  0  0  0  0  0  0  0  0  0  0  0
    9.7793   -0.1217   25.8244 H   0  0  0  0  0  0  0  0  0  0  0  0
   10.4771    1.4546   25.3617 H   0  0  0  0  0  0  0  0  0  0  0  0
    9.7900    2.5860   21.9233 H   0  0  0  0  0  0  0  0  0  0  0  0
   10.5993    2.7423   23.5409 H   0  0  0  0  0  0  0  0  0  0  0  0
   10.1283    5.2028   23.5378 H   0  0  0  0  0  0  0  0  0  0  0  0
    9.3192    5.0451   21.9202 H   0  0  0  0  0  0  0  0  0  0  0  0
    7.5788   -2.6116   23.3323 H   0  0  0  0  0  0  0  0  0  0  0  0
    8.7856   -2.8434   22.0576 H   0  0  0  0  0  0  0  0  0  0  0  0
    7.0302   -2.7733   20.6129 H   0  0  0  0  0  0  0  0  0  0  0  0
    5.9525   -1.9834   21.7860 H   0  0  0  0  0  0  0  0  0  0  0  0
    7.9608    1.0724   21.6585 H   0  0  0  0  0  0  0  0  0  0  0  0
    9.1284    0.1014   20.7438 H   0  0  0  0  0  0  0  0  0  0  0  0
    6.8956    0.2773   23.5502 H   0  0  0  0  0  0  0  0  0  0  0  0
    7.6541   -0.8672   24.6691 H   0  0  0  0  0  0  0  0  0  0  0  0
    7.6910    4.3624   25.3201 H   0  0  0  0  0  0  0  0  0  0  0  0
    9.3583    3.7591   25.4691 H   0  0  0  0  0  0  0  0  0  0  0  0
  1 24  1  0  0  0  0
  1 27  3  0  0  0  0
  2  3  1  0  0  0  0
  2  4  2  0  0  0  0
  3  5  2  0  0  0  0
  4 11  1  0  0  0  0
  5 12  1  0  0  0  0
  6  7  1  0  0  0  0
  6 13  2  0  0  0  0
  7 16  2  0  0  0  0
  8 14  2  0  0  0  0
  8 16  1  0  0  0  0
  9 11  2  0  0  0  0
  9 28  1  0  0  0  0
 10 15  1  0  0  0  0
 10 28  2  0  0  0  0
 11 12  1  0  0  0  0
 12 15  2  0  0  0  0
 13 14  1  0  0  0  0
 13 17  1  0  0  0  0
 14 25  1  0  0  0  0
 15 29  1  1  0  0  0
 16 34  1  0  0  0  0
 17 30  1  0  0  0  0
 18 19  1  0  0  0  0
 18 24  1  0  0  0  0
 19 24  1  0  0  0  0
 20 21  1  0  0  0  0
 20 25  1  0  0  0  0
 21 29  1  0  0  0  0
 22 25  1  0  0  0  0
 22 29  1  0  0  0  0
 23 25  1  0  0  0  0
 23 30  1  0  0  0  0
 24 26  1  0  0  0  0
 26 33  1  0  0  0  0
 30 33  1  6  0  0  0
 31 33  2  0  0  0  0
 32 33  2  0  0  0  0
  2 35  1  0  0  0  0
  3 36  1  0  0  0  0
  4 37  1  0  0  0  0
  5 38  1  0  0  0  0
  6 39  1  0  0  0  0
  7 40  1  0  0  0  0
  8 41  1  0  0  0  0
  9 42  1  0  0  0  0
 10 43  1  0  0  0  0
 17 44  1  0  0  0  0
 17 45  1  0  0  0  0
 18 46  1  0  0  0  0
 18 47  1  0  0  0  0
 19 48  1  0  0  0  0
 19 49  1  0  0  0  0
 20 50  1  0  0  0  0
 20 51  1  0  0  0  0
 21 52  1  0  0  0  0
 21 53  1  0  0  0  0
 22 54  1  0  0  0  0
 22 55  1  0  0  0  0
 23 56  1  0  0  0  0
 23 57  1  0  0  0  0
 26 58  1  0  0  0  0
 26 59  1  0  0  0  0
M  END
> <compound>
EDJ-MED-8bb691af-2

> <compound_smiles>
c1ccc2c(c1)cncc2N3CCC4(C3)CN(Cc5c4cc(cc5)Cl)S(=O)(=O)CC6(CC6)C#N

> <enantiomer_smiles>
c1ccc2c(c1)cncc2[N@@]3CCC4(C3)C[N@](Cc5c4cc(cc5)Cl)S(=O)(=O)CC6(CC6)C#N

> <scaffold>
tetrahydroisoquinoline-5spiro-isoquinoline

> <clash_score>
0

> <docking_score>
-7.955013275146484

> <overlap_score>
0.94831383228302

> <MMFF_internal_energy>
136.61292334658805

> <docked_smiles>
c1ccc2c(c1)cncc2N3CC[C@@]4(C3)C[N@](Cc5c4cc(cc5)Cl)S(=O)(=O)CC6(CC6)C#N

$$$$
EDJ-MED-8bb691af-2_2
  -OEChem-12272114573D

 59 64  0     1  0  0  0  0  0999 V2000
    7.0206    5.4414   23.9765 C   0  0  0  0  0  0  0  0  0  0  0  0
    3.3432    2.6279   20.4411 C   0  0  0  0  0  0  0  0  0  0  0  0
    3.8960    1.9291   21.5050 C   0  0  0  0  0  0  0  0  0  0  0  0
    3.7865    2.4205   19.1660 C   0  0  0  0  0  0  0  0  0  0  0  0
    4.8973    1.0233   21.2988 C   0  0  0  0  0  0  0  0  0  0  0  0
   12.0765    0.0316   24.1541 C   0  0  0  0  0  0  0  0  0  0  0  0
   12.9132   -0.6032   23.2569 C   0  0  0  0  0  0  0  0  0  0  0  0
   10.9991   -1.4331   22.0443 C   0  0  0  0  0  0  0  0  0  0  0  0
    5.3278    1.2339   17.6066 C   0  0  0  0  0  0  0  0  0  0  0  0
    6.8438   -0.2892   18.3752 C   0  0  0  0  0  0  0  0  0  0  0  0
    4.8226    1.4906   18.9054 C   0  0  0  0  0  0  0  0  0  0  0  0
    5.3982    0.7733   19.9948 C   0  0  0  0  0  0  0  0  0  0  0  0
   10.7040   -0.0625   23.9898 C   0  0  0  0  0  0  0  0  0  0  0  0
   10.1406   -0.7765   22.9250 C   0  0  0  0  0  0  0  0  0  0  0  0
    6.4440   -0.1472   19.6979 C   0  0  0  0  0  0  0  0  0  0  0  0
   12.3683   -1.3298   22.2234 C   0  0  0  0  0  0  0  0  0  0  0  0
    9.9479    0.5589   24.9534 C   0  0  0  0  0  0  0  0  0  0  0  0
    9.5307    5.6666   23.9104 C   0  0  0  0  0  0  0  0  0  0  0  0
    9.0800    6.0935   25.2761 C   0  0  0  0  0  0  0  0  0  0  0  0
    8.0140   -2.1541   22.4331 C   0  0  0  0  0  0  0  0  0  0  0  0
    6.9866   -1.9366   21.3580 C   0  0  0  0  0  0  0  0  0  0  0  0
    8.2490    0.0169   21.4271 C   0  0  0  0  0  0  0  0  0  0  0  0
    7.8721   -0.1194   23.8831 C   0  0  0  0  0  0  0  0  0  0  0  0
    8.2940    5.0456   24.5202 C   0  0  0  0  0  0  0  0  0  0  0  0
    8.6238   -0.7606   22.6929 C   0  0  3  0  0  0  0  0  0  0  0  0
    8.3775    3.6124   24.9956 C   0  0  0  0  0  0  0  0  0  0  0  0
    5.9946    5.7602   23.5384 N   0  0  0  0  0  0  0  0  0  0  0  0
    6.3062    0.3769   17.3421 N   0  0  0  0  0  0  0  0  0  0  0  0
    7.2292   -0.6897   20.7790 N   0  0  1  0  0  0  0  0  0  0  0  0
    8.6609    1.0133   24.4995 N   0  0  1  0  0  0  0  0  0  0  0  0
    7.4052    2.5000   22.8405 O   0  0  0  0  0  0  0  0  0  0  0  0
    9.9097    2.7540   23.0608 O   0  0  0  0  0  0  0  0  0  0  0  0
    8.6106    2.4901   23.6410 S   0  0  0  0  0  0  0  0  0  0  0  0
   13.4287   -2.1422   21.1115 Cl  0  0  0  0  0  0  0  0  0  0  0  0
    2.5434    3.3513   20.6369 H   0  0  0  0  0  0  0  0  0  0  0  0
    3.5178    2.1138   22.5169 H   0  0  0  0  0  0  0  0  0  0  0  0
    3.3410    2.9744   18.3364 H   0  0  0  0  0  0  0  0  0  0  0  0
    5.3113    0.4888   22.1570 H   0  0  0  0  0  0  0  0  0  0  0  0
   12.5033    0.5981   24.9734 H   0  0  0  0  0  0  0  0  0  0  0  0
   13.9916   -0.5172   23.3794 H   0  0  0  0  0  0  0  0  0  0  0  0
   10.6202   -2.0218   21.2259 H   0  0  0  0  0  0  0  0  0  0  0  0
    4.9138    1.7514   16.7477 H   0  0  0  0  0  0  0  0  0  0  0  0
    7.6447   -0.9761   18.1049 H   0  0  0  0  0  0  0  0  0  0  0  0
    9.7589   -0.1252   25.8166 H   0  0  0  0  0  0  0  0  0  0  0  0
   10.4902    1.4417   25.3737 H   0  0  0  0  0  0  0  0  0  0  0  0
    9.4167    6.3769   23.0993 H   0  0  0  0  0  0  0  0  0  0  0  0
   10.4317    5.0679   23.8425 H   0  0  0  0  0  0  0  0  0  0  0  0
    9.6798    5.7813   26.1232 H   0  0  0  0  0  0  0  0  0  0  0  0
    8.6653    7.0899   25.3787 H   0  0  0  0  0  0  0  0  0  0  0  0
    7.5117   -2.5256   23.3392 H   0  0  0  0  0  0  0  0  0  0  0  0
    8.7599   -2.9073   22.1440 H   0  0  0  0  0  0  0  0  0  0  0  0
    7.0406   -2.7509   20.5907 H   0  0  0  0  0  0  0  0  0  0  0  0
    5.9561   -2.0163   21.7926 H   0  0  0  0  0  0  0  0  0  0  0  0
    7.8787    1.0376   21.6885 H   0  0  0  0  0  0  0  0  0  0  0  0
    9.1364    0.1918   20.7693 H   0  0  0  0  0  0  0  0  0  0  0  0
    6.8831    0.2667   23.5709 H   0  0  0  0  0  0  0  0  0  0  0  0
    7.6786   -0.8755   24.6659 H   0  0  0  0  0  0  0  0  0  0  0  0
    7.4572    3.3150   25.5059 H   0  0  0  0  0  0  0  0  0  0  0  0
    9.2212    3.4747   25.6773 H   0  0  0  0  0  0  0  0  0  0  0  0
  1 24  1  0  0  0  0
  1 27  3  0  0  0  0
  2  3  1  0  0  0  0
  2  4  2  0  0  0  0
  3  5  2  0  0  0  0
  4 11  1  0  0  0  0
  5 12  1  0  0  0  0
  6  7  1  0  0  0  0
  6 13  2  0  0  0  0
  7 16  2  0  0  0  0
  8 14  2  0  0  0  0
  8 16  1  0  0  0  0
  9 11  2  0  0  0  0
  9 28  1  0  0  0  0
 10 15  1  0  0  0  0
 10 28  2  0  0  0  0
 11 12  1  0  0  0  0
 12 15  2  0  0  0  0
 13 14  1  0  0  0  0
 13 17  1  0  0  0  0
 14 25  1  0  0  0  0
 15 29  1  6  0  0  0
 16 34  1  0  0  0  0
 17 30  1  0  0  0  0
 18 19  1  0  0  0  0
 18 24  1  0  0  0  0
 19 24  1  0  0  0  0
 20 21  1  0  0  0  0
 20 25  1  0  0  0  0
 21 29  1  0  0  0  0
 22 25  1  0  0  0  0
 22 29  1  0  0  0  0
 23 25  1  0  0  0  0
 23 30  1  0  0  0  0
 24 26  1  0  0  0  0
 26 33  1  0  0  0  0
 30 33  1  1  0  0  0
 31 33  2  0  0  0  0
 32 33  2  0  0  0  0
  2 35  1  0  0  0  0
  3 36  1  0  0  0  0
  4 37  1  0  0  0  0
  5 38  1  0  0  0  0
  6 39  1  0  0  0  0
  7 40  1  0  0  0  0
  8 41  1  0  0  0  0
  9 42  1  0  0  0  0
 10 43  1  0  0  0  0
 17 44  1  0  0  0  0
 17 45  1  0  0  0  0
 18 46  1  0  0  0  0
 18 47  1  0  0  0  0
 19 48  1  0  0  0  0
 19 49  1  0  0  0  0
 20 50  1  0  0  0  0
 20 51  1  0  0  0  0
 21 52  1  0  0  0  0
 21 53  1  0  0  0  0
 22 54  1  0  0  0  0
 22 55  1  0  0  0  0
 23 56  1  0  0  0  0
 23 57  1  0  0  0  0
 26 58  1  0  0  0  0
 26 59  1  0  0  0  0
M  END
> <compound>
EDJ-MED-8bb691af-2

> <compound_smiles>
c1ccc2c(c1)cncc2N3CCC4(C3)CN(Cc5c4cc(cc5)Cl)S(=O)(=O)CC6(CC6)C#N

> <enantiomer_smiles>
c1ccc2c(c1)cncc2[N@]3CCC4(C3)C[N@@](Cc5c4cc(cc5)Cl)S(=O)(=O)CC6(CC6)C#N

> <scaffold>
tetrahydroisoquinoline-5spiro-isoquinoline

> <clash_score>
0

> <docking_score>
-8.253721237182617

> <overlap_score>
0.9474208950996399

> <MMFF_internal_energy>
139.47885184954822

> <docked_smiles>
c1ccc2c(c1)cncc2N3CC[C@@]4(C3)C[N@@](Cc5c4cc(cc5)Cl)S(=O)(=O)CC6(CC6)C#N

$$$$
EDJ-MED-94fddcec-6_2
  -OEChem-12272114573D

 56 60  0     1  0  0  0  0  0999 V2000
    4.8973    1.0233   21.2988 C   0  0  0  0  0  0  0  0  0  0  0  0
    3.8960    1.9291   21.5050 C   0  0  0  0  0  0  0  0  0  0  0  0
   12.0765    0.0316   24.1541 C   0  0  0  0  0  0  0  0  0  0  0  0
   12.9132   -0.6032   23.2569 C   0  0  0  0  0  0  0  0  0  0  0  0
    3.7865    2.4205   19.1660 C   0  0  0  0  0  0  0  0  0  0  0  0
   10.9991   -1.4331   22.0443 C   0  0  0  0  0  0  0  0  0  0  0  0
    5.3278    1.2339   17.6066 C   0  0  0  0  0  0  0  0  0  0  0  0
    6.8438   -0.2892   18.3752 C   0  0  0  0  0  0  0  0  0  0  0  0
    5.3982    0.7733   19.9948 C   0  0  0  0  0  0  0  0  0  0  0  0
    4.8226    1.4906   18.9054 C   0  0  0  0  0  0  0  0  0  0  0  0
   10.1406   -0.7765   22.9250 C   0  0  0  0  0  0  0  0  0  0  0  0
    6.4440   -0.1472   19.6979 C   0  0  0  0  0  0  0  0  0  0  0  0
    3.3432    2.6279   20.4411 C   0  0  0  0  0  0  0  0  0  0  0  0
   10.7040   -0.0625   23.9898 C   0  0  0  0  0  0  0  0  0  0  0  0
   12.3683   -1.3298   22.2234 C   0  0  0  0  0  0  0  0  0  0  0  0
    8.2490    0.0169   21.4271 C   0  0  0  0  0  0  0  0  0  0  0  0
    8.0140   -2.1541   22.4331 C   0  0  0  0  0  0  0  0  0  0  0  0
    7.8721   -0.1194   23.8831 C   0  0  0  0  0  0  0  0  0  0  0  0
    6.9866   -1.9366   21.3580 C   0  0  0  0  0  0  0  0  0  0  0  0
    8.6609    1.0133   24.4995 C   0  0  0  0  0  0  0  0  0  0  0  0
    8.6238   -0.7606   22.6929 C   0  0  3  0  0  0  0  0  0  0  0  0
    2.6875    4.9874   20.9764 C   0  0  0  0  0  0  0  0  0  0  0  0
    0.3265    1.7134   20.5412 C   0  0  0  0  0  0  0  0  0  0  0  0
    6.3062    0.3769   17.3421 N   0  0  0  0  0  0  0  0  0  0  0  0
    7.2292   -0.6897   20.7790 N   0  0  0  0  0  0  0  0  0  0  0  0
    2.2936    3.5769   20.6955 N   0  0  2  0  0  0  0  0  0  0  0  0
    8.7559    1.0937   21.1315 O   0  0  0  0  0  0  0  0  0  0  0  0
   10.7450    1.7883   25.4928 O   0  0  0  0  0  0  0  0  0  0  0  0
    9.7102   -0.4301   26.1384 O   0  0  0  0  0  0  0  0  0  0  0  0
    0.9981    3.1554   18.4815 O   0  0  0  0  0  0  0  0  0  0  0  0
   -0.2022    4.2667   20.3919 O   0  0  0  0  0  0  0  0  0  0  0  0
    9.9479    0.5589   24.9534 S   0  0  0  0  0  0  0  0  0  0  0  0
    0.7796    3.3147   19.9076 S   0  0  0  0  0  0  0  0  0  0  0  0
   13.4291   -2.1444   21.1126 Cl  0  0  0  0  0  0  0  0  0  0  0  0
    5.3115    0.4893   22.1569 H   0  0  0  0  0  0  0  0  0  0  0  0
    3.5248    2.1066   22.5217 H   0  0  0  0  0  0  0  0  0  0  0  0
   12.5120    0.5953   24.9760 H   0  0  0  0  0  0  0  0  0  0  0  0
   13.9915   -0.5226   23.3833 H   0  0  0  0  0  0  0  0  0  0  0  0
    3.3477    2.9700   18.3285 H   0  0  0  0  0  0  0  0  0  0  0  0
   10.6108   -2.0222   21.2304 H   0  0  0  0  0  0  0  0  0  0  0  0
    4.9135    1.7517   16.7479 H   0  0  0  0  0  0  0  0  0  0  0  0
    7.6449   -0.9757   18.1043 H   0  0  0  0  0  0  0  0  0  0  0  0
    7.5775   -2.6140   23.3286 H   0  0  0  0  0  0  0  0  0  0  0  0
    8.7708   -2.8631   22.0636 H   0  0  0  0  0  0  0  0  0  0  0  0
    7.6611   -0.8658   24.6526 H   0  0  0  0  0  0  0  0  0  0  0  0
    6.9006    0.2556   23.5459 H   0  0  0  0  0  0  0  0  0  0  0  0
    7.0227   -2.7503   20.5949 H   0  0  0  0  0  0  0  0  0  0  0  0
    5.9552   -1.9482   21.7828 H   0  0  0  0  0  0  0  0  0  0  0  0
    8.7031    1.8245   23.7055 H   0  0  0  0  0  0  0  0  0  0  0  0
    7.9987    1.4859   25.2931 H   0  0  0  0  0  0  0  0  0  0  0  0
    1.7860    5.5918   21.1550 H   0  0  0  0  0  0  0  0  0  0  0  0
    3.3315    5.0175   21.8677 H   0  0  0  0  0  0  0  0  0  0  0  0
    3.2361    5.3935   20.1138 H   0  0  0  0  0  0  0  0  0  0  0  0
   -0.6342    1.4307   20.1077 H   0  0  0  0  0  0  0  0  0  0  0  0
    1.0999    0.9987   20.2559 H   0  0  0  0  0  0  0  0  0  0  0  0
    0.2505    1.7818   21.6274 H   0  0  0  0  0  0  0  0  0  0  0  0
  1  2  2  0  0  0  0
  1  9  1  0  0  0  0
  2 13  1  0  0  0  0
  3  4  1  0  0  0  0
  3 14  2  0  0  0  0
  4 15  2  0  0  0  0
  5 10  1  0  0  0  0
  5 13  2  0  0  0  0
  6 11  2  0  0  0  0
  6 15  1  0  0  0  0
  7 10  2  0  0  0  0
  7 24  1  0  0  0  0
  8 12  1  0  0  0  0
  8 24  2  0  0  0  0
  9 10  1  0  0  0  0
  9 12  2  0  0  0  0
 11 14  1  0  0  0  0
 11 21  1  0  0  0  0
 12 25  1  0  0  0  0
 13 26  1  0  0  0  0
 14 32  1  0  0  0  0
 15 34  1  0  0  0  0
 16 21  1  0  0  0  0
 16 25  1  0  0  0  0
 16 27  2  0  0  0  0
 17 19  1  0  0  0  0
 17 21  1  0  0  0  0
 18 20  1  0  0  0  0
 18 21  1  0  0  0  0
 19 25  1  0  0  0  0
 20 32  1  0  0  0  0
 22 26  1  6  0  0  0
 23 33  1  0  0  0  0
 26 33  1  0  0  0  0
 28 32  2  0  0  0  0
 29 32  2  0  0  0  0
 30 33  2  0  0  0  0
 31 33  2  0  0  0  0
  1 35  1  0  0  0  0
  2 36  1  0  0  0  0
  3 37  1  0  0  0  0
  4 38  1  0  0  0  0
  5 39  1  0  0  0  0
  6 40  1  0  0  0  0
  7 41  1  0  0  0  0
  8 42  1  0  0  0  0
 17 43  1  0  0  0  0
 17 44  1  0  0  0  0
 18 45  1  0  0  0  0
 18 46  1  0  0  0  0
 19 47  1  0  0  0  0
 19 48  1  0  0  0  0
 20 49  1  0  0  0  0
 20 50  1  0  0  0  0
 22 51  1  0  0  0  0
 22 52  1  0  0  0  0
 22 53  1  0  0  0  0
 23 54  1  0  0  0  0
 23 55  1  0  0  0  0
 23 56  1  0  0  0  0
M  END
> <compound>
EDJ-MED-94fddcec-6

> <compound_smiles>
CN(c1ccc2c(c1)cncc2N3CCC4(C3=O)CCS(=O)(=O)c5c4cc(cc5)Cl)S(=O)(=O)C

> <enantiomer_smiles>
C[N@](c1ccc2c(c1)cncc2N3CCC4(C3=O)CCS(=O)(=O)c5c4cc(cc5)Cl)S(=O)(=O)C

> <scaffold>
tetralinlike-5spiro-isoquinoline

> <clash_score>
0.7168170439667734

> <docking_score>
-8.17654800415039

> <overlap_score>
1.0

> <MMFF_internal_energy>
264.15661665560214

> <docked_smiles>
C[N@](c1ccc2c(c1)cncc2N3CC[C@@]4(C3=O)CCS(=O)(=O)c5c4cc(cc5)Cl)S(=O)(=O)C

$$$$
EDJ-MED-8bb691af-2_4
  -OEChem-12272114573D

 59 64  0     1  0  0  0  0  0999 V2000
    7.3028    3.4367   22.7638 C   0  0  0  0  0  0  0  0  0  0  0  0
    3.3432    2.6279   20.4411 C   0  0  0  0  0  0  0  0  0  0  0  0
    3.8960    1.9291   21.5050 C   0  0  0  0  0  0  0  0  0  0  0  0
    3.7865    2.4205   19.1660 C   0  0  0  0  0  0  0  0  0  0  0  0
    4.8973    1.0233   21.2988 C   0  0  0  0  0  0  0  0  0  0  0  0
   12.0765    0.0316   24.1541 C   0  0  0  0  0  0  0  0  0  0  0  0
   12.9132   -0.6032   23.2569 C   0  0  0  0  0  0  0  0  0  0  0  0
   10.9991   -1.4331   22.0443 C   0  0  0  0  0  0  0  0  0  0  0  0
    5.3278    1.2339   17.6066 C   0  0  0  0  0  0  0  0  0  0  0  0
    6.8438   -0.2892   18.3752 C   0  0  0  0  0  0  0  0  0  0  0  0
    4.8226    1.4906   18.9054 C   0  0  0  0  0  0  0  0  0  0  0  0
    5.3982    0.7733   19.9948 C   0  0  0  0  0  0  0  0  0  0  0  0
   10.7040   -0.0625   23.9898 C   0  0  0  0  0  0  0  0  0  0  0  0
   10.1406   -0.7765   22.9250 C   0  0  0  0  0  0  0  0  0  0  0  0
    6.4440   -0.1472   19.6979 C   0  0  0  0  0  0  0  0  0  0  0  0
   12.3683   -1.3298   22.2234 C   0  0  0  0  0  0  0  0  0  0  0  0
    9.9479    0.5589   24.9534 C   0  0  0  0  0  0  0  0  0  0  0  0
    9.8086    3.1948   22.8998 C   0  0  0  0  0  0  0  0  0  0  0  0
    9.4996    4.6626   22.9274 C   0  0  0  0  0  0  0  0  0  0  0  0
    8.0140   -2.1541   22.4331 C   0  0  0  0  0  0  0  0  0  0  0  0
    6.9866   -1.9366   21.3580 C   0  0  0  0  0  0  0  0  0  0  0  0
    8.2490    0.0169   21.4271 C   0  0  0  0  0  0  0  0  0  0  0  0
    7.8721   -0.1194   23.8831 C   0  0  0  0  0  0  0  0  0  0  0  0
    8.5113    3.6768   23.5093 C   0  0  0  0  0  0  0  0  0  0  0  0
    8.6238   -0.7606   22.6929 C   0  0  3  0  0  0  0  0  0  0  0  0
    8.3663    3.6179   25.0135 C   0  0  0  0  0  0  0  0  0  0  0  0
    6.3292    3.2432   22.1631 N   0  0  0  0  0  0  0  0  0  0  0  0
    6.3062    0.3769   17.3421 N   0  0  0  0  0  0  0  0  0  0  0  0
    7.2292   -0.6897   20.7790 N   0  0  1  0  0  0  0  0  0  0  0  0
    8.6609    1.0133   24.4995 N   0  0  2  0  0  0  0  0  0  0  0  0
    8.2459    1.8144   26.9004 O   0  0  0  0  0  0  0  0  0  0  0  0
    6.3740    1.9384   25.2075 O   0  0  0  0  0  0  0  0  0  0  0  0
    7.7770    2.0321   25.5489 S   0  0  0  0  0  0  0  0  0  0  0  0
   13.4288   -2.1402   21.1101 Cl  0  0  0  0  0  0  0  0  0  0  0  0
    2.5434    3.3513   20.6369 H   0  0  0  0  0  0  0  0  0  0  0  0
    3.5178    2.1138   22.5169 H   0  0  0  0  0  0  0  0  0  0  0  0
    3.3410    2.9744   18.3364 H   0  0  0  0  0  0  0  0  0  0  0  0
    5.3113    0.4888   22.1570 H   0  0  0  0  0  0  0  0  0  0  0  0
   12.5032    0.5924   24.9773 H   0  0  0  0  0  0  0  0  0  0  0  0
   13.9916   -0.5215   23.3825 H   0  0  0  0  0  0  0  0  0  0  0  0
   10.6203   -2.0202   21.2247 H   0  0  0  0  0  0  0  0  0  0  0  0
    4.9138    1.7514   16.7477 H   0  0  0  0  0  0  0  0  0  0  0  0
    7.6447   -0.9761   18.1049 H   0  0  0  0  0  0  0  0  0  0  0  0
    9.7790   -0.1221   25.8237 H   0  0  0  0  0  0  0  0  0  0  0  0
   10.4769    1.4549   25.3610 H   0  0  0  0  0  0  0  0  0  0  0  0
    9.7836    2.6944   21.9383 H   0  0  0  0  0  0  0  0  0  0  0  0
   10.5883    2.8326   23.5599 H   0  0  0  0  0  0  0  0  0  0  0  0
   10.0733    5.2838   23.6055 H   0  0  0  0  0  0  0  0  0  0  0  0
    9.2688    5.1443   21.9840 H   0  0  0  0  0  0  0  0  0  0  0  0
    7.5781   -2.6123   23.3316 H   0  0  0  0  0  0  0  0  0  0  0  0
    8.7854   -2.8443   22.0589 H   0  0  0  0  0  0  0  0  0  0  0  0
    7.0302   -2.7735   20.6130 H   0  0  0  0  0  0  0  0  0  0  0  0
    5.9522   -1.9839   21.7852 H   0  0  0  0  0  0  0  0  0  0  0  0
    7.9610    1.0724   21.6587 H   0  0  0  0  0  0  0  0  0  0  0  0
    9.1278    0.1017   20.7432 H   0  0  0  0  0  0  0  0  0  0  0  0
    6.8956    0.2772   23.5499 H   0  0  0  0  0  0  0  0  0  0  0  0
    7.6541   -0.8675   24.6691 H   0  0  0  0  0  0  0  0  0  0  0  0
    7.6495    4.3643   25.3672 H   0  0  0  0  0  0  0  0  0  0  0  0
    9.3273    3.7880   25.5064 H   0  0  0  0  0  0  0  0  0  0  0  0
  1 24  1  0  0  0  0
  1 27  3  0  0  0  0
  2  3  1  0  0  0  0
  2  4  2  0  0  0  0
  3  5  2  0  0  0  0
  4 11  1  0  0  0  0
  5 12  1  0  0  0  0
  6  7  1  0  0  0  0
  6 13  2  0  0  0  0
  7 16  2  0  0  0  0
  8 14  2  0  0  0  0
  8 16  1  0  0  0  0
  9 11  2  0  0  0  0
  9 28  1  0  0  0  0
 10 15  1  0  0  0  0
 10 28  2  0  0  0  0
 11 12  1  0  0  0  0
 12 15  2  0  0  0  0
 13 14  1  0  0  0  0
 13 17  1  0  0  0  0
 14 25  1  0  0  0  0
 15 29  1  6  0  0  0
 16 34  1  0  0  0  0
 17 30  1  0  0  0  0
 18 19  1  0  0  0  0
 18 24  1  0  0  0  0
 19 24  1  0  0  0  0
 20 21  1  0  0  0  0
 20 25  1  0  0  0  0
 21 29  1  0  0  0  0
 22 25  1  0  0  0  0
 22 29  1  0  0  0  0
 23 25  1  0  0  0  0
 23 30  1  0  0  0  0
 24 26  1  0  0  0  0
 26 33  1  0  0  0  0
 30 33  1  6  0  0  0
 31 33  2  0  0  0  0
 32 33  2  0  0  0  0
  2 35  1  0  0  0  0
  3 36  1  0  0  0  0
  4 37  1  0  0  0  0
  5 38  1  0  0  0  0
  6 39  1  0  0  0  0
  7 40  1  0  0  0  0
  8 41  1  0  0  0  0
  9 42  1  0  0  0  0
 10 43  1  0  0  0  0
 17 44  1  0  0  0  0
 17 45  1  0  0  0  0
 18 46  1  0  0  0  0
 18 47  1  0  0  0  0
 19 48  1  0  0  0  0
 19 49  1  0  0  0  0
 20 50  1  0  0  0  0
 20 51  1  0  0  0  0
 21 52  1  0  0  0  0
 21 53  1  0  0  0  0
 22 54  1  0  0  0  0
 22 55  1  0  0  0  0
 23 56  1  0  0  0  0
 23 57  1  0  0  0  0
 26 58  1  0  0  0  0
 26 59  1  0  0  0  0
M  END
> <compound>
EDJ-MED-8bb691af-2

> <compound_smiles>
c1ccc2c(c1)cncc2N3CCC4(C3)CN(Cc5c4cc(cc5)Cl)S(=O)(=O)CC6(CC6)C#N

> <enantiomer_smiles>
c1ccc2c(c1)cncc2[N@]3CCC4(C3)C[N@](Cc5c4cc(cc5)Cl)S(=O)(=O)CC6(CC6)C#N

> <scaffold>
tetrahydroisoquinoline-5spiro-isoquinoline

> <clash_score>
0

> <docking_score>
-7.996769905090332

> <overlap_score>
0.947858452796936

> <MMFF_internal_energy>
134.41201947174116

> <docked_smiles>
c1ccc2c(c1)cncc2N3CC[C@@]4(C3)C[N@](Cc5c4cc(cc5)Cl)S(=O)(=O)CC6(CC6)C#N

$$$$
EDJ-MED-94fddcec-6_1
  -OEChem-12272114573D

 56 60  0     1  0  0  0  0  0999 V2000
    4.8973    1.0233   21.2988 C   0  0  0  0  0  0  0  0  0  0  0  0
    3.8960    1.9291   21.5050 C   0  0  0  0  0  0  0  0  0  0  0  0
   12.0765    0.0316   24.1541 C   0  0  0  0  0  0  0  0  0  0  0  0
   12.9132   -0.6032   23.2569 C   0  0  0  0  0  0  0  0  0  0  0  0
    3.7865    2.4205   19.1660 C   0  0  0  0  0  0  0  0  0  0  0  0
   10.9991   -1.4331   22.0443 C   0  0  0  0  0  0  0  0  0  0  0  0
    5.3278    1.2339   17.6066 C   0  0  0  0  0  0  0  0  0  0  0  0
    6.8438   -0.2892   18.3752 C   0  0  0  0  0  0  0  0  0  0  0  0
    5.3982    0.7733   19.9948 C   0  0  0  0  0  0  0  0  0  0  0  0
    4.8226    1.4906   18.9054 C   0  0  0  0  0  0  0  0  0  0  0  0
   10.1406   -0.7765   22.9250 C   0  0  0  0  0  0  0  0  0  0  0  0
    6.4440   -0.1472   19.6979 C   0  0  0  0  0  0  0  0  0  0  0  0
    3.3432    2.6279   20.4411 C   0  0  0  0  0  0  0  0  0  0  0  0
   10.7040   -0.0625   23.9898 C   0  0  0  0  0  0  0  0  0  0  0  0
   12.3683   -1.3298   22.2234 C   0  0  0  0  0  0  0  0  0  0  0  0
    8.2490    0.0169   21.4271 C   0  0  0  0  0  0  0  0  0  0  0  0
    8.0140   -2.1541   22.4331 C   0  0  0  0  0  0  0  0  0  0  0  0
    7.8721   -0.1194   23.8831 C   0  0  0  0  0  0  0  0  0  0  0  0
    6.9866   -1.9366   21.3580 C   0  0  0  0  0  0  0  0  0  0  0  0
    8.6609    1.0133   24.4995 C   0  0  0  0  0  0  0  0  0  0  0  0
    8.6238   -0.7606   22.6929 C   0  0  3  0  0  0  0  0  0  0  0  0
    2.5990    4.7223   21.6001 C   0  0  0  0  0  0  0  0  0  0  0  0
    0.4578    2.5244   22.3951 C   0  0  0  0  0  0  0  0  0  0  0  0
    6.3062    0.3769   17.3421 N   0  0  0  0  0  0  0  0  0  0  0  0
    7.2292   -0.6897   20.7790 N   0  0  0  0  0  0  0  0  0  0  0  0
    2.2936    3.5769   20.6955 N   0  0  1  0  0  0  0  0  0  0  0  0
    8.7559    1.0937   21.1315 O   0  0  0  0  0  0  0  0  0  0  0  0
   10.7450    1.7883   25.4928 O   0  0  0  0  0  0  0  0  0  0  0  0
    9.7102   -0.4301   26.1384 O   0  0  0  0  0  0  0  0  0  0  0  0
    0.6161    1.7506   19.9154 O   0  0  0  0  0  0  0  0  0  0  0  0
   -0.2519    4.0598   20.4050 O   0  0  0  0  0  0  0  0  0  0  0  0
    9.9479    0.5589   24.9534 S   0  0  0  0  0  0  0  0  0  0  0  0
    0.6738    2.9788   20.6869 S   0  0  0  0  0  0  0  0  0  0  0  0
   13.4291   -2.1444   21.1126 Cl  0  0  0  0  0  0  0  0  0  0  0  0
    5.3115    0.4893   22.1569 H   0  0  0  0  0  0  0  0  0  0  0  0
    3.5248    2.1066   22.5217 H   0  0  0  0  0  0  0  0  0  0  0  0
   12.5120    0.5953   24.9760 H   0  0  0  0  0  0  0  0  0  0  0  0
   13.9915   -0.5226   23.3833 H   0  0  0  0  0  0  0  0  0  0  0  0
    3.3477    2.9700   18.3285 H   0  0  0  0  0  0  0  0  0  0  0  0
   10.6108   -2.0222   21.2304 H   0  0  0  0  0  0  0  0  0  0  0  0
    4.9135    1.7517   16.7479 H   0  0  0  0  0  0  0  0  0  0  0  0
    7.6449   -0.9757   18.1043 H   0  0  0  0  0  0  0  0  0  0  0  0
    7.5775   -2.6140   23.3286 H   0  0  0  0  0  0  0  0  0  0  0  0
    8.7708   -2.8631   22.0636 H   0  0  0  0  0  0  0  0  0  0  0  0
    7.6611   -0.8658   24.6526 H   0  0  0  0  0  0  0  0  0  0  0  0
    6.9006    0.2556   23.5459 H   0  0  0  0  0  0  0  0  0  0  0  0
    7.0227   -2.7503   20.5949 H   0  0  0  0  0  0  0  0  0  0  0  0
    5.9552   -1.9482   21.7828 H   0  0  0  0  0  0  0  0  0  0  0  0
    8.7031    1.8245   23.7055 H   0  0  0  0  0  0  0  0  0  0  0  0
    7.9987    1.4859   25.2931 H   0  0  0  0  0  0  0  0  0  0  0  0
    1.7063    5.3566   21.7036 H   0  0  0  0  0  0  0  0  0  0  0  0
    2.8938    4.3402   22.5886 H   0  0  0  0  0  0  0  0  0  0  0  0
    3.4226    5.3151   21.1756 H   0  0  0  0  0  0  0  0  0  0  0  0
   -0.5494    2.1239   22.5202 H   0  0  0  0  0  0  0  0  0  0  0  0
    1.2038    1.7693   22.6475 H   0  0  0  0  0  0  0  0  0  0  0  0
    0.5936    3.4165   23.0084 H   0  0  0  0  0  0  0  0  0  0  0  0
  1  2  2  0  0  0  0
  1  9  1  0  0  0  0
  2 13  1  0  0  0  0
  3  4  1  0  0  0  0
  3 14  2  0  0  0  0
  4 15  2  0  0  0  0
  5 10  1  0  0  0  0
  5 13  2  0  0  0  0
  6 11  2  0  0  0  0
  6 15  1  0  0  0  0
  7 10  2  0  0  0  0
  7 24  1  0  0  0  0
  8 12  1  0  0  0  0
  8 24  2  0  0  0  0
  9 10  1  0  0  0  0
  9 12  2  0  0  0  0
 11 14  1  0  0  0  0
 11 21  1  0  0  0  0
 12 25  1  0  0  0  0
 13 26  1  0  0  0  0
 14 32  1  0  0  0  0
 15 34  1  0  0  0  0
 16 21  1  0  0  0  0
 16 25  1  0  0  0  0
 16 27  2  0  0  0  0
 17 19  1  0  0  0  0
 17 21  1  0  0  0  0
 18 20  1  0  0  0  0
 18 21  1  0  0  0  0
 19 25  1  0  0  0  0
 20 32  1  0  0  0  0
 22 26  1  1  0  0  0
 23 33  1  0  0  0  0
 26 33  1  0  0  0  0
 28 32  2  0  0  0  0
 29 32  2  0  0  0  0
 30 33  2  0  0  0  0
 31 33  2  0  0  0  0
  1 35  1  0  0  0  0
  2 36  1  0  0  0  0
  3 37  1  0  0  0  0
  4 38  1  0  0  0  0
  5 39  1  0  0  0  0
  6 40  1  0  0  0  0
  7 41  1  0  0  0  0
  8 42  1  0  0  0  0
 17 43  1  0  0  0  0
 17 44  1  0  0  0  0
 18 45  1  0  0  0  0
 18 46  1  0  0  0  0
 19 47  1  0  0  0  0
 19 48  1  0  0  0  0
 20 49  1  0  0  0  0
 20 50  1  0  0  0  0
 22 51  1  0  0  0  0
 22 52  1  0  0  0  0
 22 53  1  0  0  0  0
 23 54  1  0  0  0  0
 23 55  1  0  0  0  0
 23 56  1  0  0  0  0
M  END
> <compound>
EDJ-MED-94fddcec-6

> <compound_smiles>
CN(c1ccc2c(c1)cncc2N3CCC4(C3=O)CCS(=O)(=O)c5c4cc(cc5)Cl)S(=O)(=O)C

> <enantiomer_smiles>
C[N@@](c1ccc2c(c1)cncc2N3CCC4(C3=O)CCS(=O)(=O)c5c4cc(cc5)Cl)S(=O)(=O)C

> <scaffold>
tetralinlike-5spiro-isoquinoline

> <clash_score>
0.7168170439667734

> <docking_score>
-8.155862808227539

> <overlap_score>
1.0

> <MMFF_internal_energy>
263.37941769872657

> <docked_smiles>
C[N@@](c1ccc2c(c1)cncc2N3CC[C@@]4(C3=O)CCS(=O)(=O)c5c4cc(cc5)Cl)S(=O)(=O)C

$$$$
ALP-POS-ecbed2ba-17_2
  -OEChem-12272114573D

 56 60  0     1  0  0  0  0  0999 V2000
    7.9080    5.9673   25.3790 C   0  0  0  0  0  0  0  0  0  0  0  0
    3.3432    2.6279   20.4411 C   0  0  0  0  0  0  0  0  0  0  0  0
    3.8960    1.9291   21.5050 C   0  0  0  0  0  0  0  0  0  0  0  0
    3.7865    2.4205   19.1660 C   0  0  0  0  0  0  0  0  0  0  0  0
    4.8973    1.0233   21.2988 C   0  0  0  0  0  0  0  0  0  0  0  0
   12.0765    0.0316   24.1541 C   0  0  0  0  0  0  0  0  0  0  0  0
   12.9132   -0.6032   23.2569 C   0  0  0  0  0  0  0  0  0  0  0  0
   10.9991   -1.4331   22.0443 C   0  0  0  0  0  0  0  0  0  0  0  0
    5.3278    1.2339   17.6066 C   0  0  0  0  0  0  0  0  0  0  0  0
    6.8438   -0.2892   18.3752 C   0  0  0  0  0  0  0  0  0  0  0  0
    4.8226    1.4906   18.9054 C   0  0  0  0  0  0  0  0  0  0  0  0
    5.3982    0.7733   19.9948 C   0  0  0  0  0  0  0  0  0  0  0  0
   10.7040   -0.0625   23.9898 C   0  0  0  0  0  0  0  0  0  0  0  0
   10.1406   -0.7765   22.9250 C   0  0  0  0  0  0  0  0  0  0  0  0
    6.4440   -0.1472   19.6979 C   0  0  0  0  0  0  0  0  0  0  0  0
   12.3683   -1.3298   22.2234 C   0  0  0  0  0  0  0  0  0  0  0  0
    8.2490    0.0169   21.4271 C   0  0  0  0  0  0  0  0  0  0  0  0
    9.9479    0.5589   24.9534 C   0  0  0  0  0  0  0  0  0  0  0  0
    8.0140   -2.1541   22.4331 C   0  0  0  0  0  0  0  0  0  0  0  0
    6.9866   -1.9366   21.3580 C   0  0  0  0  0  0  0  0  0  0  0  0
    7.8721   -0.1194   23.8831 C   0  0  0  0  0  0  0  0  0  0  0  0
    8.6238   -0.7606   22.6929 C   0  0  3  0  0  0  0  0  0  0  0  0
    7.1822    3.5140   25.7191 C   0  0  0  0  0  0  0  0  0  0  0  0
    8.7087    5.0606   24.5583 C   0  0  0  0  0  0  0  0  0  0  0  0
    7.2742    6.6899   26.0291 N   0  0  0  0  0  0  0  0  0  0  0  0
    6.3062    0.3769   17.3421 N   0  0  0  0  0  0  0  0  0  0  0  0
    7.2292   -0.6897   20.7790 N   0  0  0  0  0  0  0  0  0  0  0  0
    8.6609    1.0133   24.4995 N   0  0  2  0  0  0  0  0  0  0  0  0
    8.4044    3.6433   24.8844 N   0  0  2  0  0  0  0  0  0  0  0  0
    8.7572    1.0941   21.1350 O   0  0  0  0  0  0  0  0  0  0  0  0
    7.4336    2.4722   22.7864 O   0  0  0  0  0  0  0  0  0  0  0  0
    9.9276    2.6762   23.0243 O   0  0  0  0  0  0  0  0  0  0  0  0
    8.6198    2.4832   23.6217 S   0  0  0  0  0  0  0  0  0  0  0  0
   13.4275   -2.1421   21.1097 Cl  0  0  0  0  0  0  0  0  0  0  0  0
    2.5432    3.3510   20.6369 H   0  0  0  0  0  0  0  0  0  0  0  0
    3.5174    2.1137   22.5168 H   0  0  0  0  0  0  0  0  0  0  0  0
    3.3409    2.9743   18.3364 H   0  0  0  0  0  0  0  0  0  0  0  0
    5.3118    0.4895   22.1572 H   0  0  0  0  0  0  0  0  0  0  0  0
   12.5015    0.5938   24.9776 H   0  0  0  0  0  0  0  0  0  0  0  0
   13.9911   -0.5212   23.3814 H   0  0  0  0  0  0  0  0  0  0  0  0
   10.6037   -2.0228   21.2288 H   0  0  0  0  0  0  0  0  0  0  0  0
    4.9141    1.7511   16.7474 H   0  0  0  0  0  0  0  0  0  0  0  0
    7.6445   -0.9764   18.1043 H   0  0  0  0  0  0  0  0  0  0  0  0
    9.7581   -0.1287   25.8173 H   0  0  0  0  0  0  0  0  0  0  0  0
   10.4931    1.4391   25.3829 H   0  0  0  0  0  0  0  0  0  0  0  0
    7.5801   -2.6060   23.3366 H   0  0  0  0  0  0  0  0  0  0  0  0
    8.7749   -2.8608   22.0657 H   0  0  0  0  0  0  0  0  0  0  0  0
    7.0227   -2.7506   20.5953 H   0  0  0  0  0  0  0  0  0  0  0  0
    5.9554   -1.9484   21.7832 H   0  0  0  0  0  0  0  0  0  0  0  0
    6.8886    0.2769   23.5666 H   0  0  0  0  0  0  0  0  0  0  0  0
    7.6579   -0.8710   24.6633 H   0  0  0  0  0  0  0  0  0  0  0  0
    6.9959    2.4517   25.9353 H   0  0  0  0  0  0  0  0  0  0  0  0
    7.3233    4.0609   26.6630 H   0  0  0  0  0  0  0  0  0  0  0  0
    6.3220    3.9340   25.1770 H   0  0  0  0  0  0  0  0  0  0  0  0
    8.5030    5.2067   23.4941 H   0  0  0  0  0  0  0  0  0  0  0  0
    9.7779    5.2166   24.7274 H   0  0  0  0  0  0  0  0  0  0  0  0
  1 24  1  0  0  0  0
  1 25  3  0  0  0  0
  2  3  1  0  0  0  0
  2  4  2  0  0  0  0
  3  5  2  0  0  0  0
  4 11  1  0  0  0  0
  5 12  1  0  0  0  0
  6  7  2  0  0  0  0
  6 13  1  0  0  0  0
  7 16  1  0  0  0  0
  8 14  1  0  0  0  0
  8 16  2  0  0  0  0
  9 11  2  0  0  0  0
  9 26  1  0  0  0  0
 10 15  1  0  0  0  0
 10 26  2  0  0  0  0
 11 12  1  0  0  0  0
 12 15  2  0  0  0  0
 13 14  2  0  0  0  0
 13 18  1  0  0  0  0
 14 22  1  0  0  0  0
 15 27  1  0  0  0  0
 16 34  1  0  0  0  0
 17 22  1  0  0  0  0
 17 27  1  0  0  0  0
 17 30  2  0  0  0  0
 18 28  1  0  0  0  0
 19 20  1  0  0  0  0
 19 22  1  0  0  0  0
 20 27  1  0  0  0  0
 21 22  1  0  0  0  0
 21 28  1  0  0  0  0
 23 29  1  6  0  0  0
 24 29  1  0  0  0  0
 28 33  1  1  0  0  0
 29 33  1  0  0  0  0
 31 33  2  0  0  0  0
 32 33  2  0  0  0  0
  2 35  1  0  0  0  0
  3 36  1  0  0  0  0
  4 37  1  0  0  0  0
  5 38  1  0  0  0  0
  6 39  1  0  0  0  0
  7 40  1  0  0  0  0
  8 41  1  0  0  0  0
  9 42  1  0  0  0  0
 10 43  1  0  0  0  0
 18 44  1  0  0  0  0
 18 45  1  0  0  0  0
 19 46  1  0  0  0  0
 19 47  1  0  0  0  0
 20 48  1  0  0  0  0
 20 49  1  0  0  0  0
 21 50  1  0  0  0  0
 21 51  1  0  0  0  0
 23 52  1  0  0  0  0
 23 53  1  0  0  0  0
 23 54  1  0  0  0  0
 24 55  1  0  0  0  0
 24 56  1  0  0  0  0
M  END
> <compound>
ALP-POS-ecbed2ba-17

> <compound_smiles>
CN(CC#N)S(=O)(=O)N1Cc2ccc(cc2C3(C1)CCN(C3=O)c4cncc5c4cccc5)Cl

> <enantiomer_smiles>
C[N@](CC#N)S(=O)(=O)[N@@]1Cc2ccc(cc2C3(C1)CCN(C3=O)c4cncc5c4cccc5)Cl

> <scaffold>
tetrahydroisoquinoline-5spiro-isoquinoline

> <clash_score>
0

> <docking_score>
-8.773527145385742

> <overlap_score>
0.9763750433921814

> <MMFF_internal_energy>
-12.653504455047498

> <docked_smiles>
C[N@](CC#N)S(=O)(=O)[N@@]1Cc2ccc(cc2[C@]3(C1)CCN(C3=O)c4cncc5c4cccc5)Cl

$$$$
ALP-POS-ecbed2ba-3_1
  -OEChem-12272114573D

 60 65  0     1  0  0  0  0  0999 V2000
    3.3432    2.6279   20.4411 C   0  0  0  0  0  0  0  0  0  0  0  0
    3.8960    1.9291   21.5050 C   0  0  0  0  0  0  0  0  0  0  0  0
    3.7865    2.4205   19.1660 C   0  0  0  0  0  0  0  0  0  0  0  0
    4.8973    1.0233   21.2988 C   0  0  0  0  0  0  0  0  0  0  0  0
   12.0765    0.0316   24.1541 C   0  0  0  0  0  0  0  0  0  0  0  0
   12.9132   -0.6032   23.2569 C   0  0  0  0  0  0  0  0  0  0  0  0
   10.9991   -1.4331   22.0443 C   0  0  0  0  0  0  0  0  0  0  0  0
    5.3278    1.2339   17.6066 C   0  0  0  0  0  0  0  0  0  0  0  0
    6.8438   -0.2892   18.3752 C   0  0  0  0  0  0  0  0  0  0  0  0
    4.8226    1.4906   18.9054 C   0  0  0  0  0  0  0  0  0  0  0  0
    5.3982    0.7733   19.9948 C   0  0  0  0  0  0  0  0  0  0  0  0
   10.7040   -0.0625   23.9898 C   0  0  0  0  0  0  0  0  0  0  0  0
   10.1406   -0.7765   22.9250 C   0  0  0  0  0  0  0  0  0  0  0  0
    6.4440   -0.1472   19.6979 C   0  0  0  0  0  0  0  0  0  0  0  0
   12.3683   -1.3298   22.2234 C   0  0  0  0  0  0  0  0  0  0  0  0
    8.2490    0.0169   21.4271 C   0  0  0  0  0  0  0  0  0  0  0  0
    9.9479    0.5589   24.9534 C   0  0  0  0  0  0  0  0  0  0  0  0
    9.6162    5.7503   24.2277 C   0  0  0  0  0  0  0  0  0  0  0  0
    8.8345    6.1030   25.4609 C   0  0  0  0  0  0  0  0  0  0  0  0
    8.0140   -2.1541   22.4331 C   0  0  0  0  0  0  0  0  0  0  0  0
    6.9866   -1.9366   21.3580 C   0  0  0  0  0  0  0  0  0  0  0  0
    7.8721   -0.1194   23.8831 C   0  0  0  0  0  0  0  0  0  0  0  0
    8.6238   -0.7606   22.6929 C   0  0  3  0  0  0  0  0  0  0  0  0
    8.3214    5.0316   24.5273 C   0  0  0  0  0  0  0  0  0  0  0  0
    7.1236    5.3522   23.6762 C   0  0  0  0  0  0  0  0  0  0  0  0
    8.3989    3.5932   24.9882 C   0  0  0  0  0  0  0  0  0  0  0  0
    6.3062    0.3769   17.3421 N   0  0  0  0  0  0  0  0  0  0  0  0
    7.2292   -0.6897   20.7790 N   0  0  0  0  0  0  0  0  0  0  0  0
    8.6609    1.0133   24.4995 N   0  0  2  0  0  0  0  0  0  0  0  0
    8.7572    1.0941   21.1350 O   0  0  0  0  0  0  0  0  0  0  0  0
    7.4179    2.5201   22.8172 O   0  0  0  0  0  0  0  0  0  0  0  0
    9.9251    2.7322   23.0499 O   0  0  0  0  0  0  0  0  0  0  0  0
    8.6198    2.4832   23.6217 S   0  0  0  0  0  0  0  0  0  0  0  0
   13.4275   -2.1421   21.1097 Cl  0  0  0  0  0  0  0  0  0  0  0  0
    2.5432    3.3510   20.6369 H   0  0  0  0  0  0  0  0  0  0  0  0
    3.5174    2.1137   22.5168 H   0  0  0  0  0  0  0  0  0  0  0  0
    3.3409    2.9743   18.3364 H   0  0  0  0  0  0  0  0  0  0  0  0
    5.3118    0.4895   22.1572 H   0  0  0  0  0  0  0  0  0  0  0  0
   12.5015    0.5938   24.9776 H   0  0  0  0  0  0  0  0  0  0  0  0
   13.9911   -0.5212   23.3814 H   0  0  0  0  0  0  0  0  0  0  0  0
   10.6037   -2.0228   21.2288 H   0  0  0  0  0  0  0  0  0  0  0  0
    4.9141    1.7511   16.7474 H   0  0  0  0  0  0  0  0  0  0  0  0
    7.6445   -0.9764   18.1043 H   0  0  0  0  0  0  0  0  0  0  0  0
    9.7581   -0.1287   25.8173 H   0  0  0  0  0  0  0  0  0  0  0  0
   10.4931    1.4391   25.3829 H   0  0  0  0  0  0  0  0  0  0  0  0
    9.6341    6.4725   23.4201 H   0  0  0  0  0  0  0  0  0  0  0  0
   10.5494    5.2157   24.3596 H   0  0  0  0  0  0  0  0  0  0  0  0
    9.2443    5.8046   26.4185 H   0  0  0  0  0  0  0  0  0  0  0  0
    8.3290    7.0613   25.4790 H   0  0  0  0  0  0  0  0  0  0  0  0
    7.5801   -2.6060   23.3366 H   0  0  0  0  0  0  0  0  0  0  0  0
    8.7749   -2.8608   22.0657 H   0  0  0  0  0  0  0  0  0  0  0  0
    7.0227   -2.7506   20.5953 H   0  0  0  0  0  0  0  0  0  0  0  0
    5.9554   -1.9484   21.7832 H   0  0  0  0  0  0  0  0  0  0  0  0
    6.8886    0.2769   23.5666 H   0  0  0  0  0  0  0  0  0  0  0  0
    7.6579   -0.8710   24.6633 H   0  0  0  0  0  0  0  0  0  0  0  0
    6.2503    4.7682   23.9918 H   0  0  0  0  0  0  0  0  0  0  0  0
    7.3194    5.1238   22.6214 H   0  0  0  0  0  0  0  0  0  0  0  0
    6.8636    6.4153   23.7493 H   0  0  0  0  0  0  0  0  0  0  0  0
    7.4792    3.2960   25.4995 H   0  0  0  0  0  0  0  0  0  0  0  0
    9.2447    3.4440   25.6648 H   0  0  0  0  0  0  0  0  0  0  0  0
  1  2  1  0  0  0  0
  1  3  2  0  0  0  0
  2  4  2  0  0  0  0
  3 10  1  0  0  0  0
  4 11  1  0  0  0  0
  5  6  2  0  0  0  0
  5 12  1  0  0  0  0
  6 15  1  0  0  0  0
  7 13  1  0  0  0  0
  7 15  2  0  0  0  0
  8 10  2  0  0  0  0
  8 27  1  0  0  0  0
  9 14  1  0  0  0  0
  9 27  2  0  0  0  0
 10 11  1  0  0  0  0
 11 14  2  0  0  0  0
 12 13  2  0  0  0  0
 12 17  1  0  0  0  0
 13 23  1  0  0  0  0
 14 28  1  0  0  0  0
 15 34  1  0  0  0  0
 16 23  1  0  0  0  0
 16 28  1  0  0  0  0
 16 30  2  0  0  0  0
 17 29  1  0  0  0  0
 18 19  1  0  0  0  0
 18 24  1  0  0  0  0
 19 24  1  0  0  0  0
 20 21  1  0  0  0  0
 20 23  1  0  0  0  0
 21 28  1  0  0  0  0
 22 23  1  0  0  0  0
 22 29  1  0  0  0  0
 24 25  1  0  0  0  0
 24 26  1  0  0  0  0
 26 33  1  0  0  0  0
 29 33  1  1  0  0  0
 31 33  2  0  0  0  0
 32 33  2  0  0  0  0
  1 35  1  0  0  0  0
  2 36  1  0  0  0  0
  3 37  1  0  0  0  0
  4 38  1  0  0  0  0
  5 39  1  0  0  0  0
  6 40  1  0  0  0  0
  7 41  1  0  0  0  0
  8 42  1  0  0  0  0
  9 43  1  0  0  0  0
 17 44  1  0  0  0  0
 17 45  1  0  0  0  0
 18 46  1  0  0  0  0
 18 47  1  0  0  0  0
 19 48  1  0  0  0  0
 19 49  1  0  0  0  0
 20 50  1  0  0  0  0
 20 51  1  0  0  0  0
 21 52  1  0  0  0  0
 21 53  1  0  0  0  0
 22 54  1  0  0  0  0
 22 55  1  0  0  0  0
 25 56  1  0  0  0  0
 25 57  1  0  0  0  0
 25 58  1  0  0  0  0
 26 59  1  0  0  0  0
 26 60  1  0  0  0  0
M  END
> <compound>
ALP-POS-ecbed2ba-3

> <compound_smiles>
CC1(CC1)CS(=O)(=O)N2Cc3ccc(cc3C4(C2)CCN(C4=O)c5cncc6c5cccc6)Cl

> <enantiomer_smiles>
CC1(CC1)CS(=O)(=O)[N@@]2Cc3ccc(cc3C4(C2)CCN(C4=O)c5cncc6c5cccc6)Cl

> <scaffold>
tetrahydroisoquinoline-5spiro-isoquinoline

> <clash_score>
0

> <docking_score>
-9.186205863952637

> <overlap_score>
0.9754491448402405

> <MMFF_internal_energy>
153.63399876305309

> <docked_smiles>
CC1(CC1)CS(=O)(=O)[N@@]2Cc3ccc(cc3[C@]4(C2)CCN(C4=O)c5cncc6c5cccc6)Cl

$$$$
ALP-POS-ecbed2ba-3_2
  -OEChem-12272114573D

 60 65  0     1  0  0  0  0  0999 V2000
    3.3432    2.6279   20.4411 C   0  0  0  0  0  0  0  0  0  0  0  0
    3.8960    1.9291   21.5050 C   0  0  0  0  0  0  0  0  0  0  0  0
    3.7865    2.4205   19.1660 C   0  0  0  0  0  0  0  0  0  0  0  0
    4.8973    1.0233   21.2988 C   0  0  0  0  0  0  0  0  0  0  0  0
   12.0765    0.0316   24.1541 C   0  0  0  0  0  0  0  0  0  0  0  0
   12.9132   -0.6032   23.2569 C   0  0  0  0  0  0  0  0  0  0  0  0
   10.9991   -1.4331   22.0443 C   0  0  0  0  0  0  0  0  0  0  0  0
    5.3278    1.2339   17.6066 C   0  0  0  0  0  0  0  0  0  0  0  0
    6.8438   -0.2892   18.3752 C   0  0  0  0  0  0  0  0  0  0  0  0
    4.8226    1.4906   18.9054 C   0  0  0  0  0  0  0  0  0  0  0  0
    5.3982    0.7733   19.9948 C   0  0  0  0  0  0  0  0  0  0  0  0
   10.7040   -0.0625   23.9898 C   0  0  0  0  0  0  0  0  0  0  0  0
   10.1406   -0.7765   22.9250 C   0  0  0  0  0  0  0  0  0  0  0  0
    6.4440   -0.1472   19.6979 C   0  0  0  0  0  0  0  0  0  0  0  0
   12.3683   -1.3298   22.2234 C   0  0  0  0  0  0  0  0  0  0  0  0
    8.2490    0.0169   21.4271 C   0  0  0  0  0  0  0  0  0  0  0  0
    9.9479    0.5589   24.9534 C   0  0  0  0  0  0  0  0  0  0  0  0
    9.7623    3.0001   22.8980 C   0  0  0  0  0  0  0  0  0  0  0  0
    9.6273    4.4957   22.9278 C   0  0  0  0  0  0  0  0  0  0  0  0
    8.0140   -2.1541   22.4331 C   0  0  0  0  0  0  0  0  0  0  0  0
    6.9866   -1.9366   21.3580 C   0  0  0  0  0  0  0  0  0  0  0  0
    7.8721   -0.1194   23.8831 C   0  0  0  0  0  0  0  0  0  0  0  0
    8.6238   -0.7606   22.6929 C   0  0  3  0  0  0  0  0  0  0  0  0
    8.5331    3.6312   23.5091 C   0  0  0  0  0  0  0  0  0  0  0  0
    7.2376    3.5293   22.7519 C   0  0  0  0  0  0  0  0  0  0  0  0
    8.3874    3.5882   25.0137 C   0  0  0  0  0  0  0  0  0  0  0  0
    6.3062    0.3769   17.3421 N   0  0  0  0  0  0  0  0  0  0  0  0
    7.2292   -0.6897   20.7790 N   0  0  0  0  0  0  0  0  0  0  0  0
    8.6609    1.0133   24.4995 N   0  0  1  0  0  0  0  0  0  0  0  0
    8.8299    1.0397   21.0799 O   0  0  0  0  0  0  0  0  0  0  0  0
    8.2407    1.8013   26.9144 O   0  0  0  0  0  0  0  0  0  0  0  0
    6.3653    1.9471   25.2271 O   0  0  0  0  0  0  0  0  0  0  0  0
    7.7708    2.0177   25.5632 S   0  0  0  0  0  0  0  0  0  0  0  0
   13.4272   -2.1411   21.1086 Cl  0  0  0  0  0  0  0  0  0  0  0  0
    2.5432    3.3510   20.6369 H   0  0  0  0  0  0  0  0  0  0  0  0
    3.5174    2.1137   22.5168 H   0  0  0  0  0  0  0  0  0  0  0  0
    3.3409    2.9743   18.3364 H   0  0  0  0  0  0  0  0  0  0  0  0
    5.3118    0.4895   22.1572 H   0  0  0  0  0  0  0  0  0  0  0  0
   12.5024    0.5995   24.9735 H   0  0  0  0  0  0  0  0  0  0  0  0
   13.9910   -0.5177   23.3793 H   0  0  0  0  0  0  0  0  0  0  0  0
   10.6036   -2.0162   21.2241 H   0  0  0  0  0  0  0  0  0  0  0  0
    4.9141    1.7511   16.7474 H   0  0  0  0  0  0  0  0  0  0  0  0
    7.6445   -0.9764   18.1043 H   0  0  0  0  0  0  0  0  0  0  0  0
    9.7849   -0.1194   25.8306 H   0  0  0  0  0  0  0  0  0  0  0  0
   10.4793    1.4568   25.3613 H   0  0  0  0  0  0  0  0  0  0  0  0
    9.6694    2.5059   21.9381 H   0  0  0  0  0  0  0  0  0  0  0  0
   10.4953    2.5480   23.5555 H   0  0  0  0  0  0  0  0  0  0  0  0
   10.2701    5.0451   23.6055 H   0  0  0  0  0  0  0  0  0  0  0  0
    9.4442    5.0031   21.9880 H   0  0  0  0  0  0  0  0  0  0  0  0
    7.5152   -2.5456   23.3338 H   0  0  0  0  0  0  0  0  0  0  0  0
    8.7649   -2.9030   22.1434 H   0  0  0  0  0  0  0  0  0  0  0  0
    7.0587   -2.7248   20.5721 H   0  0  0  0  0  0  0  0  0  0  0  0
    5.9518   -1.9952   21.7720 H   0  0  0  0  0  0  0  0  0  0  0  0
    6.8867    0.2641   23.5642 H   0  0  0  0  0  0  0  0  0  0  0  0
    7.6652   -0.8660   24.6733 H   0  0  0  0  0  0  0  0  0  0  0  0
    6.4245    4.0240   23.2971 H   0  0  0  0  0  0  0  0  0  0  0  0
    6.9534    2.4809   22.5997 H   0  0  0  0  0  0  0  0  0  0  0  0
    7.3209    4.0034   21.7662 H   0  0  0  0  0  0  0  0  0  0  0  0
    7.6838    4.3500   25.3607 H   0  0  0  0  0  0  0  0  0  0  0  0
    9.3513    3.7460   25.5050 H   0  0  0  0  0  0  0  0  0  0  0  0
  1  2  1  0  0  0  0
  1  3  2  0  0  0  0
  2  4  2  0  0  0  0
  3 10  1  0  0  0  0
  4 11  1  0  0  0  0
  5  6  2  0  0  0  0
  5 12  1  0  0  0  0
  6 15  1  0  0  0  0
  7 13  1  0  0  0  0
  7 15  2  0  0  0  0
  8 10  2  0  0  0  0
  8 27  1  0  0  0  0
  9 14  1  0  0  0  0
  9 27  2  0  0  0  0
 10 11  1  0  0  0  0
 11 14  2  0  0  0  0
 12 13  2  0  0  0  0
 12 17  1  0  0  0  0
 13 23  1  0  0  0  0
 14 28  1  0  0  0  0
 15 34  1  0  0  0  0
 16 23  1  0  0  0  0
 16 28  1  0  0  0  0
 16 30  2  0  0  0  0
 17 29  1  0  0  0  0
 18 19  1  0  0  0  0
 18 24  1  0  0  0  0
 19 24  1  0  0  0  0
 20 21  1  0  0  0  0
 20 23  1  0  0  0  0
 21 28  1  0  0  0  0
 22 23  1  0  0  0  0
 22 29  1  0  0  0  0
 24 25  1  0  0  0  0
 24 26  1  0  0  0  0
 26 33  1  0  0  0  0
 29 33  1  6  0  0  0
 31 33  2  0  0  0  0
 32 33  2  0  0  0  0
  1 35  1  0  0  0  0
  2 36  1  0  0  0  0
  3 37  1  0  0  0  0
  4 38  1  0  0  0  0
  5 39  1  0  0  0  0
  6 40  1  0  0  0  0
  7 41  1  0  0  0  0
  8 42  1  0  0  0  0
  9 43  1  0  0  0  0
 17 44  1  0  0  0  0
 17 45  1  0  0  0  0
 18 46  1  0  0  0  0
 18 47  1  0  0  0  0
 19 48  1  0  0  0  0
 19 49  1  0  0  0  0
 20 50  1  0  0  0  0
 20 51  1  0  0  0  0
 21 52  1  0  0  0  0
 21 53  1  0  0  0  0
 22 54  1  0  0  0  0
 22 55  1  0  0  0  0
 25 56  1  0  0  0  0
 25 57  1  0  0  0  0
 25 58  1  0  0  0  0
 26 59  1  0  0  0  0
 26 60  1  0  0  0  0
M  END
> <compound>
ALP-POS-ecbed2ba-3

> <compound_smiles>
CC1(CC1)CS(=O)(=O)N2Cc3ccc(cc3C4(C2)CCN(C4=O)c5cncc6c5cccc6)Cl

> <enantiomer_smiles>
CC1(CC1)CS(=O)(=O)[N@]2Cc3ccc(cc3C4(C2)CCN(C4=O)c5cncc6c5cccc6)Cl

> <scaffold>
tetrahydroisoquinoline-5spiro-isoquinoline

> <clash_score>
0

> <docking_score>
-8.767105102539062

> <overlap_score>
0.9748627543449402

> <MMFF_internal_energy>
152.62111934732684

> <docked_smiles>
CC1(CC1)CS(=O)(=O)[N@]2Cc3ccc(cc3[C@]4(C2)CCN(C4=O)c5cncc6c5cccc6)Cl

$$$$
ALP-POS-ecbed2ba-17_1
  -OEChem-12272114573D

 56 60  0     1  0  0  0  0  0999 V2000
    9.0657    5.8626   24.1566 C   0  0  0  0  0  0  0  0  0  0  0  0
    3.3432    2.6279   20.4411 C   0  0  0  0  0  0  0  0  0  0  0  0
    3.8960    1.9291   21.5050 C   0  0  0  0  0  0  0  0  0  0  0  0
    3.7865    2.4205   19.1660 C   0  0  0  0  0  0  0  0  0  0  0  0
    4.8973    1.0233   21.2988 C   0  0  0  0  0  0  0  0  0  0  0  0
   12.0765    0.0316   24.1541 C   0  0  0  0  0  0  0  0  0  0  0  0
   12.9132   -0.6032   23.2569 C   0  0  0  0  0  0  0  0  0  0  0  0
   10.9991   -1.4331   22.0443 C   0  0  0  0  0  0  0  0  0  0  0  0
    5.3278    1.2339   17.6066 C   0  0  0  0  0  0  0  0  0  0  0  0
    6.8438   -0.2892   18.3752 C   0  0  0  0  0  0  0  0  0  0  0  0
    4.8226    1.4906   18.9054 C   0  0  0  0  0  0  0  0  0  0  0  0
    5.3982    0.7733   19.9948 C   0  0  0  0  0  0  0  0  0  0  0  0
   10.7040   -0.0625   23.9898 C   0  0  0  0  0  0  0  0  0  0  0  0
   10.1406   -0.7765   22.9250 C   0  0  0  0  0  0  0  0  0  0  0  0
    6.4440   -0.1472   19.6979 C   0  0  0  0  0  0  0  0  0  0  0  0
   12.3683   -1.3298   22.2234 C   0  0  0  0  0  0  0  0  0  0  0  0
    8.2490    0.0169   21.4271 C   0  0  0  0  0  0  0  0  0  0  0  0
    9.9479    0.5589   24.9534 C   0  0  0  0  0  0  0  0  0  0  0  0
    8.0140   -2.1541   22.4331 C   0  0  0  0  0  0  0  0  0  0  0  0
    6.9866   -1.9366   21.3580 C   0  0  0  0  0  0  0  0  0  0  0  0
    7.8721   -0.1194   23.8831 C   0  0  0  0  0  0  0  0  0  0  0  0
    8.6238   -0.7606   22.6929 C   0  0  3  0  0  0  0  0  0  0  0  0
    9.4564    3.7047   25.9317 C   0  0  0  0  0  0  0  0  0  0  0  0
    7.9357    4.9958   24.4860 C   0  0  0  0  0  0  0  0  0  0  0  0
    9.9604    6.5532   23.8939 N   0  0  0  0  0  0  0  0  0  0  0  0
    6.3062    0.3769   17.3421 N   0  0  0  0  0  0  0  0  0  0  0  0
    7.2292   -0.6897   20.7790 N   0  0  0  0  0  0  0  0  0  0  0  0
    8.6609    1.0133   24.4995 N   0  0  2  0  0  0  0  0  0  0  0  0
    8.4044    3.6433   24.8844 N   0  0  1  0  0  0  0  0  0  0  0  0
    8.7572    1.0941   21.1350 O   0  0  0  0  0  0  0  0  0  0  0  0
    7.4336    2.4722   22.7864 O   0  0  0  0  0  0  0  0  0  0  0  0
    9.9276    2.6762   23.0242 O   0  0  0  0  0  0  0  0  0  0  0  0
    8.6198    2.4832   23.6217 S   0  0  0  0  0  0  0  0  0  0  0  0
   13.4275   -2.1421   21.1097 Cl  0  0  0  0  0  0  0  0  0  0  0  0
    2.5432    3.3510   20.6369 H   0  0  0  0  0  0  0  0  0  0  0  0
    3.5174    2.1137   22.5168 H   0  0  0  0  0  0  0  0  0  0  0  0
    3.3409    2.9743   18.3364 H   0  0  0  0  0  0  0  0  0  0  0  0
    5.3118    0.4895   22.1572 H   0  0  0  0  0  0  0  0  0  0  0  0
   12.5015    0.5938   24.9776 H   0  0  0  0  0  0  0  0  0  0  0  0
   13.9911   -0.5212   23.3814 H   0  0  0  0  0  0  0  0  0  0  0  0
   10.6037   -2.0228   21.2288 H   0  0  0  0  0  0  0  0  0  0  0  0
    4.9141    1.7511   16.7474 H   0  0  0  0  0  0  0  0  0  0  0  0
    7.6445   -0.9764   18.1043 H   0  0  0  0  0  0  0  0  0  0  0  0
    9.7581   -0.1287   25.8173 H   0  0  0  0  0  0  0  0  0  0  0  0
   10.4931    1.4391   25.3829 H   0  0  0  0  0  0  0  0  0  0  0  0
    7.5801   -2.6060   23.3366 H   0  0  0  0  0  0  0  0  0  0  0  0
    8.7749   -2.8608   22.0657 H   0  0  0  0  0  0  0  0  0  0  0  0
    7.0227   -2.7506   20.5953 H   0  0  0  0  0  0  0  0  0  0  0  0
    5.9554   -1.9484   21.7832 H   0  0  0  0  0  0  0  0  0  0  0  0
    6.8886    0.2769   23.5666 H   0  0  0  0  0  0  0  0  0  0  0  0
    7.6579   -0.8710   24.6633 H   0  0  0  0  0  0  0  0  0  0  0  0
    9.7724    2.6844   26.1949 H   0  0  0  0  0  0  0  0  0  0  0  0
   10.3203    4.2692   25.5509 H   0  0  0  0  0  0  0  0  0  0  0  0
    9.0556    4.2061   26.8249 H   0  0  0  0  0  0  0  0  0  0  0  0
    7.3559    5.4036   25.3190 H   0  0  0  0  0  0  0  0  0  0  0  0
    7.2685    4.8750   23.6279 H   0  0  0  0  0  0  0  0  0  0  0  0
  1 24  1  0  0  0  0
  1 25  3  0  0  0  0
  2  3  1  0  0  0  0
  2  4  2  0  0  0  0
  3  5  2  0  0  0  0
  4 11  1  0  0  0  0
  5 12  1  0  0  0  0
  6  7  2  0  0  0  0
  6 13  1  0  0  0  0
  7 16  1  0  0  0  0
  8 14  1  0  0  0  0
  8 16  2  0  0  0  0
  9 11  2  0  0  0  0
  9 26  1  0  0  0  0
 10 15  1  0  0  0  0
 10 26  2  0  0  0  0
 11 12  1  0  0  0  0
 12 15  2  0  0  0  0
 13 14  2  0  0  0  0
 13 18  1  0  0  0  0
 14 22  1  0  0  0  0
 15 27  1  0  0  0  0
 16 34  1  0  0  0  0
 17 22  1  0  0  0  0
 17 27  1  0  0  0  0
 17 30  2  0  0  0  0
 18 28  1  0  0  0  0
 19 20  1  0  0  0  0
 19 22  1  0  0  0  0
 20 27  1  0  0  0  0
 21 22  1  0  0  0  0
 21 28  1  0  0  0  0
 23 29  1  1  0  0  0
 24 29  1  0  0  0  0
 28 33  1  1  0  0  0
 29 33  1  0  0  0  0
 31 33  2  0  0  0  0
 32 33  2  0  0  0  0
  2 35  1  0  0  0  0
  3 36  1  0  0  0  0
  4 37  1  0  0  0  0
  5 38  1  0  0  0  0
  6 39  1  0  0  0  0
  7 40  1  0  0  0  0
  8 41  1  0  0  0  0
  9 42  1  0  0  0  0
 10 43  1  0  0  0  0
 18 44  1  0  0  0  0
 18 45  1  0  0  0  0
 19 46  1  0  0  0  0
 19 47  1  0  0  0  0
 20 48  1  0  0  0  0
 20 49  1  0  0  0  0
 21 50  1  0  0  0  0
 21 51  1  0  0  0  0
 23 52  1  0  0  0  0
 23 53  1  0  0  0  0
 23 54  1  0  0  0  0
 24 55  1  0  0  0  0
 24 56  1  0  0  0  0
M  END
> <compound>
ALP-POS-ecbed2ba-17

> <compound_smiles>
CN(CC#N)S(=O)(=O)N1Cc2ccc(cc2C3(C1)CCN(C3=O)c4cncc5c4cccc5)Cl

> <enantiomer_smiles>
C[N@@](CC#N)S(=O)(=O)[N@@]1Cc2ccc(cc2C3(C1)CCN(C3=O)c4cncc5c4cccc5)Cl

> <scaffold>
tetrahydroisoquinoline-5spiro-isoquinoline

> <clash_score>
0.7072986808523691

> <docking_score>
-8.26667594909668

> <overlap_score>
0.9765390157699585

> <MMFF_internal_energy>
-7.094082955722905

> <docked_smiles>
C[N@@](CC#N)S(=O)(=O)[N@@]1Cc2ccc(cc2[C@]3(C1)CCN(C3=O)c4cncc5c4cccc5)Cl

$$$$
ALP-POS-ecbed2ba-17_4
  -OEChem-12272114573D

 56 60  0     1  0  0  0  0  0999 V2000
    9.1766    5.2796   24.3767 C   0  0  0  0  0  0  0  0  0  0  0  0
    3.3432    2.6279   20.4411 C   0  0  0  0  0  0  0  0  0  0  0  0
    3.8960    1.9291   21.5050 C   0  0  0  0  0  0  0  0  0  0  0  0
    3.7865    2.4205   19.1660 C   0  0  0  0  0  0  0  0  0  0  0  0
    4.8973    1.0233   21.2988 C   0  0  0  0  0  0  0  0  0  0  0  0
   12.0765    0.0316   24.1541 C   0  0  0  0  0  0  0  0  0  0  0  0
   12.9132   -0.6032   23.2569 C   0  0  0  0  0  0  0  0  0  0  0  0
   10.9991   -1.4331   22.0443 C   0  0  0  0  0  0  0  0  0  0  0  0
    5.3278    1.2339   17.6066 C   0  0  0  0  0  0  0  0  0  0  0  0
    6.8438   -0.2892   18.3752 C   0  0  0  0  0  0  0  0  0  0  0  0
    4.8226    1.4906   18.9054 C   0  0  0  0  0  0  0  0  0  0  0  0
    5.3982    0.7733   19.9948 C   0  0  0  0  0  0  0  0  0  0  0  0
   10.7040   -0.0625   23.9898 C   0  0  0  0  0  0  0  0  0  0  0  0
   10.1406   -0.7765   22.9250 C   0  0  0  0  0  0  0  0  0  0  0  0
    6.4440   -0.1472   19.6979 C   0  0  0  0  0  0  0  0  0  0  0  0
   12.3683   -1.3298   22.2234 C   0  0  0  0  0  0  0  0  0  0  0  0
    8.2490    0.0169   21.4271 C   0  0  0  0  0  0  0  0  0  0  0  0
    9.9479    0.5589   24.9534 C   0  0  0  0  0  0  0  0  0  0  0  0
    8.0140   -2.1541   22.4331 C   0  0  0  0  0  0  0  0  0  0  0  0
    6.9866   -1.9366   21.3580 C   0  0  0  0  0  0  0  0  0  0  0  0
    7.8721   -0.1194   23.8831 C   0  0  0  0  0  0  0  0  0  0  0  0
    8.6238   -0.7606   22.6929 C   0  0  3  0  0  0  0  0  0  0  0  0
    6.4179    3.5203   23.7084 C   0  0  0  0  0  0  0  0  0  0  0  0
    8.8376    3.9346   23.9153 C   0  0  0  0  0  0  0  0  0  0  0  0
    9.4488    6.3471   24.7411 N   0  0  0  0  0  0  0  0  0  0  0  0
    6.3062    0.3769   17.3421 N   0  0  0  0  0  0  0  0  0  0  0  0
    7.2292   -0.6897   20.7790 N   0  0  0  0  0  0  0  0  0  0  0  0
    8.6609    1.0133   24.4995 N   0  0  1  0  0  0  0  0  0  0  0  0
    7.6110    3.4369   24.5899 N   0  0  2  0  0  0  0  0  0  0  0  0
    8.8299    1.0397   21.0799 O   0  0  0  0  0  0  0  0  0  0  0  0
    8.6187    2.3214   26.7008 O   0  0  0  0  0  0  0  0  0  0  0  0
    6.4562    1.4400   25.7707 O   0  0  0  0  0  0  0  0  0  0  0  0
    7.7708    2.0177   25.5632 S   0  0  0  0  0  0  0  0  0  0  0  0
   13.4272   -2.1411   21.1086 Cl  0  0  0  0  0  0  0  0  0  0  0  0
    2.5432    3.3510   20.6369 H   0  0  0  0  0  0  0  0  0  0  0  0
    3.5174    2.1137   22.5168 H   0  0  0  0  0  0  0  0  0  0  0  0
    3.3409    2.9743   18.3364 H   0  0  0  0  0  0  0  0  0  0  0  0
    5.3118    0.4895   22.1572 H   0  0  0  0  0  0  0  0  0  0  0  0
   12.5024    0.5995   24.9735 H   0  0  0  0  0  0  0  0  0  0  0  0
   13.9910   -0.5177   23.3793 H   0  0  0  0  0  0  0  0  0  0  0  0
   10.6036   -2.0162   21.2241 H   0  0  0  0  0  0  0  0  0  0  0  0
    4.9141    1.7511   16.7474 H   0  0  0  0  0  0  0  0  0  0  0  0
    7.6445   -0.9764   18.1043 H   0  0  0  0  0  0  0  0  0  0  0  0
    9.7849   -0.1194   25.8306 H   0  0  0  0  0  0  0  0  0  0  0  0
   10.4793    1.4568   25.3613 H   0  0  0  0  0  0  0  0  0  0  0  0
    7.5152   -2.5456   23.3338 H   0  0  0  0  0  0  0  0  0  0  0  0
    8.7649   -2.9030   22.1434 H   0  0  0  0  0  0  0  0  0  0  0  0
    7.0587   -2.7248   20.5721 H   0  0  0  0  0  0  0  0  0  0  0  0
    5.9518   -1.9952   21.7720 H   0  0  0  0  0  0  0  0  0  0  0  0
    6.8867    0.2641   23.5642 H   0  0  0  0  0  0  0  0  0  0  0  0
    7.6652   -0.8660   24.6733 H   0  0  0  0  0  0  0  0  0  0  0  0
    5.5363    3.1427   24.2471 H   0  0  0  0  0  0  0  0  0  0  0  0
    6.2492    4.5678   23.4180 H   0  0  0  0  0  0  0  0  0  0  0  0
    6.5849    2.9122   22.8071 H   0  0  0  0  0  0  0  0  0  0  0  0
    8.6504    3.9231   22.8377 H   0  0  0  0  0  0  0  0  0  0  0  0
    9.6441    3.2286   24.1327 H   0  0  0  0  0  0  0  0  0  0  0  0
  1 24  1  0  0  0  0
  1 25  3  0  0  0  0
  2  3  1  0  0  0  0
  2  4  2  0  0  0  0
  3  5  2  0  0  0  0
  4 11  1  0  0  0  0
  5 12  1  0  0  0  0
  6  7  2  0  0  0  0
  6 13  1  0  0  0  0
  7 16  1  0  0  0  0
  8 14  1  0  0  0  0
  8 16  2  0  0  0  0
  9 11  2  0  0  0  0
  9 26  1  0  0  0  0
 10 15  1  0  0  0  0
 10 26  2  0  0  0  0
 11 12  1  0  0  0  0
 12 15  2  0  0  0  0
 13 14  2  0  0  0  0
 13 18  1  0  0  0  0
 14 22  1  0  0  0  0
 15 27  1  0  0  0  0
 16 34  1  0  0  0  0
 17 22  1  0  0  0  0
 17 27  1  0  0  0  0
 17 30  2  0  0  0  0
 18 28  1  0  0  0  0
 19 20  1  0  0  0  0
 19 22  1  0  0  0  0
 20 27  1  0  0  0  0
 21 22  1  0  0  0  0
 21 28  1  0  0  0  0
 23 29  1  6  0  0  0
 24 29  1  0  0  0  0
 28 33  1  6  0  0  0
 29 33  1  0  0  0  0
 31 33  2  0  0  0  0
 32 33  2  0  0  0  0
  2 35  1  0  0  0  0
  3 36  1  0  0  0  0
  4 37  1  0  0  0  0
  5 38  1  0  0  0  0
  6 39  1  0  0  0  0
  7 40  1  0  0  0  0
  8 41  1  0  0  0  0
  9 42  1  0  0  0  0
 10 43  1  0  0  0  0
 18 44  1  0  0  0  0
 18 45  1  0  0  0  0
 19 46  1  0  0  0  0
 19 47  1  0  0  0  0
 20 48  1  0  0  0  0
 20 49  1  0  0  0  0
 21 50  1  0  0  0  0
 21 51  1  0  0  0  0
 23 52  1  0  0  0  0
 23 53  1  0  0  0  0
 23 54  1  0  0  0  0
 24 55  1  0  0  0  0
 24 56  1  0  0  0  0
M  END
> <compound>
ALP-POS-ecbed2ba-17

> <compound_smiles>
CN(CC#N)S(=O)(=O)N1Cc2ccc(cc2C3(C1)CCN(C3=O)c4cncc5c4cccc5)Cl

> <enantiomer_smiles>
C[N@](CC#N)S(=O)(=O)[N@]1Cc2ccc(cc2C3(C1)CCN(C3=O)c4cncc5c4cccc5)Cl

> <scaffold>
tetrahydroisoquinoline-5spiro-isoquinoline

> <clash_score>
0

> <docking_score>
-8.77868366241455

> <overlap_score>
0.9730861783027649

> <MMFF_internal_energy>
-31.139187799346757

> <docked_smiles>
C[N@](CC#N)S(=O)(=O)[N@]1Cc2ccc(cc2[C@]3(C1)CCN(C3=O)c4cncc5c4cccc5)Cl

$$$$
ALP-POS-ecbed2ba-12_2
  -OEChem-12272114573D

 62 67  0     1  0  0  0  0  0999 V2000
    3.3432    2.6279   20.4411 C   0  0  0  0  0  0  0  0  0  0  0  0
    3.8960    1.9291   21.5050 C   0  0  0  0  0  0  0  0  0  0  0  0
    3.7865    2.4205   19.1660 C   0  0  0  0  0  0  0  0  0  0  0  0
    4.8973    1.0233   21.2988 C   0  0  0  0  0  0  0  0  0  0  0  0
   12.0765    0.0316   24.1541 C   0  0  0  0  0  0  0  0  0  0  0  0
   12.9132   -0.6032   23.2569 C   0  0  0  0  0  0  0  0  0  0  0  0
   10.9991   -1.4331   22.0443 C   0  0  0  0  0  0  0  0  0  0  0  0
    5.3278    1.2339   17.6066 C   0  0  0  0  0  0  0  0  0  0  0  0
    6.8438   -0.2892   18.3752 C   0  0  0  0  0  0  0  0  0  0  0  0
    4.8226    1.4906   18.9054 C   0  0  0  0  0  0  0  0  0  0  0  0
    5.3982    0.7733   19.9948 C   0  0  0  0  0  0  0  0  0  0  0  0
   10.7040   -0.0625   23.9898 C   0  0  0  0  0  0  0  0  0  0  0  0
   10.1406   -0.7765   22.9250 C   0  0  0  0  0  0  0  0  0  0  0  0
    6.4440   -0.1472   19.6979 C   0  0  0  0  0  0  0  0  0  0  0  0
   12.3683   -1.3298   22.2234 C   0  0  0  0  0  0  0  0  0  0  0  0
    8.2490    0.0169   21.4271 C   0  0  0  0  0  0  0  0  0  0  0  0
    6.7919    2.5950   24.9761 C   0  0  0  0  0  0  0  0  0  0  0  0
    9.9479    0.5589   24.9534 C   0  0  0  0  0  0  0  0  0  0  0  0
    6.4371    5.8713   21.2126 C   0  0  0  0  0  0  0  0  0  0  0  0
    7.1730    6.3477   22.4338 C   0  0  0  0  0  0  0  0  0  0  0  0
    8.0140   -2.1541   22.4331 C   0  0  0  0  0  0  0  0  0  0  0  0
    6.9866   -1.9366   21.3580 C   0  0  0  0  0  0  0  0  0  0  0  0
    7.8721   -0.1194   23.8831 C   0  0  0  0  0  0  0  0  0  0  0  0
    7.1225    4.8799   22.1117 C   0  0  0  0  0  0  0  0  0  0  0  0
    8.6238   -0.7606   22.6929 C   0  0  3  0  0  0  0  0  0  0  0  0
    7.8596    1.7144   25.5749 C   0  0  0  0  0  0  0  0  0  0  0  0
    6.3188    3.9530   22.9587 C   0  0  0  0  0  0  0  0  0  0  0  0
    6.3062    0.3769   17.3421 N   0  0  0  0  0  0  0  0  0  0  0  0
    7.2292   -0.6897   20.7790 N   0  0  0  0  0  0  0  0  0  0  0  0
    7.1719    3.0858   23.7359 N   0  0  0  0  0  0  0  0  0  0  0  0
    8.6609    1.0133   24.4995 N   0  3  2  0  0  0  0  0  0  0  0  0
    8.8286    1.0402   21.0803 O   0  0  0  0  0  0  0  0  0  0  0  0
    5.7242    2.8342   25.5339 O   0  0  0  0  0  0  0  0  0  0  0  0
   13.4270   -2.1443   21.1108 Cl  0  0  0  0  0  0  0  0  0  0  0  0
    2.5432    3.3510   20.6369 H   0  0  0  0  0  0  0  0  0  0  0  0
    3.5174    2.1137   22.5168 H   0  0  0  0  0  0  0  0  0  0  0  0
    3.3409    2.9743   18.3364 H   0  0  0  0  0  0  0  0  0  0  0  0
    5.3118    0.4895   22.1572 H   0  0  0  0  0  0  0  0  0  0  0  0
   12.5021    0.5962   24.9756 H   0  0  0  0  0  0  0  0  0  0  0  0
   13.9911   -0.5171   23.3786 H   0  0  0  0  0  0  0  0  0  0  0  0
   10.6045   -2.0170   21.2248 H   0  0  0  0  0  0  0  0  0  0  0  0
    4.9141    1.7511   16.7474 H   0  0  0  0  0  0  0  0  0  0  0  0
    7.6445   -0.9764   18.1043 H   0  0  0  0  0  0  0  0  0  0  0  0
    9.7608   -0.1211   25.8247 H   0  0  0  0  0  0  0  0  0  0  0  0
   10.4565    1.4661   25.3705 H   0  0  0  0  0  0  0  0  0  0  0  0
    5.3554    5.9217   21.2250 H   0  0  0  0  0  0  0  0  0  0  0  0
    6.8844    6.0680   20.2460 H   0  0  0  0  0  0  0  0  0  0  0  0
    8.1139    6.8635   22.2862 H   0  0  0  0  0  0  0  0  0  0  0  0
    6.5841    6.7173   23.2641 H   0  0  0  0  0  0  0  0  0  0  0  0
    7.5144   -2.5472   23.3327 H   0  0  0  0  0  0  0  0  0  0  0  0
    8.7599   -2.9065   22.1418 H   0  0  0  0  0  0  0  0  0  0  0  0
    7.0582   -2.7244   20.5716 H   0  0  0  0  0  0  0  0  0  0  0  0
    5.9516   -1.9958   21.7713 H   0  0  0  0  0  0  0  0  0  0  0  0
    6.8955    0.2929   23.5757 H   0  0  0  0  0  0  0  0  0  0  0  0
    7.6774   -0.8491   24.6905 H   0  0  0  0  0  0  0  0  0  0  0  0
    8.0296    4.4137   21.7463 H   0  0  0  0  0  0  0  0  0  0  0  0
    7.4105    0.9495   26.2145 H   0  0  0  0  0  0  0  0  0  0  0  0
    8.5738    2.3157   26.1441 H   0  0  0  0  0  0  0  0  0  0  0  0
    5.6904    4.5441   23.6412 H   0  0  0  0  0  0  0  0  0  0  0  0
    5.6777    3.3383   22.3098 H   0  0  0  0  0  0  0  0  0  0  0  0
    8.0877    2.8524   23.3629 H   0  0  0  0  0  0  0  0  0  0  0  0
    8.7930    1.7233   23.7554 H   0  0  0  0  0  0  0  0  0  0  0  0
  1  2  1  0  0  0  0
  1  3  2  0  0  0  0
  2  4  2  0  0  0  0
  3 10  1  0  0  0  0
  4 11  1  0  0  0  0
  5  6  1  0  0  0  0
  5 12  2  0  0  0  0
  6 15  2  0  0  0  0
  7 13  2  0  0  0  0
  7 15  1  0  0  0  0
  8 10  2  0  0  0  0
  8 28  1  0  0  0  0
  9 14  1  0  0  0  0
  9 28  2  0  0  0  0
 10 11  1  0  0  0  0
 11 14  2  0  0  0  0
 12 13  1  0  0  0  0
 12 18  1  0  0  0  0
 13 25  1  0  0  0  0
 14 29  1  0  0  0  0
 15 34  1  0  0  0  0
 16 25  1  0  0  0  0
 16 29  1  0  0  0  0
 16 32  2  0  0  0  0
 17 26  1  0  0  0  0
 17 30  1  0  0  0  0
 17 33  2  0  0  0  0
 18 31  1  0  0  0  0
 19 20  1  0  0  0  0
 19 24  1  0  0  0  0
 20 24  1  0  0  0  0
 21 22  1  0  0  0  0
 21 25  1  0  0  0  0
 22 29  1  0  0  0  0
 23 25  1  0  0  0  0
 23 31  1  0  0  0  0
 24 27  1  0  0  0  0
 26 31  1  6  0  0  0
 27 30  1  0  0  0  0
  1 35  1  0  0  0  0
  2 36  1  0  0  0  0
  3 37  1  0  0  0  0
  4 38  1  0  0  0  0
  5 39  1  0  0  0  0
  6 40  1  0  0  0  0
  7 41  1  0  0  0  0
  8 42  1  0  0  0  0
  9 43  1  0  0  0  0
 18 44  1  0  0  0  0
 18 45  1  0  0  0  0
 19 46  1  0  0  0  0
 19 47  1  0  0  0  0
 20 48  1  0  0  0  0
 20 49  1  0  0  0  0
 21 50  1  0  0  0  0
 21 51  1  0  0  0  0
 22 52  1  0  0  0  0
 22 53  1  0  0  0  0
 23 54  1  0  0  0  0
 23 55  1  0  0  0  0
 24 56  1  0  0  0  0
 26 57  1  0  0  0  0
 26 58  1  0  0  0  0
 27 59  1  0  0  0  0
 27 60  1  0  0  0  0
 30 61  1  0  0  0  0
 31 62  1  0  0  0  0
M  CHG  1  31   1
M  END
> <compound>
ALP-POS-ecbed2ba-12

> <compound_smiles>
c1ccc2c(c1)cncc2N3CCC4(C3=O)CN(Cc5c4cc(cc5)Cl)CC(=O)NCC6CC6

> <enantiomer_smiles>
c1ccc2c(c1)cncc2N3CCC4(C3=O)C[N@](Cc5c4cc(cc5)Cl)CC(=O)NCC6CC6

> <scaffold>
tetrahydroisoquinoline-5spiro-isoquinoline

> <clash_score>
0

> <docking_score>
-9.784177780151367

> <overlap_score>
0.9726072549819946

> <MMFF_internal_energy>
186.70696437781686

> <docked_smiles>
c1ccc2c(c1)cncc2N3CC[C@@]4(C3=O)C[N@H+](Cc5c4cc(cc5)Cl)CC(=O)NCC6CC6

$$$$
ALP-POS-ecbed2ba-12_1
  -OEChem-12272114573D

 62 67  0     1  0  0  0  0  0999 V2000
    3.3432    2.6279   20.4411 C   0  0  0  0  0  0  0  0  0  0  0  0
    3.8960    1.9291   21.5050 C   0  0  0  0  0  0  0  0  0  0  0  0
    3.7865    2.4205   19.1660 C   0  0  0  0  0  0  0  0  0  0  0  0
    4.8973    1.0233   21.2988 C   0  0  0  0  0  0  0  0  0  0  0  0
   12.0765    0.0316   24.1541 C   0  0  0  0  0  0  0  0  0  0  0  0
   12.9132   -0.6032   23.2569 C   0  0  0  0  0  0  0  0  0  0  0  0
   10.9991   -1.4331   22.0443 C   0  0  0  0  0  0  0  0  0  0  0  0
    5.3278    1.2339   17.6066 C   0  0  0  0  0  0  0  0  0  0  0  0
    6.8438   -0.2892   18.3752 C   0  0  0  0  0  0  0  0  0  0  0  0
    4.8226    1.4906   18.9054 C   0  0  0  0  0  0  0  0  0  0  0  0
    5.3982    0.7733   19.9948 C   0  0  0  0  0  0  0  0  0  0  0  0
   10.7040   -0.0625   23.9898 C   0  0  0  0  0  0  0  0  0  0  0  0
   10.1406   -0.7765   22.9250 C   0  0  0  0  0  0  0  0  0  0  0  0
    6.4440   -0.1472   19.6979 C   0  0  0  0  0  0  0  0  0  0  0  0
   12.3683   -1.3298   22.2234 C   0  0  0  0  0  0  0  0  0  0  0  0
    8.2490    0.0169   21.4271 C   0  0  0  0  0  0  0  0  0  0  0  0
    7.4448    2.9660   23.4914 C   0  0  0  0  0  0  0  0  0  0  0  0
    9.9479    0.5589   24.9534 C   0  0  0  0  0  0  0  0  0  0  0  0
    6.0181    7.3283   21.4376 C   0  0  0  0  0  0  0  0  0  0  0  0
    7.4040    7.3407   22.0197 C   0  0  0  0  0  0  0  0  0  0  0  0
    8.0140   -2.1541   22.4331 C   0  0  0  0  0  0  0  0  0  0  0  0
    6.9866   -1.9366   21.3580 C   0  0  0  0  0  0  0  0  0  0  0  0
    7.8721   -0.1194   23.8831 C   0  0  0  0  0  0  0  0  0  0  0  0
    6.8237    6.0597   21.4875 C   0  0  0  0  0  0  0  0  0  0  0  0
    8.6238   -0.7606   22.6929 C   0  0  3  0  0  0  0  0  0  0  0  0
    8.7403    2.1972   23.5605 C   0  0  0  0  0  0  0  0  0  0  0  0
    6.4417    4.9634   22.4228 C   0  0  0  0  0  0  0  0  0  0  0  0
    6.3062    0.3769   17.3421 N   0  0  0  0  0  0  0  0  0  0  0  0
    7.2292   -0.6897   20.7790 N   0  0  0  0  0  0  0  0  0  0  0  0
    7.5496    4.0679   22.6557 N   0  0  0  0  0  0  0  0  0  0  0  0
    8.6609    1.0133   24.4995 N   0  3  1  0  0  0  0  0  0  0  0  0
    8.7573    1.0936   21.1337 O   0  0  0  0  0  0  0  0  0  0  0  0
    6.4331    2.6390   24.1061 O   0  0  0  0  0  0  0  0  0  0  0  0
   13.4273   -2.1424   21.1098 Cl  0  0  0  0  0  0  0  0  0  0  0  0
    2.5432    3.3510   20.6369 H   0  0  0  0  0  0  0  0  0  0  0  0
    3.5174    2.1137   22.5168 H   0  0  0  0  0  0  0  0  0  0  0  0
    3.3409    2.9743   18.3364 H   0  0  0  0  0  0  0  0  0  0  0  0
    5.3118    0.4895   22.1572 H   0  0  0  0  0  0  0  0  0  0  0  0
   12.5019    0.5946   24.9768 H   0  0  0  0  0  0  0  0  0  0  0  0
   13.9911   -0.5203   23.3811 H   0  0  0  0  0  0  0  0  0  0  0  0
   10.6042   -2.0222   21.2286 H   0  0  0  0  0  0  0  0  0  0  0  0
    4.9141    1.7511   16.7474 H   0  0  0  0  0  0  0  0  0  0  0  0
    7.6445   -0.9764   18.1043 H   0  0  0  0  0  0  0  0  0  0  0  0
    9.7388   -0.1131   25.8254 H   0  0  0  0  0  0  0  0  0  0  0  0
   10.4771    1.4544   25.3711 H   0  0  0  0  0  0  0  0  0  0  0  0
    5.1844    7.4407   22.1197 H   0  0  0  0  0  0  0  0  0  0  0  0
    5.8731    7.7954   20.4712 H   0  0  0  0  0  0  0  0  0  0  0  0
    8.1886    7.8157   21.4436 H   0  0  0  0  0  0  0  0  0  0  0  0
    7.4987    7.4615   23.0918 H   0  0  0  0  0  0  0  0  0  0  0  0
    7.5768   -2.6110   23.3318 H   0  0  0  0  0  0  0  0  0  0  0  0
    8.7734   -2.8622   22.0653 H   0  0  0  0  0  0  0  0  0  0  0  0
    7.0225   -2.7503   20.5949 H   0  0  0  0  0  0  0  0  0  0  0  0
    5.9552   -1.9477   21.7830 H   0  0  0  0  0  0  0  0  0  0  0  0
    6.8958    0.3004   23.5785 H   0  0  0  0  0  0  0  0  0  0  0  0
    7.6733   -0.8520   24.6844 H   0  0  0  0  0  0  0  0  0  0  0  0
    7.2188    5.6785   20.5536 H   0  0  0  0  0  0  0  0  0  0  0  0
    9.5429    2.8336   23.9434 H   0  0  0  0  0  0  0  0  0  0  0  0
    9.0029    1.8046   22.5742 H   0  0  0  0  0  0  0  0  0  0  0  0
    6.1272    5.4024   23.3811 H   0  0  0  0  0  0  0  0  0  0  0  0
    5.6062    4.3953   21.9879 H   0  0  0  0  0  0  0  0  0  0  0  0
    8.4370    4.2739   22.2059 H   0  0  0  0  0  0  0  0  0  0  0  0
    8.1123    1.3501   25.3127 H   0  0  0  0  0  0  0  0  0  0  0  0
  1  2  1  0  0  0  0
  1  3  2  0  0  0  0
  2  4  2  0  0  0  0
  3 10  1  0  0  0  0
  4 11  1  0  0  0  0
  5  6  1  0  0  0  0
  5 12  2  0  0  0  0
  6 15  2  0  0  0  0
  7 13  2  0  0  0  0
  7 15  1  0  0  0  0
  8 10  2  0  0  0  0
  8 28  1  0  0  0  0
  9 14  1  0  0  0  0
  9 28  2  0  0  0  0
 10 11  1  0  0  0  0
 11 14  2  0  0  0  0
 12 13  1  0  0  0  0
 12 18  1  0  0  0  0
 13 25  1  0  0  0  0
 14 29  1  0  0  0  0
 15 34  1  0  0  0  0
 16 25  1  0  0  0  0
 16 29  1  0  0  0  0
 16 32  2  0  0  0  0
 17 26  1  0  0  0  0
 17 30  1  0  0  0  0
 17 33  2  0  0  0  0
 18 31  1  0  0  0  0
 19 20  1  0  0  0  0
 19 24  1  0  0  0  0
 20 24  1  0  0  0  0
 21 22  1  0  0  0  0
 21 25  1  0  0  0  0
 22 29  1  0  0  0  0
 23 25  1  0  0  0  0
 23 31  1  0  0  0  0
 24 27  1  0  0  0  0
 26 31  1  1  0  0  0
 27 30  1  0  0  0  0
  1 35  1  0  0  0  0
  2 36  1  0  0  0  0
  3 37  1  0  0  0  0
  4 38  1  0  0  0  0
  5 39  1  0  0  0  0
  6 40  1  0  0  0  0
  7 41  1  0  0  0  0
  8 42  1  0  0  0  0
  9 43  1  0  0  0  0
 18 44  1  0  0  0  0
 18 45  1  0  0  0  0
 19 46  1  0  0  0  0
 19 47  1  0  0  0  0
 20 48  1  0  0  0  0
 20 49  1  0  0  0  0
 21 50  1  0  0  0  0
 21 51  1  0  0  0  0
 22 52  1  0  0  0  0
 22 53  1  0  0  0  0
 23 54  1  0  0  0  0
 23 55  1  0  0  0  0
 24 56  1  0  0  0  0
 26 57  1  0  0  0  0
 26 58  1  0  0  0  0
 27 59  1  0  0  0  0
 27 60  1  0  0  0  0
 30 61  1  0  0  0  0
 31 62  1  0  0  0  0
M  CHG  1  31   1
M  END
> <compound>
ALP-POS-ecbed2ba-12

> <compound_smiles>
c1ccc2c(c1)cncc2N3CCC4(C3=O)CN(Cc5c4cc(cc5)Cl)CC(=O)NCC6CC6

> <enantiomer_smiles>
c1ccc2c(c1)cncc2N3CCC4(C3=O)C[N@@](Cc5c4cc(cc5)Cl)CC(=O)NCC6CC6

> <scaffold>
tetrahydroisoquinoline-5spiro-isoquinoline

> <clash_score>
0

> <docking_score>
-10.564159393310547

> <overlap_score>
0.974204421043396

> <MMFF_internal_energy>
182.35786518532723

> <docked_smiles>
c1ccc2c(c1)cncc2N3CC[C@@]4(C3=O)C[N@@H+](Cc5c4cc(cc5)Cl)CC(=O)NCC6CC6

$$$$
MAT-POS-576f7758-2_1
  -OEChem-12272114573D

 57 62  0     1  0  0  0  0  0999 V2000
    3.3432    2.6279   20.4411 C   0  0  0  0  0  0  0  0  0  0  0  0
    3.8960    1.9291   21.5050 C   0  0  0  0  0  0  0  0  0  0  0  0
    3.7865    2.4205   19.1660 C   0  0  0  0  0  0  0  0  0  0  0  0
    4.8973    1.0233   21.2988 C   0  0  0  0  0  0  0  0  0  0  0  0
   12.0765    0.0316   24.1541 C   0  0  0  0  0  0  0  0  0  0  0  0
   12.9132   -0.6032   23.2569 C   0  0  0  0  0  0  0  0  0  0  0  0
   10.9991   -1.4331   22.0443 C   0  0  0  0  0  0  0  0  0  0  0  0
    5.3278    1.2339   17.6066 C   0  0  0  0  0  0  0  0  0  0  0  0
    6.8438   -0.2892   18.3752 C   0  0  0  0  0  0  0  0  0  0  0  0
    4.8226    1.4906   18.9054 C   0  0  0  0  0  0  0  0  0  0  0  0
    5.3982    0.7733   19.9948 C   0  0  0  0  0  0  0  0  0  0  0  0
   10.7040   -0.0625   23.9898 C   0  0  0  0  0  0  0  0  0  0  0  0
   10.1406   -0.7765   22.9250 C   0  0  0  0  0  0  0  0  0  0  0  0
    6.4440   -0.1472   19.6979 C   0  0  0  0  0  0  0  0  0  0  0  0
   12.3683   -1.3298   22.2234 C   0  0  0  0  0  0  0  0  0  0  0  0
    9.9479    0.5589   24.9534 C   0  0  0  0  0  0  0  0  0  0  0  0
    8.2490    0.0169   21.4271 C   0  0  0  0  0  0  0  0  0  0  0  0
    8.4222    3.2568   23.7645 C   0  0  0  0  0  0  0  0  0  0  0  0
    7.9228    2.6746   26.2005 C   0  0  0  0  0  0  0  0  0  0  0  0
    6.7191    2.2853   25.4011 C   0  0  0  0  0  0  0  0  0  0  0  0
    8.0140   -2.1541   22.4331 C   0  0  0  0  0  0  0  0  0  0  0  0
    6.9866   -1.9366   21.3580 C   0  0  0  0  0  0  0  0  0  0  0  0
    7.8721   -0.1194   23.8831 C   0  0  0  0  0  0  0  0  0  0  0  0
    8.6238   -0.7606   22.6929 C   0  0  3  0  0  0  0  0  0  0  0  0
    8.0922    2.2237   24.7645 C   0  0  0  0  0  0  0  0  0  0  0  0
   10.1192    4.9707   23.1599 C   0  0  0  0  0  0  0  0  0  0  0  0
    6.3062    0.3769   17.3421 N   0  0  0  0  0  0  0  0  0  0  0  0
    7.2292   -0.6897   20.7790 N   0  0  0  0  0  0  0  0  0  0  0  0
    8.6609    1.0133   24.4995 N   0  0  0  0  0  0  0  0  0  0  0  0
    9.6069    3.9231   24.0138 N   0  0  0  0  0  0  0  0  0  0  0  0
   10.3214    0.7303   26.1092 O   0  0  0  0  0  0  0  0  0  0  0  0
    8.8193    1.0411   21.0780 O   0  0  0  0  0  0  0  0  0  0  0  0
    7.6637    3.4490   22.8214 O   0  0  0  0  0  0  0  0  0  0  0  0
   13.4266   -2.1450   21.1115 Cl  0  0  0  0  0  0  0  0  0  0  0  0
    2.5432    3.3510   20.6369 H   0  0  0  0  0  0  0  0  0  0  0  0
    3.5174    2.1137   22.5168 H   0  0  0  0  0  0  0  0  0  0  0  0
    3.3409    2.9743   18.3364 H   0  0  0  0  0  0  0  0  0  0  0  0
    5.3118    0.4895   22.1572 H   0  0  0  0  0  0  0  0  0  0  0  0
   12.5168    0.5969   24.9717 H   0  0  0  0  0  0  0  0  0  0  0  0
   13.9905   -0.5223   23.3823 H   0  0  0  0  0  0  0  0  0  0  0  0
   10.6130   -2.0239   21.2265 H   0  0  0  0  0  0  0  0  0  0  0  0
    4.9141    1.7511   16.7474 H   0  0  0  0  0  0  0  0  0  0  0  0
    7.6445   -0.9764   18.1043 H   0  0  0  0  0  0  0  0  0  0  0  0
    8.0542    3.7249   26.4335 H   0  0  0  0  0  0  0  0  0  0  0  0
    8.2388    2.0049   26.9919 H   0  0  0  0  0  0  0  0  0  0  0  0
    6.2266    1.3540   25.6549 H   0  0  0  0  0  0  0  0  0  0  0  0
    6.0407    3.0736   25.0964 H   0  0  0  0  0  0  0  0  0  0  0  0
    7.5107   -2.5270   23.3391 H   0  0  0  0  0  0  0  0  0  0  0  0
    8.7577   -2.9105   22.1439 H   0  0  0  0  0  0  0  0  0  0  0  0
    7.0584   -2.7260   20.5727 H   0  0  0  0  0  0  0  0  0  0  0  0
    5.9514   -1.9960   21.7715 H   0  0  0  0  0  0  0  0  0  0  0  0
    6.9260    0.3245   23.5638 H   0  0  0  0  0  0  0  0  0  0  0  0
    7.6512   -0.8549   24.6568 H   0  0  0  0  0  0  0  0  0  0  0  0
   10.7641    4.5304   22.3851 H   0  0  0  0  0  0  0  0  0  0  0  0
    9.2800    5.4976   22.6824 H   0  0  0  0  0  0  0  0  0  0  0  0
   10.7034    5.6817   23.7625 H   0  0  0  0  0  0  0  0  0  0  0  0
   10.1432    3.6642   24.8364 H   0  0  0  0  0  0  0  0  0  0  0  0
  1  2  1  0  0  0  0
  1  3  2  0  0  0  0
  2  4  2  0  0  0  0
  3 10  1  0  0  0  0
  4 11  1  0  0  0  0
  5  6  2  0  0  0  0
  5 12  1  0  0  0  0
  6 15  1  0  0  0  0
  7 13  1  0  0  0  0
  7 15  2  0  0  0  0
  8 10  2  0  0  0  0
  8 27  1  0  0  0  0
  9 14  1  0  0  0  0
  9 27  2  0  0  0  0
 10 11  1  0  0  0  0
 11 14  2  0  0  0  0
 12 13  2  0  0  0  0
 12 16  1  0  0  0  0
 13 24  1  0  0  0  0
 14 28  1  0  0  0  0
 15 34  1  0  0  0  0
 16 29  1  0  0  0  0
 16 31  2  0  0  0  0
 17 24  1  0  0  0  0
 17 28  1  0  0  0  0
 17 32  2  0  0  0  0
 18 25  1  0  0  0  0
 18 30  1  0  0  0  0
 18 33  2  0  0  0  0
 19 20  1  0  0  0  0
 19 25  1  0  0  0  0
 20 25  1  0  0  0  0
 21 22  1  0  0  0  0
 21 24  1  0  0  0  0
 22 28  1  0  0  0  0
 23 24  1  0  0  0  0
 23 29  1  0  0  0  0
 25 29  1  0  0  0  0
 26 30  1  0  0  0  0
  1 35  1  0  0  0  0
  2 36  1  0  0  0  0
  3 37  1  0  0  0  0
  4 38  1  0  0  0  0
  5 39  1  0  0  0  0
  6 40  1  0  0  0  0
  7 41  1  0  0  0  0
  8 42  1  0  0  0  0
  9 43  1  0  0  0  0
 19 44  1  0  0  0  0
 19 45  1  0  0  0  0
 20 46  1  0  0  0  0
 20 47  1  0  0  0  0
 21 48  1  0  0  0  0
 21 49  1  0  0  0  0
 22 50  1  0  0  0  0
 22 51  1  0  0  0  0
 23 52  1  0  0  0  0
 23 53  1  0  0  0  0
 26 54  1  0  0  0  0
 26 55  1  0  0  0  0
 26 56  1  0  0  0  0
 30 57  1  0  0  0  0
M  END
> <compound>
MAT-POS-576f7758-2

> <compound_smiles>
CNC(=O)C1(CC1)N2CC3(CCN(C3=O)c4cncc5c4cccc5)c6cc(ccc6C2=O)Cl

> <enantiomer_smiles>
CNC(=O)C1(CC1)N2CC3(CCN(C3=O)c4cncc5c4cccc5)c6cc(ccc6C2=O)Cl

> <scaffold>
tetrahydroisoquinoline-5spiro-isoquinoline

> <clash_score>
0

> <docking_score>
-9.599407196044922

> <overlap_score>
0.9887016415596008

> <MMFF_internal_energy>
154.08737016449896

> <docked_smiles>
CNC(=O)C1(CC1)N2C[C@]3(CCN(C3=O)c4cncc5c4cccc5)c6cc(ccc6C2=O)Cl

$$$$
MAT-POS-69786b79-3_1
  -OEChem-12272114573D

 62 67  0     1  0  0  0  0  0999 V2000
    3.3432    2.6279   20.4411 C   0  0  0  0  0  0  0  0  0  0  0  0
    3.8960    1.9291   21.5050 C   0  0  0  0  0  0  0  0  0  0  0  0
    3.7865    2.4205   19.1660 C   0  0  0  0  0  0  0  0  0  0  0  0
    4.8973    1.0233   21.2988 C   0  0  0  0  0  0  0  0  0  0  0  0
   12.0765    0.0316   24.1541 C   0  0  0  0  0  0  0  0  0  0  0  0
   12.9132   -0.6032   23.2569 C   0  0  0  0  0  0  0  0  0  0  0  0
   10.9991   -1.4331   22.0443 C   0  0  0  0  0  0  0  0  0  0  0  0
    5.3278    1.2339   17.6066 C   0  0  0  0  0  0  0  0  0  0  0  0
    6.8438   -0.2892   18.3752 C   0  0  0  0  0  0  0  0  0  0  0  0
    4.8226    1.4906   18.9054 C   0  0  0  0  0  0  0  0  0  0  0  0
    5.3982    0.7733   19.9948 C   0  0  0  0  0  0  0  0  0  0  0  0
   10.7040   -0.0625   23.9898 C   0  0  0  0  0  0  0  0  0  0  0  0
   10.1406   -0.7765   22.9250 C   0  0  0  0  0  0  0  0  0  0  0  0
    6.4440   -0.1472   19.6979 C   0  0  0  0  0  0  0  0  0  0  0  0
   12.3683   -1.3298   22.2234 C   0  0  0  0  0  0  0  0  0  0  0  0
    8.2490    0.0169   21.4271 C   0  0  0  0  0  0  0  0  0  0  0  0
    8.9569    3.4987   24.2908 C   0  0  0  0  0  0  0  0  0  0  0  0
    9.9479    0.5589   24.9534 C   0  0  0  0  0  0  0  0  0  0  0  0
   10.8501    6.6268   23.1226 C   0  0  0  0  0  0  0  0  0  0  0  0
    9.3983    6.9157   23.3570 C   0  0  0  0  0  0  0  0  0  0  0  0
    8.0140   -2.1541   22.4331 C   0  0  0  0  0  0  0  0  0  0  0  0
    6.9866   -1.9366   21.3580 C   0  0  0  0  0  0  0  0  0  0  0  0
    7.8721   -0.1194   23.8831 C   0  0  0  0  0  0  0  0  0  0  0  0
    8.6238   -0.7606   22.6929 C   0  0  3  0  0  0  0  0  0  0  0  0
   10.0377    5.7104   24.0119 C   0  0  0  0  0  0  0  0  0  0  0  0
   10.2916    5.7763   25.4933 C   0  0  0  0  0  0  0  0  0  0  0  0
    8.7403    2.1972   23.5605 C   0  0  0  0  0  0  0  0  0  0  0  0
    6.3062    0.3769   17.3421 N   0  0  0  0  0  0  0  0  0  0  0  0
    7.2292   -0.6897   20.7790 N   0  0  0  0  0  0  0  0  0  0  0  0
    9.6979    4.3921   23.5318 N   0  0  0  0  0  0  0  0  0  0  0  0
    8.6609    1.0133   24.4995 N   0  3  2  0  0  0  0  0  0  0  0  0
    8.7573    1.0936   21.1337 O   0  0  0  0  0  0  0  0  0  0  0  0
    8.5211    3.7201   25.4174 O   0  0  0  0  0  0  0  0  0  0  0  0
   13.4273   -2.1424   21.1098 Cl  0  0  0  0  0  0  0  0  0  0  0  0
    2.5432    3.3510   20.6369 H   0  0  0  0  0  0  0  0  0  0  0  0
    3.5174    2.1137   22.5168 H   0  0  0  0  0  0  0  0  0  0  0  0
    3.3409    2.9743   18.3364 H   0  0  0  0  0  0  0  0  0  0  0  0
    5.3118    0.4895   22.1572 H   0  0  0  0  0  0  0  0  0  0  0  0
   12.5019    0.5946   24.9768 H   0  0  0  0  0  0  0  0  0  0  0  0
   13.9911   -0.5203   23.3811 H   0  0  0  0  0  0  0  0  0  0  0  0
   10.6042   -2.0222   21.2286 H   0  0  0  0  0  0  0  0  0  0  0  0
    4.9141    1.7511   16.7474 H   0  0  0  0  0  0  0  0  0  0  0  0
    7.6445   -0.9764   18.1043 H   0  0  0  0  0  0  0  0  0  0  0  0
    9.7388   -0.1131   25.8254 H   0  0  0  0  0  0  0  0  0  0  0  0
   10.4771    1.4544   25.3711 H   0  0  0  0  0  0  0  0  0  0  0  0
   11.1391    6.2696   22.1409 H   0  0  0  0  0  0  0  0  0  0  0  0
   11.5759    7.2874   23.5817 H   0  0  0  0  0  0  0  0  0  0  0  0
    9.1478    7.7705   23.9740 H   0  0  0  0  0  0  0  0  0  0  0  0
    8.7141    6.7523   22.5326 H   0  0  0  0  0  0  0  0  0  0  0  0
    7.5768   -2.6110   23.3318 H   0  0  0  0  0  0  0  0  0  0  0  0
    8.7734   -2.8622   22.0653 H   0  0  0  0  0  0  0  0  0  0  0  0
    7.0225   -2.7503   20.5949 H   0  0  0  0  0  0  0  0  0  0  0  0
    5.9552   -1.9477   21.7830 H   0  0  0  0  0  0  0  0  0  0  0  0
    6.8958    0.3004   23.5785 H   0  0  0  0  0  0  0  0  0  0  0  0
    7.6733   -0.8520   24.6844 H   0  0  0  0  0  0  0  0  0  0  0  0
    9.6481    5.0710   26.0330 H   0  0  0  0  0  0  0  0  0  0  0  0
   10.0905    6.7823   25.8809 H   0  0  0  0  0  0  0  0  0  0  0  0
   11.3345    5.5271   25.7237 H   0  0  0  0  0  0  0  0  0  0  0  0
    9.5767    1.9929   22.8863 H   0  0  0  0  0  0  0  0  0  0  0  0
    7.7998    2.2255   23.0032 H   0  0  0  0  0  0  0  0  0  0  0  0
   10.0374    4.1117   22.6162 H   0  0  0  0  0  0  0  0  0  0  0  0
    8.1123    1.3501   25.3127 H   0  0  0  0  0  0  0  0  0  0  0  0
  1  2  1  0  0  0  0
  1  3  2  0  0  0  0
  2  4  2  0  0  0  0
  3 10  1  0  0  0  0
  4 11  1  0  0  0  0
  5  6  2  0  0  0  0
  5 12  1  0  0  0  0
  6 15  1  0  0  0  0
  7 13  1  0  0  0  0
  7 15  2  0  0  0  0
  8 10  2  0  0  0  0
  8 28  1  0  0  0  0
  9 14  1  0  0  0  0
  9 28  2  0  0  0  0
 10 11  1  0  0  0  0
 11 14  2  0  0  0  0
 12 13  2  0  0  0  0
 12 18  1  0  0  0  0
 13 24  1  0  0  0  0
 14 29  1  0  0  0  0
 15 34  1  0  0  0  0
 16 24  1  0  0  0  0
 16 29  1  0  0  0  0
 16 32  2  0  0  0  0
 17 27  1  0  0  0  0
 17 30  1  0  0  0  0
 17 33  2  0  0  0  0
 18 31  1  0  0  0  0
 19 20  1  0  0  0  0
 19 25  1  0  0  0  0
 20 25  1  0  0  0  0
 21 22  1  0  0  0  0
 21 24  1  0  0  0  0
 22 29  1  0  0  0  0
 23 24  1  0  0  0  0
 23 31  1  0  0  0  0
 25 26  1  0  0  0  0
 25 30  1  0  0  0  0
 27 31  1  1  0  0  0
  1 35  1  0  0  0  0
  2 36  1  0  0  0  0
  3 37  1  0  0  0  0
  4 38  1  0  0  0  0
  5 39  1  0  0  0  0
  6 40  1  0  0  0  0
  7 41  1  0  0  0  0
  8 42  1  0  0  0  0
  9 43  1  0  0  0  0
 18 44  1  0  0  0  0
 18 45  1  0  0  0  0
 19 46  1  0  0  0  0
 19 47  1  0  0  0  0
 20 48  1  0  0  0  0
 20 49  1  0  0  0  0
 21 50  1  0  0  0  0
 21 51  1  0  0  0  0
 22 52  1  0  0  0  0
 22 53  1  0  0  0  0
 23 54  1  0  0  0  0
 23 55  1  0  0  0  0
 26 56  1  0  0  0  0
 26 57  1  0  0  0  0
 26 58  1  0  0  0  0
 27 59  1  0  0  0  0
 27 60  1  0  0  0  0
 30 61  1  0  0  0  0
 31 62  1  0  0  0  0
M  CHG  1  31   1
M  END
> <compound>
MAT-POS-69786b79-3

> <compound_smiles>
CC1(CC1)NC(=O)CN2Cc3ccc(cc3C4(C2)CCN(C4=O)c5cncc6c5cccc6)Cl

> <enantiomer_smiles>
CC1(CC1)NC(=O)C[N@@]2Cc3ccc(cc3C4(C2)CCN(C4=O)c5cncc6c5cccc6)Cl

> <scaffold>
tetrahydroisoquinoline-5spiro-isoquinoline

> <clash_score>
0

> <docking_score>
-8.996932029724121

> <overlap_score>
0.9731370210647583

> <MMFF_internal_energy>
182.4518065416387

> <docked_smiles>
CC1(CC1)NC(=O)C[N@@H+]2Cc3ccc(cc3[C@]4(C2)CCN(C4=O)c5cncc6c5cccc6)Cl

$$$$
ALP-POS-ecbed2ba-17_3
  -OEChem-12272114573D

 56 60  0     1  0  0  0  0  0999 V2000
    9.1279    5.7346   25.8410 C   0  0  0  0  0  0  0  0  0  0  0  0
    3.3432    2.6279   20.4411 C   0  0  0  0  0  0  0  0  0  0  0  0
    3.8960    1.9291   21.5050 C   0  0  0  0  0  0  0  0  0  0  0  0
    3.7865    2.4205   19.1660 C   0  0  0  0  0  0  0  0  0  0  0  0
    4.8973    1.0233   21.2988 C   0  0  0  0  0  0  0  0  0  0  0  0
   12.0765    0.0316   24.1541 C   0  0  0  0  0  0  0  0  0  0  0  0
   12.9132   -0.6032   23.2569 C   0  0  0  0  0  0  0  0  0  0  0  0
   10.9991   -1.4331   22.0443 C   0  0  0  0  0  0  0  0  0  0  0  0
    5.3278    1.2339   17.6066 C   0  0  0  0  0  0  0  0  0  0  0  0
    6.8438   -0.2892   18.3752 C   0  0  0  0  0  0  0  0  0  0  0  0
    4.8226    1.4906   18.9054 C   0  0  0  0  0  0  0  0  0  0  0  0
    5.3982    0.7733   19.9948 C   0  0  0  0  0  0  0  0  0  0  0  0
   10.7040   -0.0625   23.9898 C   0  0  0  0  0  0  0  0  0  0  0  0
   10.1406   -0.7765   22.9250 C   0  0  0  0  0  0  0  0  0  0  0  0
    6.4440   -0.1472   19.6979 C   0  0  0  0  0  0  0  0  0  0  0  0
   12.3683   -1.3298   22.2234 C   0  0  0  0  0  0  0  0  0  0  0  0
    8.2490    0.0169   21.4271 C   0  0  0  0  0  0  0  0  0  0  0  0
    9.9479    0.5589   24.9534 C   0  0  0  0  0  0  0  0  0  0  0  0
    8.0140   -2.1541   22.4331 C   0  0  0  0  0  0  0  0  0  0  0  0
    6.9866   -1.9366   21.3580 C   0  0  0  0  0  0  0  0  0  0  0  0
    7.8721   -0.1194   23.8831 C   0  0  0  0  0  0  0  0  0  0  0  0
    8.6238   -0.7606   22.6929 C   0  0  3  0  0  0  0  0  0  0  0  0
    8.1000    3.9598   23.6531 C   0  0  0  0  0  0  0  0  0  0  0  0
    8.1016    4.7061   26.0010 C   0  0  0  0  0  0  0  0  0  0  0  0
    9.9408    6.5533   25.7163 N   0  0  0  0  0  0  0  0  0  0  0  0
    6.3062    0.3769   17.3421 N   0  0  0  0  0  0  0  0  0  0  0  0
    7.2292   -0.6897   20.7790 N   0  0  0  0  0  0  0  0  0  0  0  0
    8.6609    1.0133   24.4995 N   0  0  1  0  0  0  0  0  0  0  0  0
    8.3369    3.5738   25.0681 N   0  0  1  0  0  0  0  0  0  0  0  0
    8.8299    1.0397   21.0799 O   0  0  0  0  0  0  0  0  0  0  0  0
    8.2349    1.7566   26.9129 O   0  0  0  0  0  0  0  0  0  0  0  0
    6.3591    1.9089   25.2467 O   0  0  0  0  0  0  0  0  0  0  0  0
    7.7708    2.0177   25.5632 S   0  0  0  0  0  0  0  0  0  0  0  0
   13.4272   -2.1411   21.1086 Cl  0  0  0  0  0  0  0  0  0  0  0  0
    2.5432    3.3510   20.6369 H   0  0  0  0  0  0  0  0  0  0  0  0
    3.5174    2.1137   22.5168 H   0  0  0  0  0  0  0  0  0  0  0  0
    3.3409    2.9743   18.3364 H   0  0  0  0  0  0  0  0  0  0  0  0
    5.3118    0.4895   22.1572 H   0  0  0  0  0  0  0  0  0  0  0  0
   12.5024    0.5995   24.9735 H   0  0  0  0  0  0  0  0  0  0  0  0
   13.9910   -0.5177   23.3793 H   0  0  0  0  0  0  0  0  0  0  0  0
   10.6036   -2.0162   21.2241 H   0  0  0  0  0  0  0  0  0  0  0  0
    4.9141    1.7511   16.7474 H   0  0  0  0  0  0  0  0  0  0  0  0
    7.6445   -0.9764   18.1043 H   0  0  0  0  0  0  0  0  0  0  0  0
    9.7849   -0.1194   25.8306 H   0  0  0  0  0  0  0  0  0  0  0  0
   10.4793    1.4568   25.3613 H   0  0  0  0  0  0  0  0  0  0  0  0
    7.5152   -2.5456   23.3338 H   0  0  0  0  0  0  0  0  0  0  0  0
    8.7649   -2.9030   22.1434 H   0  0  0  0  0  0  0  0  0  0  0  0
    7.0587   -2.7248   20.5721 H   0  0  0  0  0  0  0  0  0  0  0  0
    5.9518   -1.9952   21.7720 H   0  0  0  0  0  0  0  0  0  0  0  0
    6.8867    0.2641   23.5642 H   0  0  0  0  0  0  0  0  0  0  0  0
    7.6652   -0.8660   24.6733 H   0  0  0  0  0  0  0  0  0  0  0  0
    8.2854    3.0940   23.0004 H   0  0  0  0  0  0  0  0  0  0  0  0
    7.0585    4.2926   23.5334 H   0  0  0  0  0  0  0  0  0  0  0  0
    8.7807    4.7788   23.3777 H   0  0  0  0  0  0  0  0  0  0  0  0
    8.1029    4.3028   27.0177 H   0  0  0  0  0  0  0  0  0  0  0  0
    7.1060    5.1067   25.7902 H   0  0  0  0  0  0  0  0  0  0  0  0
  1 24  1  0  0  0  0
  1 25  3  0  0  0  0
  2  3  1  0  0  0  0
  2  4  2  0  0  0  0
  3  5  2  0  0  0  0
  4 11  1  0  0  0  0
  5 12  1  0  0  0  0
  6  7  2  0  0  0  0
  6 13  1  0  0  0  0
  7 16  1  0  0  0  0
  8 14  1  0  0  0  0
  8 16  2  0  0  0  0
  9 11  2  0  0  0  0
  9 26  1  0  0  0  0
 10 15  1  0  0  0  0
 10 26  2  0  0  0  0
 11 12  1  0  0  0  0
 12 15  2  0  0  0  0
 13 14  2  0  0  0  0
 13 18  1  0  0  0  0
 14 22  1  0  0  0  0
 15 27  1  0  0  0  0
 16 34  1  0  0  0  0
 17 22  1  0  0  0  0
 17 27  1  0  0  0  0
 17 30  2  0  0  0  0
 18 28  1  0  0  0  0
 19 20  1  0  0  0  0
 19 22  1  0  0  0  0
 20 27  1  0  0  0  0
 21 22  1  0  0  0  0
 21 28  1  0  0  0  0
 23 29  1  1  0  0  0
 24 29  1  0  0  0  0
 28 33  1  6  0  0  0
 29 33  1  0  0  0  0
 31 33  2  0  0  0  0
 32 33  2  0  0  0  0
  2 35  1  0  0  0  0
  3 36  1  0  0  0  0
  4 37  1  0  0  0  0
  5 38  1  0  0  0  0
  6 39  1  0  0  0  0
  7 40  1  0  0  0  0
  8 41  1  0  0  0  0
  9 42  1  0  0  0  0
 10 43  1  0  0  0  0
 18 44  1  0  0  0  0
 18 45  1  0  0  0  0
 19 46  1  0  0  0  0
 19 47  1  0  0  0  0
 20 48  1  0  0  0  0
 20 49  1  0  0  0  0
 21 50  1  0  0  0  0
 21 51  1  0  0  0  0
 23 52  1  0  0  0  0
 23 53  1  0  0  0  0
 23 54  1  0  0  0  0
 24 55  1  0  0  0  0
 24 56  1  0  0  0  0
M  END
> <compound>
ALP-POS-ecbed2ba-17

> <compound_smiles>
CN(CC#N)S(=O)(=O)N1Cc2ccc(cc2C3(C1)CCN(C3=O)c4cncc5c4cccc5)Cl

> <enantiomer_smiles>
C[N@@](CC#N)S(=O)(=O)[N@]1Cc2ccc(cc2C3(C1)CCN(C3=O)c4cncc5c4cccc5)Cl

> <scaffold>
tetrahydroisoquinoline-5spiro-isoquinoline

> <clash_score>
0

> <docking_score>
-8.656042098999023

> <overlap_score>
0.9726384878158569

> <MMFF_internal_energy>
-34.029692413291244

> <docked_smiles>
C[N@@](CC#N)S(=O)(=O)[N@]1Cc2ccc(cc2[C@]3(C1)CCN(C3=O)c4cncc5c4cccc5)Cl

$$$$
EDJ-MED-cc48ee33-7_1
  -OEChem-12272114573D

 56 61  0     1  0  0  0  0  0999 V2000
    3.3432    2.6279   20.4411 C   0  0  0  0  0  0  0  0  0  0  0  0
    3.8960    1.9291   21.5050 C   0  0  0  0  0  0  0  0  0  0  0  0
    3.7865    2.4205   19.1660 C   0  0  0  0  0  0  0  0  0  0  0  0
    4.8973    1.0233   21.2988 C   0  0  0  0  0  0  0  0  0  0  0  0
   12.0765    0.0316   24.1541 C   0  0  0  0  0  0  0  0  0  0  0  0
   12.9132   -0.6032   23.2569 C   0  0  0  0  0  0  0  0  0  0  0  0
    9.9144    3.3943   23.2950 C   0  0  0  0  0  0  0  0  0  0  0  0
   10.9991   -1.4331   22.0443 C   0  0  0  0  0  0  0  0  0  0  0  0
   10.2538    4.7561   23.1855 C   0  0  0  0  0  0  0  0  0  0  0  0
    5.3278    1.2339   17.6066 C   0  0  0  0  0  0  0  0  0  0  0  0
    6.8438   -0.2892   18.3752 C   0  0  0  0  0  0  0  0  0  0  0  0
    4.8226    1.4906   18.9054 C   0  0  0  0  0  0  0  0  0  0  0  0
    5.3982    0.7733   19.9948 C   0  0  0  0  0  0  0  0  0  0  0  0
   10.7040   -0.0625   23.9898 C   0  0  0  0  0  0  0  0  0  0  0  0
   10.1406   -0.7765   22.9250 C   0  0  0  0  0  0  0  0  0  0  0  0
    6.4440   -0.1472   19.6979 C   0  0  0  0  0  0  0  0  0  0  0  0
   12.3683   -1.3298   22.2234 C   0  0  0  0  0  0  0  0  0  0  0  0
    8.8911    3.3679   24.2107 C   0  0  0  0  0  0  0  0  0  0  0  0
    9.9479    0.5589   24.9534 C   0  0  0  0  0  0  0  0  0  0  0  0
    8.2490    0.0169   21.4271 C   0  0  0  0  0  0  0  0  0  0  0  0
    8.0140   -2.1541   22.4331 C   0  0  0  0  0  0  0  0  0  0  0  0
    6.9866   -1.9366   21.3580 C   0  0  0  0  0  0  0  0  0  0  0  0
    7.8721   -0.1194   23.8831 C   0  0  0  0  0  0  0  0  0  0  0  0
    8.6238   -0.7606   22.6929 C   0  0  3  0  0  0  0  0  0  0  0  0
    7.7123    5.1558   25.5256 C   0  0  0  0  0  0  0  0  0  0  0  0
    8.0922    2.2237   24.7645 C   0  0  0  0  0  0  0  0  0  0  0  0
    6.3062    0.3769   17.3421 N   0  0  0  0  0  0  0  0  0  0  0  0
    9.5065    5.5383   23.9690 N   0  0  0  0  0  0  0  0  0  0  0  0
    8.6874    4.6651   24.5794 N   0  0  0  0  0  0  0  0  0  0  0  0
    7.2292   -0.6897   20.7790 N   0  0  0  0  0  0  0  0  0  0  0  0
    8.6609    1.0133   24.4995 N   0  0  0  0  0  0  0  0  0  0  0  0
   10.3214    0.7303   26.1092 O   0  0  0  0  0  0  0  0  0  0  0  0
    8.8193    1.0411   21.0780 O   0  0  0  0  0  0  0  0  0  0  0  0
   13.4274   -2.1468   21.1136 Cl  0  0  0  0  0  0  0  0  0  0  0  0
    2.5432    3.3510   20.6369 H   0  0  0  0  0  0  0  0  0  0  0  0
    3.5174    2.1137   22.5168 H   0  0  0  0  0  0  0  0  0  0  0  0
    3.3409    2.9743   18.3364 H   0  0  0  0  0  0  0  0  0  0  0  0
    5.3118    0.4895   22.1572 H   0  0  0  0  0  0  0  0  0  0  0  0
   12.5172    0.5967   24.9716 H   0  0  0  0  0  0  0  0  0  0  0  0
   13.9905   -0.5221   23.3825 H   0  0  0  0  0  0  0  0  0  0  0  0
   10.3527    2.5516   22.7805 H   0  0  0  0  0  0  0  0  0  0  0  0
   10.6130   -2.0249   21.2272 H   0  0  0  0  0  0  0  0  0  0  0  0
   11.0145    5.2110   22.5675 H   0  0  0  0  0  0  0  0  0  0  0  0
    4.9141    1.7511   16.7474 H   0  0  0  0  0  0  0  0  0  0  0  0
    7.6445   -0.9764   18.1043 H   0  0  0  0  0  0  0  0  0  0  0  0
    7.5110   -2.5276   23.3390 H   0  0  0  0  0  0  0  0  0  0  0  0
    8.7575   -2.9105   22.1433 H   0  0  0  0  0  0  0  0  0  0  0  0
    7.0587   -2.7258   20.5724 H   0  0  0  0  0  0  0  0  0  0  0  0
    5.9512   -1.9960   21.7712 H   0  0  0  0  0  0  0  0  0  0  0  0
    6.9203    0.3184   23.5736 H   0  0  0  0  0  0  0  0  0  0  0  0
    7.6659   -0.8542   24.6623 H   0  0  0  0  0  0  0  0  0  0  0  0
    8.1756    5.1602   26.5157 H   0  0  0  0  0  0  0  0  0  0  0  0
    7.4064    6.1667   25.2421 H   0  0  0  0  0  0  0  0  0  0  0  0
    6.8368    4.5005   25.5149 H   0  0  0  0  0  0  0  0  0  0  0  0
    7.9882    2.3156   25.8511 H   0  0  0  0  0  0  0  0  0  0  0  0
    7.0823    2.2083   24.3413 H   0  0  0  0  0  0  0  0  0  0  0  0
  1  2  1  0  0  0  0
  1  3  2  0  0  0  0
  2  4  2  0  0  0  0
  3 12  1  0  0  0  0
  4 13  1  0  0  0  0
  5  6  2  0  0  0  0
  5 14  1  0  0  0  0
  6 17  1  0  0  0  0
  7  9  1  0  0  0  0
  7 18  2  0  0  0  0
  8 15  1  0  0  0  0
  8 17  2  0  0  0  0
  9 28  2  0  0  0  0
 10 12  2  0  0  0  0
 10 27  1  0  0  0  0
 11 16  1  0  0  0  0
 11 27  2  0  0  0  0
 12 13  1  0  0  0  0
 13 16  2  0  0  0  0
 14 15  2  0  0  0  0
 14 19  1  0  0  0  0
 15 24  1  0  0  0  0
 16 30  1  0  0  0  0
 17 34  1  0  0  0  0
 18 26  1  0  0  0  0
 18 29  1  0  0  0  0
 19 31  1  0  0  0  0
 19 32  2  0  0  0  0
 20 24  1  0  0  0  0
 20 30  1  0  0  0  0
 20 33  2  0  0  0  0
 21 22  1  0  0  0  0
 21 24  1  0  0  0  0
 22 30  1  0  0  0  0
 23 24  1  0  0  0  0
 23 31  1  0  0  0  0
 25 29  1  0  0  0  0
 26 31  1  0  0  0  0
 28 29  1  0  0  0  0
  1 35  1  0  0  0  0
  2 36  1  0  0  0  0
  3 37  1  0  0  0  0
  4 38  1  0  0  0  0
  5 39  1  0  0  0  0
  6 40  1  0  0  0  0
  7 41  1  0  0  0  0
  8 42  1  0  0  0  0
  9 43  1  0  0  0  0
 10 44  1  0  0  0  0
 11 45  1  0  0  0  0
 21 46  1  0  0  0  0
 21 47  1  0  0  0  0
 22 48  1  0  0  0  0
 22 49  1  0  0  0  0
 23 50  1  0  0  0  0
 23 51  1  0  0  0  0
 25 52  1  0  0  0  0
 25 53  1  0  0  0  0
 25 54  1  0  0  0  0
 26 55  1  0  0  0  0
 26 56  1  0  0  0  0
M  END
> <compound>
EDJ-MED-cc48ee33-7

> <compound_smiles>
Cn1c(ccn1)CN2CC3(CCN(C3=O)c4cncc5c4cccc5)c6cc(ccc6C2=O)Cl

> <enantiomer_smiles>
Cn1c(ccn1)CN2CC3(CCN(C3=O)c4cncc5c4cccc5)c6cc(ccc6C2=O)Cl

> <scaffold>
tetrahydroisoquinoline-5spiro-isoquinoline

> <clash_score>
0

> <docking_score>
-8.202181816101074

> <overlap_score>
0.984818696975708

> <MMFF_internal_energy>
148.70205305704962

> <docked_smiles>
Cn1c(ccn1)CN2C[C@]3(CCN(C3=O)c4cncc5c4cccc5)c6cc(ccc6C2=O)Cl

$$$$
ALP-POS-ecbed2ba-19_1
  -OEChem-12272114573D

 59 63  0     1  0  0  0  0  0999 V2000
    3.3432    2.6279   20.4411 C   0  0  0  0  0  0  0  0  0  0  0  0
    3.8960    1.9291   21.5050 C   0  0  0  0  0  0  0  0  0  0  0  0
    3.7865    2.4205   19.1660 C   0  0  0  0  0  0  0  0  0  0  0  0
    4.8973    1.0233   21.2988 C   0  0  0  0  0  0  0  0  0  0  0  0
   12.0765    0.0316   24.1541 C   0  0  0  0  0  0  0  0  0  0  0  0
   12.9132   -0.6032   23.2569 C   0  0  0  0  0  0  0  0  0  0  0  0
   10.9991   -1.4331   22.0443 C   0  0  0  0  0  0  0  0  0  0  0  0
    5.3278    1.2339   17.6066 C   0  0  0  0  0  0  0  0  0  0  0  0
    6.8438   -0.2892   18.3752 C   0  0  0  0  0  0  0  0  0  0  0  0
    4.8226    1.4906   18.9054 C   0  0  0  0  0  0  0  0  0  0  0  0
    5.3982    0.7733   19.9948 C   0  0  0  0  0  0  0  0  0  0  0  0
   10.7040   -0.0625   23.9898 C   0  0  0  0  0  0  0  0  0  0  0  0
   10.1406   -0.7765   22.9250 C   0  0  0  0  0  0  0  0  0  0  0  0
    6.4440   -0.1472   19.6979 C   0  0  0  0  0  0  0  0  0  0  0  0
   12.3683   -1.3298   22.2234 C   0  0  0  0  0  0  0  0  0  0  0  0
    8.2490    0.0169   21.4271 C   0  0  0  0  0  0  0  0  0  0  0  0
    9.9479    0.5589   24.9534 C   0  0  0  0  0  0  0  0  0  0  0  0
    8.0140   -2.1541   22.4331 C   0  0  0  0  0  0  0  0  0  0  0  0
    6.9866   -1.9366   21.3580 C   0  0  0  0  0  0  0  0  0  0  0  0
    7.8721   -0.1194   23.8831 C   0  0  0  0  0  0  0  0  0  0  0  0
    8.6238   -0.7606   22.6929 C   0  0  3  0  0  0  0  0  0  0  0  0
    5.8152    2.1201   25.1489 C   0  0  0  0  0  0  0  0  0  0  0  0
    7.4351    3.1828   26.6707 C   0  0  0  0  0  0  0  0  0  0  0  0
    7.6737    4.6665   26.8840 C   0  0  0  0  0  0  0  0  0  0  0  0
    6.3062    0.3769   17.3421 N   0  0  0  0  0  0  0  0  0  0  0  0
    7.2292   -0.6897   20.7790 N   0  0  0  0  0  0  0  0  0  0  0  0
    8.6609    1.0133   24.4995 N   0  0  2  0  0  0  0  0  0  0  0  0
    7.0508    2.9381   25.2565 N   0  0  1  0  0  0  0  0  0  0  0  0
    8.8191    1.0385   21.0718 O   0  0  0  0  0  0  0  0  0  0  0  0
    7.8002    2.6311   22.7949 O   0  0  0  0  0  0  0  0  0  0  0  0
    9.4909    3.3736   24.5002 O   0  0  0  0  0  0  0  0  0  0  0  0
    8.7437    5.0971   26.0524 O   0  0  0  0  0  0  0  0  0  0  0  0
    8.3267    2.5839   24.1459 S   0  0  0  0  0  0  0  0  0  0  0  0
   13.4275   -2.1421   21.1097 Cl  0  0  0  0  0  0  0  0  0  0  0  0
    2.5432    3.3510   20.6369 H   0  0  0  0  0  0  0  0  0  0  0  0
    3.5174    2.1137   22.5168 H   0  0  0  0  0  0  0  0  0  0  0  0
    3.3409    2.9743   18.3364 H   0  0  0  0  0  0  0  0  0  0  0  0
    5.3118    0.4895   22.1572 H   0  0  0  0  0  0  0  0  0  0  0  0
   12.5015    0.5938   24.9776 H   0  0  0  0  0  0  0  0  0  0  0  0
   13.9911   -0.5212   23.3814 H   0  0  0  0  0  0  0  0  0  0  0  0
   10.6037   -2.0228   21.2288 H   0  0  0  0  0  0  0  0  0  0  0  0
    4.9141    1.7511   16.7474 H   0  0  0  0  0  0  0  0  0  0  0  0
    7.6445   -0.9764   18.1043 H   0  0  0  0  0  0  0  0  0  0  0  0
    9.7578   -0.1285   25.8173 H   0  0  0  0  0  0  0  0  0  0  0  0
   10.4928    1.4393   25.3829 H   0  0  0  0  0  0  0  0  0  0  0  0
    7.5801   -2.6060   23.3366 H   0  0  0  0  0  0  0  0  0  0  0  0
    8.7749   -2.8608   22.0657 H   0  0  0  0  0  0  0  0  0  0  0  0
    7.0227   -2.7506   20.5953 H   0  0  0  0  0  0  0  0  0  0  0  0
    5.9554   -1.9484   21.7833 H   0  0  0  0  0  0  0  0  0  0  0  0
    6.8886    0.2771   23.5668 H   0  0  0  0  0  0  0  0  0  0  0  0
    7.6579   -0.8709   24.6635 H   0  0  0  0  0  0  0  0  0  0  0  0
    5.5692    1.9644   24.0881 H   0  0  0  0  0  0  0  0  0  0  0  0
    5.9769    1.1463   25.6344 H   0  0  0  0  0  0  0  0  0  0  0  0
    4.9847    2.6437   25.6448 H   0  0  0  0  0  0  0  0  0  0  0  0
    8.3367    2.6009   26.8868 H   0  0  0  0  0  0  0  0  0  0  0  0
    6.6203    2.8322   27.3113 H   0  0  0  0  0  0  0  0  0  0  0  0
    7.9574    4.8548   27.9241 H   0  0  0  0  0  0  0  0  0  0  0  0
    6.7826    5.2560   26.6447 H   0  0  0  0  0  0  0  0  0  0  0  0
    8.8626    6.0460   26.2188 H   0  0  0  0  0  0  0  0  0  0  0  0
  1  2  1  0  0  0  0
  1  3  2  0  0  0  0
  2  4  2  0  0  0  0
  3 10  1  0  0  0  0
  4 11  1  0  0  0  0
  5  6  2  0  0  0  0
  5 12  1  0  0  0  0
  6 15  1  0  0  0  0
  7 13  1  0  0  0  0
  7 15  2  0  0  0  0
  8 10  2  0  0  0  0
  8 25  1  0  0  0  0
  9 14  1  0  0  0  0
  9 25  2  0  0  0  0
 10 11  1  0  0  0  0
 11 14  2  0  0  0  0
 12 13  2  0  0  0  0
 12 17  1  0  0  0  0
 13 21  1  0  0  0  0
 14 26  1  0  0  0  0
 15 34  1  0  0  0  0
 16 21  1  0  0  0  0
 16 26  1  0  0  0  0
 16 29  2  0  0  0  0
 17 27  1  0  0  0  0
 18 19  1  0  0  0  0
 18 21  1  0  0  0  0
 19 26  1  0  0  0  0
 20 21  1  0  0  0  0
 20 27  1  0  0  0  0
 22 28  1  1  0  0  0
 23 24  1  0  0  0  0
 23 28  1  0  0  0  0
 24 32  1  0  0  0  0
 27 33  1  1  0  0  0
 28 33  1  0  0  0  0
 30 33  2  0  0  0  0
 31 33  2  0  0  0  0
  1 35  1  0  0  0  0
  2 36  1  0  0  0  0
  3 37  1  0  0  0  0
  4 38  1  0  0  0  0
  5 39  1  0  0  0  0
  6 40  1  0  0  0  0
  7 41  1  0  0  0  0
  8 42  1  0  0  0  0
  9 43  1  0  0  0  0
 17 44  1  0  0  0  0
 17 45  1  0  0  0  0
 18 46  1  0  0  0  0
 18 47  1  0  0  0  0
 19 48  1  0  0  0  0
 19 49  1  0  0  0  0
 20 50  1  0  0  0  0
 20 51  1  0  0  0  0
 22 52  1  0  0  0  0
 22 53  1  0  0  0  0
 22 54  1  0  0  0  0
 23 55  1  0  0  0  0
 23 56  1  0  0  0  0
 24 57  1  0  0  0  0
 24 58  1  0  0  0  0
 32 59  1  0  0  0  0
M  END
> <compound>
ALP-POS-ecbed2ba-19

> <compound_smiles>
CN(CCO)S(=O)(=O)N1Cc2ccc(cc2C3(C1)CCN(C3=O)c4cncc5c4cccc5)Cl

> <enantiomer_smiles>
C[N@@](CCO)S(=O)(=O)[N@@]1Cc2ccc(cc2C3(C1)CCN(C3=O)c4cncc5c4cccc5)Cl

> <scaffold>
tetrahydroisoquinoline-5spiro-isoquinoline

> <clash_score>
0

> <docking_score>
-8.718086242675781

> <overlap_score>
0.9755091071128845

> <MMFF_internal_energy>
12.698248461467537

> <docked_smiles>
C[N@@](CCO)S(=O)(=O)[N@@]1Cc2ccc(cc2[C@]3(C1)CCN(C3=O)c4cncc5c4cccc5)Cl

$$$$
EDJ-MED-976a33d5-1_1
  -OEChem-12272114573D

 57 62  0     1  0  0  0  0  0999 V2000
    3.3432    2.6279   20.4411 C   0  0  0  0  0  0  0  0  0  0  0  0
    3.8960    1.9291   21.5050 C   0  0  0  0  0  0  0  0  0  0  0  0
    3.7865    2.4205   19.1660 C   0  0  0  0  0  0  0  0  0  0  0  0
    4.8973    1.0233   21.2988 C   0  0  0  0  0  0  0  0  0  0  0  0
   12.0765    0.0316   24.1541 C   0  0  0  0  0  0  0  0  0  0  0  0
   12.9132   -0.6032   23.2569 C   0  0  0  0  0  0  0  0  0  0  0  0
   10.9991   -1.4331   22.0443 C   0  0  0  0  0  0  0  0  0  0  0  0
    5.3278    1.2339   17.6066 C   0  0  0  0  0  0  0  0  0  0  0  0
    6.8438   -0.2892   18.3752 C   0  0  0  0  0  0  0  0  0  0  0  0
    4.8226    1.4906   18.9054 C   0  0  0  0  0  0  0  0  0  0  0  0
    5.3982    0.7733   19.9948 C   0  0  0  0  0  0  0  0  0  0  0  0
   10.7040   -0.0625   23.9898 C   0  0  0  0  0  0  0  0  0  0  0  0
   10.1406   -0.7765   22.9250 C   0  0  0  0  0  0  0  0  0  0  0  0
    6.4440   -0.1472   19.6979 C   0  0  0  0  0  0  0  0  0  0  0  0
   12.3683   -1.3298   22.2234 C   0  0  0  0  0  0  0  0  0  0  0  0
    9.9479    0.5589   24.9534 C   0  0  0  0  0  0  0  0  0  0  0  0
    8.2490    0.0169   21.4271 C   0  0  0  0  0  0  0  0  0  0  0  0
    8.4330    3.2597   23.7801 C   0  0  0  0  0  0  0  0  0  0  0  0
    7.9387    2.6608   26.2131 C   0  0  0  0  0  0  0  0  0  0  0  0
    6.7298    2.2855   25.4149 C   0  0  0  0  0  0  0  0  0  0  0  0
    8.0140   -2.1541   22.4331 C   0  0  0  0  0  0  0  0  0  0  0  0
    6.9866   -1.9366   21.3580 C   0  0  0  0  0  0  0  0  0  0  0  0
    7.8721   -0.1194   23.8831 C   0  0  0  0  0  0  0  0  0  0  0  0
    8.6238   -0.7606   22.6929 C   0  0  3  0  0  0  0  0  0  0  0  0
    8.1001    2.2206   24.7728 C   0  0  0  0  0  0  0  0  0  0  0  0
   10.1385    4.9678   23.1833 C   0  0  0  0  0  0  0  0  0  0  0  0
    6.3062    0.3769   17.3421 N   0  0  0  0  0  0  0  0  0  0  0  0
    7.2292   -0.6897   20.7790 N   0  0  0  0  0  0  0  0  0  0  0  0
    8.6609    1.0133   24.4995 N   0  0  0  0  0  0  0  0  0  0  0  0
    9.6227    3.9165   24.0305 N   0  0  0  0  0  0  0  0  0  0  0  0
   10.3189    0.7351   26.1117 O   0  0  0  0  0  0  0  0  0  0  0  0
    8.7583    1.0935   21.1353 O   0  0  0  0  0  0  0  0  0  0  0  0
    7.6723    3.4643   22.8414 O   0  0  0  0  0  0  0  0  0  0  0  0
   13.4277   -2.1397   21.1088 Cl  0  0  0  0  0  0  0  0  0  0  0  0
    2.5432    3.3510   20.6369 H   0  0  0  0  0  0  0  0  0  0  0  0
    3.5174    2.1137   22.5168 H   0  0  0  0  0  0  0  0  0  0  0  0
    3.3409    2.9743   18.3364 H   0  0  0  0  0  0  0  0  0  0  0  0
    5.3118    0.4895   22.1572 H   0  0  0  0  0  0  0  0  0  0  0  0
   12.5170    0.5914   24.9756 H   0  0  0  0  0  0  0  0  0  0  0  0
   13.9904   -0.5162   23.3783 H   0  0  0  0  0  0  0  0  0  0  0  0
   10.6131   -2.0184   21.2223 H   0  0  0  0  0  0  0  0  0  0  0  0
    4.9141    1.7511   16.7474 H   0  0  0  0  0  0  0  0  0  0  0  0
    7.6445   -0.9764   18.1043 H   0  0  0  0  0  0  0  0  0  0  0  0
    8.0776    3.7082   26.4542 H   0  0  0  0  0  0  0  0  0  0  0  0
    8.2534    1.9826   26.9978 H   0  0  0  0  0  0  0  0  0  0  0  0
    6.2323    1.3552   25.6629 H   0  0  0  0  0  0  0  0  0  0  0  0
    6.0552    3.0805   25.1192 H   0  0  0  0  0  0  0  0  0  0  0  0
    7.5778   -2.6152   23.3309 H   0  0  0  0  0  0  0  0  0  0  0  0
    8.7844   -2.8455   22.0573 H   0  0  0  0  0  0  0  0  0  0  0  0
    7.0224   -2.7504   20.5947 H   0  0  0  0  0  0  0  0  0  0  0  0
    5.9553   -1.9483   21.7835 H   0  0  0  0  0  0  0  0  0  0  0  0
    6.8937    0.2571   23.5799 H   0  0  0  0  0  0  0  0  0  0  0  0
    7.7158   -0.8401   24.6911 H   0  0  0  0  0  0  0  0  0  0  0  0
   10.7778    4.5299   22.4026 H   0  0  0  0  0  0  0  0  0  0  0  0
    9.3008    5.5039   22.7132 H   0  0  0  0  0  0  0  0  0  0  0  0
   10.7293    5.6703   23.7895 H   0  0  0  0  0  0  0  0  0  0  0  0
   10.1604    3.6476   24.8490 H   0  0  0  0  0  0  0  0  0  0  0  0
  1  2  1  0  0  0  0
  1  3  2  0  0  0  0
  2  4  2  0  0  0  0
  3 10  1  0  0  0  0
  4 11  1  0  0  0  0
  5  6  2  0  0  0  0
  5 12  1  0  0  0  0
  6 15  1  0  0  0  0
  7 13  1  0  0  0  0
  7 15  2  0  0  0  0
  8 10  2  0  0  0  0
  8 27  1  0  0  0  0
  9 14  1  0  0  0  0
  9 27  2  0  0  0  0
 10 11  1  0  0  0  0
 11 14  2  0  0  0  0
 12 13  2  0  0  0  0
 12 16  1  0  0  0  0
 13 24  1  0  0  0  0
 14 28  1  0  0  0  0
 15 34  1  0  0  0  0
 16 29  1  0  0  0  0
 16 31  2  0  0  0  0
 17 24  1  0  0  0  0
 17 28  1  0  0  0  0
 17 32  2  0  0  0  0
 18 25  1  0  0  0  0
 18 30  1  0  0  0  0
 18 33  2  0  0  0  0
 19 20  1  0  0  0  0
 19 25  1  0  0  0  0
 20 25  1  0  0  0  0
 21 22  1  0  0  0  0
 21 24  1  0  0  0  0
 22 28  1  0  0  0  0
 23 24  1  0  0  0  0
 23 29  1  0  0  0  0
 25 29  1  0  0  0  0
 26 30  1  0  0  0  0
  1 35  1  0  0  0  0
  2 36  1  0  0  0  0
  3 37  1  0  0  0  0
  4 38  1  0  0  0  0
  5 39  1  0  0  0  0
  6 40  1  0  0  0  0
  7 41  1  0  0  0  0
  8 42  1  0  0  0  0
  9 43  1  0  0  0  0
 19 44  1  0  0  0  0
 19 45  1  0  0  0  0
 20 46  1  0  0  0  0
 20 47  1  0  0  0  0
 21 48  1  0  0  0  0
 21 49  1  0  0  0  0
 22 50  1  0  0  0  0
 22 51  1  0  0  0  0
 23 52  1  0  0  0  0
 23 53  1  0  0  0  0
 26 54  1  0  0  0  0
 26 55  1  0  0  0  0
 26 56  1  0  0  0  0
 30 57  1  0  0  0  0
M  END
> <compound>
EDJ-MED-976a33d5-1

> <compound_smiles>
CNC(=O)C1(CC1)N2CC3(CCN(C3=O)c4cncc5c4cccc5)c6cc(ccc6C2=O)Cl

> <enantiomer_smiles>
CNC(=O)C1(CC1)N2CC3(CCN(C3=O)c4cncc5c4cccc5)c6cc(ccc6C2=O)Cl

> <scaffold>
tetrahydroisoquinoline-5spiro-isoquinoline

> <clash_score>
0

> <docking_score>
-9.648069381713867

> <overlap_score>
0.9886855483055115

> <MMFF_internal_energy>
153.38463306209044

> <docked_smiles>
CNC(=O)C1(CC1)N2C[C@]3(CCN(C3=O)c4cncc5c4cccc5)c6cc(ccc6C2=O)Cl

$$$$
EDJ-MED-cc48ee33-3_1
  -OEChem-12272114573D

 56 61  0     1  0  0  0  0  0999 V2000
    3.3432    2.6279   20.4411 C   0  0  0  0  0  0  0  0  0  0  0  0
    3.8960    1.9291   21.5050 C   0  0  0  0  0  0  0  0  0  0  0  0
    3.7865    2.4205   19.1660 C   0  0  0  0  0  0  0  0  0  0  0  0
    4.8973    1.0233   21.2988 C   0  0  0  0  0  0  0  0  0  0  0  0
   12.0765    0.0316   24.1541 C   0  0  0  0  0  0  0  0  0  0  0  0
   12.9132   -0.6032   23.2569 C   0  0  0  0  0  0  0  0  0  0  0  0
    5.8439    1.7857   25.3774 C   0  0  0  0  0  0  0  0  0  0  0  0
   10.9991   -1.4331   22.0443 C   0  0  0  0  0  0  0  0  0  0  0  0
    4.6542    2.5287   25.2579 C   0  0  0  0  0  0  0  0  0  0  0  0
    5.3278    1.2339   17.6066 C   0  0  0  0  0  0  0  0  0  0  0  0
    6.8438   -0.2892   18.3752 C   0  0  0  0  0  0  0  0  0  0  0  0
    4.8226    1.4906   18.9054 C   0  0  0  0  0  0  0  0  0  0  0  0
    5.3982    0.7733   19.9948 C   0  0  0  0  0  0  0  0  0  0  0  0
   10.7040   -0.0625   23.9898 C   0  0  0  0  0  0  0  0  0  0  0  0
   10.1406   -0.7765   22.9250 C   0  0  0  0  0  0  0  0  0  0  0  0
    6.4440   -0.1472   19.6979 C   0  0  0  0  0  0  0  0  0  0  0  0
   12.3683   -1.3298   22.2234 C   0  0  0  0  0  0  0  0  0  0  0  0
    6.8028    2.5764   24.7927 C   0  0  0  0  0  0  0  0  0  0  0  0
    8.2490    0.0169   21.4271 C   0  0  0  0  0  0  0  0  0  0  0  0
    8.2375    2.3090   24.6292 C   0  0  0  0  0  0  0  0  0  0  0  0
    9.9479    0.5589   24.9534 C   0  0  0  0  0  0  0  0  0  0  0  0
    8.0140   -2.1541   22.4331 C   0  0  0  0  0  0  0  0  0  0  0  0
    6.9866   -1.9366   21.3580 C   0  0  0  0  0  0  0  0  0  0  0  0
    7.8721   -0.1194   23.8831 C   0  0  0  0  0  0  0  0  0  0  0  0
    8.6238   -0.7606   22.6929 C   0  0  3  0  0  0  0  0  0  0  0  0
    6.7366    4.8377   23.6993 C   0  0  0  0  0  0  0  0  0  0  0  0
    6.3062    0.3769   17.3421 N   0  0  0  0  0  0  0  0  0  0  0  0
    4.8380    3.7015   24.6455 N   0  0  0  0  0  0  0  0  0  0  0  0
    6.1544    3.7013   24.3751 N   0  0  0  0  0  0  0  0  0  0  0  0
    7.2292   -0.6897   20.7790 N   0  0  0  0  0  0  0  0  0  0  0  0
    8.6609    1.0133   24.4995 N   0  0  0  0  0  0  0  0  0  0  0  0
    8.8277    1.0425   21.0805 O   0  0  0  0  0  0  0  0  0  0  0  0
    8.9768    3.2919   24.6275 O   0  0  0  0  0  0  0  0  0  0  0  0
   13.4283   -2.1471   21.1145 Cl  0  0  0  0  0  0  0  0  0  0  0  0
    2.5432    3.3510   20.6369 H   0  0  0  0  0  0  0  0  0  0  0  0
    3.5174    2.1137   22.5168 H   0  0  0  0  0  0  0  0  0  0  0  0
    3.3409    2.9743   18.3364 H   0  0  0  0  0  0  0  0  0  0  0  0
    5.3118    0.4895   22.1572 H   0  0  0  0  0  0  0  0  0  0  0  0
   12.5034    0.5864   24.9813 H   0  0  0  0  0  0  0  0  0  0  0  0
   13.9913   -0.5293   23.3874 H   0  0  0  0  0  0  0  0  0  0  0  0
    5.9810    0.8128   25.8269 H   0  0  0  0  0  0  0  0  0  0  0  0
   10.6139   -2.0336   21.2353 H   0  0  0  0  0  0  0  0  0  0  0  0
    3.6610    2.2650   25.5918 H   0  0  0  0  0  0  0  0  0  0  0  0
    4.9141    1.7511   16.7474 H   0  0  0  0  0  0  0  0  0  0  0  0
    7.6445   -0.9764   18.1043 H   0  0  0  0  0  0  0  0  0  0  0  0
    9.7841   -0.0930   25.8515 H   0  0  0  0  0  0  0  0  0  0  0  0
   10.4579    1.4725   25.3586 H   0  0  0  0  0  0  0  0  0  0  0  0
    7.5120   -2.5701   23.3194 H   0  0  0  0  0  0  0  0  0  0  0  0
    8.7722   -2.8982   22.1400 H   0  0  0  0  0  0  0  0  0  0  0  0
    7.0511   -2.7253   20.5708 H   0  0  0  0  0  0  0  0  0  0  0  0
    5.9515   -1.9941   21.7738 H   0  0  0  0  0  0  0  0  0  0  0  0
    6.9258    0.3344   23.5581 H   0  0  0  0  0  0  0  0  0  0  0  0
    7.6176   -0.8486   24.6565 H   0  0  0  0  0  0  0  0  0  0  0  0
    6.6839    4.6534   22.6231 H   0  0  0  0  0  0  0  0  0  0  0  0
    6.1788    5.7414   23.9602 H   0  0  0  0  0  0  0  0  0  0  0  0
    7.7762    4.9540   24.0180 H   0  0  0  0  0  0  0  0  0  0  0  0
  1  2  1  0  0  0  0
  1  3  2  0  0  0  0
  2  4  2  0  0  0  0
  3 12  1  0  0  0  0
  4 13  1  0  0  0  0
  5  6  2  0  0  0  0
  5 14  1  0  0  0  0
  6 17  1  0  0  0  0
  7  9  1  0  0  0  0
  7 18  2  0  0  0  0
  8 15  1  0  0  0  0
  8 17  2  0  0  0  0
  9 28  2  0  0  0  0
 10 12  2  0  0  0  0
 10 27  1  0  0  0  0
 11 16  1  0  0  0  0
 11 27  2  0  0  0  0
 12 13  1  0  0  0  0
 13 16  2  0  0  0  0
 14 15  2  0  0  0  0
 14 21  1  0  0  0  0
 15 25  1  0  0  0  0
 16 30  1  0  0  0  0
 17 34  1  0  0  0  0
 18 20  1  0  0  0  0
 18 29  1  0  0  0  0
 19 25  1  0  0  0  0
 19 30  1  0  0  0  0
 19 32  2  0  0  0  0
 20 31  1  0  0  0  0
 20 33  2  0  0  0  0
 21 31  1  0  0  0  0
 22 23  1  0  0  0  0
 22 25  1  0  0  0  0
 23 30  1  0  0  0  0
 24 25  1  0  0  0  0
 24 31  1  0  0  0  0
 26 29  1  0  0  0  0
 28 29  1  0  0  0  0
  1 35  1  0  0  0  0
  2 36  1  0  0  0  0
  3 37  1  0  0  0  0
  4 38  1  0  0  0  0
  5 39  1  0  0  0  0
  6 40  1  0  0  0  0
  7 41  1  0  0  0  0
  8 42  1  0  0  0  0
  9 43  1  0  0  0  0
 10 44  1  0  0  0  0
 11 45  1  0  0  0  0
 21 46  1  0  0  0  0
 21 47  1  0  0  0  0
 22 48  1  0  0  0  0
 22 49  1  0  0  0  0
 23 50  1  0  0  0  0
 23 51  1  0  0  0  0
 24 52  1  0  0  0  0
 24 53  1  0  0  0  0
 26 54  1  0  0  0  0
 26 55  1  0  0  0  0
 26 56  1  0  0  0  0
M  END
> <compound>
EDJ-MED-cc48ee33-3

> <compound_smiles>
Cn1c(ccn1)C(=O)N2Cc3ccc(cc3C4(C2)CCN(C4=O)c5cncc6c5cccc6)Cl

> <enantiomer_smiles>
Cn1c(ccn1)C(=O)N2Cc3ccc(cc3C4(C2)CCN(C4=O)c5cncc6c5cccc6)Cl

> <scaffold>
tetrahydroisoquinoline-5spiro-isoquinoline

> <clash_score>
0

> <docking_score>
-8.174171447753906

> <overlap_score>
0.97395259141922

> <MMFF_internal_energy>
124.89791367178093

> <docked_smiles>
Cn1c(ccn1)C(=O)N2Cc3ccc(cc3[C@]4(C2)CCN(C4=O)c5cncc6c5cccc6)Cl

$$$$
EDJ-MED-fd8ed875-4_1
  -OEChem-12272114573D

 55 60  0     1  0  0  0  0  0999 V2000
    3.3432    2.6279   20.4411 C   0  0  0  0  0  0  0  0  0  0  0  0
    3.8960    1.9291   21.5050 C   0  0  0  0  0  0  0  0  0  0  0  0
    3.7865    2.4205   19.1660 C   0  0  0  0  0  0  0  0  0  0  0  0
    4.8973    1.0233   21.2988 C   0  0  0  0  0  0  0  0  0  0  0  0
   12.0765    0.0316   24.1541 C   0  0  0  0  0  0  0  0  0  0  0  0
   12.9132   -0.6032   23.2569 C   0  0  0  0  0  0  0  0  0  0  0  0
   10.9991   -1.4331   22.0443 C   0  0  0  0  0  0  0  0  0  0  0  0
    5.3278    1.2339   17.6066 C   0  0  0  0  0  0  0  0  0  0  0  0
    6.8438   -0.2892   18.3752 C   0  0  0  0  0  0  0  0  0  0  0  0
    4.8226    1.4906   18.9054 C   0  0  0  0  0  0  0  0  0  0  0  0
    5.3982    0.7733   19.9948 C   0  0  0  0  0  0  0  0  0  0  0  0
   10.7040   -0.0625   23.9898 C   0  0  0  0  0  0  0  0  0  0  0  0
   10.1406   -0.7765   22.9250 C   0  0  0  0  0  0  0  0  0  0  0  0
    6.4440   -0.1472   19.6979 C   0  0  0  0  0  0  0  0  0  0  0  0
   12.3683   -1.3298   22.2234 C   0  0  0  0  0  0  0  0  0  0  0  0
    8.0140   -2.1541   22.4331 C   0  0  0  0  0  0  0  0  0  0  0  0
    6.9866   -1.9366   21.3580 C   0  0  0  0  0  0  0  0  0  0  0  0
    9.9479    0.5589   24.9534 C   0  0  0  0  0  0  0  0  0  0  0  0
    8.2490    0.0169   21.4271 C   0  0  0  0  0  0  0  0  0  0  0  0
    8.4290    3.2767   23.8249 C   0  0  0  0  0  0  0  0  0  0  0  0
    7.9454    2.6157   26.2439 C   0  0  0  0  0  0  0  0  0  0  0  0
    6.7324    2.2623   25.4420 C   0  0  0  0  0  0  0  0  0  0  0  0
    7.8721   -0.1194   23.8831 C   0  0  0  0  0  0  0  0  0  0  0  0
    8.6238   -0.7606   22.6929 C   0  0  3  0  0  0  0  0  0  0  0  0
    8.0997    2.2126   24.7921 C   0  0  0  0  0  0  0  0  0  0  0  0
   10.1335    4.9980   23.2643 C   0  0  0  0  0  0  0  0  0  0  0  0
    6.3062    0.3769   17.3421 N   0  0  0  0  0  0  0  0  0  0  0  0
    7.2292   -0.6897   20.7790 N   0  0  0  0  0  0  0  0  0  0  0  0
    8.6609    1.0133   24.4995 N   0  0  0  0  0  0  0  0  0  0  0  0
    9.6205    3.9257   24.0865 N   0  0  0  0  0  0  0  0  0  0  0  0
   10.3207    0.7433   26.1067 O   0  0  0  0  0  0  0  0  0  0  0  0
    8.8060    1.0647   21.1051 O   0  0  0  0  0  0  0  0  0  0  0  0
    7.6642    3.5060   22.8953 O   0  0  0  0  0  0  0  0  0  0  0  0
   13.4270   -2.1482   21.1140 Cl  0  0  0  0  0  0  0  0  0  0  0  0
    2.5432    3.3510   20.6369 H   0  0  0  0  0  0  0  0  0  0  0  0
    3.5174    2.1137   22.5168 H   0  0  0  0  0  0  0  0  0  0  0  0
    3.3409    2.9743   18.3364 H   0  0  0  0  0  0  0  0  0  0  0  0
    5.3118    0.4895   22.1572 H   0  0  0  0  0  0  0  0  0  0  0  0
   12.5170    0.5913   24.9751 H   0  0  0  0  0  0  0  0  0  0  0  0
   13.9903   -0.5263   23.3859 H   0  0  0  0  0  0  0  0  0  0  0  0
   10.6080   -2.0242   21.2276 H   0  0  0  0  0  0  0  0  0  0  0  0
    4.9141    1.7511   16.7474 H   0  0  0  0  0  0  0  0  0  0  0  0
    7.6445   -0.9764   18.1043 H   0  0  0  0  0  0  0  0  0  0  0  0
    8.2020   -3.0436   22.8463 H   0  0  0  0  0  0  0  0  0  0  0  0
    6.2501   -2.5898   21.1104 H   0  0  0  0  0  0  0  0  0  0  0  0
    8.0865    3.6565   26.5112 H   0  0  0  0  0  0  0  0  0  0  0  0
    8.2630    1.9173   27.0094 H   0  0  0  0  0  0  0  0  0  0  0  0
    6.2351    1.3263   25.6683 H   0  0  0  0  0  0  0  0  0  0  0  0
    6.0573    3.0652   25.1700 H   0  0  0  0  0  0  0  0  0  0  0  0
    6.9305    0.3276   23.5580 H   0  0  0  0  0  0  0  0  0  0  0  0
    7.6485   -0.8516   24.6584 H   0  0  0  0  0  0  0  0  0  0  0  0
   10.7687    4.5797   22.4696 H   0  0  0  0  0  0  0  0  0  0  0  0
    9.2942    5.5467   22.8120 H   0  0  0  0  0  0  0  0  0  0  0  0
   10.7279    5.6841   23.8856 H   0  0  0  0  0  0  0  0  0  0  0  0
   10.1617    3.6354   24.8953 H   0  0  0  0  0  0  0  0  0  0  0  0
  1  2  1  0  0  0  0
  1  3  2  0  0  0  0
  2  4  2  0  0  0  0
  3 10  1  0  0  0  0
  4 11  1  0  0  0  0
  5  6  2  0  0  0  0
  5 12  1  0  0  0  0
  6 15  1  0  0  0  0
  7 13  1  0  0  0  0
  7 15  2  0  0  0  0
  8 10  2  0  0  0  0
  8 27  1  0  0  0  0
  9 14  1  0  0  0  0
  9 27  2  0  0  0  0
 10 11  1  0  0  0  0
 11 14  2  0  0  0  0
 12 13  2  0  0  0  0
 12 18  1  0  0  0  0
 13 24  1  0  0  0  0
 14 28  1  0  0  0  0
 15 34  1  0  0  0  0
 16 17  2  0  0  0  0
 16 24  1  0  0  0  0
 17 28  1  0  0  0  0
 18 29  1  0  0  0  0
 18 31  2  0  0  0  0
 19 24  1  0  0  0  0
 19 28  1  0  0  0  0
 19 32  2  0  0  0  0
 20 25  1  0  0  0  0
 20 30  1  0  0  0  0
 20 33  2  0  0  0  0
 21 22  1  0  0  0  0
 21 25  1  0  0  0  0
 22 25  1  0  0  0  0
 23 24  1  0  0  0  0
 23 29  1  0  0  0  0
 25 29  1  0  0  0  0
 26 30  1  0  0  0  0
  1 35  1  0  0  0  0
  2 36  1  0  0  0  0
  3 37  1  0  0  0  0
  4 38  1  0  0  0  0
  5 39  1  0  0  0  0
  6 40  1  0  0  0  0
  7 41  1  0  0  0  0
  8 42  1  0  0  0  0
  9 43  1  0  0  0  0
 16 44  1  0  0  0  0
 17 45  1  0  0  0  0
 21 46  1  0  0  0  0
 21 47  1  0  0  0  0
 22 48  1  0  0  0  0
 22 49  1  0  0  0  0
 23 50  1  0  0  0  0
 23 51  1  0  0  0  0
 26 52  1  0  0  0  0
 26 53  1  0  0  0  0
 26 54  1  0  0  0  0
 30 55  1  0  0  0  0
M  END
> <compound>
EDJ-MED-fd8ed875-4

> <compound_smiles>
CNC(=O)C1(CC1)N2CC3(C=CN(C3=O)c4cncc5c4cccc5)c6cc(ccc6C2=O)Cl

> <enantiomer_smiles>
CNC(=O)C1(CC1)N2CC3(C=CN(C3=O)c4cncc5c4cccc5)c6cc(ccc6C2=O)Cl

> <scaffold>
tetrahydroisoquinoline-5spiro-isoquinoline

> <clash_score>
0

> <docking_score>
-9.676739692687988

> <overlap_score>
0.9886776208877563

> <MMFF_internal_energy>
205.93903744997772

> <docked_smiles>
CNC(=O)C1(CC1)N2C[C@]3(C=CN(C3=O)c4cncc5c4cccc5)c6cc(ccc6C2=O)Cl

$$$$
EDJ-MED-fed7ac0b-2_1
  -OEChem-12272114573D

 56 61  0     1  0  0  0  0  0999 V2000
    3.3432    2.6279   20.4411 C   0  0  0  0  0  0  0  0  0  0  0  0
    3.8960    1.9291   21.5050 C   0  0  0  0  0  0  0  0  0  0  0  0
    3.7865    2.4205   19.1660 C   0  0  0  0  0  0  0  0  0  0  0  0
    4.8973    1.0233   21.2988 C   0  0  0  0  0  0  0  0  0  0  0  0
   12.0765    0.0316   24.1541 C   0  0  0  0  0  0  0  0  0  0  0  0
   12.9132   -0.6032   23.2569 C   0  0  0  0  0  0  0  0  0  0  0  0
   10.9991   -1.4331   22.0443 C   0  0  0  0  0  0  0  0  0  0  0  0
    5.3278    1.2339   17.6066 C   0  0  0  0  0  0  0  0  0  0  0  0
    6.8438   -0.2892   18.3752 C   0  0  0  0  0  0  0  0  0  0  0  0
    4.8226    1.4906   18.9054 C   0  0  0  0  0  0  0  0  0  0  0  0
    5.3982    0.7733   19.9948 C   0  0  0  0  0  0  0  0  0  0  0  0
   10.7040   -0.0625   23.9898 C   0  0  0  0  0  0  0  0  0  0  0  0
   10.1406   -0.7765   22.9250 C   0  0  0  0  0  0  0  0  0  0  0  0
    6.4440   -0.1472   19.6979 C   0  0  0  0  0  0  0  0  0  0  0  0
   12.3683   -1.3298   22.2234 C   0  0  0  0  0  0  0  0  0  0  0  0
    9.9479    0.5589   24.9534 C   0  0  0  0  0  0  0  0  0  0  0  0
    8.2490    0.0169   21.4271 C   0  0  0  0  0  0  0  0  0  0  0  0
    8.4131    3.2832   23.8263 C   0  0  0  0  0  0  0  0  0  0  0  0
    7.9038    2.6125   26.2374 C   0  0  0  0  0  0  0  0  0  0  0  0
    6.7136    2.2295   25.4150 C   0  0  0  0  0  0  0  0  0  0  0  0
    8.0140   -2.1541   22.4331 C   0  0  0  0  0  0  0  0  0  0  0  0
    7.8721   -0.1194   23.8831 C   0  0  0  0  0  0  0  0  0  0  0  0
    8.6238   -0.7606   22.6929 C   0  0  3  0  0  0  0  0  0  0  0  0
    8.0928    2.2122   24.7888 C   0  0  0  0  0  0  0  0  0  0  0  0
   10.0853    5.0446   23.2934 C   0  0  0  0  0  0  0  0  0  0  0  0
    6.3062    0.3769   17.3421 N   0  0  0  0  0  0  0  0  0  0  0  0
    6.9866   -1.9366   21.3580 N   0  0  0  0  0  0  0  0  0  0  0  0
    7.2292   -0.6897   20.7790 N   0  0  0  0  0  0  0  0  0  0  0  0
    8.6609    1.0133   24.4995 N   0  0  0  0  0  0  0  0  0  0  0  0
    9.5841    3.9609   24.1078 N   0  0  0  0  0  0  0  0  0  0  0  0
   10.3219    0.7420   26.1079 O   0  0  0  0  0  0  0  0  0  0  0  0
    8.8171    1.0493   21.0820 O   0  0  0  0  0  0  0  0  0  0  0  0
    7.6592    3.4936   22.8834 O   0  0  0  0  0  0  0  0  0  0  0  0
   13.4272   -2.1358   21.1051 Cl  0  0  0  0  0  0  0  0  0  0  0  0
    2.5432    3.3510   20.6369 H   0  0  0  0  0  0  0  0  0  0  0  0
    3.5174    2.1137   22.5168 H   0  0  0  0  0  0  0  0  0  0  0  0
    3.3409    2.9743   18.3364 H   0  0  0  0  0  0  0  0  0  0  0  0
    5.3118    0.4895   22.1572 H   0  0  0  0  0  0  0  0  0  0  0  0
   12.5173    0.5968   24.9712 H   0  0  0  0  0  0  0  0  0  0  0  0
   13.9905   -0.5109   23.3742 H   0  0  0  0  0  0  0  0  0  0  0  0
   10.6060   -2.0140   21.2216 H   0  0  0  0  0  0  0  0  0  0  0  0
    4.9141    1.7511   16.7474 H   0  0  0  0  0  0  0  0  0  0  0  0
    7.6445   -0.9764   18.1043 H   0  0  0  0  0  0  0  0  0  0  0  0
    8.0152    3.6565   26.5060 H   0  0  0  0  0  0  0  0  0  0  0  0
    8.2248    1.9224   27.0090 H   0  0  0  0  0  0  0  0  0  0  0  0
    6.2351    1.2820   25.6337 H   0  0  0  0  0  0  0  0  0  0  0  0
    6.0243    3.0158   25.1305 H   0  0  0  0  0  0  0  0  0  0  0  0
    8.7453   -2.8993   22.1142 H   0  0  0  0  0  0  0  0  0  0  0  0
    7.4951   -2.5510   23.3112 H   0  0  0  0  0  0  0  0  0  0  0  0
    6.8918    0.2584   23.5951 H   0  0  0  0  0  0  0  0  0  0  0  0
    7.7281   -0.8416   24.6905 H   0  0  0  0  0  0  0  0  0  0  0  0
   10.7440    4.6411   22.5102 H   0  0  0  0  0  0  0  0  0  0  0  0
    9.2411    5.5727   22.8261 H   0  0  0  0  0  0  0  0  0  0  0  0
   10.6522    5.7452   23.9241 H   0  0  0  0  0  0  0  0  0  0  0  0
    7.1399   -2.6377   20.6250 H   0  0  0  0  0  0  0  0  0  0  0  0
   10.1180    3.6841   24.9261 H   0  0  0  0  0  0  0  0  0  0  0  0
  1  2  1  0  0  0  0
  1  3  2  0  0  0  0
  2  4  2  0  0  0  0
  3 10  1  0  0  0  0
  4 11  1  0  0  0  0
  5  6  2  0  0  0  0
  5 12  1  0  0  0  0
  6 15  1  0  0  0  0
  7 13  1  0  0  0  0
  7 15  2  0  0  0  0
  8 10  2  0  0  0  0
  8 26  1  0  0  0  0
  9 14  1  0  0  0  0
  9 26  2  0  0  0  0
 10 11  1  0  0  0  0
 11 14  2  0  0  0  0
 12 13  2  0  0  0  0
 12 16  1  0  0  0  0
 13 23  1  0  0  0  0
 14 28  1  0  0  0  0
 15 34  1  0  0  0  0
 16 29  1  0  0  0  0
 16 31  2  0  0  0  0
 17 23  1  0  0  0  0
 17 28  1  0  0  0  0
 17 32  2  0  0  0  0
 18 24  1  0  0  0  0
 18 30  1  0  0  0  0
 18 33  2  0  0  0  0
 19 20  1  0  0  0  0
 19 24  1  0  0  0  0
 20 24  1  0  0  0  0
 21 23  1  0  0  0  0
 21 27  1  0  0  0  0
 22 23  1  0  0  0  0
 22 29  1  0  0  0  0
 24 29  1  0  0  0  0
 25 30  1  0  0  0  0
 27 28  1  0  0  0  0
  1 35  1  0  0  0  0
  2 36  1  0  0  0  0
  3 37  1  0  0  0  0
  4 38  1  0  0  0  0
  5 39  1  0  0  0  0
  6 40  1  0  0  0  0
  7 41  1  0  0  0  0
  8 42  1  0  0  0  0
  9 43  1  0  0  0  0
 19 44  1  0  0  0  0
 19 45  1  0  0  0  0
 20 46  1  0  0  0  0
 20 47  1  0  0  0  0
 21 48  1  0  0  0  0
 21 49  1  0  0  0  0
 22 50  1  0  0  0  0
 22 51  1  0  0  0  0
 25 52  1  0  0  0  0
 25 53  1  0  0  0  0
 25 54  1  0  0  0  0
 27 55  1  0  0  0  0
 30 56  1  0  0  0  0
M  END
> <compound>
EDJ-MED-fed7ac0b-2

> <compound_smiles>
CNC(=O)C1(CC1)N2CC3(CNN(C3=O)c4cncc5c4cccc5)c6cc(ccc6C2=O)Cl

> <enantiomer_smiles>
CNC(=O)C1(CC1)N2CC3(CNN(C3=O)c4cncc5c4cccc5)c6cc(ccc6C2=O)Cl

> <scaffold>
tetrahydroisoquinoline-5spiro-isoquinoline

> <clash_score>
0

> <docking_score>
-9.763020515441895

> <overlap_score>
0.9886534214019775

> <MMFF_internal_energy>
189.04075000007128

> <docked_smiles>
CNC(=O)C1(CC1)N2C[C@]3(CNN(C3=O)c4cncc5c4cccc5)c6cc(ccc6C2=O)Cl

$$$$
MAT-POS-50a80394-6_4
  -OEChem-12272114573D

 64 68  0     1  0  0  0  0  0999 V2000
    3.3432    2.6279   20.4411 C   0  0  0  0  0  0  0  0  0  0  0  0
    3.8960    1.9291   21.5050 C   0  0  0  0  0  0  0  0  0  0  0  0
    3.7865    2.4205   19.1660 C   0  0  0  0  0  0  0  0  0  0  0  0
    4.8973    1.0233   21.2988 C   0  0  0  0  0  0  0  0  0  0  0  0
   12.0765    0.0316   24.1541 C   0  0  0  0  0  0  0  0  0  0  0  0
   12.9132   -0.6032   23.2569 C   0  0  0  0  0  0  0  0  0  0  0  0
   10.9991   -1.4331   22.0443 C   0  0  0  0  0  0  0  0  0  0  0  0
    5.3278    1.2339   17.6066 C   0  0  0  0  0  0  0  0  0  0  0  0
    6.8438   -0.2892   18.3752 C   0  0  0  0  0  0  0  0  0  0  0  0
    4.8226    1.4906   18.9054 C   0  0  0  0  0  0  0  0  0  0  0  0
    5.3982    0.7733   19.9948 C   0  0  0  0  0  0  0  0  0  0  0  0
   10.7040   -0.0625   23.9898 C   0  0  0  0  0  0  0  0  0  0  0  0
   10.1406   -0.7765   22.9250 C   0  0  0  0  0  0  0  0  0  0  0  0
    6.4440   -0.1472   19.6979 C   0  0  0  0  0  0  0  0  0  0  0  0
   12.3683   -1.3298   22.2234 C   0  0  0  0  0  0  0  0  0  0  0  0
    8.2490    0.0169   21.4271 C   0  0  0  0  0  0  0  0  0  0  0  0
    6.7896    2.5939   24.9849 C   0  0  0  0  0  0  0  0  0  0  0  0
    9.9479    0.5589   24.9534 C   0  0  0  0  0  0  0  0  0  0  0  0
    6.9866   -1.9366   21.3580 C   0  0  0  0  0  0  0  0  0  0  0  0
    7.8721   -0.1194   23.8831 C   0  0  0  0  0  0  0  0  0  0  0  0
    8.0140   -2.1541   22.4331 C   0  0  1  0  0  0  0  0  0  0  0  0
    8.6238   -0.7606   22.6929 C   0  0  3  0  0  0  0  0  0  0  0  0
    6.8631   -4.2477   23.2622 C   0  0  0  0  0  0  0  0  0  0  0  0
    8.5034   -3.0447   24.7339 C   0  0  0  0  0  0  0  0  0  0  0  0
    6.5129    4.5813   23.5318 C   0  0  0  0  0  0  0  0  0  0  0  0
    7.8603    1.7137   25.5791 C   0  0  0  0  0  0  0  0  0  0  0  0
    7.4343   -2.8852   23.6536 C   0  0  0  0  0  0  0  0  0  0  0  0
    6.3062    0.3769   17.3421 N   0  0  0  0  0  0  0  0  0  0  0  0
    7.2292   -0.6897   20.7790 N   0  0  0  0  0  0  0  0  0  0  0  0
    7.3342    3.6070   24.2100 N   0  0  0  0  0  0  0  0  0  0  0  0
    8.6609    1.0133   24.4995 N   0  3  2  0  0  0  0  0  0  0  0  0
    8.7541    1.0950   21.1300 O   0  0  0  0  0  0  0  0  0  0  0  0
    5.5893    2.4172   25.1752 O   0  0  0  0  0  0  0  0  0  0  0  0
   13.4290   -2.1352   21.1063 Cl  0  0  0  0  0  0  0  0  0  0  0  0
    2.5432    3.3510   20.6369 H   0  0  0  0  0  0  0  0  0  0  0  0
    3.5174    2.1137   22.5168 H   0  0  0  0  0  0  0  0  0  0  0  0
    3.3409    2.9743   18.3364 H   0  0  0  0  0  0  0  0  0  0  0  0
    5.3118    0.4895   22.1572 H   0  0  0  0  0  0  0  0  0  0  0  0
   12.5037    0.6050   24.9685 H   0  0  0  0  0  0  0  0  0  0  0  0
   13.9917   -0.5076   23.3724 H   0  0  0  0  0  0  0  0  0  0  0  0
   10.6200   -2.0055   21.2143 H   0  0  0  0  0  0  0  0  0  0  0  0
    4.9141    1.7511   16.7474 H   0  0  0  0  0  0  0  0  0  0  0  0
    7.6445   -0.9764   18.1043 H   0  0  0  0  0  0  0  0  0  0  0  0
    9.7639   -0.1157   25.8326 H   0  0  0  0  0  0  0  0  0  0  0  0
   10.4569    1.4697   25.3678 H   0  0  0  0  0  0  0  0  0  0  0  0
    7.0295   -2.7476   20.5870 H   0  0  0  0  0  0  0  0  0  0  0  0
    5.9426   -1.9527   21.7621 H   0  0  0  0  0  0  0  0  0  0  0  0
    6.9005    0.3073   23.5788 H   0  0  0  0  0  0  0  0  0  0  0  0
    7.6858   -0.8331   24.7040 H   0  0  0  0  0  0  0  0  0  0  0  0
    8.7685   -2.8434   22.0120 H   0  0  0  0  0  0  0  0  0  0  0  0
    7.6384   -4.8981   22.8429 H   0  0  0  0  0  0  0  0  0  0  0  0
    6.0731   -4.1357   22.5122 H   0  0  0  0  0  0  0  0  0  0  0  0
    6.4301   -4.7540   24.1314 H   0  0  0  0  0  0  0  0  0  0  0  0
    9.3453   -3.6462   24.3745 H   0  0  0  0  0  0  0  0  0  0  0  0
    8.0913   -3.5353   25.6221 H   0  0  0  0  0  0  0  0  0  0  0  0
    8.8922   -2.0681   25.0414 H   0  0  0  0  0  0  0  0  0  0  0  0
    6.2852    4.2262   22.5159 H   0  0  0  0  0  0  0  0  0  0  0  0
    5.5753    4.7221   24.0896 H   0  0  0  0  0  0  0  0  0  0  0  0
    7.0521    5.5382   23.4734 H   0  0  0  0  0  0  0  0  0  0  0  0
    7.4118    0.9221   26.1858 H   0  0  0  0  0  0  0  0  0  0  0  0
    8.5520    2.3095   26.1811 H   0  0  0  0  0  0  0  0  0  0  0  0
    6.6184   -2.2772   24.0659 H   0  0  0  0  0  0  0  0  0  0  0  0
    8.3436    3.6893   24.1287 H   0  0  0  0  0  0  0  0  0  0  0  0
    8.7897    1.7273   23.7542 H   0  0  0  0  0  0  0  0  0  0  0  0
  1  2  1  0  0  0  0
  1  3  2  0  0  0  0
  2  4  2  0  0  0  0
  3 10  1  0  0  0  0
  4 11  1  0  0  0  0
  5  6  1  0  0  0  0
  5 12  2  0  0  0  0
  6 15  2  0  0  0  0
  7 13  2  0  0  0  0
  7 15  1  0  0  0  0
  8 10  2  0  0  0  0
  8 28  1  0  0  0  0
  9 14  1  0  0  0  0
  9 28  2  0  0  0  0
 10 11  1  0  0  0  0
 11 14  2  0  0  0  0
 12 13  1  0  0  0  0
 12 18  1  0  0  0  0
 13 22  1  0  0  0  0
 14 29  1  0  0  0  0
 15 34  1  0  0  0  0
 16 22  1  0  0  0  0
 16 29  1  0  0  0  0
 16 32  2  0  0  0  0
 17 26  1  0  0  0  0
 17 30  1  0  0  0  0
 17 33  2  0  0  0  0
 18 31  1  0  0  0  0
 19 21  1  0  0  0  0
 19 29  1  0  0  0  0
 20 22  1  0  0  0  0
 20 31  1  0  0  0  0
 21 22  1  0  0  0  0
 21 27  1  6  0  0  0
 23 27  1  0  0  0  0
 24 27  1  0  0  0  0
 25 30  1  0  0  0  0
 26 31  1  6  0  0  0
  1 35  1  0  0  0  0
  2 36  1  0  0  0  0
  3 37  1  0  0  0  0
  4 38  1  0  0  0  0
  5 39  1  0  0  0  0
  6 40  1  0  0  0  0
  7 41  1  0  0  0  0
  8 42  1  0  0  0  0
  9 43  1  0  0  0  0
 18 44  1  0  0  0  0
 18 45  1  0  0  0  0
 19 46  1  0  0  0  0
 19 47  1  0  0  0  0
 20 48  1  0  0  0  0
 20 49  1  0  0  0  0
 21 50  1  0  0  0  0
 23 51  1  0  0  0  0
 23 52  1  0  0  0  0
 23 53  1  0  0  0  0
 24 54  1  0  0  0  0
 24 55  1  0  0  0  0
 24 56  1  0  0  0  0
 25 57  1  0  0  0  0
 25 58  1  0  0  0  0
 25 59  1  0  0  0  0
 26 60  1  0  0  0  0
 26 61  1  0  0  0  0
 27 62  1  0  0  0  0
 30 63  1  0  0  0  0
 31 64  1  0  0  0  0
M  CHG  1  31   1
M  END
> <compound>
MAT-POS-50a80394-6

> <compound_smiles>
CC(C)C1CN(C(=O)C12CN(Cc3c2cc(cc3)Cl)CC(=O)NC)c4cncc5c4cccc5

> <enantiomer_smiles>
CC(C)[C@H]1CN(C(=O)C12C[N@](Cc3c2cc(cc3)Cl)CC(=O)NC)c4cncc5c4cccc5

> <scaffold>
tetrahydroisoquinoline-5spiro-isoquinoline

> <clash_score>
0

> <docking_score>
-9.88382625579834

> <overlap_score>
0.985731303691864

> <MMFF_internal_energy>
177.4004931085818

> <docked_smiles>
CC(C)[C@H]1CN(C(=O)[C@@]12C[N@H+](Cc3c2cc(cc3)Cl)CC(=O)NC)c4cncc5c4cccc5

$$$$
ALP-POS-ecbed2ba-19_2
  -OEChem-12272114573D

 59 63  0     1  0  0  0  0  0999 V2000
    3.3432    2.6279   20.4411 C   0  0  0  0  0  0  0  0  0  0  0  0
    3.8960    1.9291   21.5050 C   0  0  0  0  0  0  0  0  0  0  0  0
    3.7865    2.4205   19.1660 C   0  0  0  0  0  0  0  0  0  0  0  0
    4.8973    1.0233   21.2988 C   0  0  0  0  0  0  0  0  0  0  0  0
   12.0765    0.0316   24.1541 C   0  0  0  0  0  0  0  0  0  0  0  0
   12.9132   -0.6032   23.2569 C   0  0  0  0  0  0  0  0  0  0  0  0
   10.9991   -1.4331   22.0443 C   0  0  0  0  0  0  0  0  0  0  0  0
    5.3278    1.2339   17.6066 C   0  0  0  0  0  0  0  0  0  0  0  0
    6.8438   -0.2892   18.3752 C   0  0  0  0  0  0  0  0  0  0  0  0
    4.8226    1.4906   18.9054 C   0  0  0  0  0  0  0  0  0  0  0  0
    5.3982    0.7733   19.9948 C   0  0  0  0  0  0  0  0  0  0  0  0
   10.7040   -0.0625   23.9898 C   0  0  0  0  0  0  0  0  0  0  0  0
   10.1406   -0.7765   22.9250 C   0  0  0  0  0  0  0  0  0  0  0  0
    6.4440   -0.1472   19.6979 C   0  0  0  0  0  0  0  0  0  0  0  0
   12.3683   -1.3298   22.2234 C   0  0  0  0  0  0  0  0  0  0  0  0
    8.2490    0.0169   21.4271 C   0  0  0  0  0  0  0  0  0  0  0  0
    9.9479    0.5589   24.9534 C   0  0  0  0  0  0  0  0  0  0  0  0
    8.0140   -2.1541   22.4331 C   0  0  0  0  0  0  0  0  0  0  0  0
    6.9866   -1.9366   21.3580 C   0  0  0  0  0  0  0  0  0  0  0  0
    7.8721   -0.1194   23.8831 C   0  0  0  0  0  0  0  0  0  0  0  0
    8.6238   -0.7606   22.6929 C   0  0  3  0  0  0  0  0  0  0  0  0
    7.1822    3.5140   25.7191 C   0  0  0  0  0  0  0  0  0  0  0  0
    8.7087    5.0606   24.5583 C   0  0  0  0  0  0  0  0  0  0  0  0
    7.7884    5.5367   23.4492 C   0  0  0  0  0  0  0  0  0  0  0  0
    6.3062    0.3769   17.3421 N   0  0  0  0  0  0  0  0  0  0  0  0
    7.2292   -0.6897   20.7790 N   0  0  0  0  0  0  0  0  0  0  0  0
    8.6609    1.0133   24.4995 N   0  0  2  0  0  0  0  0  0  0  0  0
    8.4044    3.6433   24.8844 N   0  0  2  0  0  0  0  0  0  0  0  0
    8.7572    1.0941   21.1350 O   0  0  0  0  0  0  0  0  0  0  0  0
    7.4336    2.4722   22.7864 O   0  0  0  0  0  0  0  0  0  0  0  0
    9.9276    2.6762   23.0243 O   0  0  0  0  0  0  0  0  0  0  0  0
    8.0114    4.7552   22.2825 O   0  0  0  0  0  0  0  0  0  0  0  0
    8.6198    2.4832   23.6217 S   0  0  0  0  0  0  0  0  0  0  0  0
   13.4275   -2.1421   21.1097 Cl  0  0  0  0  0  0  0  0  0  0  0  0
    2.5432    3.3510   20.6369 H   0  0  0  0  0  0  0  0  0  0  0  0
    3.5174    2.1137   22.5168 H   0  0  0  0  0  0  0  0  0  0  0  0
    3.3409    2.9743   18.3364 H   0  0  0  0  0  0  0  0  0  0  0  0
    5.3118    0.4895   22.1572 H   0  0  0  0  0  0  0  0  0  0  0  0
   12.5015    0.5938   24.9776 H   0  0  0  0  0  0  0  0  0  0  0  0
   13.9911   -0.5212   23.3814 H   0  0  0  0  0  0  0  0  0  0  0  0
   10.6037   -2.0228   21.2288 H   0  0  0  0  0  0  0  0  0  0  0  0
    4.9141    1.7511   16.7474 H   0  0  0  0  0  0  0  0  0  0  0  0
    7.6445   -0.9764   18.1043 H   0  0  0  0  0  0  0  0  0  0  0  0
    9.7581   -0.1287   25.8173 H   0  0  0  0  0  0  0  0  0  0  0  0
   10.4931    1.4391   25.3829 H   0  0  0  0  0  0  0  0  0  0  0  0
    7.5801   -2.6060   23.3366 H   0  0  0  0  0  0  0  0  0  0  0  0
    8.7749   -2.8608   22.0657 H   0  0  0  0  0  0  0  0  0  0  0  0
    7.0227   -2.7506   20.5953 H   0  0  0  0  0  0  0  0  0  0  0  0
    5.9554   -1.9484   21.7832 H   0  0  0  0  0  0  0  0  0  0  0  0
    6.8886    0.2769   23.5666 H   0  0  0  0  0  0  0  0  0  0  0  0
    7.6579   -0.8710   24.6633 H   0  0  0  0  0  0  0  0  0  0  0  0
    6.9959    2.4517   25.9353 H   0  0  0  0  0  0  0  0  0  0  0  0
    7.3233    4.0609   26.6630 H   0  0  0  0  0  0  0  0  0  0  0  0
    6.3220    3.9340   25.1770 H   0  0  0  0  0  0  0  0  0  0  0  0
    9.7592    5.1255   24.2576 H   0  0  0  0  0  0  0  0  0  0  0  0
    8.5572    5.6587   25.4620 H   0  0  0  0  0  0  0  0  0  0  0  0
    8.0067    6.5806   23.2034 H   0  0  0  0  0  0  0  0  0  0  0  0
    6.7351    5.4500   23.7351 H   0  0  0  0  0  0  0  0  0  0  0  0
    7.4063    5.0906   21.6016 H   0  0  0  0  0  0  0  0  0  0  0  0
  1  2  1  0  0  0  0
  1  3  2  0  0  0  0
  2  4  2  0  0  0  0
  3 10  1  0  0  0  0
  4 11  1  0  0  0  0
  5  6  2  0  0  0  0
  5 12  1  0  0  0  0
  6 15  1  0  0  0  0
  7 13  1  0  0  0  0
  7 15  2  0  0  0  0
  8 10  2  0  0  0  0
  8 25  1  0  0  0  0
  9 14  1  0  0  0  0
  9 25  2  0  0  0  0
 10 11  1  0  0  0  0
 11 14  2  0  0  0  0
 12 13  2  0  0  0  0
 12 17  1  0  0  0  0
 13 21  1  0  0  0  0
 14 26  1  0  0  0  0
 15 34  1  0  0  0  0
 16 21  1  0  0  0  0
 16 26  1  0  0  0  0
 16 29  2  0  0  0  0
 17 27  1  0  0  0  0
 18 19  1  0  0  0  0
 18 21  1  0  0  0  0
 19 26  1  0  0  0  0
 20 21  1  0  0  0  0
 20 27  1  0  0  0  0
 22 28  1  6  0  0  0
 23 24  1  0  0  0  0
 23 28  1  0  0  0  0
 24 32  1  0  0  0  0
 27 33  1  1  0  0  0
 28 33  1  0  0  0  0
 30 33  2  0  0  0  0
 31 33  2  0  0  0  0
  1 35  1  0  0  0  0
  2 36  1  0  0  0  0
  3 37  1  0  0  0  0
  4 38  1  0  0  0  0
  5 39  1  0  0  0  0
  6 40  1  0  0  0  0
  7 41  1  0  0  0  0
  8 42  1  0  0  0  0
  9 43  1  0  0  0  0
 17 44  1  0  0  0  0
 17 45  1  0  0  0  0
 18 46  1  0  0  0  0
 18 47  1  0  0  0  0
 19 48  1  0  0  0  0
 19 49  1  0  0  0  0
 20 50  1  0  0  0  0
 20 51  1  0  0  0  0
 22 52  1  0  0  0  0
 22 53  1  0  0  0  0
 22 54  1  0  0  0  0
 23 55  1  0  0  0  0
 23 56  1  0  0  0  0
 24 57  1  0  0  0  0
 24 58  1  0  0  0  0
 32 59  1  0  0  0  0
M  END
> <compound>
ALP-POS-ecbed2ba-19

> <compound_smiles>
CN(CCO)S(=O)(=O)N1Cc2ccc(cc2C3(C1)CCN(C3=O)c4cncc5c4cccc5)Cl

> <enantiomer_smiles>
C[N@](CCO)S(=O)(=O)[N@@]1Cc2ccc(cc2C3(C1)CCN(C3=O)c4cncc5c4cccc5)Cl

> <scaffold>
tetrahydroisoquinoline-5spiro-isoquinoline

> <clash_score>
0

> <docking_score>
-9.324978828430176

> <overlap_score>
0.9763362407684326

> <MMFF_internal_energy>
12.993056108888977

> <docked_smiles>
C[N@](CCO)S(=O)(=O)[N@@]1Cc2ccc(cc2[C@]3(C1)CCN(C3=O)c4cncc5c4cccc5)Cl

$$$$
PET-UNK-94036022-10_2
  -OEChem-12272114573D

 57 62  0     1  0  0  0  0  0999 V2000
    3.3432    2.6279   20.4411 C   0  0  0  0  0  0  0  0  0  0  0  0
    3.8960    1.9291   21.5050 C   0  0  0  0  0  0  0  0  0  0  0  0
    3.7865    2.4205   19.1660 C   0  0  0  0  0  0  0  0  0  0  0  0
    4.8973    1.0233   21.2988 C   0  0  0  0  0  0  0  0  0  0  0  0
   12.0765    0.0316   24.1541 C   0  0  0  0  0  0  0  0  0  0  0  0
   12.9132   -0.6032   23.2569 C   0  0  0  0  0  0  0  0  0  0  0  0
   10.9991   -1.4331   22.0443 C   0  0  0  0  0  0  0  0  0  0  0  0
    5.3278    1.2339   17.6066 C   0  0  0  0  0  0  0  0  0  0  0  0
    6.8438   -0.2892   18.3752 C   0  0  0  0  0  0  0  0  0  0  0  0
    4.8226    1.4906   18.9054 C   0  0  0  0  0  0  0  0  0  0  0  0
    5.3982    0.7733   19.9948 C   0  0  0  0  0  0  0  0  0  0  0  0
   10.7040   -0.0625   23.9898 C   0  0  0  0  0  0  0  0  0  0  0  0
   10.1406   -0.7765   22.9250 C   0  0  0  0  0  0  0  0  0  0  0  0
    6.4440   -0.1472   19.6979 C   0  0  0  0  0  0  0  0  0  0  0  0
   12.3683   -1.3298   22.2234 C   0  0  0  0  0  0  0  0  0  0  0  0
    8.2490    0.0169   21.4271 C   0  0  0  0  0  0  0  0  0  0  0  0
    9.9479    0.5589   24.9534 C   0  0  0  0  0  0  0  0  0  0  0  0
    9.7531    3.0070   22.8759 C   0  0  0  0  0  0  0  0  0  0  0  0
    9.6075    4.5012   22.9027 C   0  0  0  0  0  0  0  0  0  0  0  0
    8.0140   -2.1541   22.4331 C   0  0  0  0  0  0  0  0  0  0  0  0
    6.9866   -1.9366   21.3580 C   0  0  0  0  0  0  0  0  0  0  0  0
    7.8721   -0.1194   23.8831 C   0  0  0  0  0  0  0  0  0  0  0  0
    8.6238   -0.7606   22.6929 C   0  0  3  0  0  0  0  0  0  0  0  0
    8.5331    3.6312   23.5091 C   0  0  0  0  0  0  0  0  0  0  0  0
    8.3874    3.5882   25.0137 C   0  0  0  0  0  0  0  0  0  0  0  0
    6.3062    0.3769   17.3421 N   0  0  0  0  0  0  0  0  0  0  0  0
    7.2292   -0.6897   20.7790 N   0  0  0  0  0  0  0  0  0  0  0  0
    8.6609    1.0133   24.4995 N   0  0  2  0  0  0  0  0  0  0  0  0
    8.8299    1.0397   21.0799 O   0  0  0  0  0  0  0  0  0  0  0  0
    8.2407    1.8013   26.9144 O   0  0  0  0  0  0  0  0  0  0  0  0
    6.3653    1.9471   25.2271 O   0  0  0  0  0  0  0  0  0  0  0  0
    7.7708    2.0177   25.5632 S   0  0  0  0  0  0  0  0  0  0  0  0
   13.4272   -2.1411   21.1086 Cl  0  0  0  0  0  0  0  0  0  0  0  0
    7.0069    3.4985   22.6136 Cl  0  0  0  0  0  0  0  0  0  0  0  0
    2.5432    3.3510   20.6369 H   0  0  0  0  0  0  0  0  0  0  0  0
    3.5174    2.1137   22.5168 H   0  0  0  0  0  0  0  0  0  0  0  0
    3.3409    2.9743   18.3364 H   0  0  0  0  0  0  0  0  0  0  0  0
    5.3118    0.4895   22.1572 H   0  0  0  0  0  0  0  0  0  0  0  0
   12.5024    0.5995   24.9735 H   0  0  0  0  0  0  0  0  0  0  0  0
   13.9910   -0.5177   23.3793 H   0  0  0  0  0  0  0  0  0  0  0  0
   10.6036   -2.0162   21.2241 H   0  0  0  0  0  0  0  0  0  0  0  0
    4.9141    1.7511   16.7474 H   0  0  0  0  0  0  0  0  0  0  0  0
    7.6445   -0.9764   18.1043 H   0  0  0  0  0  0  0  0  0  0  0  0
    9.7849   -0.1194   25.8306 H   0  0  0  0  0  0  0  0  0  0  0  0
   10.4793    1.4568   25.3613 H   0  0  0  0  0  0  0  0  0  0  0  0
    9.6505    2.5100   21.9184 H   0  0  0  0  0  0  0  0  0  0  0  0
   10.5023    2.5637   23.5213 H   0  0  0  0  0  0  0  0  0  0  0  0
   10.2587    5.0576   23.5665 H   0  0  0  0  0  0  0  0  0  0  0  0
    9.4075    5.0029   21.9633 H   0  0  0  0  0  0  0  0  0  0  0  0
    7.5152   -2.5456   23.3338 H   0  0  0  0  0  0  0  0  0  0  0  0
    8.7649   -2.9030   22.1434 H   0  0  0  0  0  0  0  0  0  0  0  0
    7.0587   -2.7248   20.5721 H   0  0  0  0  0  0  0  0  0  0  0  0
    5.9518   -1.9952   21.7720 H   0  0  0  0  0  0  0  0  0  0  0  0
    6.8867    0.2641   23.5642 H   0  0  0  0  0  0  0  0  0  0  0  0
    7.6652   -0.8660   24.6733 H   0  0  0  0  0  0  0  0  0  0  0  0
    7.6838    4.3500   25.3607 H   0  0  0  0  0  0  0  0  0  0  0  0
    9.3513    3.7460   25.5050 H   0  0  0  0  0  0  0  0  0  0  0  0
  1  2  1  0  0  0  0
  1  3  2  0  0  0  0
  2  4  2  0  0  0  0
  3 10  1  0  0  0  0
  4 11  1  0  0  0  0
  5  6  1  0  0  0  0
  5 12  2  0  0  0  0
  6 15  2  0  0  0  0
  7 13  2  0  0  0  0
  7 15  1  0  0  0  0
  8 10  2  0  0  0  0
  8 26  1  0  0  0  0
  9 14  1  0  0  0  0
  9 26  2  0  0  0  0
 10 11  1  0  0  0  0
 11 14  2  0  0  0  0
 12 13  1  0  0  0  0
 12 17  1  0  0  0  0
 13 23  1  0  0  0  0
 14 27  1  0  0  0  0
 15 33  1  0  0  0  0
 16 23  1  0  0  0  0
 16 27  1  0  0  0  0
 16 29  2  0  0  0  0
 17 28  1  0  0  0  0
 18 19  1  0  0  0  0
 18 24  1  0  0  0  0
 19 24  1  0  0  0  0
 20 21  1  0  0  0  0
 20 23  1  0  0  0  0
 21 27  1  0  0  0  0
 22 23  1  0  0  0  0
 22 28  1  0  0  0  0
 24 25  1  0  0  0  0
 24 34  1  0  0  0  0
 25 32  1  0  0  0  0
 28 32  1  6  0  0  0
 30 32  2  0  0  0  0
 31 32  2  0  0  0  0
  1 35  1  0  0  0  0
  2 36  1  0  0  0  0
  3 37  1  0  0  0  0
  4 38  1  0  0  0  0
  5 39  1  0  0  0  0
  6 40  1  0  0  0  0
  7 41  1  0  0  0  0
  8 42  1  0  0  0  0
  9 43  1  0  0  0  0
 17 44  1  0  0  0  0
 17 45  1  0  0  0  0
 18 46  1  0  0  0  0
 18 47  1  0  0  0  0
 19 48  1  0  0  0  0
 19 49  1  0  0  0  0
 20 50  1  0  0  0  0
 20 51  1  0  0  0  0
 21 52  1  0  0  0  0
 21 53  1  0  0  0  0
 22 54  1  0  0  0  0
 22 55  1  0  0  0  0
 25 56  1  0  0  0  0
 25 57  1  0  0  0  0
M  END
> <compound>
PET-UNK-94036022-10

> <compound_smiles>
c1ccc2c(c1)cncc2N3CCC4(C3=O)CN(Cc5c4cc(cc5)Cl)S(=O)(=O)CC6(CC6)Cl

> <enantiomer_smiles>
c1ccc2c(c1)cncc2N3CCC4(C3=O)C[N@](Cc5c4cc(cc5)Cl)S(=O)(=O)CC6(CC6)Cl

> <scaffold>
tetrahydroisoquinoline-5spiro-isoquinoline

> <clash_score>
0

> <docking_score>
-8.834897994995117

> <overlap_score>
0.9751805663108826

> <MMFF_internal_energy>
120.37554714331064

> <docked_smiles>
c1ccc2c(c1)cncc2N3CC[C@@]4(C3=O)C[N@](Cc5c4cc(cc5)Cl)S(=O)(=O)CC6(CC6)Cl

$$$$
MAT-POS-69786b79-3_2
  -OEChem-12272114573D

 62 67  0     1  0  0  0  0  0999 V2000
    3.3432    2.6279   20.4411 C   0  0  0  0  0  0  0  0  0  0  0  0
    3.8960    1.9291   21.5050 C   0  0  0  0  0  0  0  0  0  0  0  0
    3.7865    2.4205   19.1660 C   0  0  0  0  0  0  0  0  0  0  0  0
    4.8973    1.0233   21.2988 C   0  0  0  0  0  0  0  0  0  0  0  0
   12.0765    0.0316   24.1541 C   0  0  0  0  0  0  0  0  0  0  0  0
   12.9132   -0.6032   23.2569 C   0  0  0  0  0  0  0  0  0  0  0  0
   10.9991   -1.4331   22.0443 C   0  0  0  0  0  0  0  0  0  0  0  0
    5.3278    1.2339   17.6066 C   0  0  0  0  0  0  0  0  0  0  0  0
    6.8438   -0.2892   18.3752 C   0  0  0  0  0  0  0  0  0  0  0  0
    4.8226    1.4906   18.9054 C   0  0  0  0  0  0  0  0  0  0  0  0
    5.3982    0.7733   19.9948 C   0  0  0  0  0  0  0  0  0  0  0  0
   10.7040   -0.0625   23.9898 C   0  0  0  0  0  0  0  0  0  0  0  0
   10.1406   -0.7765   22.9250 C   0  0  0  0  0  0  0  0  0  0  0  0
    6.4440   -0.1472   19.6979 C   0  0  0  0  0  0  0  0  0  0  0  0
   12.3683   -1.3298   22.2234 C   0  0  0  0  0  0  0  0  0  0  0  0
    8.2490    0.0169   21.4271 C   0  0  0  0  0  0  0  0  0  0  0  0
    6.7919    2.5950   24.9761 C   0  0  0  0  0  0  0  0  0  0  0  0
    9.9479    0.5589   24.9534 C   0  0  0  0  0  0  0  0  0  0  0  0
    7.1905    5.5799   22.5959 C   0  0  0  0  0  0  0  0  0  0  0  0
    6.4114    4.4681   21.9612 C   0  0  0  0  0  0  0  0  0  0  0  0
    8.0140   -2.1541   22.4331 C   0  0  0  0  0  0  0  0  0  0  0  0
    6.9866   -1.9366   21.3580 C   0  0  0  0  0  0  0  0  0  0  0  0
    7.8721   -0.1194   23.8831 C   0  0  0  0  0  0  0  0  0  0  0  0
    8.6238   -0.7606   22.6929 C   0  0  3  0  0  0  0  0  0  0  0  0
    6.5186    4.5422   23.4690 C   0  0  0  0  0  0  0  0  0  0  0  0
    5.2941    4.9658   24.2336 C   0  0  0  0  0  0  0  0  0  0  0  0
    7.8596    1.7144   25.5749 C   0  0  0  0  0  0  0  0  0  0  0  0
    6.3062    0.3769   17.3421 N   0  0  0  0  0  0  0  0  0  0  0  0
    7.2292   -0.6897   20.7790 N   0  0  0  0  0  0  0  0  0  0  0  0
    7.3373    3.5744   24.1596 N   0  0  0  0  0  0  0  0  0  0  0  0
    8.6609    1.0133   24.4995 N   0  3  1  0  0  0  0  0  0  0  0  0
    8.8286    1.0402   21.0803 O   0  0  0  0  0  0  0  0  0  0  0  0
    5.5929    2.4454   25.1962 O   0  0  0  0  0  0  0  0  0  0  0  0
   13.4270   -2.1443   21.1108 Cl  0  0  0  0  0  0  0  0  0  0  0  0
    2.5432    3.3510   20.6369 H   0  0  0  0  0  0  0  0  0  0  0  0
    3.5174    2.1137   22.5168 H   0  0  0  0  0  0  0  0  0  0  0  0
    3.3409    2.9743   18.3364 H   0  0  0  0  0  0  0  0  0  0  0  0
    5.3118    0.4895   22.1572 H   0  0  0  0  0  0  0  0  0  0  0  0
   12.5021    0.5962   24.9756 H   0  0  0  0  0  0  0  0  0  0  0  0
   13.9911   -0.5171   23.3786 H   0  0  0  0  0  0  0  0  0  0  0  0
   10.6045   -2.0170   21.2248 H   0  0  0  0  0  0  0  0  0  0  0  0
    4.9141    1.7511   16.7474 H   0  0  0  0  0  0  0  0  0  0  0  0
    7.6445   -0.9764   18.1043 H   0  0  0  0  0  0  0  0  0  0  0  0
    9.7608   -0.1211   25.8247 H   0  0  0  0  0  0  0  0  0  0  0  0
   10.4565    1.4661   25.3705 H   0  0  0  0  0  0  0  0  0  0  0  0
    8.2700    5.5542   22.5022 H   0  0  0  0  0  0  0  0  0  0  0  0
    6.7691    6.5773   22.5559 H   0  0  0  0  0  0  0  0  0  0  0  0
    5.4659    4.7177   21.4945 H   0  0  0  0  0  0  0  0  0  0  0  0
    6.9686    3.6970   21.4419 H   0  0  0  0  0  0  0  0  0  0  0  0
    7.5144   -2.5472   23.3327 H   0  0  0  0  0  0  0  0  0  0  0  0
    8.7599   -2.9065   22.1418 H   0  0  0  0  0  0  0  0  0  0  0  0
    7.0582   -2.7244   20.5716 H   0  0  0  0  0  0  0  0  0  0  0  0
    5.9516   -1.9958   21.7713 H   0  0  0  0  0  0  0  0  0  0  0  0
    6.8955    0.2929   23.5757 H   0  0  0  0  0  0  0  0  0  0  0  0
    7.6774   -0.8491   24.6905 H   0  0  0  0  0  0  0  0  0  0  0  0
    4.8962    4.1344   24.8280 H   0  0  0  0  0  0  0  0  0  0  0  0
    4.5038    5.3029   23.5521 H   0  0  0  0  0  0  0  0  0  0  0  0
    5.5254    5.7909   24.9181 H   0  0  0  0  0  0  0  0  0  0  0  0
    7.4105    0.9495   26.2145 H   0  0  0  0  0  0  0  0  0  0  0  0
    8.5738    2.3157   26.1441 H   0  0  0  0  0  0  0  0  0  0  0  0
    8.3460    3.6364   24.0553 H   0  0  0  0  0  0  0  0  0  0  0  0
    8.7930    1.7233   23.7554 H   0  0  0  0  0  0  0  0  0  0  0  0
  1  2  1  0  0  0  0
  1  3  2  0  0  0  0
  2  4  2  0  0  0  0
  3 10  1  0  0  0  0
  4 11  1  0  0  0  0
  5  6  2  0  0  0  0
  5 12  1  0  0  0  0
  6 15  1  0  0  0  0
  7 13  1  0  0  0  0
  7 15  2  0  0  0  0
  8 10  2  0  0  0  0
  8 28  1  0  0  0  0
  9 14  1  0  0  0  0
  9 28  2  0  0  0  0
 10 11  1  0  0  0  0
 11 14  2  0  0  0  0
 12 13  2  0  0  0  0
 12 18  1  0  0  0  0
 13 24  1  0  0  0  0
 14 29  1  0  0  0  0
 15 34  1  0  0  0  0
 16 24  1  0  0  0  0
 16 29  1  0  0  0  0
 16 32  2  0  0  0  0
 17 27  1  0  0  0  0
 17 30  1  0  0  0  0
 17 33  2  0  0  0  0
 18 31  1  0  0  0  0
 19 20  1  0  0  0  0
 19 25  1  0  0  0  0
 20 25  1  0  0  0  0
 21 22  1  0  0  0  0
 21 24  1  0  0  0  0
 22 29  1  0  0  0  0
 23 24  1  0  0  0  0
 23 31  1  0  0  0  0
 25 26  1  0  0  0  0
 25 30  1  0  0  0  0
 27 31  1  6  0  0  0
  1 35  1  0  0  0  0
  2 36  1  0  0  0  0
  3 37  1  0  0  0  0
  4 38  1  0  0  0  0
  5 39  1  0  0  0  0
  6 40  1  0  0  0  0
  7 41  1  0  0  0  0
  8 42  1  0  0  0  0
  9 43  1  0  0  0  0
 18 44  1  0  0  0  0
 18 45  1  0  0  0  0
 19 46  1  0  0  0  0
 19 47  1  0  0  0  0
 20 48  1  0  0  0  0
 20 49  1  0  0  0  0
 21 50  1  0  0  0  0
 21 51  1  0  0  0  0
 22 52  1  0  0  0  0
 22 53  1  0  0  0  0
 23 54  1  0  0  0  0
 23 55  1  0  0  0  0
 26 56  1  0  0  0  0
 26 57  1  0  0  0  0
 26 58  1  0  0  0  0
 27 59  1  0  0  0  0
 27 60  1  0  0  0  0
 30 61  1  0  0  0  0
 31 62  1  0  0  0  0
M  CHG  1  31   1
M  END
> <compound>
MAT-POS-69786b79-3

> <compound_smiles>
CC1(CC1)NC(=O)CN2Cc3ccc(cc3C4(C2)CCN(C4=O)c5cncc6c5cccc6)Cl

> <enantiomer_smiles>
CC1(CC1)NC(=O)C[N@]2Cc3ccc(cc3C4(C2)CCN(C4=O)c5cncc6c5cccc6)Cl

> <scaffold>
tetrahydroisoquinoline-5spiro-isoquinoline

> <clash_score>
0

> <docking_score>
-9.44791030883789

> <overlap_score>
0.9717923402786255

> <MMFF_internal_energy>
186.14278808577203

> <docked_smiles>
CC1(CC1)NC(=O)C[N@H+]2Cc3ccc(cc3[C@]4(C2)CCN(C4=O)c5cncc6c5cccc6)Cl

$$$$
EDJ-MED-fd8ed875-2_1
  -OEChem-12272114573D

 55 60  0     1  0  0  0  0  0999 V2000
    3.3432    2.6279   20.4411 C   0  0  0  0  0  0  0  0  0  0  0  0
    3.8960    1.9291   21.5050 C   0  0  0  0  0  0  0  0  0  0  0  0
    3.7865    2.4205   19.1660 C   0  0  0  0  0  0  0  0  0  0  0  0
    4.8973    1.0233   21.2988 C   0  0  0  0  0  0  0  0  0  0  0  0
   12.0765    0.0316   24.1541 C   0  0  0  0  0  0  0  0  0  0  0  0
   12.9132   -0.6032   23.2569 C   0  0  0  0  0  0  0  0  0  0  0  0
   10.9991   -1.4331   22.0443 C   0  0  0  0  0  0  0  0  0  0  0  0
    5.3278    1.2339   17.6066 C   0  0  0  0  0  0  0  0  0  0  0  0
    6.8438   -0.2892   18.3752 C   0  0  0  0  0  0  0  0  0  0  0  0
    4.8226    1.4906   18.9054 C   0  0  0  0  0  0  0  0  0  0  0  0
    5.3982    0.7733   19.9948 C   0  0  0  0  0  0  0  0  0  0  0  0
   10.7040   -0.0625   23.9898 C   0  0  0  0  0  0  0  0  0  0  0  0
   10.1406   -0.7765   22.9250 C   0  0  0  0  0  0  0  0  0  0  0  0
    6.4440   -0.1472   19.6979 C   0  0  0  0  0  0  0  0  0  0  0  0
   12.3683   -1.3298   22.2234 C   0  0  0  0  0  0  0  0  0  0  0  0
    6.9866   -1.9366   21.3580 C   0  0  0  0  0  0  0  0  0  0  0  0
    9.9479    0.5589   24.9534 C   0  0  0  0  0  0  0  0  0  0  0  0
    8.2490    0.0169   21.4271 C   0  0  0  0  0  0  0  0  0  0  0  0
    8.4334    3.2706   23.8191 C   0  0  0  0  0  0  0  0  0  0  0  0
    7.9165    2.6281   26.2363 C   0  0  0  0  0  0  0  0  0  0  0  0
    6.7211    2.2532   25.4178 C   0  0  0  0  0  0  0  0  0  0  0  0
    7.8721   -0.1194   23.8831 C   0  0  0  0  0  0  0  0  0  0  0  0
    8.6238   -0.7606   22.6929 C   0  0  3  0  0  0  0  0  0  0  0  0
    8.0996    2.2125   24.7913 C   0  0  0  0  0  0  0  0  0  0  0  0
   10.1279    5.0053   23.2699 C   0  0  0  0  0  0  0  0  0  0  0  0
    6.3062    0.3769   17.3421 N   0  0  0  0  0  0  0  0  0  0  0  0
    7.2292   -0.6897   20.7790 N   0  0  0  0  0  0  0  0  0  0  0  0
    8.6609    1.0133   24.4995 N   0  0  0  0  0  0  0  0  0  0  0  0
    8.0140   -2.1541   22.4331 N   0  3  0  0  0  0  0  0  0  0  0  0
    9.6131    3.9355   24.0941 N   0  0  0  0  0  0  0  0  0  0  0  0
   10.3206    0.7407   26.1070 O   0  0  0  0  0  0  0  0  0  0  0  0
    8.7816    1.0591   21.0357 O   0  0  0  0  0  0  0  0  0  0  0  0
    7.6818    3.4822   22.8746 O   0  0  0  0  0  0  0  0  0  0  0  0
   13.4269   -2.1473   21.1131 Cl  0  0  0  0  0  0  0  0  0  0  0  0
    2.5431    3.3512   20.6364 H   0  0  0  0  0  0  0  0  0  0  0  0
    3.5171    2.1134   22.5167 H   0  0  0  0  0  0  0  0  0  0  0  0
    3.3416    2.9753   18.3366 H   0  0  0  0  0  0  0  0  0  0  0  0
    5.3143    0.4868   22.1546 H   0  0  0  0  0  0  0  0  0  0  0  0
   12.5166    0.5926   24.9748 H   0  0  0  0  0  0  0  0  0  0  0  0
   13.9903   -0.5256   23.3848 H   0  0  0  0  0  0  0  0  0  0  0  0
   10.6038   -2.0236   21.2282 H   0  0  0  0  0  0  0  0  0  0  0  0
    4.9137    1.7514   16.7476 H   0  0  0  0  0  0  0  0  0  0  0  0
    7.6454   -0.9762   18.1080 H   0  0  0  0  0  0  0  0  0  0  0  0
    6.2861   -2.6098   21.1566 H   0  0  0  0  0  0  0  0  0  0  0  0
    8.0416    3.6730   26.4955 H   0  0  0  0  0  0  0  0  0  0  0  0
    8.2289    1.9409   27.0140 H   0  0  0  0  0  0  0  0  0  0  0  0
    6.2305    1.3140   25.6452 H   0  0  0  0  0  0  0  0  0  0  0  0
    6.0419    3.0458   25.1265 H   0  0  0  0  0  0  0  0  0  0  0  0
    6.9294    0.3188   23.5544 H   0  0  0  0  0  0  0  0  0  0  0  0
    7.6642   -0.8595   24.6535 H   0  0  0  0  0  0  0  0  0  0  0  0
   10.7810    4.5864   22.4901 H   0  0  0  0  0  0  0  0  0  0  0  0
    9.2904    5.5402   22.7981 H   0  0  0  0  0  0  0  0  0  0  0  0
   10.7042    5.7042   23.8941 H   0  0  0  0  0  0  0  0  0  0  0  0
    8.1539   -3.0054   22.7709 H   0  0  0  0  0  0  0  0  0  0  0  0
   10.1438    3.6592   24.9147 H   0  0  0  0  0  0  0  0  0  0  0  0
  1  2  1  0  0  0  0
  1  3  2  0  0  0  0
  2  4  2  0  0  0  0
  3 10  1  0  0  0  0
  4 11  1  0  0  0  0
  5  6  2  0  0  0  0
  5 12  1  0  0  0  0
  6 15  1  0  0  0  0
  7 13  1  0  0  0  0
  7 15  2  0  0  0  0
  8 10  2  0  0  0  0
  8 26  1  0  0  0  0
  9 14  1  0  0  0  0
  9 26  2  0  0  0  0
 10 11  1  0  0  0  0
 11 14  2  0  0  0  0
 12 13  2  0  0  0  0
 12 17  1  0  0  0  0
 13 23  1  0  0  0  0
 14 27  1  0  0  0  0
 15 34  1  0  0  0  0
 16 27  1  0  0  0  0
 16 29  2  0  0  0  0
 17 28  1  0  0  0  0
 17 31  2  0  0  0  0
 18 23  1  0  0  0  0
 18 27  1  0  0  0  0
 18 32  2  0  0  0  0
 19 24  1  0  0  0  0
 19 30  1  0  0  0  0
 19 33  2  0  0  0  0
 20 21  1  0  0  0  0
 20 24  1  0  0  0  0
 21 24  1  0  0  0  0
 22 23  1  0  0  0  0
 22 28  1  0  0  0  0
 23 29  1  0  0  0  0
 24 28  1  0  0  0  0
 25 30  1  0  0  0  0
  1 35  1  0  0  0  0
  2 36  1  0  0  0  0
  3 37  1  0  0  0  0
  4 38  1  0  0  0  0
  5 39  1  0  0  0  0
  6 40  1  0  0  0  0
  7 41  1  0  0  0  0
  8 42  1  0  0  0  0
  9 43  1  0  0  0  0
 16 44  1  0  0  0  0
 20 45  1  0  0  0  0
 20 46  1  0  0  0  0
 21 47  1  0  0  0  0
 21 48  1  0  0  0  0
 22 49  1  0  0  0  0
 22 50  1  0  0  0  0
 25 51  1  0  0  0  0
 25 52  1  0  0  0  0
 25 53  1  0  0  0  0
 29 54  1  0  0  0  0
 30 55  1  0  0  0  0
M  CHG  1  29   1
M  END
> <compound>
EDJ-MED-fd8ed875-2

> <compound_smiles>
CNC(=O)C1(CC1)N2CC3(c4cc(ccc4C2=O)Cl)C(=O)N(C=N3)c5cncc6c5cccc6

> <enantiomer_smiles>
CNC(=O)C1(CC1)N2CC3(c4cc(ccc4C2=O)Cl)C(=O)N(C=N3)c5cncc6c5cccc6

> <scaffold>
tetrahydroisoquinoline-5spiro-isoquinoline

> <clash_score>
0

> <docking_score>
-8.48895263671875

> <overlap_score>
0.988645613193512

> <MMFF_internal_energy>
223.80924575748293

> <docked_smiles>
CNC(=O)C1(CC1)N2C[C@]3(c4cc(ccc4C2=O)Cl)C(=O)N(C=[NH+]3)c5cncc6c5cccc6

$$$$
ALP-POS-ecbed2ba-19_4
  -OEChem-12272114573D

 59 63  0     1  0  0  0  0  0999 V2000
    3.3432    2.6279   20.4411 C   0  0  0  0  0  0  0  0  0  0  0  0
    3.8960    1.9291   21.5050 C   0  0  0  0  0  0  0  0  0  0  0  0
    3.7865    2.4205   19.1660 C   0  0  0  0  0  0  0  0  0  0  0  0
    4.8973    1.0233   21.2988 C   0  0  0  0  0  0  0  0  0  0  0  0
   12.0765    0.0316   24.1541 C   0  0  0  0  0  0  0  0  0  0  0  0
   12.9132   -0.6032   23.2569 C   0  0  0  0  0  0  0  0  0  0  0  0
   10.9991   -1.4331   22.0443 C   0  0  0  0  0  0  0  0  0  0  0  0
    5.3278    1.2339   17.6066 C   0  0  0  0  0  0  0  0  0  0  0  0
    6.8438   -0.2892   18.3752 C   0  0  0  0  0  0  0  0  0  0  0  0
    4.8226    1.4906   18.9054 C   0  0  0  0  0  0  0  0  0  0  0  0
    5.3982    0.7733   19.9948 C   0  0  0  0  0  0  0  0  0  0  0  0
   10.7040   -0.0625   23.9898 C   0  0  0  0  0  0  0  0  0  0  0  0
   10.1406   -0.7765   22.9250 C   0  0  0  0  0  0  0  0  0  0  0  0
    6.4440   -0.1472   19.6979 C   0  0  0  0  0  0  0  0  0  0  0  0
   12.3683   -1.3298   22.2234 C   0  0  0  0  0  0  0  0  0  0  0  0
    8.2490    0.0169   21.4271 C   0  0  0  0  0  0  0  0  0  0  0  0
    9.9479    0.5589   24.9534 C   0  0  0  0  0  0  0  0  0  0  0  0
    8.0140   -2.1541   22.4331 C   0  0  0  0  0  0  0  0  0  0  0  0
    6.9866   -1.9366   21.3580 C   0  0  0  0  0  0  0  0  0  0  0  0
    7.8721   -0.1194   23.8831 C   0  0  0  0  0  0  0  0  0  0  0  0
    8.6238   -0.7606   22.6929 C   0  0  3  0  0  0  0  0  0  0  0  0
    6.4179    3.5203   23.7084 C   0  0  0  0  0  0  0  0  0  0  0  0
    8.8377    3.9346   23.9153 C   0  0  0  0  0  0  0  0  0  0  0  0
    8.5154    5.2000   23.1416 C   0  0  0  0  0  0  0  0  0  0  0  0
    6.3062    0.3769   17.3421 N   0  0  0  0  0  0  0  0  0  0  0  0
    7.2292   -0.6897   20.7790 N   0  0  0  0  0  0  0  0  0  0  0  0
    8.6609    1.0133   24.4995 N   0  0  1  0  0  0  0  0  0  0  0  0
    7.6110    3.4369   24.5899 N   0  0  2  0  0  0  0  0  0  0  0  0
    8.8299    1.0397   21.0799 O   0  0  0  0  0  0  0  0  0  0  0  0
    8.6187    2.3214   26.7008 O   0  0  0  0  0  0  0  0  0  0  0  0
    6.4562    1.4400   25.7707 O   0  0  0  0  0  0  0  0  0  0  0  0
    9.6994    5.6922   22.5270 O   0  0  0  0  0  0  0  0  0  0  0  0
    7.7708    2.0177   25.5632 S   0  0  0  0  0  0  0  0  0  0  0  0
   13.4272   -2.1411   21.1086 Cl  0  0  0  0  0  0  0  0  0  0  0  0
    2.5432    3.3510   20.6369 H   0  0  0  0  0  0  0  0  0  0  0  0
    3.5174    2.1137   22.5168 H   0  0  0  0  0  0  0  0  0  0  0  0
    3.3409    2.9743   18.3364 H   0  0  0  0  0  0  0  0  0  0  0  0
    5.3118    0.4895   22.1572 H   0  0  0  0  0  0  0  0  0  0  0  0
   12.5024    0.5995   24.9735 H   0  0  0  0  0  0  0  0  0  0  0  0
   13.9910   -0.5177   23.3793 H   0  0  0  0  0  0  0  0  0  0  0  0
   10.6036   -2.0162   21.2241 H   0  0  0  0  0  0  0  0  0  0  0  0
    4.9141    1.7511   16.7474 H   0  0  0  0  0  0  0  0  0  0  0  0
    7.6445   -0.9764   18.1043 H   0  0  0  0  0  0  0  0  0  0  0  0
    9.7849   -0.1194   25.8306 H   0  0  0  0  0  0  0  0  0  0  0  0
   10.4793    1.4568   25.3613 H   0  0  0  0  0  0  0  0  0  0  0  0
    7.5152   -2.5456   23.3338 H   0  0  0  0  0  0  0  0  0  0  0  0
    8.7649   -2.9030   22.1434 H   0  0  0  0  0  0  0  0  0  0  0  0
    7.0587   -2.7248   20.5721 H   0  0  0  0  0  0  0  0  0  0  0  0
    5.9518   -1.9952   21.7720 H   0  0  0  0  0  0  0  0  0  0  0  0
    6.8867    0.2641   23.5642 H   0  0  0  0  0  0  0  0  0  0  0  0
    7.6652   -0.8660   24.6733 H   0  0  0  0  0  0  0  0  0  0  0  0
    5.5363    3.1427   24.2471 H   0  0  0  0  0  0  0  0  0  0  0  0
    6.2492    4.5678   23.4180 H   0  0  0  0  0  0  0  0  0  0  0  0
    6.5849    2.9122   22.8071 H   0  0  0  0  0  0  0  0  0  0  0  0
    9.2075    3.1469   23.2513 H   0  0  0  0  0  0  0  0  0  0  0  0
    9.5902    4.1388   24.6829 H   0  0  0  0  0  0  0  0  0  0  0  0
    8.1428    5.9712   23.8230 H   0  0  0  0  0  0  0  0  0  0  0  0
    7.7655    5.0172   22.3651 H   0  0  0  0  0  0  0  0  0  0  0  0
    9.4504    6.4973   22.0453 H   0  0  0  0  0  0  0  0  0  0  0  0
  1  2  1  0  0  0  0
  1  3  2  0  0  0  0
  2  4  2  0  0  0  0
  3 10  1  0  0  0  0
  4 11  1  0  0  0  0
  5  6  2  0  0  0  0
  5 12  1  0  0  0  0
  6 15  1  0  0  0  0
  7 13  1  0  0  0  0
  7 15  2  0  0  0  0
  8 10  2  0  0  0  0
  8 25  1  0  0  0  0
  9 14  1  0  0  0  0
  9 25  2  0  0  0  0
 10 11  1  0  0  0  0
 11 14  2  0  0  0  0
 12 13  2  0  0  0  0
 12 17  1  0  0  0  0
 13 21  1  0  0  0  0
 14 26  1  0  0  0  0
 15 34  1  0  0  0  0
 16 21  1  0  0  0  0
 16 26  1  0  0  0  0
 16 29  2  0  0  0  0
 17 27  1  0  0  0  0
 18 19  1  0  0  0  0
 18 21  1  0  0  0  0
 19 26  1  0  0  0  0
 20 21  1  0  0  0  0
 20 27  1  0  0  0  0
 22 28  1  6  0  0  0
 23 24  1  0  0  0  0
 23 28  1  0  0  0  0
 24 32  1  0  0  0  0
 27 33  1  6  0  0  0
 28 33  1  0  0  0  0
 30 33  2  0  0  0  0
 31 33  2  0  0  0  0
  1 35  1  0  0  0  0
  2 36  1  0  0  0  0
  3 37  1  0  0  0  0
  4 38  1  0  0  0  0
  5 39  1  0  0  0  0
  6 40  1  0  0  0  0
  7 41  1  0  0  0  0
  8 42  1  0  0  0  0
  9 43  1  0  0  0  0
 17 44  1  0  0  0  0
 17 45  1  0  0  0  0
 18 46  1  0  0  0  0
 18 47  1  0  0  0  0
 19 48  1  0  0  0  0
 19 49  1  0  0  0  0
 20 50  1  0  0  0  0
 20 51  1  0  0  0  0
 22 52  1  0  0  0  0
 22 53  1  0  0  0  0
 22 54  1  0  0  0  0
 23 55  1  0  0  0  0
 23 56  1  0  0  0  0
 24 57  1  0  0  0  0
 24 58  1  0  0  0  0
 32 59  1  0  0  0  0
M  END
> <compound>
ALP-POS-ecbed2ba-19

> <compound_smiles>
CN(CCO)S(=O)(=O)N1Cc2ccc(cc2C3(C1)CCN(C3=O)c4cncc5c4cccc5)Cl

> <enantiomer_smiles>
C[N@](CCO)S(=O)(=O)[N@]1Cc2ccc(cc2C3(C1)CCN(C3=O)c4cncc5c4cccc5)Cl

> <scaffold>
tetrahydroisoquinoline-5spiro-isoquinoline

> <clash_score>
0

> <docking_score>
-9.251007080078125

> <overlap_score>
0.9732476472854614

> <MMFF_internal_energy>
-4.785537797775809

> <docked_smiles>
C[N@](CCO)S(=O)(=O)[N@]1Cc2ccc(cc2[C@]3(C1)CCN(C3=O)c4cncc5c4cccc5)Cl

$$$$
MAT-POS-50a80394-6_1
  -OEChem-12272114573D

 64 68  0     1  0  0  0  0  0999 V2000
    3.3432    2.6279   20.4411 C   0  0  0  0  0  0  0  0  0  0  0  0
    3.8960    1.9291   21.5050 C   0  0  0  0  0  0  0  0  0  0  0  0
    3.7865    2.4205   19.1660 C   0  0  0  0  0  0  0  0  0  0  0  0
    4.8973    1.0233   21.2988 C   0  0  0  0  0  0  0  0  0  0  0  0
   12.0765    0.0316   24.1541 C   0  0  0  0  0  0  0  0  0  0  0  0
   12.9132   -0.6032   23.2569 C   0  0  0  0  0  0  0  0  0  0  0  0
   10.9991   -1.4331   22.0443 C   0  0  0  0  0  0  0  0  0  0  0  0
    5.3278    1.2339   17.6066 C   0  0  0  0  0  0  0  0  0  0  0  0
    6.8438   -0.2892   18.3752 C   0  0  0  0  0  0  0  0  0  0  0  0
    4.8226    1.4906   18.9054 C   0  0  0  0  0  0  0  0  0  0  0  0
    5.3982    0.7733   19.9948 C   0  0  0  0  0  0  0  0  0  0  0  0
   10.7040   -0.0625   23.9898 C   0  0  0  0  0  0  0  0  0  0  0  0
   10.1406   -0.7765   22.9250 C   0  0  0  0  0  0  0  0  0  0  0  0
    6.4440   -0.1472   19.6979 C   0  0  0  0  0  0  0  0  0  0  0  0
   12.3683   -1.3298   22.2234 C   0  0  0  0  0  0  0  0  0  0  0  0
    8.2490    0.0169   21.4271 C   0  0  0  0  0  0  0  0  0  0  0  0
    7.4333    2.9425   23.5097 C   0  0  0  0  0  0  0  0  0  0  0  0
    9.9479    0.5589   24.9534 C   0  0  0  0  0  0  0  0  0  0  0  0
    6.9866   -1.9366   21.3580 C   0  0  0  0  0  0  0  0  0  0  0  0
    7.8721   -0.1194   23.8831 C   0  0  0  0  0  0  0  0  0  0  0  0
    8.0140   -2.1541   22.4331 C   0  0  2  0  0  0  0  0  0  0  0  0
    8.6238   -0.7606   22.6929 C   0  0  3  0  0  0  0  0  0  0  0  0
    9.7121   -3.7727   23.3360 C   0  0  0  0  0  0  0  0  0  0  0  0
    8.2805   -4.4306   21.3811 C   0  0  0  0  0  0  0  0  0  0  0  0
    6.3840    4.9359   22.4787 C   0  0  0  0  0  0  0  0  0  0  0  0
    8.7440    2.1982   23.5582 C   0  0  0  0  0  0  0  0  0  0  0  0
    9.0007   -3.2768   22.0776 C   0  0  0  0  0  0  0  0  0  0  0  0
    6.3062    0.3769   17.3421 N   0  0  0  0  0  0  0  0  0  0  0  0
    7.2292   -0.6897   20.7790 N   0  0  0  0  0  0  0  0  0  0  0  0
    7.5107    4.0587   22.6903 N   0  0  0  0  0  0  0  0  0  0  0  0
    8.6609    1.0133   24.4995 N   0  3  1  0  0  0  0  0  0  0  0  0
    8.8276    1.0399   21.0744 O   0  0  0  0  0  0  0  0  0  0  0  0
    6.4327    2.5865   24.1264 O   0  0  0  0  0  0  0  0  0  0  0  0
   13.4291   -2.1467   21.1148 Cl  0  0  0  0  0  0  0  0  0  0  0  0
    2.5432    3.3510   20.6369 H   0  0  0  0  0  0  0  0  0  0  0  0
    3.5174    2.1137   22.5168 H   0  0  0  0  0  0  0  0  0  0  0  0
    3.3409    2.9743   18.3364 H   0  0  0  0  0  0  0  0  0  0  0  0
    5.3118    0.4895   22.1572 H   0  0  0  0  0  0  0  0  0  0  0  0
   12.5034    0.5852   24.9820 H   0  0  0  0  0  0  0  0  0  0  0  0
   13.9918   -0.5304   23.3885 H   0  0  0  0  0  0  0  0  0  0  0  0
   10.6195   -2.0349   21.2358 H   0  0  0  0  0  0  0  0  0  0  0  0
    4.9141    1.7511   16.7474 H   0  0  0  0  0  0  0  0  0  0  0  0
    7.6445   -0.9764   18.1043 H   0  0  0  0  0  0  0  0  0  0  0  0
    9.7357   -0.1163   25.8246 H   0  0  0  0  0  0  0  0  0  0  0  0
   10.4772    1.4526   25.3809 H   0  0  0  0  0  0  0  0  0  0  0  0
    7.0346   -2.7228   20.5623 H   0  0  0  0  0  0  0  0  0  0  0  0
    5.9483   -1.9858   21.7748 H   0  0  0  0  0  0  0  0  0  0  0  0
    6.9031    0.3192   23.5884 H   0  0  0  0  0  0  0  0  0  0  0  0
    7.6829   -0.8448   24.6936 H   0  0  0  0  0  0  0  0  0  0  0  0
    7.4669   -2.5181   23.3220 H   0  0  0  0  0  0  0  0  0  0  0  0
    8.9994   -4.1814   24.0607 H   0  0  0  0  0  0  0  0  0  0  0  0
   10.2568   -2.9558   23.8207 H   0  0  0  0  0  0  0  0  0  0  0  0
   10.4348   -4.5584   23.0918 H   0  0  0  0  0  0  0  0  0  0  0  0
    7.5099   -4.8660   22.0265 H   0  0  0  0  0  0  0  0  0  0  0  0
    8.9848   -5.2247   21.1115 H   0  0  0  0  0  0  0  0  0  0  0  0
    7.7964   -4.0863   20.4610 H   0  0  0  0  0  0  0  0  0  0  0  0
    5.8177    4.6001   21.5974 H   0  0  0  0  0  0  0  0  0  0  0  0
    5.7313    4.9142   23.3638 H   0  0  0  0  0  0  0  0  0  0  0  0
    6.7442    5.9620   22.3138 H   0  0  0  0  0  0  0  0  0  0  0  0
    9.5369    2.8443   23.9451 H   0  0  0  0  0  0  0  0  0  0  0  0
    9.0071    1.8258   22.5642 H   0  0  0  0  0  0  0  0  0  0  0  0
    9.7581   -2.8798   21.3894 H   0  0  0  0  0  0  0  0  0  0  0  0
    8.3906    4.2889   22.2375 H   0  0  0  0  0  0  0  0  0  0  0  0
    8.1081    1.3539   25.3123 H   0  0  0  0  0  0  0  0  0  0  0  0
  1  2  1  0  0  0  0
  1  3  2  0  0  0  0
  2  4  2  0  0  0  0
  3 10  1  0  0  0  0
  4 11  1  0  0  0  0
  5  6  1  0  0  0  0
  5 12  2  0  0  0  0
  6 15  2  0  0  0  0
  7 13  2  0  0  0  0
  7 15  1  0  0  0  0
  8 10  2  0  0  0  0
  8 28  1  0  0  0  0
  9 14  1  0  0  0  0
  9 28  2  0  0  0  0
 10 11  1  0  0  0  0
 11 14  2  0  0  0  0
 12 13  1  0  0  0  0
 12 18  1  0  0  0  0
 13 22  1  0  0  0  0
 14 29  1  0  0  0  0
 15 34  1  0  0  0  0
 16 22  1  0  0  0  0
 16 29  1  0  0  0  0
 16 32  2  0  0  0  0
 17 26  1  0  0  0  0
 17 30  1  0  0  0  0
 17 33  2  0  0  0  0
 18 31  1  0  0  0  0
 19 21  1  0  0  0  0
 19 29  1  0  0  0  0
 20 22  1  0  0  0  0
 20 31  1  0  0  0  0
 21 22  1  0  0  0  0
 21 27  1  1  0  0  0
 23 27  1  0  0  0  0
 24 27  1  0  0  0  0
 25 30  1  0  0  0  0
 26 31  1  1  0  0  0
  1 35  1  0  0  0  0
  2 36  1  0  0  0  0
  3 37  1  0  0  0  0
  4 38  1  0  0  0  0
  5 39  1  0  0  0  0
  6 40  1  0  0  0  0
  7 41  1  0  0  0  0
  8 42  1  0  0  0  0
  9 43  1  0  0  0  0
 18 44  1  0  0  0  0
 18 45  1  0  0  0  0
 19 46  1  0  0  0  0
 19 47  1  0  0  0  0
 20 48  1  0  0  0  0
 20 49  1  0  0  0  0
 21 50  1  0  0  0  0
 23 51  1  0  0  0  0
 23 52  1  0  0  0  0
 23 53  1  0  0  0  0
 24 54  1  0  0  0  0
 24 55  1  0  0  0  0
 24 56  1  0  0  0  0
 25 57  1  0  0  0  0
 25 58  1  0  0  0  0
 25 59  1  0  0  0  0
 26 60  1  0  0  0  0
 26 61  1  0  0  0  0
 27 62  1  0  0  0  0
 30 63  1  0  0  0  0
 31 64  1  0  0  0  0
M  CHG  1  31   1
M  END
> <compound>
MAT-POS-50a80394-6

> <compound_smiles>
CC(C)C1CN(C(=O)C12CN(Cc3c2cc(cc3)Cl)CC(=O)NC)c4cncc5c4cccc5

> <enantiomer_smiles>
CC(C)[C@@H]1CN(C(=O)C12C[N@@](Cc3c2cc(cc3)Cl)CC(=O)NC)c4cncc5c4cccc5

> <scaffold>
tetrahydroisoquinoline-5spiro-isoquinoline

> <clash_score>
0.6913861300036636

> <docking_score>
-7.295842170715332

> <overlap_score>
0.9890912175178528

> <MMFF_internal_energy>
255.5220922516668

> <docked_smiles>
CC(C)[C@@H]1CN(C(=O)[C@@]12C[N@@H+](Cc3c2cc(cc3)Cl)CC(=O)NC)c4cncc5c4cccc5

$$$$
ALP-POS-ecbed2ba-19_3
  -OEChem-12272114573D

 59 63  0     1  0  0  0  0  0999 V2000
    3.3432    2.6279   20.4411 C   0  0  0  0  0  0  0  0  0  0  0  0
    3.8960    1.9291   21.5050 C   0  0  0  0  0  0  0  0  0  0  0  0
    3.7865    2.4205   19.1660 C   0  0  0  0  0  0  0  0  0  0  0  0
    4.8973    1.0233   21.2988 C   0  0  0  0  0  0  0  0  0  0  0  0
   12.0765    0.0316   24.1541 C   0  0  0  0  0  0  0  0  0  0  0  0
   12.9132   -0.6032   23.2569 C   0  0  0  0  0  0  0  0  0  0  0  0
   10.9991   -1.4331   22.0443 C   0  0  0  0  0  0  0  0  0  0  0  0
    5.3278    1.2339   17.6066 C   0  0  0  0  0  0  0  0  0  0  0  0
    6.8438   -0.2892   18.3752 C   0  0  0  0  0  0  0  0  0  0  0  0
    4.8226    1.4906   18.9054 C   0  0  0  0  0  0  0  0  0  0  0  0
    5.3982    0.7733   19.9948 C   0  0  0  0  0  0  0  0  0  0  0  0
   10.7040   -0.0625   23.9898 C   0  0  0  0  0  0  0  0  0  0  0  0
   10.1406   -0.7765   22.9250 C   0  0  0  0  0  0  0  0  0  0  0  0
    6.4440   -0.1472   19.6979 C   0  0  0  0  0  0  0  0  0  0  0  0
   12.3683   -1.3298   22.2234 C   0  0  0  0  0  0  0  0  0  0  0  0
    8.2490    0.0169   21.4271 C   0  0  0  0  0  0  0  0  0  0  0  0
    9.9479    0.5589   24.9534 C   0  0  0  0  0  0  0  0  0  0  0  0
    8.0140   -2.1541   22.4331 C   0  0  0  0  0  0  0  0  0  0  0  0
    6.9866   -1.9366   21.3580 C   0  0  0  0  0  0  0  0  0  0  0  0
    7.8721   -0.1194   23.8831 C   0  0  0  0  0  0  0  0  0  0  0  0
    8.6238   -0.7606   22.6929 C   0  0  3  0  0  0  0  0  0  0  0  0
    8.1000    3.9598   23.6531 C   0  0  0  0  0  0  0  0  0  0  0  0
    8.1016    4.7061   26.0010 C   0  0  0  0  0  0  0  0  0  0  0  0
    8.6289    5.9899   25.3866 C   0  0  0  0  0  0  0  0  0  0  0  0
    6.3062    0.3769   17.3421 N   0  0  0  0  0  0  0  0  0  0  0  0
    7.2292   -0.6897   20.7790 N   0  0  0  0  0  0  0  0  0  0  0  0
    8.6609    1.0133   24.4995 N   0  0  1  0  0  0  0  0  0  0  0  0
    8.3369    3.5738   25.0681 N   0  0  1  0  0  0  0  0  0  0  0  0
    8.8299    1.0397   21.0799 O   0  0  0  0  0  0  0  0  0  0  0  0
    8.2349    1.7566   26.9129 O   0  0  0  0  0  0  0  0  0  0  0  0
    6.3591    1.9089   25.2467 O   0  0  0  0  0  0  0  0  0  0  0  0
   10.0302    5.8720   25.1762 O   0  0  0  0  0  0  0  0  0  0  0  0
    7.7708    2.0177   25.5632 S   0  0  0  0  0  0  0  0  0  0  0  0
   13.4272   -2.1411   21.1086 Cl  0  0  0  0  0  0  0  0  0  0  0  0
    2.5432    3.3510   20.6369 H   0  0  0  0  0  0  0  0  0  0  0  0
    3.5174    2.1137   22.5168 H   0  0  0  0  0  0  0  0  0  0  0  0
    3.3409    2.9743   18.3364 H   0  0  0  0  0  0  0  0  0  0  0  0
    5.3118    0.4895   22.1572 H   0  0  0  0  0  0  0  0  0  0  0  0
   12.5024    0.5995   24.9735 H   0  0  0  0  0  0  0  0  0  0  0  0
   13.9910   -0.5177   23.3793 H   0  0  0  0  0  0  0  0  0  0  0  0
   10.6036   -2.0162   21.2241 H   0  0  0  0  0  0  0  0  0  0  0  0
    4.9141    1.7511   16.7474 H   0  0  0  0  0  0  0  0  0  0  0  0
    7.6445   -0.9764   18.1043 H   0  0  0  0  0  0  0  0  0  0  0  0
    9.7849   -0.1194   25.8306 H   0  0  0  0  0  0  0  0  0  0  0  0
   10.4793    1.4568   25.3613 H   0  0  0  0  0  0  0  0  0  0  0  0
    7.5152   -2.5456   23.3338 H   0  0  0  0  0  0  0  0  0  0  0  0
    8.7649   -2.9030   22.1434 H   0  0  0  0  0  0  0  0  0  0  0  0
    7.0587   -2.7248   20.5721 H   0  0  0  0  0  0  0  0  0  0  0  0
    5.9518   -1.9952   21.7720 H   0  0  0  0  0  0  0  0  0  0  0  0
    6.8867    0.2641   23.5642 H   0  0  0  0  0  0  0  0  0  0  0  0
    7.6652   -0.8660   24.6733 H   0  0  0  0  0  0  0  0  0  0  0  0
    8.2854    3.0940   23.0004 H   0  0  0  0  0  0  0  0  0  0  0  0
    7.0585    4.2926   23.5334 H   0  0  0  0  0  0  0  0  0  0  0  0
    8.7807    4.7788   23.3777 H   0  0  0  0  0  0  0  0  0  0  0  0
    8.6061    4.4821   26.9463 H   0  0  0  0  0  0  0  0  0  0  0  0
    7.0248    4.7833   26.1791 H   0  0  0  0  0  0  0  0  0  0  0  0
    8.4590    6.8290   26.0684 H   0  0  0  0  0  0  0  0  0  0  0  0
    8.1458    6.2054   24.4280 H   0  0  0  0  0  0  0  0  0  0  0  0
   10.3254    6.7096   24.7844 H   0  0  0  0  0  0  0  0  0  0  0  0
  1  2  1  0  0  0  0
  1  3  2  0  0  0  0
  2  4  2  0  0  0  0
  3 10  1  0  0  0  0
  4 11  1  0  0  0  0
  5  6  2  0  0  0  0
  5 12  1  0  0  0  0
  6 15  1  0  0  0  0
  7 13  1  0  0  0  0
  7 15  2  0  0  0  0
  8 10  2  0  0  0  0
  8 25  1  0  0  0  0
  9 14  1  0  0  0  0
  9 25  2  0  0  0  0
 10 11  1  0  0  0  0
 11 14  2  0  0  0  0
 12 13  2  0  0  0  0
 12 17  1  0  0  0  0
 13 21  1  0  0  0  0
 14 26  1  0  0  0  0
 15 34  1  0  0  0  0
 16 21  1  0  0  0  0
 16 26  1  0  0  0  0
 16 29  2  0  0  0  0
 17 27  1  0  0  0  0
 18 19  1  0  0  0  0
 18 21  1  0  0  0  0
 19 26  1  0  0  0  0
 20 21  1  0  0  0  0
 20 27  1  0  0  0  0
 22 28  1  1  0  0  0
 23 24  1  0  0  0  0
 23 28  1  0  0  0  0
 24 32  1  0  0  0  0
 27 33  1  6  0  0  0
 28 33  1  0  0  0  0
 30 33  2  0  0  0  0
 31 33  2  0  0  0  0
  1 35  1  0  0  0  0
  2 36  1  0  0  0  0
  3 37  1  0  0  0  0
  4 38  1  0  0  0  0
  5 39  1  0  0  0  0
  6 40  1  0  0  0  0
  7 41  1  0  0  0  0
  8 42  1  0  0  0  0
  9 43  1  0  0  0  0
 17 44  1  0  0  0  0
 17 45  1  0  0  0  0
 18 46  1  0  0  0  0
 18 47  1  0  0  0  0
 19 48  1  0  0  0  0
 19 49  1  0  0  0  0
 20 50  1  0  0  0  0
 20 51  1  0  0  0  0
 22 52  1  0  0  0  0
 22 53  1  0  0  0  0
 22 54  1  0  0  0  0
 23 55  1  0  0  0  0
 23 56  1  0  0  0  0
 24 57  1  0  0  0  0
 24 58  1  0  0  0  0
 32 59  1  0  0  0  0
M  END
> <compound>
ALP-POS-ecbed2ba-19

> <compound_smiles>
CN(CCO)S(=O)(=O)N1Cc2ccc(cc2C3(C1)CCN(C3=O)c4cncc5c4cccc5)Cl

> <enantiomer_smiles>
C[N@@](CCO)S(=O)(=O)[N@]1Cc2ccc(cc2C3(C1)CCN(C3=O)c4cncc5c4cccc5)Cl

> <scaffold>
tetrahydroisoquinoline-5spiro-isoquinoline

> <clash_score>
0

> <docking_score>
-9.401240348815918

> <overlap_score>
0.9727395176887512

> <MMFF_internal_energy>
-5.943282260127274

> <docked_smiles>
C[N@@](CCO)S(=O)(=O)[N@]1Cc2ccc(cc2[C@]3(C1)CCN(C3=O)c4cncc5c4cccc5)Cl

$$$$
MAT-POS-50a80394-6_2
  -OEChem-12272114573D

 64 68  0     1  0  0  0  0  0999 V2000
    3.3432    2.6279   20.4411 C   0  0  0  0  0  0  0  0  0  0  0  0
    3.8960    1.9291   21.5050 C   0  0  0  0  0  0  0  0  0  0  0  0
    3.7865    2.4205   19.1660 C   0  0  0  0  0  0  0  0  0  0  0  0
    4.8973    1.0233   21.2988 C   0  0  0  0  0  0  0  0  0  0  0  0
   12.0765    0.0316   24.1541 C   0  0  0  0  0  0  0  0  0  0  0  0
   12.9132   -0.6032   23.2569 C   0  0  0  0  0  0  0  0  0  0  0  0
   10.9991   -1.4331   22.0443 C   0  0  0  0  0  0  0  0  0  0  0  0
    5.3278    1.2339   17.6066 C   0  0  0  0  0  0  0  0  0  0  0  0
    6.8438   -0.2892   18.3752 C   0  0  0  0  0  0  0  0  0  0  0  0
    4.8226    1.4906   18.9054 C   0  0  0  0  0  0  0  0  0  0  0  0
    5.3982    0.7733   19.9948 C   0  0  0  0  0  0  0  0  0  0  0  0
   10.7040   -0.0625   23.9898 C   0  0  0  0  0  0  0  0  0  0  0  0
   10.1406   -0.7765   22.9250 C   0  0  0  0  0  0  0  0  0  0  0  0
    6.4440   -0.1472   19.6979 C   0  0  0  0  0  0  0  0  0  0  0  0
   12.3683   -1.3298   22.2234 C   0  0  0  0  0  0  0  0  0  0  0  0
    8.2490    0.0169   21.4271 C   0  0  0  0  0  0  0  0  0  0  0  0
    7.3616    2.6430   23.1451 C   0  0  0  0  0  0  0  0  0  0  0  0
    9.9479    0.5589   24.9534 C   0  0  0  0  0  0  0  0  0  0  0  0
    6.9866   -1.9366   21.3580 C   0  0  0  0  0  0  0  0  0  0  0  0
    7.8721   -0.1194   23.8831 C   0  0  0  0  0  0  0  0  0  0  0  0
    8.0140   -2.1541   22.4331 C   0  0  1  0  0  0  0  0  0  0  0  0
    8.6238   -0.7606   22.6929 C   0  0  3  0  0  0  0  0  0  0  0  0
    6.8718   -4.2657   23.2232 C   0  0  0  0  0  0  0  0  0  0  0  0
    8.4887   -3.0700   24.7264 C   0  0  0  0  0  0  0  0  0  0  0  0
    6.2243    4.3451   21.7499 C   0  0  0  0  0  0  0  0  0  0  0  0
    8.7408    2.1946   23.5588 C   0  0  0  0  0  0  0  0  0  0  0  0
    7.4296   -2.9034   23.6364 C   0  0  0  0  0  0  0  0  0  0  0  0
    6.3062    0.3769   17.3421 N   0  0  0  0  0  0  0  0  0  0  0  0
    7.2292   -0.6897   20.7790 N   0  0  0  0  0  0  0  0  0  0  0  0
    7.4152    3.7316   22.2876 N   0  0  0  0  0  0  0  0  0  0  0  0
    8.6609    1.0133   24.4995 N   0  3  1  0  0  0  0  0  0  0  0  0
    8.7526    1.0953   21.1303 O   0  0  0  0  0  0  0  0  0  0  0  0
    6.3313    2.0969   23.5305 O   0  0  0  0  0  0  0  0  0  0  0  0
   13.4277   -2.1374   21.1064 Cl  0  0  0  0  0  0  0  0  0  0  0  0
    2.5432    3.3510   20.6369 H   0  0  0  0  0  0  0  0  0  0  0  0
    3.5174    2.1137   22.5168 H   0  0  0  0  0  0  0  0  0  0  0  0
    3.3409    2.9743   18.3364 H   0  0  0  0  0  0  0  0  0  0  0  0
    5.3118    0.4895   22.1572 H   0  0  0  0  0  0  0  0  0  0  0  0
   12.5029    0.5960   24.9750 H   0  0  0  0  0  0  0  0  0  0  0  0
   13.9913   -0.5164   23.3787 H   0  0  0  0  0  0  0  0  0  0  0  0
   10.6068   -2.0161   21.2243 H   0  0  0  0  0  0  0  0  0  0  0  0
    4.9141    1.7511   16.7474 H   0  0  0  0  0  0  0  0  0  0  0  0
    7.6445   -0.9764   18.1043 H   0  0  0  0  0  0  0  0  0  0  0  0
    9.7375   -0.1148   25.8249 H   0  0  0  0  0  0  0  0  0  0  0  0
   10.4772    1.4534   25.3761 H   0  0  0  0  0  0  0  0  0  0  0  0
    7.0297   -2.7469   20.5879 H   0  0  0  0  0  0  0  0  0  0  0  0
    5.9441   -1.9496   21.7626 H   0  0  0  0  0  0  0  0  0  0  0  0
    6.9074    0.3116   23.5753 H   0  0  0  0  0  0  0  0  0  0  0  0
    7.6662   -0.8455   24.6807 H   0  0  0  0  0  0  0  0  0  0  0  0
    8.7865   -2.8279   22.0143 H   0  0  0  0  0  0  0  0  0  0  0  0
    7.6557   -4.9042   22.8014 H   0  0  0  0  0  0  0  0  0  0  0  0
    6.0871   -4.1497   22.4682 H   0  0  0  0  0  0  0  0  0  0  0  0
    6.4357   -4.7873   24.0817 H   0  0  0  0  0  0  0  0  0  0  0  0
    9.3392   -3.6592   24.3667 H   0  0  0  0  0  0  0  0  0  0  0  0
    8.0722   -3.5768   25.6034 H   0  0  0  0  0  0  0  0  0  0  0  0
    8.8659   -2.0946   25.0515 H   0  0  0  0  0  0  0  0  0  0  0  0
    5.9733    3.8774   20.7864 H   0  0  0  0  0  0  0  0  0  0  0  0
    5.3903    4.2054   22.4534 H   0  0  0  0  0  0  0  0  0  0  0  0
    6.4015    5.4204   21.6002 H   0  0  0  0  0  0  0  0  0  0  0  0
    9.2672    3.0025   24.0746 H   0  0  0  0  0  0  0  0  0  0  0  0
    9.3112    1.8642   22.6863 H   0  0  0  0  0  0  0  0  0  0  0  0
    6.6044   -2.3079   24.0502 H   0  0  0  0  0  0  0  0  0  0  0  0
    8.3156    4.1328   22.0415 H   0  0  0  0  0  0  0  0  0  0  0  0
    8.1217    1.3533   25.3127 H   0  0  0  0  0  0  0  0  0  0  0  0
  1  2  1  0  0  0  0
  1  3  2  0  0  0  0
  2  4  2  0  0  0  0
  3 10  1  0  0  0  0
  4 11  1  0  0  0  0
  5  6  1  0  0  0  0
  5 12  2  0  0  0  0
  6 15  2  0  0  0  0
  7 13  2  0  0  0  0
  7 15  1  0  0  0  0
  8 10  2  0  0  0  0
  8 28  1  0  0  0  0
  9 14  1  0  0  0  0
  9 28  2  0  0  0  0
 10 11  1  0  0  0  0
 11 14  2  0  0  0  0
 12 13  1  0  0  0  0
 12 18  1  0  0  0  0
 13 22  1  0  0  0  0
 14 29  1  0  0  0  0
 15 34  1  0  0  0  0
 16 22  1  0  0  0  0
 16 29  1  0  0  0  0
 16 32  2  0  0  0  0
 17 26  1  0  0  0  0
 17 30  1  0  0  0  0
 17 33  2  0  0  0  0
 18 31  1  0  0  0  0
 19 21  1  0  0  0  0
 19 29  1  0  0  0  0
 20 22  1  0  0  0  0
 20 31  1  0  0  0  0
 21 22  1  0  0  0  0
 21 27  1  6  0  0  0
 23 27  1  0  0  0  0
 24 27  1  0  0  0  0
 25 30  1  0  0  0  0
 26 31  1  1  0  0  0
  1 35  1  0  0  0  0
  2 36  1  0  0  0  0
  3 37  1  0  0  0  0
  4 38  1  0  0  0  0
  5 39  1  0  0  0  0
  6 40  1  0  0  0  0
  7 41  1  0  0  0  0
  8 42  1  0  0  0  0
  9 43  1  0  0  0  0
 18 44  1  0  0  0  0
 18 45  1  0  0  0  0
 19 46  1  0  0  0  0
 19 47  1  0  0  0  0
 20 48  1  0  0  0  0
 20 49  1  0  0  0  0
 21 50  1  0  0  0  0
 23 51  1  0  0  0  0
 23 52  1  0  0  0  0
 23 53  1  0  0  0  0
 24 54  1  0  0  0  0
 24 55  1  0  0  0  0
 24 56  1  0  0  0  0
 25 57  1  0  0  0  0
 25 58  1  0  0  0  0
 25 59  1  0  0  0  0
 26 60  1  0  0  0  0
 26 61  1  0  0  0  0
 27 62  1  0  0  0  0
 30 63  1  0  0  0  0
 31 64  1  0  0  0  0
M  CHG  1  31   1
M  END
> <compound>
MAT-POS-50a80394-6

> <compound_smiles>
CC(C)C1CN(C(=O)C12CN(Cc3c2cc(cc3)Cl)CC(=O)NC)c4cncc5c4cccc5

> <enantiomer_smiles>
CC(C)[C@H]1CN(C(=O)C12C[N@@](Cc3c2cc(cc3)Cl)CC(=O)NC)c4cncc5c4cccc5

> <scaffold>
tetrahydroisoquinoline-5spiro-isoquinoline

> <clash_score>
0

> <docking_score>
-10.65787124633789

> <overlap_score>
0.9907087683677673

> <MMFF_internal_energy>
191.25822923946274

> <docked_smiles>
CC(C)[C@H]1CN(C(=O)[C@@]12C[N@@H+](Cc3c2cc(cc3)Cl)CC(=O)NC)c4cncc5c4cccc5

$$$$
MAT-POS-50a80394-6_3
  -OEChem-12272114573D

 64 68  0     1  0  0  0  0  0999 V2000
    3.3432    2.6279   20.4411 C   0  0  0  0  0  0  0  0  0  0  0  0
    3.8960    1.9291   21.5050 C   0  0  0  0  0  0  0  0  0  0  0  0
    3.7865    2.4205   19.1660 C   0  0  0  0  0  0  0  0  0  0  0  0
    4.8973    1.0233   21.2988 C   0  0  0  0  0  0  0  0  0  0  0  0
   12.0765    0.0316   24.1541 C   0  0  0  0  0  0  0  0  0  0  0  0
   12.9132   -0.6032   23.2569 C   0  0  0  0  0  0  0  0  0  0  0  0
   10.9991   -1.4331   22.0443 C   0  0  0  0  0  0  0  0  0  0  0  0
    5.3278    1.2339   17.6066 C   0  0  0  0  0  0  0  0  0  0  0  0
    6.8438   -0.2892   18.3752 C   0  0  0  0  0  0  0  0  0  0  0  0
    4.8226    1.4906   18.9054 C   0  0  0  0  0  0  0  0  0  0  0  0
    5.3982    0.7733   19.9948 C   0  0  0  0  0  0  0  0  0  0  0  0
   10.7040   -0.0625   23.9898 C   0  0  0  0  0  0  0  0  0  0  0  0
   10.1406   -0.7765   22.9250 C   0  0  0  0  0  0  0  0  0  0  0  0
    6.4440   -0.1472   19.6979 C   0  0  0  0  0  0  0  0  0  0  0  0
   12.3683   -1.3298   22.2234 C   0  0  0  0  0  0  0  0  0  0  0  0
    8.2490    0.0169   21.4271 C   0  0  0  0  0  0  0  0  0  0  0  0
    6.8037    2.5965   24.9622 C   0  0  0  0  0  0  0  0  0  0  0  0
    9.9479    0.5589   24.9534 C   0  0  0  0  0  0  0  0  0  0  0  0
    6.9866   -1.9366   21.3580 C   0  0  0  0  0  0  0  0  0  0  0  0
    7.8721   -0.1194   23.8831 C   0  0  0  0  0  0  0  0  0  0  0  0
    8.0140   -2.1541   22.4331 C   0  0  2  0  0  0  0  0  0  0  0  0
    8.6238   -0.7606   22.6929 C   0  0  3  0  0  0  0  0  0  0  0  0
    9.6961   -3.7902   23.3317 C   0  0  0  0  0  0  0  0  0  0  0  0
    8.2416   -4.4410   21.3915 C   0  0  0  0  0  0  0  0  0  0  0  0
    6.5615    4.5744   23.4902 C   0  0  0  0  0  0  0  0  0  0  0  0
    7.8595    1.7112   25.5752 C   0  0  0  0  0  0  0  0  0  0  0  0
    8.9794   -3.2907   22.0769 C   0  0  0  0  0  0  0  0  0  0  0  0
    6.3062    0.3769   17.3421 N   0  0  0  0  0  0  0  0  0  0  0  0
    7.2292   -0.6897   20.7790 N   0  0  0  0  0  0  0  0  0  0  0  0
    7.3662    3.5980   24.1852 N   0  0  0  0  0  0  0  0  0  0  0  0
    8.6609    1.0133   24.4995 N   0  3  2  0  0  0  0  0  0  0  0  0
    8.8273    1.0393   21.0736 O   0  0  0  0  0  0  0  0  0  0  0  0
    5.5997    2.4325   25.1407 O   0  0  0  0  0  0  0  0  0  0  0  0
   13.4276   -2.1462   21.1127 Cl  0  0  0  0  0  0  0  0  0  0  0  0
    2.5432    3.3510   20.6369 H   0  0  0  0  0  0  0  0  0  0  0  0
    3.5174    2.1137   22.5168 H   0  0  0  0  0  0  0  0  0  0  0  0
    3.3409    2.9743   18.3364 H   0  0  0  0  0  0  0  0  0  0  0  0
    5.3118    0.4895   22.1572 H   0  0  0  0  0  0  0  0  0  0  0  0
   12.5030    0.5945   24.9759 H   0  0  0  0  0  0  0  0  0  0  0  0
   13.9913   -0.5220   23.3825 H   0  0  0  0  0  0  0  0  0  0  0  0
   10.6065   -2.0229   21.2292 H   0  0  0  0  0  0  0  0  0  0  0  0
    4.9141    1.7511   16.7474 H   0  0  0  0  0  0  0  0  0  0  0  0
    7.6445   -0.9764   18.1043 H   0  0  0  0  0  0  0  0  0  0  0  0
    9.7627   -0.1179   25.8290 H   0  0  0  0  0  0  0  0  0  0  0  0
   10.4567    1.4675   25.3699 H   0  0  0  0  0  0  0  0  0  0  0  0
    7.0367   -2.7204   20.5618 H   0  0  0  0  0  0  0  0  0  0  0  0
    5.9493   -1.9848   21.7743 H   0  0  0  0  0  0  0  0  0  0  0  0
    6.8965    0.2867   23.5848 H   0  0  0  0  0  0  0  0  0  0  0  0
    7.6923   -0.8433   24.6922 H   0  0  0  0  0  0  0  0  0  0  0  0
    7.4732   -2.4994   23.3360 H   0  0  0  0  0  0  0  0  0  0  0  0
    8.9843   -4.1853   24.0647 H   0  0  0  0  0  0  0  0  0  0  0  0
   10.2556   -2.9778   23.8071 H   0  0  0  0  0  0  0  0  0  0  0  0
   10.4064   -4.5869   23.0862 H   0  0  0  0  0  0  0  0  0  0  0  0
    7.4699   -4.8629   22.0444 H   0  0  0  0  0  0  0  0  0  0  0  0
    8.9341   -5.2455   21.1219 H   0  0  0  0  0  0  0  0  0  0  0  0
    7.7558   -4.0960   20.4725 H   0  0  0  0  0  0  0  0  0  0  0  0
    6.3417    4.2132   22.4747 H   0  0  0  0  0  0  0  0  0  0  0  0
    5.6193    4.7285   24.0364 H   0  0  0  0  0  0  0  0  0  0  0  0
    7.1104    5.5258   23.4300 H   0  0  0  0  0  0  0  0  0  0  0  0
    7.3970    0.9288   26.1833 H   0  0  0  0  0  0  0  0  0  0  0  0
    8.5501    2.3054   26.1800 H   0  0  0  0  0  0  0  0  0  0  0  0
    9.7375   -2.9078   21.3803 H   0  0  0  0  0  0  0  0  0  0  0  0
    8.3772    3.6702   24.1143 H   0  0  0  0  0  0  0  0  0  0  0  0
    8.7993    1.7244   23.7628 H   0  0  0  0  0  0  0  0  0  0  0  0
  1  2  1  0  0  0  0
  1  3  2  0  0  0  0
  2  4  2  0  0  0  0
  3 10  1  0  0  0  0
  4 11  1  0  0  0  0
  5  6  1  0  0  0  0
  5 12  2  0  0  0  0
  6 15  2  0  0  0  0
  7 13  2  0  0  0  0
  7 15  1  0  0  0  0
  8 10  2  0  0  0  0
  8 28  1  0  0  0  0
  9 14  1  0  0  0  0
  9 28  2  0  0  0  0
 10 11  1  0  0  0  0
 11 14  2  0  0  0  0
 12 13  1  0  0  0  0
 12 18  1  0  0  0  0
 13 22  1  0  0  0  0
 14 29  1  0  0  0  0
 15 34  1  0  0  0  0
 16 22  1  0  0  0  0
 16 29  1  0  0  0  0
 16 32  2  0  0  0  0
 17 26  1  0  0  0  0
 17 30  1  0  0  0  0
 17 33  2  0  0  0  0
 18 31  1  0  0  0  0
 19 21  1  0  0  0  0
 19 29  1  0  0  0  0
 20 22  1  0  0  0  0
 20 31  1  0  0  0  0
 21 22  1  0  0  0  0
 21 27  1  1  0  0  0
 23 27  1  0  0  0  0
 24 27  1  0  0  0  0
 25 30  1  0  0  0  0
 26 31  1  6  0  0  0
  1 35  1  0  0  0  0
  2 36  1  0  0  0  0
  3 37  1  0  0  0  0
  4 38  1  0  0  0  0
  5 39  1  0  0  0  0
  6 40  1  0  0  0  0
  7 41  1  0  0  0  0
  8 42  1  0  0  0  0
  9 43  1  0  0  0  0
 18 44  1  0  0  0  0
 18 45  1  0  0  0  0
 19 46  1  0  0  0  0
 19 47  1  0  0  0  0
 20 48  1  0  0  0  0
 20 49  1  0  0  0  0
 21 50  1  0  0  0  0
 23 51  1  0  0  0  0
 23 52  1  0  0  0  0
 23 53  1  0  0  0  0
 24 54  1  0  0  0  0
 24 55  1  0  0  0  0
 24 56  1  0  0  0  0
 25 57  1  0  0  0  0
 25 58  1  0  0  0  0
 25 59  1  0  0  0  0
 26 60  1  0  0  0  0
 26 61  1  0  0  0  0
 27 62  1  0  0  0  0
 30 63  1  0  0  0  0
 31 64  1  0  0  0  0
M  CHG  1  31   1
M  END
> <compound>
MAT-POS-50a80394-6

> <compound_smiles>
CC(C)C1CN(C(=O)C12CN(Cc3c2cc(cc3)Cl)CC(=O)NC)c4cncc5c4cccc5

> <enantiomer_smiles>
CC(C)[C@@H]1CN(C(=O)C12C[N@](Cc3c2cc(cc3)Cl)CC(=O)NC)c4cncc5c4cccc5

> <scaffold>
tetrahydroisoquinoline-5spiro-isoquinoline

> <clash_score>
0.694390223908446

> <docking_score>
-6.790356636047363

> <overlap_score>
0.9866841435432434

> <MMFF_internal_energy>
237.39753308333468

> <docked_smiles>
CC(C)[C@@H]1CN(C(=O)[C@@]12C[N@H+](Cc3c2cc(cc3)Cl)CC(=O)NC)c4cncc5c4cccc5

$$$$
PET-UNK-94036022-3_2
  -OEChem-12272114573D

 57 62  0     1  0  0  0  0  0999 V2000
    3.3432    2.6279   20.4411 C   0  0  0  0  0  0  0  0  0  0  0  0
    3.8960    1.9291   21.5050 C   0  0  0  0  0  0  0  0  0  0  0  0
    3.7865    2.4205   19.1660 C   0  0  0  0  0  0  0  0  0  0  0  0
    4.8973    1.0233   21.2988 C   0  0  0  0  0  0  0  0  0  0  0  0
   12.0765    0.0316   24.1541 C   0  0  0  0  0  0  0  0  0  0  0  0
   12.9132   -0.6032   23.2569 C   0  0  0  0  0  0  0  0  0  0  0  0
   10.9991   -1.4331   22.0443 C   0  0  0  0  0  0  0  0  0  0  0  0
    5.3278    1.2339   17.6066 C   0  0  0  0  0  0  0  0  0  0  0  0
    6.8438   -0.2892   18.3752 C   0  0  0  0  0  0  0  0  0  0  0  0
    4.8226    1.4906   18.9054 C   0  0  0  0  0  0  0  0  0  0  0  0
    5.3982    0.7733   19.9948 C   0  0  0  0  0  0  0  0  0  0  0  0
   10.7040   -0.0625   23.9898 C   0  0  0  0  0  0  0  0  0  0  0  0
   10.1406   -0.7765   22.9250 C   0  0  0  0  0  0  0  0  0  0  0  0
    6.4440   -0.1472   19.6979 C   0  0  0  0  0  0  0  0  0  0  0  0
   12.3683   -1.3298   22.2234 C   0  0  0  0  0  0  0  0  0  0  0  0
    8.2490    0.0169   21.4271 C   0  0  0  0  0  0  0  0  0  0  0  0
    9.9479    0.5589   24.9534 C   0  0  0  0  0  0  0  0  0  0  0  0
    9.7442    3.0496   22.9049 C   0  0  0  0  0  0  0  0  0  0  0  0
    9.5900    4.5423   22.9550 C   0  0  0  0  0  0  0  0  0  0  0  0
    8.0140   -2.1541   22.4331 C   0  0  0  0  0  0  0  0  0  0  0  0
    6.9866   -1.9366   21.3580 C   0  0  0  0  0  0  0  0  0  0  0  0
    7.8721   -0.1194   23.8831 C   0  0  0  0  0  0  0  0  0  0  0  0
    8.6238   -0.7606   22.6929 C   0  0  1  0  0  0  0  0  0  0  0  0
    8.5207    3.6567   23.5478 C   0  0  0  0  0  0  0  0  0  0  0  0
    8.3755    3.5895   25.0516 C   0  0  0  0  0  0  0  0  0  0  0  0
    6.3062    0.3769   17.3421 N   0  0  0  0  0  0  0  0  0  0  0  0
    7.2292   -0.6897   20.7790 N   0  0  0  0  0  0  0  0  0  0  0  0
    8.6609    1.0133   24.4995 N   0  0  2  0  0  0  0  0  0  0  0  0
    8.7588    1.0926   21.1315 O   0  0  0  0  0  0  0  0  0  0  0  0
    8.2494    1.7666   26.9193 O   0  0  0  0  0  0  0  0  0  0  0  0
    6.3609    1.9371   25.2489 O   0  0  0  0  0  0  0  0  0  0  0  0
    7.7681    2.0072   25.5765 S   0  0  0  0  0  0  0  0  0  0  0  0
   13.4284   -2.1375   21.1073 Cl  0  0  0  0  0  0  0  0  0  0  0  0
    6.9952    3.5292   22.6504 Cl  0  0  0  0  0  0  0  0  0  0  0  0
    2.5432    3.3510   20.6369 H   0  0  0  0  0  0  0  0  0  0  0  0
    3.5174    2.1137   22.5168 H   0  0  0  0  0  0  0  0  0  0  0  0
    3.3409    2.9743   18.3364 H   0  0  0  0  0  0  0  0  0  0  0  0
    5.3118    0.4895   22.1572 H   0  0  0  0  0  0  0  0  0  0  0  0
   12.5035    0.6053   24.9687 H   0  0  0  0  0  0  0  0  0  0  0  0
   13.9915   -0.5091   23.3734 H   0  0  0  0  0  0  0  0  0  0  0  0
   10.6130   -2.0083   21.2173 H   0  0  0  0  0  0  0  0  0  0  0  0
    4.9141    1.7511   16.7474 H   0  0  0  0  0  0  0  0  0  0  0  0
    7.6445   -0.9764   18.1043 H   0  0  0  0  0  0  0  0  0  0  0  0
    9.7904   -0.1142   25.8401 H   0  0  0  0  0  0  0  0  0  0  0  0
   10.4809    1.4598   25.3620 H   0  0  0  0  0  0  0  0  0  0  0  0
    9.6443    2.5670   21.9398 H   0  0  0  0  0  0  0  0  0  0  0  0
   10.4961    2.6006   23.5432 H   0  0  0  0  0  0  0  0  0  0  0  0
   10.2381    5.0921   23.6273 H   0  0  0  0  0  0  0  0  0  0  0  0
    9.3870    5.0574   22.0235 H   0  0  0  0  0  0  0  0  0  0  0  0
    7.5755   -2.6005   23.3392 H   0  0  0  0  0  0  0  0  0  0  0  0
    8.7528   -2.8828   22.0695 H   0  0  0  0  0  0  0  0  0  0  0  0
    7.0226   -2.7507   20.5946 H   0  0  0  0  0  0  0  0  0  0  0  0
    5.9544   -1.9486   21.7821 H   0  0  0  0  0  0  0  0  0  0  0  0
    6.8938    0.2792   23.5661 H   0  0  0  0  0  0  0  0  0  0  0  0
    7.6737   -0.8615   24.6765 H   0  0  0  0  0  0  0  0  0  0  0  0
    7.6675    4.3417   25.4104 H   0  0  0  0  0  0  0  0  0  0  0  0
    9.3385    3.7452   25.5452 H   0  0  0  0  0  0  0  0  0  0  0  0
  1  2  1  0  0  0  0
  1  3  2  0  0  0  0
  2  4  2  0  0  0  0
  3 10  1  0  0  0  0
  4 11  1  0  0  0  0
  5  6  1  0  0  0  0
  5 12  2  0  0  0  0
  6 15  2  0  0  0  0
  7 13  2  0  0  0  0
  7 15  1  0  0  0  0
  8 10  2  0  0  0  0
  8 26  1  0  0  0  0
  9 14  1  0  0  0  0
  9 26  2  0  0  0  0
 10 11  1  0  0  0  0
 11 14  2  0  0  0  0
 12 13  1  0  0  0  0
 12 17  1  0  0  0  0
 13 23  1  6  0  0  0
 14 27  1  0  0  0  0
 15 33  1  0  0  0  0
 16 23  1  1  0  0  0
 16 27  1  0  0  0  0
 16 29  2  0  0  0  0
 17 28  1  0  0  0  0
 18 19  1  0  0  0  0
 18 24  1  0  0  0  0
 19 24  1  0  0  0  0
 20 21  1  0  0  0  0
 20 23  1  1  0  0  0
 21 27  1  0  0  0  0
 22 23  1  6  0  0  0
 22 28  1  0  0  0  0
 24 25  1  0  0  0  0
 24 34  1  0  0  0  0
 25 32  1  0  0  0  0
 28 32  1  6  0  0  0
 30 32  2  0  0  0  0
 31 32  2  0  0  0  0
  1 35  1  0  0  0  0
  2 36  1  0  0  0  0
  3 37  1  0  0  0  0
  4 38  1  0  0  0  0
  5 39  1  0  0  0  0
  6 40  1  0  0  0  0
  7 41  1  0  0  0  0
  8 42  1  0  0  0  0
  9 43  1  0  0  0  0
 17 44  1  0  0  0  0
 17 45  1  0  0  0  0
 18 46  1  0  0  0  0
 18 47  1  0  0  0  0
 19 48  1  0  0  0  0
 19 49  1  0  0  0  0
 20 50  1  0  0  0  0
 20 51  1  0  0  0  0
 21 52  1  0  0  0  0
 21 53  1  0  0  0  0
 22 54  1  0  0  0  0
 22 55  1  0  0  0  0
 25 56  1  0  0  0  0
 25 57  1  0  0  0  0
M  END
> <compound>
PET-UNK-94036022-3

> <compound_smiles>
c1ccc2c(c1)cncc2N3CC[C@@]4(C3=O)CN(Cc5c4cc(cc5)Cl)S(=O)(=O)CC6(CC6)Cl

> <enantiomer_smiles>
c1ccc2c(c1)cncc2N3CC[C@@]4(C3=O)C[N@](Cc5c4cc(cc5)Cl)S(=O)(=O)CC6(CC6)Cl

> <scaffold>
tetrahydroisoquinoline-5spiro-isoquinoline

> <clash_score>
0

> <docking_score>
-8.904086112976074

> <overlap_score>
0.9749764204025269

> <MMFF_internal_energy>
118.54303280107474

> <docked_smiles>
c1ccc2c(c1)cncc2N3CC[C@@]4(C3=O)C[N@](Cc5c4cc(cc5)Cl)S(=O)(=O)CC6(CC6)Cl

$$$$
PET-UNK-94036022-10_1
  -OEChem-12272114573D

 57 62  0     1  0  0  0  0  0999 V2000
    3.3432    2.6279   20.4411 C   0  0  0  0  0  0  0  0  0  0  0  0
    3.8960    1.9291   21.5050 C   0  0  0  0  0  0  0  0  0  0  0  0
    3.7865    2.4205   19.1660 C   0  0  0  0  0  0  0  0  0  0  0  0
    4.8973    1.0233   21.2988 C   0  0  0  0  0  0  0  0  0  0  0  0
   12.0765    0.0316   24.1541 C   0  0  0  0  0  0  0  0  0  0  0  0
   12.9132   -0.6032   23.2569 C   0  0  0  0  0  0  0  0  0  0  0  0
   10.9991   -1.4331   22.0443 C   0  0  0  0  0  0  0  0  0  0  0  0
    5.3278    1.2339   17.6066 C   0  0  0  0  0  0  0  0  0  0  0  0
    6.8438   -0.2892   18.3752 C   0  0  0  0  0  0  0  0  0  0  0  0
    4.8226    1.4906   18.9054 C   0  0  0  0  0  0  0  0  0  0  0  0
    5.3982    0.7733   19.9948 C   0  0  0  0  0  0  0  0  0  0  0  0
   10.7040   -0.0625   23.9898 C   0  0  0  0  0  0  0  0  0  0  0  0
   10.1406   -0.7765   22.9250 C   0  0  0  0  0  0  0  0  0  0  0  0
    6.4440   -0.1472   19.6979 C   0  0  0  0  0  0  0  0  0  0  0  0
   12.3683   -1.3298   22.2234 C   0  0  0  0  0  0  0  0  0  0  0  0
    8.2490    0.0169   21.4271 C   0  0  0  0  0  0  0  0  0  0  0  0
    9.9479    0.5589   24.9534 C   0  0  0  0  0  0  0  0  0  0  0  0
    9.6022    5.7701   24.2221 C   0  0  0  0  0  0  0  0  0  0  0  0
    8.8113    6.1223   25.4488 C   0  0  0  0  0  0  0  0  0  0  0  0
    8.0140   -2.1541   22.4331 C   0  0  0  0  0  0  0  0  0  0  0  0
    6.9866   -1.9366   21.3580 C   0  0  0  0  0  0  0  0  0  0  0  0
    7.8721   -0.1194   23.8831 C   0  0  0  0  0  0  0  0  0  0  0  0
    8.6238   -0.7606   22.6929 C   0  0  3  0  0  0  0  0  0  0  0  0
    8.3214    5.0316   24.5273 C   0  0  0  0  0  0  0  0  0  0  0  0
    8.3989    3.5932   24.9882 C   0  0  0  0  0  0  0  0  0  0  0  0
    6.3062    0.3769   17.3421 N   0  0  0  0  0  0  0  0  0  0  0  0
    7.2292   -0.6897   20.7790 N   0  0  0  0  0  0  0  0  0  0  0  0
    8.6609    1.0133   24.4995 N   0  0  1  0  0  0  0  0  0  0  0  0
    8.7572    1.0941   21.1350 O   0  0  0  0  0  0  0  0  0  0  0  0
    7.4179    2.5201   22.8172 O   0  0  0  0  0  0  0  0  0  0  0  0
    9.9251    2.7322   23.0499 O   0  0  0  0  0  0  0  0  0  0  0  0
    8.6198    2.4832   23.6217 S   0  0  0  0  0  0  0  0  0  0  0  0
   13.4275   -2.1421   21.1097 Cl  0  0  0  0  0  0  0  0  0  0  0  0
    6.9155    5.4089   23.5125 Cl  0  0  0  0  0  0  0  0  0  0  0  0
    2.5432    3.3510   20.6369 H   0  0  0  0  0  0  0  0  0  0  0  0
    3.5174    2.1137   22.5168 H   0  0  0  0  0  0  0  0  0  0  0  0
    3.3409    2.9743   18.3364 H   0  0  0  0  0  0  0  0  0  0  0  0
    5.3118    0.4895   22.1572 H   0  0  0  0  0  0  0  0  0  0  0  0
   12.5015    0.5938   24.9776 H   0  0  0  0  0  0  0  0  0  0  0  0
   13.9911   -0.5212   23.3814 H   0  0  0  0  0  0  0  0  0  0  0  0
   10.6037   -2.0228   21.2288 H   0  0  0  0  0  0  0  0  0  0  0  0
    4.9141    1.7511   16.7474 H   0  0  0  0  0  0  0  0  0  0  0  0
    7.6445   -0.9764   18.1043 H   0  0  0  0  0  0  0  0  0  0  0  0
    9.7581   -0.1287   25.8173 H   0  0  0  0  0  0  0  0  0  0  0  0
   10.4931    1.4391   25.3829 H   0  0  0  0  0  0  0  0  0  0  0  0
    9.6130    6.4867   23.4093 H   0  0  0  0  0  0  0  0  0  0  0  0
   10.5443    5.2535   24.3631 H   0  0  0  0  0  0  0  0  0  0  0  0
    9.2238    5.8409   26.4106 H   0  0  0  0  0  0  0  0  0  0  0  0
    8.2935    7.0742   25.4560 H   0  0  0  0  0  0  0  0  0  0  0  0
    7.5801   -2.6060   23.3366 H   0  0  0  0  0  0  0  0  0  0  0  0
    8.7749   -2.8608   22.0657 H   0  0  0  0  0  0  0  0  0  0  0  0
    7.0227   -2.7506   20.5953 H   0  0  0  0  0  0  0  0  0  0  0  0
    5.9554   -1.9484   21.7832 H   0  0  0  0  0  0  0  0  0  0  0  0
    6.8886    0.2769   23.5666 H   0  0  0  0  0  0  0  0  0  0  0  0
    7.6579   -0.8710   24.6633 H   0  0  0  0  0  0  0  0  0  0  0  0
    7.4792    3.2960   25.4995 H   0  0  0  0  0  0  0  0  0  0  0  0
    9.2447    3.4440   25.6648 H   0  0  0  0  0  0  0  0  0  0  0  0
  1  2  1  0  0  0  0
  1  3  2  0  0  0  0
  2  4  2  0  0  0  0
  3 10  1  0  0  0  0
  4 11  1  0  0  0  0
  5  6  1  0  0  0  0
  5 12  2  0  0  0  0
  6 15  2  0  0  0  0
  7 13  2  0  0  0  0
  7 15  1  0  0  0  0
  8 10  2  0  0  0  0
  8 26  1  0  0  0  0
  9 14  1  0  0  0  0
  9 26  2  0  0  0  0
 10 11  1  0  0  0  0
 11 14  2  0  0  0  0
 12 13  1  0  0  0  0
 12 17  1  0  0  0  0
 13 23  1  0  0  0  0
 14 27  1  0  0  0  0
 15 33  1  0  0  0  0
 16 23  1  0  0  0  0
 16 27  1  0  0  0  0
 16 29  2  0  0  0  0
 17 28  1  0  0  0  0
 18 19  1  0  0  0  0
 18 24  1  0  0  0  0
 19 24  1  0  0  0  0
 20 21  1  0  0  0  0
 20 23  1  0  0  0  0
 21 27  1  0  0  0  0
 22 23  1  0  0  0  0
 22 28  1  0  0  0  0
 24 25  1  0  0  0  0
 24 34  1  0  0  0  0
 25 32  1  0  0  0  0
 28 32  1  1  0  0  0
 30 32  2  0  0  0  0
 31 32  2  0  0  0  0
  1 35  1  0  0  0  0
  2 36  1  0  0  0  0
  3 37  1  0  0  0  0
  4 38  1  0  0  0  0
  5 39  1  0  0  0  0
  6 40  1  0  0  0  0
  7 41  1  0  0  0  0
  8 42  1  0  0  0  0
  9 43  1  0  0  0  0
 17 44  1  0  0  0  0
 17 45  1  0  0  0  0
 18 46  1  0  0  0  0
 18 47  1  0  0  0  0
 19 48  1  0  0  0  0
 19 49  1  0  0  0  0
 20 50  1  0  0  0  0
 20 51  1  0  0  0  0
 21 52  1  0  0  0  0
 21 53  1  0  0  0  0
 22 54  1  0  0  0  0
 22 55  1  0  0  0  0
 25 56  1  0  0  0  0
 25 57  1  0  0  0  0
M  END
> <compound>
PET-UNK-94036022-10

> <compound_smiles>
c1ccc2c(c1)cncc2N3CCC4(C3=O)CN(Cc5c4cc(cc5)Cl)S(=O)(=O)CC6(CC6)Cl

> <enantiomer_smiles>
c1ccc2c(c1)cncc2N3CCC4(C3=O)C[N@@](Cc5c4cc(cc5)Cl)S(=O)(=O)CC6(CC6)Cl

> <scaffold>
tetrahydroisoquinoline-5spiro-isoquinoline

> <clash_score>
0

> <docking_score>
-9.236781120300293

> <overlap_score>
0.9757633805274963

> <MMFF_internal_energy>
121.58059421389267

> <docked_smiles>
c1ccc2c(c1)cncc2N3CC[C@@]4(C3=O)C[N@@](Cc5c4cc(cc5)Cl)S(=O)(=O)CC6(CC6)Cl

$$$$
PET-UNK-94036022-3_1
  -OEChem-12272114573D

 57 62  0     1  0  0  0  0  0999 V2000
    3.3432    2.6279   20.4411 C   0  0  0  0  0  0  0  0  0  0  0  0
    3.8960    1.9291   21.5050 C   0  0  0  0  0  0  0  0  0  0  0  0
    3.7865    2.4205   19.1660 C   0  0  0  0  0  0  0  0  0  0  0  0
    4.8973    1.0233   21.2988 C   0  0  0  0  0  0  0  0  0  0  0  0
   12.0765    0.0316   24.1541 C   0  0  0  0  0  0  0  0  0  0  0  0
   12.9132   -0.6032   23.2569 C   0  0  0  0  0  0  0  0  0  0  0  0
   10.9991   -1.4331   22.0443 C   0  0  0  0  0  0  0  0  0  0  0  0
    5.3278    1.2339   17.6066 C   0  0  0  0  0  0  0  0  0  0  0  0
    6.8438   -0.2892   18.3752 C   0  0  0  0  0  0  0  0  0  0  0  0
    4.8226    1.4906   18.9054 C   0  0  0  0  0  0  0  0  0  0  0  0
    5.3982    0.7733   19.9948 C   0  0  0  0  0  0  0  0  0  0  0  0
   10.7040   -0.0625   23.9898 C   0  0  0  0  0  0  0  0  0  0  0  0
   10.1406   -0.7765   22.9250 C   0  0  0  0  0  0  0  0  0  0  0  0
    6.4440   -0.1472   19.6979 C   0  0  0  0  0  0  0  0  0  0  0  0
   12.3683   -1.3298   22.2234 C   0  0  0  0  0  0  0  0  0  0  0  0
    8.2490    0.0169   21.4271 C   0  0  0  0  0  0  0  0  0  0  0  0
    9.9479    0.5589   24.9534 C   0  0  0  0  0  0  0  0  0  0  0  0
    9.5994    5.7706   24.2264 C   0  0  0  0  0  0  0  0  0  0  0  0
    8.8081    6.1213   25.4534 C   0  0  0  0  0  0  0  0  0  0  0  0
    8.0140   -2.1541   22.4331 C   0  0  0  0  0  0  0  0  0  0  0  0
    6.9866   -1.9366   21.3580 C   0  0  0  0  0  0  0  0  0  0  0  0
    7.8721   -0.1194   23.8831 C   0  0  0  0  0  0  0  0  0  0  0  0
    8.6238   -0.7606   22.6929 C   0  0  1  0  0  0  0  0  0  0  0  0
    8.3190    5.0310   24.5309 C   0  0  0  0  0  0  0  0  0  0  0  0
    8.3973    3.5924   24.9905 C   0  0  0  0  0  0  0  0  0  0  0  0
    6.3062    0.3769   17.3421 N   0  0  0  0  0  0  0  0  0  0  0  0
    7.2292   -0.6897   20.7790 N   0  0  0  0  0  0  0  0  0  0  0  0
    8.6609    1.0133   24.4995 N   0  0  1  0  0  0  0  0  0  0  0  0
    8.7576    1.0939   21.1347 O   0  0  0  0  0  0  0  0  0  0  0  0
    7.4170    2.5201   22.8188 O   0  0  0  0  0  0  0  0  0  0  0  0
    9.9241    2.7343   23.0514 O   0  0  0  0  0  0  0  0  0  0  0  0
    8.6190    2.4836   23.6231 S   0  0  0  0  0  0  0  0  0  0  0  0
   13.4269   -2.1431   21.1100 Cl  0  0  0  0  0  0  0  0  0  0  0  0
    6.9131    5.4084   23.5162 Cl  0  0  0  0  0  0  0  0  0  0  0  0
    2.5432    3.3510   20.6369 H   0  0  0  0  0  0  0  0  0  0  0  0
    3.5174    2.1137   22.5168 H   0  0  0  0  0  0  0  0  0  0  0  0
    3.3409    2.9743   18.3364 H   0  0  0  0  0  0  0  0  0  0  0  0
    5.3118    0.4895   22.1572 H   0  0  0  0  0  0  0  0  0  0  0  0
   12.5021    0.5936   24.9776 H   0  0  0  0  0  0  0  0  0  0  0  0
   13.9910   -0.5222   23.3823 H   0  0  0  0  0  0  0  0  0  0  0  0
   10.6038   -2.0223   21.2285 H   0  0  0  0  0  0  0  0  0  0  0  0
    4.9141    1.7511   16.7474 H   0  0  0  0  0  0  0  0  0  0  0  0
    7.6445   -0.9764   18.1043 H   0  0  0  0  0  0  0  0  0  0  0  0
    9.7593   -0.1283   25.8177 H   0  0  0  0  0  0  0  0  0  0  0  0
   10.4932    1.4394   25.3816 H   0  0  0  0  0  0  0  0  0  0  0  0
    9.6099    6.4879   23.4142 H   0  0  0  0  0  0  0  0  0  0  0  0
   10.5419    5.2545   24.3672 H   0  0  0  0  0  0  0  0  0  0  0  0
    9.2207    5.8393   26.4149 H   0  0  0  0  0  0  0  0  0  0  0  0
    8.2898    7.0729   25.4612 H   0  0  0  0  0  0  0  0  0  0  0  0
    7.5800   -2.6065   23.3362 H   0  0  0  0  0  0  0  0  0  0  0  0
    8.7751   -2.8606   22.0656 H   0  0  0  0  0  0  0  0  0  0  0  0
    7.0225   -2.7506   20.5953 H   0  0  0  0  0  0  0  0  0  0  0  0
    5.9555   -1.9476   21.7836 H   0  0  0  0  0  0  0  0  0  0  0  0
    6.8885    0.2772   23.5674 H   0  0  0  0  0  0  0  0  0  0  0  0
    7.6586   -0.8709   24.6639 H   0  0  0  0  0  0  0  0  0  0  0  0
    7.4776    3.2942   25.5015 H   0  0  0  0  0  0  0  0  0  0  0  0
    9.2431    3.4431   25.6672 H   0  0  0  0  0  0  0  0  0  0  0  0
  1  2  1  0  0  0  0
  1  3  2  0  0  0  0
  2  4  2  0  0  0  0
  3 10  1  0  0  0  0
  4 11  1  0  0  0  0
  5  6  1  0  0  0  0
  5 12  2  0  0  0  0
  6 15  2  0  0  0  0
  7 13  2  0  0  0  0
  7 15  1  0  0  0  0
  8 10  2  0  0  0  0
  8 26  1  0  0  0  0
  9 14  1  0  0  0  0
  9 26  2  0  0  0  0
 10 11  1  0  0  0  0
 11 14  2  0  0  0  0
 12 13  1  0  0  0  0
 12 17  1  0  0  0  0
 13 23  1  6  0  0  0
 14 27  1  0  0  0  0
 15 33  1  0  0  0  0
 16 23  1  1  0  0  0
 16 27  1  0  0  0  0
 16 29  2  0  0  0  0
 17 28  1  0  0  0  0
 18 19  1  0  0  0  0
 18 24  1  0  0  0  0
 19 24  1  0  0  0  0
 20 21  1  0  0  0  0
 20 23  1  1  0  0  0
 21 27  1  0  0  0  0
 22 23  1  6  0  0  0
 22 28  1  0  0  0  0
 24 25  1  0  0  0  0
 24 34  1  0  0  0  0
 25 32  1  0  0  0  0
 28 32  1  1  0  0  0
 30 32  2  0  0  0  0
 31 32  2  0  0  0  0
  1 35  1  0  0  0  0
  2 36  1  0  0  0  0
  3 37  1  0  0  0  0
  4 38  1  0  0  0  0
  5 39  1  0  0  0  0
  6 40  1  0  0  0  0
  7 41  1  0  0  0  0
  8 42  1  0  0  0  0
  9 43  1  0  0  0  0
 17 44  1  0  0  0  0
 17 45  1  0  0  0  0
 18 46  1  0  0  0  0
 18 47  1  0  0  0  0
 19 48  1  0  0  0  0
 19 49  1  0  0  0  0
 20 50  1  0  0  0  0
 20 51  1  0  0  0  0
 21 52  1  0  0  0  0
 21 53  1  0  0  0  0
 22 54  1  0  0  0  0
 22 55  1  0  0  0  0
 25 56  1  0  0  0  0
 25 57  1  0  0  0  0
M  END
> <compound>
PET-UNK-94036022-3

> <compound_smiles>
c1ccc2c(c1)cncc2N3CC[C@@]4(C3=O)CN(Cc5c4cc(cc5)Cl)S(=O)(=O)CC6(CC6)Cl

> <enantiomer_smiles>
c1ccc2c(c1)cncc2N3CC[C@@]4(C3=O)C[N@@](Cc5c4cc(cc5)Cl)S(=O)(=O)CC6(CC6)Cl

> <scaffold>
tetrahydroisoquinoline-5spiro-isoquinoline

> <clash_score>
0

> <docking_score>
-9.23361873626709

> <overlap_score>
0.9757561087608337

> <MMFF_internal_energy>
121.50050638554372

> <docked_smiles>
c1ccc2c(c1)cncc2N3CC[C@@]4(C3=O)C[N@@](Cc5c4cc(cc5)Cl)S(=O)(=O)CC6(CC6)Cl

$$$$
VLA-UNK-f702bf1c-5_1
  -OEChem-12272114573D

 58 63  0     1  0  0  0  0  0999 V2000
    3.3432    2.6279   20.4411 C   0  0  0  0  0  0  0  0  0  0  0  0
    3.8960    1.9291   21.5050 C   0  0  0  0  0  0  0  0  0  0  0  0
    3.7865    2.4205   19.1660 C   0  0  0  0  0  0  0  0  0  0  0  0
    4.8973    1.0233   21.2988 C   0  0  0  0  0  0  0  0  0  0  0  0
   12.0765    0.0316   24.1541 C   0  0  0  0  0  0  0  0  0  0  0  0
   12.9132   -0.6032   23.2569 C   0  0  0  0  0  0  0  0  0  0  0  0
   10.9991   -1.4331   22.0443 C   0  0  0  0  0  0  0  0  0  0  0  0
    5.3278    1.2339   17.6066 C   0  0  0  0  0  0  0  0  0  0  0  0
    6.8438   -0.2892   18.3752 C   0  0  0  0  0  0  0  0  0  0  0  0
    4.8226    1.4906   18.9054 C   0  0  0  0  0  0  0  0  0  0  0  0
    5.3982    0.7733   19.9948 C   0  0  0  0  0  0  0  0  0  0  0  0
   10.1406   -0.7765   22.9250 C   0  0  0  0  0  0  0  0  0  0  0  0
    6.4440   -0.1472   19.6979 C   0  0  0  0  0  0  0  0  0  0  0  0
   10.7040   -0.0625   23.9898 C   0  0  0  0  0  0  0  0  0  0  0  0
   12.3683   -1.3298   22.2234 C   0  0  0  0  0  0  0  0  0  0  0  0
    5.4045   -4.3653   26.2588 C   0  0  0  0  0  0  0  0  0  0  0  0
    8.2490    0.0169   21.4271 C   0  0  0  0  0  0  0  0  0  0  0  0
    6.9866   -1.9366   21.3580 C   0  0  0  0  0  0  0  0  0  0  0  0
    6.8721   -4.7022   26.4289 C   0  0  0  0  0  0  0  0  0  0  0  0
    7.6786   -4.6850   25.1396 C   0  0  0  0  0  0  0  0  0  0  0  0
    7.8721   -0.1194   23.8831 C   0  0  0  0  0  0  0  0  0  0  0  0
    5.9250   -3.3413   24.0231 C   0  0  0  0  0  0  0  0  0  0  0  0
    8.6609    1.0133   24.4995 C   0  0  0  0  0  0  0  0  0  0  0  0
    7.4085   -3.3923   24.3716 C   0  0  2  0  0  0  0  0  0  0  0  0
    8.6238   -0.7606   22.6929 C   0  0  2  0  0  0  0  0  0  0  0  0
    8.2673   -3.3062   23.1136 C   0  0  0  0  0  0  0  0  0  0  0  0
    6.3062    0.3769   17.3421 N   0  0  0  0  0  0  0  0  0  0  0  0
    5.0634   -3.6093   25.1598 N   0  0  0  0  0  0  0  0  0  0  0  0
    7.2292   -0.6897   20.7790 N   0  0  0  0  0  0  0  0  0  0  0  0
    8.0140   -2.1541   22.4331 N   0  0  0  0  0  0  0  0  0  0  0  0
    4.5827   -4.6918   27.1172 O   0  0  0  0  0  0  0  0  0  0  0  0
    8.8016    1.0414   21.0847 O   0  0  0  0  0  0  0  0  0  0  0  0
    6.1144   -2.7515   21.1388 O   0  0  0  0  0  0  0  0  0  0  0  0
    9.9479    0.5589   24.9534 O   0  0  0  0  0  0  0  0  0  0  0  0
   13.4262   -2.1470   21.1121 Cl  0  0  0  0  0  0  0  0  0  0  0  0
    2.5432    3.3510   20.6369 H   0  0  0  0  0  0  0  0  0  0  0  0
    3.5174    2.1137   22.5168 H   0  0  0  0  0  0  0  0  0  0  0  0
    3.3409    2.9743   18.3364 H   0  0  0  0  0  0  0  0  0  0  0  0
    5.3118    0.4895   22.1572 H   0  0  0  0  0  0  0  0  0  0  0  0
   12.4997    0.6069   24.9723 H   0  0  0  0  0  0  0  0  0  0  0  0
   13.9909   -0.5152   23.3780 H   0  0  0  0  0  0  0  0  0  0  0  0
   10.6017   -2.0254   21.2306 H   0  0  0  0  0  0  0  0  0  0  0  0
    4.9141    1.7511   16.7474 H   0  0  0  0  0  0  0  0  0  0  0  0
    7.6445   -0.9764   18.1043 H   0  0  0  0  0  0  0  0  0  0  0  0
    7.2885   -3.9740   27.1354 H   0  0  0  0  0  0  0  0  0  0  0  0
    6.9466   -5.6934   26.8900 H   0  0  0  0  0  0  0  0  0  0  0  0
    8.7451   -4.7768   25.3759 H   0  0  0  0  0  0  0  0  0  0  0  0
    7.4091   -5.5529   24.5241 H   0  0  0  0  0  0  0  0  0  0  0  0
    7.7129   -0.8754   24.6698 H   0  0  0  0  0  0  0  0  0  0  0  0
    6.8746    0.2355   23.5743 H   0  0  0  0  0  0  0  0  0  0  0  0
    5.6500   -2.3575   23.6280 H   0  0  0  0  0  0  0  0  0  0  0  0
    5.6733   -4.0874   23.2604 H   0  0  0  0  0  0  0  0  0  0  0  0
    8.8013    1.8559   23.8158 H   0  0  0  0  0  0  0  0  0  0  0  0
    8.1340    1.3960   25.3781 H   0  0  0  0  0  0  0  0  0  0  0  0
    7.6645   -2.5317   25.0018 H   0  0  0  0  0  0  0  0  0  0  0  0
    9.3287   -3.3323   23.4010 H   0  0  0  0  0  0  0  0  0  0  0  0
    8.0417   -4.1658   22.4654 H   0  0  0  0  0  0  0  0  0  0  0  0
    4.1316   -3.2058   25.1433 H   0  0  0  0  0  0  0  0  0  0  0  0
  1  2  1  0  0  0  0
  1  3  2  0  0  0  0
  2  4  2  0  0  0  0
  3 10  1  0  0  0  0
  4 11  1  0  0  0  0
  5  6  1  0  0  0  0
  5 14  2  0  0  0  0
  6 15  2  0  0  0  0
  7 12  2  0  0  0  0
  7 15  1  0  0  0  0
  8 10  2  0  0  0  0
  8 27  1  0  0  0  0
  9 13  1  0  0  0  0
  9 27  2  0  0  0  0
 10 11  1  0  0  0  0
 11 13  2  0  0  0  0
 12 14  1  0  0  0  0
 12 25  1  6  0  0  0
 13 29  1  0  0  0  0
 14 34  1  0  0  0  0
 15 35  1  0  0  0  0
 16 19  1  0  0  0  0
 16 28  1  0  0  0  0
 16 31  2  0  0  0  0
 17 25  1  1  0  0  0
 17 29  1  0  0  0  0
 17 32  2  0  0  0  0
 18 29  1  0  0  0  0
 18 30  1  0  0  0  0
 18 33  2  0  0  0  0
 19 20  1  0  0  0  0
 20 24  1  0  0  0  0
 21 23  1  0  0  0  0
 21 25  1  1  0  0  0
 22 24  1  0  0  0  0
 22 28  1  0  0  0  0
 23 34  1  0  0  0  0
 24 26  1  1  0  0  0
 25 30  1  6  0  0  0
 26 30  1  0  0  0  0
  1 36  1  0  0  0  0
  2 37  1  0  0  0  0
  3 38  1  0  0  0  0
  4 39  1  0  0  0  0
  5 40  1  0  0  0  0
  6 41  1  0  0  0  0
  7 42  1  0  0  0  0
  8 43  1  0  0  0  0
  9 44  1  0  0  0  0
 19 45  1  0  0  0  0
 19 46  1  0  0  0  0
 20 47  1  0  0  0  0
 20 48  1  0  0  0  0
 21 49  1  0  0  0  0
 21 50  1  0  0  0  0
 22 51  1  0  0  0  0
 22 52  1  0  0  0  0
 23 53  1  0  0  0  0
 23 54  1  0  0  0  0
 24 55  1  0  0  0  0
 26 56  1  0  0  0  0
 26 57  1  0  0  0  0
 28 58  1  0  0  0  0
M  END
> <compound>
VLA-UNK-f702bf1c-5

> <compound_smiles>
c1ccc2c(c1)cncc2N3C(=O)[C@@]4(CCOc5c4cc(cc5)Cl)N(C3=O)CC6CCC(=O)NC6

> <enantiomer_smiles>
c1ccc2c(c1)cncc2N3C(=O)[C@@]4(CCOc5c4cc(cc5)Cl)N(C3=O)C[C@@H]6CCC(=O)NC6

> <scaffold>
chromane-5spiro-isoquinoline

> <clash_score>
0

> <docking_score>
-8.674246788024902

> <overlap_score>
1.0

> <MMFF_internal_energy>
62.55660022041706

> <docked_smiles>
c1ccc2c(c1)cncc2N3C(=O)[C@@]4(CCOc5c4cc(cc5)Cl)N(C3=O)C[C@@H]6CCC(=O)NC6

$$$$
VLA-UNK-f702bf1c-5_2
  -OEChem-12272114573D

 58 63  0     1  0  0  0  0  0999 V2000
    3.3432    2.6279   20.4411 C   0  0  0  0  0  0  0  0  0  0  0  0
    3.8960    1.9291   21.5050 C   0  0  0  0  0  0  0  0  0  0  0  0
    3.7865    2.4205   19.1660 C   0  0  0  0  0  0  0  0  0  0  0  0
    4.8973    1.0233   21.2988 C   0  0  0  0  0  0  0  0  0  0  0  0
   12.0765    0.0316   24.1541 C   0  0  0  0  0  0  0  0  0  0  0  0
   12.9132   -0.6032   23.2569 C   0  0  0  0  0  0  0  0  0  0  0  0
   10.9991   -1.4331   22.0443 C   0  0  0  0  0  0  0  0  0  0  0  0
    5.3278    1.2339   17.6066 C   0  0  0  0  0  0  0  0  0  0  0  0
    6.8438   -0.2892   18.3752 C   0  0  0  0  0  0  0  0  0  0  0  0
    4.8226    1.4906   18.9054 C   0  0  0  0  0  0  0  0  0  0  0  0
    5.3982    0.7733   19.9948 C   0  0  0  0  0  0  0  0  0  0  0  0
   10.1406   -0.7765   22.9250 C   0  0  0  0  0  0  0  0  0  0  0  0
    6.4440   -0.1472   19.6979 C   0  0  0  0  0  0  0  0  0  0  0  0
   10.7040   -0.0625   23.9898 C   0  0  0  0  0  0  0  0  0  0  0  0
   12.3683   -1.3298   22.2234 C   0  0  0  0  0  0  0  0  0  0  0  0
   10.5259   -6.3926   20.9759 C   0  0  0  0  0  0  0  0  0  0  0  0
    8.2490    0.0169   21.4271 C   0  0  0  0  0  0  0  0  0  0  0  0
    6.9866   -1.9366   21.3580 C   0  0  0  0  0  0  0  0  0  0  0  0
   10.7375   -6.1959   22.4625 C   0  0  0  0  0  0  0  0  0  0  0  0
    9.6243   -5.4280   23.1569 C   0  0  0  0  0  0  0  0  0  0  0  0
    7.8721   -0.1194   23.8831 C   0  0  0  0  0  0  0  0  0  0  0  0
    8.8747   -4.4935   20.9847 C   0  0  0  0  0  0  0  0  0  0  0  0
    8.6609    1.0133   24.4995 C   0  0  0  0  0  0  0  0  0  0  0  0
    9.3280   -4.1371   22.3967 C   0  0  1  0  0  0  0  0  0  0  0  0
    8.6238   -0.7606   22.6929 C   0  0  2  0  0  0  0  0  0  0  0  0
    8.2673   -3.3062   23.1136 C   0  0  0  0  0  0  0  0  0  0  0  0
    6.3062    0.3769   17.3421 N   0  0  0  0  0  0  0  0  0  0  0  0
    9.7279   -5.4720   20.3351 N   0  0  0  0  0  0  0  0  0  0  0  0
    7.2292   -0.6897   20.7790 N   0  0  0  0  0  0  0  0  0  0  0  0
    8.0140   -2.1541   22.4331 N   0  0  0  0  0  0  0  0  0  0  0  0
   11.1136   -7.2918   20.3720 O   0  0  0  0  0  0  0  0  0  0  0  0
    8.8016    1.0414   21.0847 O   0  0  0  0  0  0  0  0  0  0  0  0
    6.1144   -2.7515   21.1388 O   0  0  0  0  0  0  0  0  0  0  0  0
    9.9479    0.5589   24.9534 O   0  0  0  0  0  0  0  0  0  0  0  0
   13.4262   -2.1470   21.1121 Cl  0  0  0  0  0  0  0  0  0  0  0  0
    2.5432    3.3510   20.6369 H   0  0  0  0  0  0  0  0  0  0  0  0
    3.5174    2.1137   22.5168 H   0  0  0  0  0  0  0  0  0  0  0  0
    3.3409    2.9743   18.3364 H   0  0  0  0  0  0  0  0  0  0  0  0
    5.3118    0.4895   22.1572 H   0  0  0  0  0  0  0  0  0  0  0  0
   12.4997    0.6069   24.9723 H   0  0  0  0  0  0  0  0  0  0  0  0
   13.9909   -0.5152   23.3780 H   0  0  0  0  0  0  0  0  0  0  0  0
   10.6017   -2.0254   21.2306 H   0  0  0  0  0  0  0  0  0  0  0  0
    4.9141    1.7511   16.7474 H   0  0  0  0  0  0  0  0  0  0  0  0
    7.6445   -0.9764   18.1043 H   0  0  0  0  0  0  0  0  0  0  0  0
   10.8435   -7.1817   22.9291 H   0  0  0  0  0  0  0  0  0  0  0  0
   11.6891   -5.6651   22.5853 H   0  0  0  0  0  0  0  0  0  0  0  0
    8.7220   -6.0507   23.2083 H   0  0  0  0  0  0  0  0  0  0  0  0
    9.9226   -5.2070   24.1885 H   0  0  0  0  0  0  0  0  0  0  0  0
    7.7129   -0.8754   24.6698 H   0  0  0  0  0  0  0  0  0  0  0  0
    6.8746    0.2355   23.5743 H   0  0  0  0  0  0  0  0  0  0  0  0
    7.8661   -4.9229   20.9931 H   0  0  0  0  0  0  0  0  0  0  0  0
    8.8499   -3.6037   20.3467 H   0  0  0  0  0  0  0  0  0  0  0  0
    8.8013    1.8559   23.8158 H   0  0  0  0  0  0  0  0  0  0  0  0
    8.1340    1.3960   25.3781 H   0  0  0  0  0  0  0  0  0  0  0  0
   10.2378   -3.5294   22.3431 H   0  0  0  0  0  0  0  0  0  0  0  0
    7.3409   -3.8945   23.1891 H   0  0  0  0  0  0  0  0  0  0  0  0
    8.6273   -3.0580   24.1230 H   0  0  0  0  0  0  0  0  0  0  0  0
    9.7368   -5.4778   19.3198 H   0  0  0  0  0  0  0  0  0  0  0  0
  1  2  1  0  0  0  0
  1  3  2  0  0  0  0
  2  4  2  0  0  0  0
  3 10  1  0  0  0  0
  4 11  1  0  0  0  0
  5  6  1  0  0  0  0
  5 14  2  0  0  0  0
  6 15  2  0  0  0  0
  7 12  2  0  0  0  0
  7 15  1  0  0  0  0
  8 10  2  0  0  0  0
  8 27  1  0  0  0  0
  9 13  1  0  0  0  0
  9 27  2  0  0  0  0
 10 11  1  0  0  0  0
 11 13  2  0  0  0  0
 12 14  1  0  0  0  0
 12 25  1  6  0  0  0
 13 29  1  0  0  0  0
 14 34  1  0  0  0  0
 15 35  1  0  0  0  0
 16 19  1  0  0  0  0
 16 28  1  0  0  0  0
 16 31  2  0  0  0  0
 17 25  1  1  0  0  0
 17 29  1  0  0  0  0
 17 32  2  0  0  0  0
 18 29  1  0  0  0  0
 18 30  1  0  0  0  0
 18 33  2  0  0  0  0
 19 20  1  0  0  0  0
 20 24  1  0  0  0  0
 21 23  1  0  0  0  0
 21 25  1  1  0  0  0
 22 24  1  0  0  0  0
 22 28  1  0  0  0  0
 23 34  1  0  0  0  0
 24 26  1  6  0  0  0
 25 30  1  6  0  0  0
 26 30  1  0  0  0  0
  1 36  1  0  0  0  0
  2 37  1  0  0  0  0
  3 38  1  0  0  0  0
  4 39  1  0  0  0  0
  5 40  1  0  0  0  0
  6 41  1  0  0  0  0
  7 42  1  0  0  0  0
  8 43  1  0  0  0  0
  9 44  1  0  0  0  0
 19 45  1  0  0  0  0
 19 46  1  0  0  0  0
 20 47  1  0  0  0  0
 20 48  1  0  0  0  0
 21 49  1  0  0  0  0
 21 50  1  0  0  0  0
 22 51  1  0  0  0  0
 22 52  1  0  0  0  0
 23 53  1  0  0  0  0
 23 54  1  0  0  0  0
 24 55  1  0  0  0  0
 26 56  1  0  0  0  0
 26 57  1  0  0  0  0
 28 58  1  0  0  0  0
M  END
> <compound>
VLA-UNK-f702bf1c-5

> <compound_smiles>
c1ccc2c(c1)cncc2N3C(=O)[C@@]4(CCOc5c4cc(cc5)Cl)N(C3=O)CC6CCC(=O)NC6

> <enantiomer_smiles>
c1ccc2c(c1)cncc2N3C(=O)[C@@]4(CCOc5c4cc(cc5)Cl)N(C3=O)C[C@H]6CCC(=O)NC6

> <scaffold>
chromane-5spiro-isoquinoline

> <clash_score>
9.478253748149632

> <docking_score>
3.4028234663852886e+38

> <overlap_score>
1.0

> <MMFF_internal_energy>
62.89442314947115

> <docked_smiles>
c1ccc2c(c1)cncc2N3C(=O)[C@@]4(CCOc5c4cc(cc5)Cl)N(C3=O)C[C@H]6CCC(=O)NC6

$$$$
EDJ-MED-d4864bdc-4_1
  -OEChem-12272114573D

 61 65  0     1  0  0  0  0  0999 V2000
    3.7865    2.4205   19.1660 C   0  0  0  0  0  0  0  0  0  0  0  0
    3.3432    2.6279   20.4411 C   0  0  0  0  0  0  0  0  0  0  0  0
   12.0765    0.0316   24.1541 C   0  0  0  0  0  0  0  0  0  0  0  0
   12.9132   -0.6032   23.2569 C   0  0  0  0  0  0  0  0  0  0  0  0
    4.8973    1.0233   21.2988 C   0  0  0  0  0  0  0  0  0  0  0  0
   10.9991   -1.4331   22.0443 C   0  0  0  0  0  0  0  0  0  0  0  0
    5.3278    1.2339   17.6066 C   0  0  0  0  0  0  0  0  0  0  0  0
    6.8438   -0.2892   18.3752 C   0  0  0  0  0  0  0  0  0  0  0  0
    4.8226    1.4906   18.9054 C   0  0  0  0  0  0  0  0  0  0  0  0
    5.3982    0.7733   19.9948 C   0  0  0  0  0  0  0  0  0  0  0  0
   10.1406   -0.7765   22.9250 C   0  0  0  0  0  0  0  0  0  0  0  0
    6.4440   -0.1472   19.6979 C   0  0  0  0  0  0  0  0  0  0  0  0
    3.8960    1.9291   21.5050 C   0  0  0  0  0  0  0  0  0  0  0  0
   10.7040   -0.0625   23.9898 C   0  0  0  0  0  0  0  0  0  0  0  0
   12.3683   -1.3298   22.2234 C   0  0  0  0  0  0  0  0  0  0  0  0
    8.2490    0.0169   21.4271 C   0  0  0  0  0  0  0  0  0  0  0  0
    8.0140   -2.1541   22.4331 C   0  0  0  0  0  0  0  0  0  0  0  0
    7.8721   -0.1194   23.8831 C   0  0  0  0  0  0  0  0  0  0  0  0
    6.9866   -1.9366   21.3580 C   0  0  0  0  0  0  0  0  0  0  0  0
    8.6609    1.0133   24.4995 C   0  0  0  0  0  0  0  0  0  0  0  0
    8.6238   -0.7606   22.6929 C   0  0  3  0  0  0  0  0  0  0  0  0
    5.2919    4.9920   22.4886 C   0  0  0  0  0  0  0  0  0  0  0  0
    6.0025    4.7792   24.8657 C   0  0  0  0  0  0  0  0  0  0  0  0
    3.7111    4.0823   24.1842 C   0  0  0  0  0  0  0  0  0  0  0  0
    2.9162    3.4619   23.0522 C   0  0  0  0  0  0  0  0  0  0  0  0
    6.3062    0.3769   17.3421 N   0  0  0  0  0  0  0  0  0  0  0  0
    7.2292   -0.6897   20.7790 N   0  0  0  0  0  0  0  0  0  0  0  0
    5.1310    4.2142   23.7713 N   0  3  0  0  0  0  0  0  0  0  0  0
    8.7559    1.0937   21.1315 O   0  0  0  0  0  0  0  0  0  0  0  0
   10.7450    1.7883   25.4928 O   0  0  0  0  0  0  0  0  0  0  0  0
    9.7102   -0.4301   26.1384 O   0  0  0  0  0  0  0  0  0  0  0  0
    3.4227    2.1582   22.7714 O   0  0  0  0  0  0  0  0  0  0  0  0
    9.9479    0.5589   24.9534 S   0  0  0  0  0  0  0  0  0  0  0  0
   13.4291   -2.1444   21.1126 Cl  0  0  0  0  0  0  0  0  0  0  0  0
    3.3406    2.9746   18.3368 H   0  0  0  0  0  0  0  0  0  0  0  0
    2.5407    3.3506   20.6306 H   0  0  0  0  0  0  0  0  0  0  0  0
   12.5120    0.5953   24.9760 H   0  0  0  0  0  0  0  0  0  0  0  0
   13.9915   -0.5226   23.3833 H   0  0  0  0  0  0  0  0  0  0  0  0
    5.3162    0.4858   22.1535 H   0  0  0  0  0  0  0  0  0  0  0  0
   10.6108   -2.0222   21.2304 H   0  0  0  0  0  0  0  0  0  0  0  0
    4.9131    1.7514   16.7479 H   0  0  0  0  0  0  0  0  0  0  0  0
    7.6448   -0.9758   18.1041 H   0  0  0  0  0  0  0  0  0  0  0  0
    7.5775   -2.6140   23.3286 H   0  0  0  0  0  0  0  0  0  0  0  0
    8.7708   -2.8631   22.0636 H   0  0  0  0  0  0  0  0  0  0  0  0
    7.6611   -0.8658   24.6526 H   0  0  0  0  0  0  0  0  0  0  0  0
    6.9006    0.2556   23.5459 H   0  0  0  0  0  0  0  0  0  0  0  0
    7.0227   -2.7503   20.5949 H   0  0  0  0  0  0  0  0  0  0  0  0
    5.9552   -1.9482   21.7828 H   0  0  0  0  0  0  0  0  0  0  0  0
    8.7031    1.8245   23.7055 H   0  0  0  0  0  0  0  0  0  0  0  0
    7.9987    1.4859   25.2931 H   0  0  0  0  0  0  0  0  0  0  0  0
    4.9172    6.0025   22.6616 H   0  0  0  0  0  0  0  0  0  0  0  0
    6.3540    5.0049   22.2366 H   0  0  0  0  0  0  0  0  0  0  0  0
    4.7113    4.4851   21.7155 H   0  0  0  0  0  0  0  0  0  0  0  0
    5.6438    5.7848   25.0924 H   0  0  0  0  0  0  0  0  0  0  0  0
    5.9132    4.1251   25.7351 H   0  0  0  0  0  0  0  0  0  0  0  0
    7.0295    4.8029   24.4962 H   0  0  0  0  0  0  0  0  0  0  0  0
    3.7077    3.4567   25.0813 H   0  0  0  0  0  0  0  0  0  0  0  0
    3.3585    5.0895   24.4214 H   0  0  0  0  0  0  0  0  0  0  0  0
    1.8671    3.3603   23.3468 H   0  0  0  0  0  0  0  0  0  0  0  0
    2.9687    4.0678   22.1417 H   0  0  0  0  0  0  0  0  0  0  0  0
    5.4928    3.2649   23.5782 H   0  0  0  0  0  0  0  0  0  0  0  0
  1  2  2  0  0  0  0
  1  9  1  0  0  0  0
  2 13  1  0  0  0  0
  3  4  1  0  0  0  0
  3 14  2  0  0  0  0
  4 15  2  0  0  0  0
  5 10  1  0  0  0  0
  5 13  2  0  0  0  0
  6 11  2  0  0  0  0
  6 15  1  0  0  0  0
  7  9  1  0  0  0  0
  7 26  2  0  0  0  0
  8 12  2  0  0  0  0
  8 26  1  0  0  0  0
  9 10  2  0  0  0  0
 10 12  1  0  0  0  0
 11 14  1  0  0  0  0
 11 21  1  0  0  0  0
 12 27  1  0  0  0  0
 13 32  1  0  0  0  0
 14 33  1  0  0  0  0
 15 34  1  0  0  0  0
 16 21  1  0  0  0  0
 16 27  1  0  0  0  0
 16 29  2  0  0  0  0
 17 19  1  0  0  0  0
 17 21  1  0  0  0  0
 18 20  1  0  0  0  0
 18 21  1  0  0  0  0
 19 27  1  0  0  0  0
 20 33  1  0  0  0  0
 22 28  1  0  0  0  0
 23 28  1  0  0  0  0
 24 25  1  0  0  0  0
 24 28  1  0  0  0  0
 25 32  1  0  0  0  0
 30 33  2  0  0  0  0
 31 33  2  0  0  0  0
  1 35  1  0  0  0  0
  2 36  1  0  0  0  0
  3 37  1  0  0  0  0
  4 38  1  0  0  0  0
  5 39  1  0  0  0  0
  6 40  1  0  0  0  0
  7 41  1  0  0  0  0
  8 42  1  0  0  0  0
 17 43  1  0  0  0  0
 17 44  1  0  0  0  0
 18 45  1  0  0  0  0
 18 46  1  0  0  0  0
 19 47  1  0  0  0  0
 19 48  1  0  0  0  0
 20 49  1  0  0  0  0
 20 50  1  0  0  0  0
 22 51  1  0  0  0  0
 22 52  1  0  0  0  0
 22 53  1  0  0  0  0
 23 54  1  0  0  0  0
 23 55  1  0  0  0  0
 23 56  1  0  0  0  0
 24 57  1  0  0  0  0
 24 58  1  0  0  0  0
 25 59  1  0  0  0  0
 25 60  1  0  0  0  0
 28 61  1  0  0  0  0
M  CHG  1  28   1
M  END
> <compound>
EDJ-MED-d4864bdc-4

> <compound_smiles>
CN(C)CCOc1ccc2cncc(c2c1)N3CCC4(C3=O)CCS(=O)(=O)c5c4cc(cc5)Cl

> <enantiomer_smiles>
CN(C)CCOc1ccc2cncc(c2c1)N3CCC4(C3=O)CCS(=O)(=O)c5c4cc(cc5)Cl

> <scaffold>
tetralinlike-5spiro-isoquinoline

> <clash_score>
0.7168170439667734

> <docking_score>
-7.832286357879639

> <overlap_score>
1.0

> <MMFF_internal_energy>
337.91926661571597

> <docked_smiles>
C[NH+](C)CCOc1ccc2cncc(c2c1)N3CC[C@@]4(C3=O)CCS(=O)(=O)c5c4cc(cc5)Cl

$$$$
VLA-UNK-f702bf1c-7_1
  -OEChem-12272114573D

 62 67  0     1  0  0  0  0  0999 V2000
    3.3432    2.6279   20.4411 C   0  0  0  0  0  0  0  0  0  0  0  0
    3.8960    1.9291   21.5050 C   0  0  0  0  0  0  0  0  0  0  0  0
    3.7865    2.4205   19.1660 C   0  0  0  0  0  0  0  0  0  0  0  0
    4.8973    1.0233   21.2988 C   0  0  0  0  0  0  0  0  0  0  0  0
   12.0765    0.0316   24.1541 C   0  0  0  0  0  0  0  0  0  0  0  0
   12.9132   -0.6032   23.2569 C   0  0  0  0  0  0  0  0  0  0  0  0
   10.9991   -1.4331   22.0443 C   0  0  0  0  0  0  0  0  0  0  0  0
    5.3278    1.2339   17.6066 C   0  0  0  0  0  0  0  0  0  0  0  0
    6.8438   -0.2892   18.3752 C   0  0  0  0  0  0  0  0  0  0  0  0
    4.8226    1.4906   18.9054 C   0  0  0  0  0  0  0  0  0  0  0  0
    5.3982    0.7733   19.9948 C   0  0  0  0  0  0  0  0  0  0  0  0
   10.1406   -0.7765   22.9250 C   0  0  0  0  0  0  0  0  0  0  0  0
    6.4440   -0.1472   19.6979 C   0  0  0  0  0  0  0  0  0  0  0  0
   10.7040   -0.0625   23.9898 C   0  0  0  0  0  0  0  0  0  0  0  0
   12.3683   -1.3298   22.2234 C   0  0  0  0  0  0  0  0  0  0  0  0
    8.2490    0.0169   21.4271 C   0  0  0  0  0  0  0  0  0  0  0  0
    6.9866   -1.9366   21.3580 C   0  0  0  0  0  0  0  0  0  0  0  0
    7.8721   -0.1194   23.8831 C   0  0  0  0  0  0  0  0  0  0  0  0
    6.6923   -2.5503   26.4603 C   0  0  0  0  0  0  0  0  0  0  0  0
    5.7939   -3.7136   24.5340 C   0  0  0  0  0  0  0  0  0  0  0  0
    5.2984   -2.0927   26.8728 C   0  0  0  0  0  0  0  0  0  0  0  0
    4.3770   -3.2854   24.8972 C   0  0  0  0  0  0  0  0  0  0  0  0
    8.6609    1.0133   24.4995 C   0  0  0  0  0  0  0  0  0  0  0  0
    8.6238   -0.7606   22.6929 C   0  0  2  0  0  0  0  0  0  0  0  0
    8.2673   -3.3062   23.1136 C   0  0  0  0  0  0  0  0  0  0  0  0
    8.1325   -3.1342   24.6173 C   0  0  0  0  0  0  0  0  0  0  0  0
    6.3062    0.3769   17.3421 N   0  0  0  0  0  0  0  0  0  0  0  0
    7.2292   -0.6897   20.7790 N   0  0  0  0  0  0  0  0  0  0  0  0
    8.0140   -2.1541   22.4331 N   0  0  0  0  0  0  0  0  0  0  0  0
    6.7811   -2.7300   25.0035 N   0  0  0  0  0  0  0  0  0  0  0  0
    4.2955   -3.0779   26.3726 N   0  3  0  0  0  0  0  0  0  0  0  0
    8.8016    1.0414   21.0847 O   0  0  0  0  0  0  0  0  0  0  0  0
    6.1144   -2.7515   21.1388 O   0  0  0  0  0  0  0  0  0  0  0  0
    9.9479    0.5589   24.9534 O   0  0  0  0  0  0  0  0  0  0  0  0
   13.4262   -2.1470   21.1121 Cl  0  0  0  0  0  0  0  0  0  0  0  0
    2.5432    3.3510   20.6369 H   0  0  0  0  0  0  0  0  0  0  0  0
    3.5174    2.1137   22.5168 H   0  0  0  0  0  0  0  0  0  0  0  0
    3.3409    2.9743   18.3364 H   0  0  0  0  0  0  0  0  0  0  0  0
    5.3118    0.4895   22.1572 H   0  0  0  0  0  0  0  0  0  0  0  0
   12.4997    0.6069   24.9723 H   0  0  0  0  0  0  0  0  0  0  0  0
   13.9909   -0.5152   23.3780 H   0  0  0  0  0  0  0  0  0  0  0  0
   10.6017   -2.0254   21.2306 H   0  0  0  0  0  0  0  0  0  0  0  0
    4.9141    1.7511   16.7474 H   0  0  0  0  0  0  0  0  0  0  0  0
    7.6445   -0.9764   18.1043 H   0  0  0  0  0  0  0  0  0  0  0  0
    7.7129   -0.8754   24.6698 H   0  0  0  0  0  0  0  0  0  0  0  0
    6.8746    0.2355   23.5743 H   0  0  0  0  0  0  0  0  0  0  0  0
    7.4071   -1.7853   26.7779 H   0  0  0  0  0  0  0  0  0  0  0  0
    6.9471   -3.4783   26.9832 H   0  0  0  0  0  0  0  0  0  0  0  0
    6.0006   -4.7039   24.9543 H   0  0  0  0  0  0  0  0  0  0  0  0
    5.8528   -3.7983   23.4449 H   0  0  0  0  0  0  0  0  0  0  0  0
    5.1933   -2.0545   27.9611 H   0  0  0  0  0  0  0  0  0  0  0  0
    5.0384   -1.1168   26.4488 H   0  0  0  0  0  0  0  0  0  0  0  0
    4.0914   -2.3430   24.4176 H   0  0  0  0  0  0  0  0  0  0  0  0
    3.6457   -4.0580   24.6422 H   0  0  0  0  0  0  0  0  0  0  0  0
    8.8013    1.8559   23.8158 H   0  0  0  0  0  0  0  0  0  0  0  0
    8.1340    1.3960   25.3781 H   0  0  0  0  0  0  0  0  0  0  0  0
    7.5778   -4.0676   22.7353 H   0  0  0  0  0  0  0  0  0  0  0  0
    9.2892   -3.6044   22.8595 H   0  0  0  0  0  0  0  0  0  0  0  0
    8.3432   -4.0793   25.1271 H   0  0  0  0  0  0  0  0  0  0  0  0
    8.8239   -2.3742   24.9953 H   0  0  0  0  0  0  0  0  0  0  0  0
    4.4271   -3.9782   26.8548 H   0  0  0  0  0  0  0  0  0  0  0  0
    3.3486   -2.7618   26.6233 H   0  0  0  0  0  0  0  0  0  0  0  0
  1  2  1  0  0  0  0
  1  3  2  0  0  0  0
  2  4  2  0  0  0  0
  3 10  1  0  0  0  0
  4 11  1  0  0  0  0
  5  6  1  0  0  0  0
  5 14  2  0  0  0  0
  6 15  2  0  0  0  0
  7 12  2  0  0  0  0
  7 15  1  0  0  0  0
  8 10  2  0  0  0  0
  8 27  1  0  0  0  0
  9 13  1  0  0  0  0
  9 27  2  0  0  0  0
 10 11  1  0  0  0  0
 11 13  2  0  0  0  0
 12 14  1  0  0  0  0
 12 24  1  6  0  0  0
 13 28  1  0  0  0  0
 14 34  1  0  0  0  0
 15 35  1  0  0  0  0
 16 24  1  1  0  0  0
 16 28  1  0  0  0  0
 16 32  2  0  0  0  0
 17 28  1  0  0  0  0
 17 29  1  0  0  0  0
 17 33  2  0  0  0  0
 18 23  1  0  0  0  0
 18 24  1  1  0  0  0
 19 21  1  0  0  0  0
 19 30  1  0  0  0  0
 20 22  1  0  0  0  0
 20 30  1  0  0  0  0
 21 31  1  0  0  0  0
 22 31  1  0  0  0  0
 23 34  1  0  0  0  0
 24 29  1  6  0  0  0
 25 26  1  0  0  0  0
 25 29  1  0  0  0  0
 26 30  1  0  0  0  0
  1 36  1  0  0  0  0
  2 37  1  0  0  0  0
  3 38  1  0  0  0  0
  4 39  1  0  0  0  0
  5 40  1  0  0  0  0
  6 41  1  0  0  0  0
  7 42  1  0  0  0  0
  8 43  1  0  0  0  0
  9 44  1  0  0  0  0
 18 45  1  0  0  0  0
 18 46  1  0  0  0  0
 19 47  1  0  0  0  0
 19 48  1  0  0  0  0
 20 49  1  0  0  0  0
 20 50  1  0  0  0  0
 21 51  1  0  0  0  0
 21 52  1  0  0  0  0
 22 53  1  0  0  0  0
 22 54  1  0  0  0  0
 23 55  1  0  0  0  0
 23 56  1  0  0  0  0
 25 57  1  0  0  0  0
 25 58  1  0  0  0  0
 26 59  1  0  0  0  0
 26 60  1  0  0  0  0
 31 61  1  0  0  0  0
 31 62  1  0  0  0  0
M  CHG  1  31   1
M  END
> <compound>
VLA-UNK-f702bf1c-7

> <compound_smiles>
c1ccc2c(c1)cncc2N3C(=O)[C@@]4(CCOc5c4cc(cc5)Cl)N(C3=O)CCN6CCNCC6

> <enantiomer_smiles>
c1ccc2c(c1)cncc2N3C(=O)[C@@]4(CCOc5c4cc(cc5)Cl)N(C3=O)CCN6CCNCC6

> <scaffold>
chromane-5spiro-isoquinoline

> <clash_score>
0

> <docking_score>
-8.239755630493164

> <overlap_score>
1.0

> <MMFF_internal_energy>
184.748947461937

> <docked_smiles>
c1ccc2c(c1)cncc2N3C(=O)[C@@]4(CCOc5c4cc(cc5)Cl)N(C3=O)CCN6CC[NH2+]CC6

$$$$
EDJ-MED-8bb691af-5_1
  -OEChem-12272114573D

 58 63  0     1  0  0  0  0  0999 V2000
    9.5779    5.6709   24.2472 C   0  0  0  0  0  0  0  0  0  0  0  0
    3.3432    2.6279   20.4411 C   0  0  0  0  0  0  0  0  0  0  0  0
    3.8960    1.9291   21.5050 C   0  0  0  0  0  0  0  0  0  0  0  0
    3.7865    2.4205   19.1660 C   0  0  0  0  0  0  0  0  0  0  0  0
    4.8973    1.0233   21.2988 C   0  0  0  0  0  0  0  0  0  0  0  0
   12.0765    0.0316   24.1541 C   0  0  0  0  0  0  0  0  0  0  0  0
   12.9132   -0.6032   23.2569 C   0  0  0  0  0  0  0  0  0  0  0  0
   10.9991   -1.4331   22.0443 C   0  0  0  0  0  0  0  0  0  0  0  0
    5.3278    1.2339   17.6066 C   0  0  0  0  0  0  0  0  0  0  0  0
    6.8438   -0.2892   18.3752 C   0  0  0  0  0  0  0  0  0  0  0  0
    4.8226    1.4906   18.9054 C   0  0  0  0  0  0  0  0  0  0  0  0
    5.3982    0.7733   19.9948 C   0  0  0  0  0  0  0  0  0  0  0  0
   10.7040   -0.0625   23.9898 C   0  0  0  0  0  0  0  0  0  0  0  0
   10.1406   -0.7765   22.9250 C   0  0  0  0  0  0  0  0  0  0  0  0
    6.4440   -0.1472   19.6979 C   0  0  0  0  0  0  0  0  0  0  0  0
   12.3683   -1.3298   22.2234 C   0  0  0  0  0  0  0  0  0  0  0  0
    6.9866   -1.9366   21.3580 C   0  0  0  0  0  0  0  0  0  0  0  0
    9.9479    0.5589   24.9534 C   0  0  0  0  0  0  0  0  0  0  0  0
    8.0140   -2.1541   22.4331 C   0  0  0  0  0  0  0  0  0  0  0  0
    7.2086    5.9127   25.0741 C   0  0  0  0  0  0  0  0  0  0  0  0
    7.1390    5.4421   23.6513 C   0  0  0  0  0  0  0  0  0  0  0  0
    8.2490    0.0169   21.4271 C   0  0  0  0  0  0  0  0  0  0  0  0
    7.8721   -0.1194   23.8831 C   0  0  0  0  0  0  0  0  0  0  0  0
    8.3117    5.0406   24.5179 C   0  0  0  0  0  0  0  0  0  0  0  0
    8.6238   -0.7606   22.6929 C   0  0  3  0  0  0  0  0  0  0  0  0
    8.3905    3.6056   24.9888 C   0  0  0  0  0  0  0  0  0  0  0  0
   10.5980    6.1788   24.0292 N   0  0  0  0  0  0  0  0  0  0  0  0
    6.3062    0.3769   17.3421 N   0  0  0  0  0  0  0  0  0  0  0  0
    7.2292   -0.6897   20.7790 N   0  0  0  0  0  0  0  0  0  0  0  0
    8.6609    1.0133   24.4995 N   0  0  1  0  0  0  0  0  0  0  0  0
    6.0905   -2.7464   21.1373 O   0  0  0  0  0  0  0  0  0  0  0  0
    7.4094    2.5023   22.8330 O   0  0  0  0  0  0  0  0  0  0  0  0
    9.9152    2.7477   23.0479 O   0  0  0  0  0  0  0  0  0  0  0  0
    8.6167    2.4865   23.6304 S   0  0  0  0  0  0  0  0  0  0  0  0
   13.4285   -2.1426   21.1116 Cl  0  0  0  0  0  0  0  0  0  0  0  0
    2.5432    3.3510   20.6369 H   0  0  0  0  0  0  0  0  0  0  0  0
    3.5174    2.1137   22.5168 H   0  0  0  0  0  0  0  0  0  0  0  0
    3.3409    2.9743   18.3364 H   0  0  0  0  0  0  0  0  0  0  0  0
    5.3118    0.4895   22.1572 H   0  0  0  0  0  0  0  0  0  0  0  0
   12.5033    0.5944   24.9759 H   0  0  0  0  0  0  0  0  0  0  0  0
   13.9916   -0.5202   23.3814 H   0  0  0  0  0  0  0  0  0  0  0  0
   10.6200   -2.0224   21.2262 H   0  0  0  0  0  0  0  0  0  0  0  0
    4.9141    1.7511   16.7474 H   0  0  0  0  0  0  0  0  0  0  0  0
    7.6445   -0.9764   18.1043 H   0  0  0  0  0  0  0  0  0  0  0  0
    9.7584   -0.1268   25.8170 H   0  0  0  0  0  0  0  0  0  0  0  0
   10.4909    1.4409   25.3779 H   0  0  0  0  0  0  0  0  0  0  0  0
    7.4871   -2.5424   23.3133 H   0  0  0  0  0  0  0  0  0  0  0  0
    8.7526   -2.8941   22.1058 H   0  0  0  0  0  0  0  0  0  0  0  0
    7.4065    6.9648   25.2459 H   0  0  0  0  0  0  0  0  0  0  0  0
    6.5118    5.4787   25.7819 H   0  0  0  0  0  0  0  0  0  0  0  0
    6.3947    4.6933   23.4059 H   0  0  0  0  0  0  0  0  0  0  0  0
    7.2895    6.1797   22.8712 H   0  0  0  0  0  0  0  0  0  0  0  0
    7.8522    1.0247   21.6757 H   0  0  0  0  0  0  0  0  0  0  0  0
    9.1178    0.1808   20.7525 H   0  0  0  0  0  0  0  0  0  0  0  0
    6.8854    0.2697   23.5687 H   0  0  0  0  0  0  0  0  0  0  0  0
    7.6758   -0.8758   24.6643 H   0  0  0  0  0  0  0  0  0  0  0  0
    7.4701    3.3102   25.4999 H   0  0  0  0  0  0  0  0  0  0  0  0
    9.2349    3.4625   25.6685 H   0  0  0  0  0  0  0  0  0  0  0  0
  1 24  1  0  0  0  0
  1 27  3  0  0  0  0
  2  3  1  0  0  0  0
  2  4  2  0  0  0  0
  3  5  2  0  0  0  0
  4 11  1  0  0  0  0
  5 12  1  0  0  0  0
  6  7  1  0  0  0  0
  6 13  2  0  0  0  0
  7 16  2  0  0  0  0
  8 14  2  0  0  0  0
  8 16  1  0  0  0  0
  9 11  2  0  0  0  0
  9 28  1  0  0  0  0
 10 15  1  0  0  0  0
 10 28  2  0  0  0  0
 11 12  1  0  0  0  0
 12 15  2  0  0  0  0
 13 14  1  0  0  0  0
 13 18  1  0  0  0  0
 14 25  1  0  0  0  0
 15 29  1  0  0  0  0
 16 35  1  0  0  0  0
 17 19  1  0  0  0  0
 17 29  1  0  0  0  0
 17 31  2  0  0  0  0
 18 30  1  0  0  0  0
 19 25  1  0  0  0  0
 20 21  1  0  0  0  0
 20 24  1  0  0  0  0
 21 24  1  0  0  0  0
 22 25  1  0  0  0  0
 22 29  1  0  0  0  0
 23 25  1  0  0  0  0
 23 30  1  0  0  0  0
 24 26  1  0  0  0  0
 26 34  1  0  0  0  0
 30 34  1  1  0  0  0
 32 34  2  0  0  0  0
 33 34  2  0  0  0  0
  2 36  1  0  0  0  0
  3 37  1  0  0  0  0
  4 38  1  0  0  0  0
  5 39  1  0  0  0  0
  6 40  1  0  0  0  0
  7 41  1  0  0  0  0
  8 42  1  0  0  0  0
  9 43  1  0  0  0  0
 10 44  1  0  0  0  0
 18 45  1  0  0  0  0
 18 46  1  0  0  0  0
 19 47  1  0  0  0  0
 19 48  1  0  0  0  0
 20 49  1  0  0  0  0
 20 50  1  0  0  0  0
 21 51  1  0  0  0  0
 21 52  1  0  0  0  0
 22 53  1  0  0  0  0
 22 54  1  0  0  0  0
 23 55  1  0  0  0  0
 23 56  1  0  0  0  0
 26 57  1  0  0  0  0
 26 58  1  0  0  0  0
M  END
> <compound>
EDJ-MED-8bb691af-5

> <compound_smiles>
c1ccc2c(c1)cncc2N3CC4(CC3=O)CN(Cc5c4cc(cc5)Cl)S(=O)(=O)CC6(CC6)C#N

> <enantiomer_smiles>
c1ccc2c(c1)cncc2N3CC4(CC3=O)C[N@@](Cc5c4cc(cc5)Cl)S(=O)(=O)CC6(CC6)C#N

> <scaffold>
tetrahydroisoquinoline-5spiro-isoquinoline

> <clash_score>
0

> <docking_score>
-8.520851135253906

> <overlap_score>
0.9727864265441895

> <MMFF_internal_energy>
105.01369825028951

> <docked_smiles>
c1ccc2c(c1)cncc2N3C[C@]4(CC3=O)C[N@@](Cc5c4cc(cc5)Cl)S(=O)(=O)CC6(CC6)C#N

$$$$
MAT-POS-853c0ffa-17_1
  -OEChem-12272114573D

 60 65  0     1  0  0  0  0  0999 V2000
    3.3432    2.6279   20.4411 C   0  0  0  0  0  0  0  0  0  0  0  0
    3.7865    2.4205   19.1660 C   0  0  0  0  0  0  0  0  0  0  0  0
   12.0765    0.0316   24.1541 C   0  0  0  0  0  0  0  0  0  0  0  0
    3.8960    1.9291   21.5050 C   0  0  0  0  0  0  0  0  0  0  0  0
   12.9132   -0.6032   23.2569 C   0  0  0  0  0  0  0  0  0  0  0  0
   10.9991   -1.4331   22.0443 C   0  0  0  0  0  0  0  0  0  0  0  0
    5.3278    1.2339   17.6066 C   0  0  0  0  0  0  0  0  0  0  0  0
    6.8438   -0.2892   18.3752 C   0  0  0  0  0  0  0  0  0  0  0  0
    4.8226    1.4906   18.9054 C   0  0  0  0  0  0  0  0  0  0  0  0
    5.3982    0.7733   19.9948 C   0  0  0  0  0  0  0  0  0  0  0  0
   10.7040   -0.0625   23.9898 C   0  0  0  0  0  0  0  0  0  0  0  0
   10.1406   -0.7765   22.9250 C   0  0  0  0  0  0  0  0  0  0  0  0
    6.4440   -0.1472   19.6979 C   0  0  0  0  0  0  0  0  0  0  0  0
   12.3683   -1.3298   22.2234 C   0  0  0  0  0  0  0  0  0  0  0  0
    4.8973    1.0233   21.2988 C   0  0  0  0  0  0  0  0  0  0  0  0
    8.2490    0.0169   21.4271 C   0  0  0  0  0  0  0  0  0  0  0  0
    9.9479    0.5589   24.9534 C   0  0  0  0  0  0  0  0  0  0  0  0
    9.6162    5.7503   24.2277 C   0  0  0  0  0  0  0  0  0  0  0  0
    8.8345    6.1030   25.4609 C   0  0  0  0  0  0  0  0  0  0  0  0
    8.0140   -2.1541   22.4331 C   0  0  0  0  0  0  0  0  0  0  0  0
    6.9866   -1.9366   21.3580 C   0  0  0  0  0  0  0  0  0  0  0  0
    7.8721   -0.1194   23.8831 C   0  0  0  0  0  0  0  0  0  0  0  0
    8.6238   -0.7606   22.6929 C   0  0  3  0  0  0  0  0  0  0  0  0
    8.3214    5.0316   24.5273 C   0  0  0  0  0  0  0  0  0  0  0  0
    7.1236    5.3522   23.6762 C   0  0  0  0  0  0  0  0  0  0  0  0
    8.3989    3.5932   24.9882 C   0  0  0  0  0  0  0  0  0  0  0  0
    6.3062    0.3769   17.3421 N   0  0  0  0  0  0  0  0  0  0  0  0
    7.2292   -0.6897   20.7790 N   0  0  0  0  0  0  0  0  0  0  0  0
    8.6609    1.0133   24.4995 N   0  0  2  0  0  0  0  0  0  0  0  0
    8.7572    1.0941   21.1350 O   0  0  0  0  0  0  0  0  0  0  0  0
    7.4179    2.5201   22.8172 O   0  0  0  0  0  0  0  0  0  0  0  0
    9.9251    2.7322   23.0499 O   0  0  0  0  0  0  0  0  0  0  0  0
    8.6198    2.4832   23.6217 S   0  0  0  0  0  0  0  0  0  0  0  0
   13.4275   -2.1421   21.1097 Cl  0  0  0  0  0  0  0  0  0  0  0  0
    5.4623    0.2453   22.7515 Cl  0  0  0  0  0  0  0  0  0  0  0  0
    2.5425    3.3507   20.6372 H   0  0  0  0  0  0  0  0  0  0  0  0
    3.3401    2.9737   18.3362 H   0  0  0  0  0  0  0  0  0  0  0  0
   12.5015    0.5938   24.9776 H   0  0  0  0  0  0  0  0  0  0  0  0
    3.4992    2.1328   22.5080 H   0  0  0  0  0  0  0  0  0  0  0  0
   13.9911   -0.5212   23.3814 H   0  0  0  0  0  0  0  0  0  0  0  0
   10.6037   -2.0228   21.2288 H   0  0  0  0  0  0  0  0  0  0  0  0
    4.9135    1.7511   16.7477 H   0  0  0  0  0  0  0  0  0  0  0  0
    7.6449   -0.9747   18.1006 H   0  0  0  0  0  0  0  0  0  0  0  0
    9.7581   -0.1287   25.8173 H   0  0  0  0  0  0  0  0  0  0  0  0
   10.4931    1.4391   25.3829 H   0  0  0  0  0  0  0  0  0  0  0  0
    9.6341    6.4725   23.4201 H   0  0  0  0  0  0  0  0  0  0  0  0
   10.5494    5.2157   24.3596 H   0  0  0  0  0  0  0  0  0  0  0  0
    9.2443    5.8046   26.4185 H   0  0  0  0  0  0  0  0  0  0  0  0
    8.3290    7.0613   25.4790 H   0  0  0  0  0  0  0  0  0  0  0  0
    7.5801   -2.6060   23.3366 H   0  0  0  0  0  0  0  0  0  0  0  0
    8.7749   -2.8608   22.0657 H   0  0  0  0  0  0  0  0  0  0  0  0
    7.0227   -2.7506   20.5953 H   0  0  0  0  0  0  0  0  0  0  0  0
    5.9554   -1.9484   21.7832 H   0  0  0  0  0  0  0  0  0  0  0  0
    6.8886    0.2769   23.5666 H   0  0  0  0  0  0  0  0  0  0  0  0
    7.6579   -0.8710   24.6633 H   0  0  0  0  0  0  0  0  0  0  0  0
    6.2503    4.7682   23.9918 H   0  0  0  0  0  0  0  0  0  0  0  0
    7.3194    5.1238   22.6214 H   0  0  0  0  0  0  0  0  0  0  0  0
    6.8636    6.4153   23.7493 H   0  0  0  0  0  0  0  0  0  0  0  0
    7.4792    3.2960   25.4995 H   0  0  0  0  0  0  0  0  0  0  0  0
    9.2447    3.4440   25.6648 H   0  0  0  0  0  0  0  0  0  0  0  0
  1  2  2  0  0  0  0
  1  4  1  0  0  0  0
  2  9  1  0  0  0  0
  3  5  2  0  0  0  0
  3 11  1  0  0  0  0
  4 15  2  0  0  0  0
  5 14  1  0  0  0  0
  6 12  1  0  0  0  0
  6 14  2  0  0  0  0
  7  9  2  0  0  0  0
  7 27  1  0  0  0  0
  8 13  1  0  0  0  0
  8 27  2  0  0  0  0
  9 10  1  0  0  0  0
 10 13  2  0  0  0  0
 10 15  1  0  0  0  0
 11 12  2  0  0  0  0
 11 17  1  0  0  0  0
 12 23  1  0  0  0  0
 13 28  1  0  0  0  0
 14 34  1  0  0  0  0
 15 35  1  0  0  0  0
 16 23  1  0  0  0  0
 16 28  1  0  0  0  0
 16 30  2  0  0  0  0
 17 29  1  0  0  0  0
 18 19  1  0  0  0  0
 18 24  1  0  0  0  0
 19 24  1  0  0  0  0
 20 21  1  0  0  0  0
 20 23  1  0  0  0  0
 21 28  1  0  0  0  0
 22 23  1  0  0  0  0
 22 29  1  0  0  0  0
 24 25  1  0  0  0  0
 24 26  1  0  0  0  0
 26 33  1  0  0  0  0
 29 33  1  1  0  0  0
 31 33  2  0  0  0  0
 32 33  2  0  0  0  0
  1 36  1  0  0  0  0
  2 37  1  0  0  0  0
  3 38  1  0  0  0  0
  4 39  1  0  0  0  0
  5 40  1  0  0  0  0
  6 41  1  0  0  0  0
  7 42  1  0  0  0  0
  8 43  1  0  0  0  0
 17 44  1  0  0  0  0
 17 45  1  0  0  0  0
 18 46  1  0  0  0  0
 18 47  1  0  0  0  0
 19 48  1  0  0  0  0
 19 49  1  0  0  0  0
 20 50  1  0  0  0  0
 20 51  1  0  0  0  0
 21 52  1  0  0  0  0
 21 53  1  0  0  0  0
 22 54  1  0  0  0  0
 22 55  1  0  0  0  0
 25 56  1  0  0  0  0
 25 57  1  0  0  0  0
 25 58  1  0  0  0  0
 26 59  1  0  0  0  0
 26 60  1  0  0  0  0
M  END
> <compound>
MAT-POS-853c0ffa-17

> <compound_smiles>
CC1(CC1)CS(=O)(=O)N2Cc3ccc(cc3C4(C2)CCN(C4=O)c5cncc6c5c(ccc6)Cl)Cl

> <enantiomer_smiles>
CC1(CC1)CS(=O)(=O)[N@@]2Cc3ccc(cc3C4(C2)CCN(C4=O)c5cncc6c5c(ccc6)Cl)Cl

> <scaffold>
tetrahydroisoquinoline-5spiro-isoquinoline

> <clash_score>
0

> <docking_score>
-9.408751487731934

> <overlap_score>
0.9827532768249512

> <MMFF_internal_energy>
233.62515351745063

> <docked_smiles>
CC1(CC1)CS(=O)(=O)[N@@]2Cc3ccc(cc3[C@]4(C2)CCN(C4=O)c5cncc6c5c(ccc6)Cl)Cl

$$$$
EDJ-MED-8bb691af-6_1
  -OEChem-12272114573D

 58 63  0     1  0  0  0  0  0999 V2000
    9.9899    5.1222   23.8236 C   0  0  0  0  0  0  0  0  0  0  0  0
    3.3432    2.6279   20.4411 C   0  0  0  0  0  0  0  0  0  0  0  0
    3.8960    1.9291   21.5050 C   0  0  0  0  0  0  0  0  0  0  0  0
    3.7865    2.4205   19.1660 C   0  0  0  0  0  0  0  0  0  0  0  0
    4.8973    1.0233   21.2988 C   0  0  0  0  0  0  0  0  0  0  0  0
   12.0765    0.0316   24.1541 C   0  0  0  0  0  0  0  0  0  0  0  0
   12.9132   -0.6032   23.2569 C   0  0  0  0  0  0  0  0  0  0  0  0
   10.9991   -1.4331   22.0443 C   0  0  0  0  0  0  0  0  0  0  0  0
    5.3278    1.2339   17.6066 C   0  0  0  0  0  0  0  0  0  0  0  0
    6.8438   -0.2892   18.3752 C   0  0  0  0  0  0  0  0  0  0  0  0
    4.8226    1.4906   18.9054 C   0  0  0  0  0  0  0  0  0  0  0  0
    5.3982    0.7733   19.9948 C   0  0  0  0  0  0  0  0  0  0  0  0
   10.7040   -0.0625   23.9898 C   0  0  0  0  0  0  0  0  0  0  0  0
   10.1406   -0.7765   22.9250 C   0  0  0  0  0  0  0  0  0  0  0  0
    6.4440   -0.1472   19.6979 C   0  0  0  0  0  0  0  0  0  0  0  0
   12.3683   -1.3298   22.2234 C   0  0  0  0  0  0  0  0  0  0  0  0
    8.2490    0.0169   21.4271 C   0  0  0  0  0  0  0  0  0  0  0  0
    9.9479    0.5589   24.9534 C   0  0  0  0  0  0  0  0  0  0  0  0
    8.5324    6.1021   25.6323 C   0  0  0  0  0  0  0  0  0  0  0  0
    7.7014    6.0179   24.3861 C   0  0  0  0  0  0  0  0  0  0  0  0
    8.0140   -2.1541   22.4331 C   0  0  0  0  0  0  0  0  0  0  0  0
    6.9866   -1.9366   21.3580 C   0  0  0  0  0  0  0  0  0  0  0  0
    7.8721   -0.1194   23.8831 C   0  0  0  0  0  0  0  0  0  0  0  0
    8.7994    5.0058   24.6255 C   0  0  0  0  0  0  0  0  0  0  0  0
    8.6238   -0.7606   22.6929 C   0  0  3  0  0  0  0  0  0  0  0  0
    8.3989    3.5932   24.9882 C   0  0  0  0  0  0  0  0  0  0  0  0
   10.9490    5.2161   23.1776 N   0  0  0  0  0  0  0  0  0  0  0  0
    6.3062    0.3769   17.3421 N   0  0  0  0  0  0  0  0  0  0  0  0
    7.2292   -0.6897   20.7790 N   0  0  0  0  0  0  0  0  0  0  0  0
    8.6609    1.0133   24.4995 N   0  0  1  0  0  0  0  0  0  0  0  0
    8.7572    1.0941   21.1350 O   0  0  0  0  0  0  0  0  0  0  0  0
    7.4179    2.5201   22.8172 O   0  0  0  0  0  0  0  0  0  0  0  0
    9.9251    2.7322   23.0499 O   0  0  0  0  0  0  0  0  0  0  0  0
    8.6198    2.4832   23.6217 S   0  0  0  0  0  0  0  0  0  0  0  0
   13.4275   -2.1421   21.1097 Cl  0  0  0  0  0  0  0  0  0  0  0  0
    2.5432    3.3510   20.6369 H   0  0  0  0  0  0  0  0  0  0  0  0
    3.5174    2.1137   22.5168 H   0  0  0  0  0  0  0  0  0  0  0  0
    3.3409    2.9743   18.3364 H   0  0  0  0  0  0  0  0  0  0  0  0
    5.3118    0.4895   22.1572 H   0  0  0  0  0  0  0  0  0  0  0  0
   12.5015    0.5938   24.9776 H   0  0  0  0  0  0  0  0  0  0  0  0
   13.9911   -0.5212   23.3814 H   0  0  0  0  0  0  0  0  0  0  0  0
   10.6037   -2.0228   21.2288 H   0  0  0  0  0  0  0  0  0  0  0  0
    4.9141    1.7511   16.7474 H   0  0  0  0  0  0  0  0  0  0  0  0
    7.6445   -0.9764   18.1043 H   0  0  0  0  0  0  0  0  0  0  0  0
    9.7581   -0.1287   25.8173 H   0  0  0  0  0  0  0  0  0  0  0  0
   10.4931    1.4391   25.3829 H   0  0  0  0  0  0  0  0  0  0  0  0
    9.2347    6.9241   25.7129 H   0  0  0  0  0  0  0  0  0  0  0  0
    8.0587    5.8395   26.5712 H   0  0  0  0  0  0  0  0  0  0  0  0
    6.6706    5.6996   24.4905 H   0  0  0  0  0  0  0  0  0  0  0  0
    7.8473    6.7843   23.6333 H   0  0  0  0  0  0  0  0  0  0  0  0
    7.5801   -2.6060   23.3366 H   0  0  0  0  0  0  0  0  0  0  0  0
    8.7749   -2.8608   22.0657 H   0  0  0  0  0  0  0  0  0  0  0  0
    7.0227   -2.7506   20.5953 H   0  0  0  0  0  0  0  0  0  0  0  0
    5.9554   -1.9484   21.7832 H   0  0  0  0  0  0  0  0  0  0  0  0
    6.8886    0.2769   23.5666 H   0  0  0  0  0  0  0  0  0  0  0  0
    7.6579   -0.8710   24.6633 H   0  0  0  0  0  0  0  0  0  0  0  0
    7.3445    3.5466   25.2742 H   0  0  0  0  0  0  0  0  0  0  0  0
    9.0072    3.2136   25.8136 H   0  0  0  0  0  0  0  0  0  0  0  0
  1 24  1  0  0  0  0
  1 27  3  0  0  0  0
  2  3  1  0  0  0  0
  2  4  2  0  0  0  0
  3  5  2  0  0  0  0
  4 11  1  0  0  0  0
  5 12  1  0  0  0  0
  6  7  1  0  0  0  0
  6 13  2  0  0  0  0
  7 16  2  0  0  0  0
  8 14  2  0  0  0  0
  8 16  1  0  0  0  0
  9 11  2  0  0  0  0
  9 28  1  0  0  0  0
 10 15  1  0  0  0  0
 10 28  2  0  0  0  0
 11 12  1  0  0  0  0
 12 15  2  0  0  0  0
 13 14  1  0  0  0  0
 13 18  1  0  0  0  0
 14 25  1  0  0  0  0
 15 29  1  0  0  0  0
 16 35  1  0  0  0  0
 17 25  1  0  0  0  0
 17 29  1  0  0  0  0
 17 31  2  0  0  0  0
 18 30  1  0  0  0  0
 19 20  1  0  0  0  0
 19 24  1  0  0  0  0
 20 24  1  0  0  0  0
 21 22  1  0  0  0  0
 21 25  1  0  0  0  0
 22 29  1  0  0  0  0
 23 25  1  0  0  0  0
 23 30  1  0  0  0  0
 24 26  1  0  0  0  0
 26 34  1  0  0  0  0
 30 34  1  1  0  0  0
 32 34  2  0  0  0  0
 33 34  2  0  0  0  0
  2 36  1  0  0  0  0
  3 37  1  0  0  0  0
  4 38  1  0  0  0  0
  5 39  1  0  0  0  0
  6 40  1  0  0  0  0
  7 41  1  0  0  0  0
  8 42  1  0  0  0  0
  9 43  1  0  0  0  0
 10 44  1  0  0  0  0
 18 45  1  0  0  0  0
 18 46  1  0  0  0  0
 19 47  1  0  0  0  0
 19 48  1  0  0  0  0
 20 49  1  0  0  0  0
 20 50  1  0  0  0  0
 21 51  1  0  0  0  0
 21 52  1  0  0  0  0
 22 53  1  0  0  0  0
 22 54  1  0  0  0  0
 23 55  1  0  0  0  0
 23 56  1  0  0  0  0
 26 57  1  0  0  0  0
 26 58  1  0  0  0  0
M  END
> <compound>
EDJ-MED-8bb691af-6

> <compound_smiles>
c1ccc2c(c1)cncc2N3CCC4(C3=O)CN(Cc5c4cc(cc5)Cl)S(=O)(=O)CC6(CC6)C#N

> <enantiomer_smiles>
c1ccc2c(c1)cncc2N3CCC4(C3=O)C[N@@](Cc5c4cc(cc5)Cl)S(=O)(=O)CC6(CC6)C#N

> <scaffold>
tetrahydroisoquinoline-5spiro-isoquinoline

> <clash_score>
0

> <docking_score>
-9.21580696105957

> <overlap_score>
0.9734877347946167

> <MMFF_internal_energy>
135.0583350593557

> <docked_smiles>
c1ccc2c(c1)cncc2N3CC[C@@]4(C3=O)C[N@@](Cc5c4cc(cc5)Cl)S(=O)(=O)CC6(CC6)C#N

$$$$
EDJ-MED-8bb691af-5_2
  -OEChem-12272114573D

 58 63  0     1  0  0  0  0  0999 V2000
    7.3021    3.4430   22.7796 C   0  0  0  0  0  0  0  0  0  0  0  0
    3.3432    2.6279   20.4411 C   0  0  0  0  0  0  0  0  0  0  0  0
    3.8960    1.9291   21.5050 C   0  0  0  0  0  0  0  0  0  0  0  0
    3.7865    2.4205   19.1660 C   0  0  0  0  0  0  0  0  0  0  0  0
    4.8973    1.0233   21.2988 C   0  0  0  0  0  0  0  0  0  0  0  0
   12.0765    0.0316   24.1541 C   0  0  0  0  0  0  0  0  0  0  0  0
   12.9132   -0.6032   23.2569 C   0  0  0  0  0  0  0  0  0  0  0  0
   10.9991   -1.4331   22.0443 C   0  0  0  0  0  0  0  0  0  0  0  0
    5.3278    1.2339   17.6066 C   0  0  0  0  0  0  0  0  0  0  0  0
    6.8438   -0.2892   18.3752 C   0  0  0  0  0  0  0  0  0  0  0  0
    4.8226    1.4906   18.9054 C   0  0  0  0  0  0  0  0  0  0  0  0
    5.3982    0.7733   19.9948 C   0  0  0  0  0  0  0  0  0  0  0  0
   10.7040   -0.0625   23.9898 C   0  0  0  0  0  0  0  0  0  0  0  0
   10.1406   -0.7765   22.9250 C   0  0  0  0  0  0  0  0  0  0  0  0
    6.4440   -0.1472   19.6979 C   0  0  0  0  0  0  0  0  0  0  0  0
   12.3683   -1.3298   22.2234 C   0  0  0  0  0  0  0  0  0  0  0  0
    6.9866   -1.9366   21.3580 C   0  0  0  0  0  0  0  0  0  0  0  0
    9.9479    0.5589   24.9534 C   0  0  0  0  0  0  0  0  0  0  0  0
    8.0140   -2.1541   22.4331 C   0  0  0  0  0  0  0  0  0  0  0  0
    9.8076    3.1982   22.9160 C   0  0  0  0  0  0  0  0  0  0  0  0
    9.4999    4.6661   22.9509 C   0  0  0  0  0  0  0  0  0  0  0  0
    8.2490    0.0169   21.4271 C   0  0  0  0  0  0  0  0  0  0  0  0
    7.8721   -0.1194   23.8831 C   0  0  0  0  0  0  0  0  0  0  0  0
    8.5103    3.6782   23.5271 C   0  0  0  0  0  0  0  0  0  0  0  0
    8.6238   -0.7606   22.6929 C   0  0  3  0  0  0  0  0  0  0  0  0
    8.3642    3.6116   25.0309 C   0  0  0  0  0  0  0  0  0  0  0  0
    6.3288    3.2534   22.1773 N   0  0  0  0  0  0  0  0  0  0  0  0
    6.3062    0.3769   17.3421 N   0  0  0  0  0  0  0  0  0  0  0  0
    7.2292   -0.6897   20.7790 N   0  0  0  0  0  0  0  0  0  0  0  0
    8.6609    1.0133   24.4995 N   0  0  2  0  0  0  0  0  0  0  0  0
    6.1312   -2.7579   21.0391 O   0  0  0  0  0  0  0  0  0  0  0  0
    8.2287    1.8047   26.9134 O   0  0  0  0  0  0  0  0  0  0  0  0
    6.3743    1.9267   25.2011 O   0  0  0  0  0  0  0  0  0  0  0  0
    7.7732    2.0236   25.5576 S   0  0  0  0  0  0  0  0  0  0  0  0
   13.4285   -2.1404   21.1099 Cl  0  0  0  0  0  0  0  0  0  0  0  0
    2.5432    3.3510   20.6369 H   0  0  0  0  0  0  0  0  0  0  0  0
    3.5174    2.1137   22.5168 H   0  0  0  0  0  0  0  0  0  0  0  0
    3.3409    2.9743   18.3364 H   0  0  0  0  0  0  0  0  0  0  0  0
    5.3118    0.4895   22.1572 H   0  0  0  0  0  0  0  0  0  0  0  0
   12.5030    0.5958   24.9751 H   0  0  0  0  0  0  0  0  0  0  0  0
   13.9915   -0.5185   23.3805 H   0  0  0  0  0  0  0  0  0  0  0  0
   10.6200   -2.0206   21.2248 H   0  0  0  0  0  0  0  0  0  0  0  0
    4.9141    1.7511   16.7474 H   0  0  0  0  0  0  0  0  0  0  0  0
    7.6445   -0.9764   18.1043 H   0  0  0  0  0  0  0  0  0  0  0  0
    9.7819   -0.1192   25.8284 H   0  0  0  0  0  0  0  0  0  0  0  0
   10.4781    1.4566   25.3594 H   0  0  0  0  0  0  0  0  0  0  0  0
    7.5451   -2.5926   23.3208 H   0  0  0  0  0  0  0  0  0  0  0  0
    8.7549   -2.8595   22.0378 H   0  0  0  0  0  0  0  0  0  0  0  0
    9.7828    2.7028   21.9519 H   0  0  0  0  0  0  0  0  0  0  0  0
   10.5866    2.8319   23.5746 H   0  0  0  0  0  0  0  0  0  0  0  0
   10.0736    5.2833   23.6326 H   0  0  0  0  0  0  0  0  0  0  0  0
    9.2701    5.1528   22.0099 H   0  0  0  0  0  0  0  0  0  0  0  0
    7.9405    1.0633   21.6429 H   0  0  0  0  0  0  0  0  0  0  0  0
    9.1086    0.0831   20.7261 H   0  0  0  0  0  0  0  0  0  0  0  0
    6.8939    0.2739   23.5520 H   0  0  0  0  0  0  0  0  0  0  0  0
    7.6593   -0.8676   24.6694 H   0  0  0  0  0  0  0  0  0  0  0  0
    7.6479    4.3567   25.3879 H   0  0  0  0  0  0  0  0  0  0  0  0
    9.3251    3.7783   25.5252 H   0  0  0  0  0  0  0  0  0  0  0  0
  1 24  1  0  0  0  0
  1 27  3  0  0  0  0
  2  3  1  0  0  0  0
  2  4  2  0  0  0  0
  3  5  2  0  0  0  0
  4 11  1  0  0  0  0
  5 12  1  0  0  0  0
  6  7  1  0  0  0  0
  6 13  2  0  0  0  0
  7 16  2  0  0  0  0
  8 14  2  0  0  0  0
  8 16  1  0  0  0  0
  9 11  2  0  0  0  0
  9 28  1  0  0  0  0
 10 15  1  0  0  0  0
 10 28  2  0  0  0  0
 11 12  1  0  0  0  0
 12 15  2  0  0  0  0
 13 14  1  0  0  0  0
 13 18  1  0  0  0  0
 14 25  1  0  0  0  0
 15 29  1  0  0  0  0
 16 35  1  0  0  0  0
 17 19  1  0  0  0  0
 17 29  1  0  0  0  0
 17 31  2  0  0  0  0
 18 30  1  0  0  0  0
 19 25  1  0  0  0  0
 20 21  1  0  0  0  0
 20 24  1  0  0  0  0
 21 24  1  0  0  0  0
 22 25  1  0  0  0  0
 22 29  1  0  0  0  0
 23 25  1  0  0  0  0
 23 30  1  0  0  0  0
 24 26  1  0  0  0  0
 26 34  1  0  0  0  0
 30 34  1  6  0  0  0
 32 34  2  0  0  0  0
 33 34  2  0  0  0  0
  2 36  1  0  0  0  0
  3 37  1  0  0  0  0
  4 38  1  0  0  0  0
  5 39  1  0  0  0  0
  6 40  1  0  0  0  0
  7 41  1  0  0  0  0
  8 42  1  0  0  0  0
  9 43  1  0  0  0  0
 10 44  1  0  0  0  0
 18 45  1  0  0  0  0
 18 46  1  0  0  0  0
 19 47  1  0  0  0  0
 19 48  1  0  0  0  0
 20 49  1  0  0  0  0
 20 50  1  0  0  0  0
 21 51  1  0  0  0  0
 21 52  1  0  0  0  0
 22 53  1  0  0  0  0
 22 54  1  0  0  0  0
 23 55  1  0  0  0  0
 23 56  1  0  0  0  0
 26 57  1  0  0  0  0
 26 58  1  0  0  0  0
M  END
> <compound>
EDJ-MED-8bb691af-5

> <compound_smiles>
c1ccc2c(c1)cncc2N3CC4(CC3=O)CN(Cc5c4cc(cc5)Cl)S(=O)(=O)CC6(CC6)C#N

> <enantiomer_smiles>
c1ccc2c(c1)cncc2N3CC4(CC3=O)C[N@](Cc5c4cc(cc5)Cl)S(=O)(=O)CC6(CC6)C#N

> <scaffold>
tetrahydroisoquinoline-5spiro-isoquinoline

> <clash_score>
0

> <docking_score>
-8.046125411987305

> <overlap_score>
0.9731566309928894

> <MMFF_internal_energy>
100.9690161780906

> <docked_smiles>
c1ccc2c(c1)cncc2N3C[C@]4(CC3=O)C[N@](Cc5c4cc(cc5)Cl)S(=O)(=O)CC6(CC6)C#N

$$$$
EDJ-MED-8bb691af-6_2
  -OEChem-12272114573D

 58 63  0     1  0  0  0  0  0999 V2000
    7.3205    3.4054   22.7658 C   0  0  0  0  0  0  0  0  0  0  0  0
    3.3432    2.6279   20.4411 C   0  0  0  0  0  0  0  0  0  0  0  0
    3.8960    1.9291   21.5050 C   0  0  0  0  0  0  0  0  0  0  0  0
    3.7865    2.4205   19.1660 C   0  0  0  0  0  0  0  0  0  0  0  0
    4.8973    1.0233   21.2988 C   0  0  0  0  0  0  0  0  0  0  0  0
   12.0765    0.0316   24.1541 C   0  0  0  0  0  0  0  0  0  0  0  0
   12.9132   -0.6032   23.2569 C   0  0  0  0  0  0  0  0  0  0  0  0
   10.9991   -1.4331   22.0443 C   0  0  0  0  0  0  0  0  0  0  0  0
    5.3278    1.2339   17.6066 C   0  0  0  0  0  0  0  0  0  0  0  0
    6.8438   -0.2892   18.3752 C   0  0  0  0  0  0  0  0  0  0  0  0
    4.8226    1.4906   18.9054 C   0  0  0  0  0  0  0  0  0  0  0  0
    5.3982    0.7733   19.9948 C   0  0  0  0  0  0  0  0  0  0  0  0
   10.7040   -0.0625   23.9898 C   0  0  0  0  0  0  0  0  0  0  0  0
   10.1406   -0.7765   22.9250 C   0  0  0  0  0  0  0  0  0  0  0  0
    6.4440   -0.1472   19.6979 C   0  0  0  0  0  0  0  0  0  0  0  0
   12.3683   -1.3298   22.2234 C   0  0  0  0  0  0  0  0  0  0  0  0
    8.2490    0.0169   21.4271 C   0  0  0  0  0  0  0  0  0  0  0  0
    9.9479    0.5589   24.9534 C   0  0  0  0  0  0  0  0  0  0  0  0
    9.8217    3.1213   22.9038 C   0  0  0  0  0  0  0  0  0  0  0  0
    9.5383    4.5944   22.9183 C   0  0  0  0  0  0  0  0  0  0  0  0
    8.0140   -2.1541   22.4331 C   0  0  0  0  0  0  0  0  0  0  0  0
    6.9866   -1.9366   21.3580 C   0  0  0  0  0  0  0  0  0  0  0  0
    7.8721   -0.1194   23.8831 C   0  0  0  0  0  0  0  0  0  0  0  0
    8.5331    3.6312   23.5091 C   0  0  0  0  0  0  0  0  0  0  0  0
    8.6238   -0.7606   22.6929 C   0  0  3  0  0  0  0  0  0  0  0  0
    8.3874    3.5882   25.0137 C   0  0  0  0  0  0  0  0  0  0  0  0
    6.3436    3.2234   22.1669 N   0  0  0  0  0  0  0  0  0  0  0  0
    6.3062    0.3769   17.3421 N   0  0  0  0  0  0  0  0  0  0  0  0
    7.2292   -0.6897   20.7790 N   0  0  0  0  0  0  0  0  0  0  0  0
    8.6609    1.0133   24.4995 N   0  0  2  0  0  0  0  0  0  0  0  0
    8.8299    1.0397   21.0799 O   0  0  0  0  0  0  0  0  0  0  0  0
    8.2407    1.8013   26.9144 O   0  0  0  0  0  0  0  0  0  0  0  0
    6.3653    1.9471   25.2271 O   0  0  0  0  0  0  0  0  0  0  0  0
    7.7708    2.0177   25.5632 S   0  0  0  0  0  0  0  0  0  0  0  0
   13.4272   -2.1411   21.1086 Cl  0  0  0  0  0  0  0  0  0  0  0  0
    2.5432    3.3510   20.6369 H   0  0  0  0  0  0  0  0  0  0  0  0
    3.5174    2.1137   22.5168 H   0  0  0  0  0  0  0  0  0  0  0  0
    3.3409    2.9743   18.3364 H   0  0  0  0  0  0  0  0  0  0  0  0
    5.3118    0.4895   22.1572 H   0  0  0  0  0  0  0  0  0  0  0  0
   12.5024    0.5995   24.9735 H   0  0  0  0  0  0  0  0  0  0  0  0
   13.9910   -0.5177   23.3793 H   0  0  0  0  0  0  0  0  0  0  0  0
   10.6036   -2.0162   21.2241 H   0  0  0  0  0  0  0  0  0  0  0  0
    4.9141    1.7511   16.7474 H   0  0  0  0  0  0  0  0  0  0  0  0
    7.6445   -0.9764   18.1043 H   0  0  0  0  0  0  0  0  0  0  0  0
    9.7849   -0.1194   25.8306 H   0  0  0  0  0  0  0  0  0  0  0  0
   10.4793    1.4568   25.3613 H   0  0  0  0  0  0  0  0  0  0  0  0
    9.7878    2.6129   21.9468 H   0  0  0  0  0  0  0  0  0  0  0  0
   10.5952    2.7515   23.5670 H   0  0  0  0  0  0  0  0  0  0  0  0
   10.1228    5.2116   23.5908 H   0  0  0  0  0  0  0  0  0  0  0  0
    9.3157    5.0716   21.9707 H   0  0  0  0  0  0  0  0  0  0  0  0
    7.5152   -2.5456   23.3338 H   0  0  0  0  0  0  0  0  0  0  0  0
    8.7649   -2.9030   22.1434 H   0  0  0  0  0  0  0  0  0  0  0  0
    7.0587   -2.7248   20.5721 H   0  0  0  0  0  0  0  0  0  0  0  0
    5.9518   -1.9952   21.7720 H   0  0  0  0  0  0  0  0  0  0  0  0
    6.8867    0.2641   23.5642 H   0  0  0  0  0  0  0  0  0  0  0  0
    7.6652   -0.8660   24.6733 H   0  0  0  0  0  0  0  0  0  0  0  0
    7.6838    4.3500   25.3607 H   0  0  0  0  0  0  0  0  0  0  0  0
    9.3513    3.7460   25.5050 H   0  0  0  0  0  0  0  0  0  0  0  0
  1 24  1  0  0  0  0
  1 27  3  0  0  0  0
  2  3  1  0  0  0  0
  2  4  2  0  0  0  0
  3  5  2  0  0  0  0
  4 11  1  0  0  0  0
  5 12  1  0  0  0  0
  6  7  1  0  0  0  0
  6 13  2  0  0  0  0
  7 16  2  0  0  0  0
  8 14  2  0  0  0  0
  8 16  1  0  0  0  0
  9 11  2  0  0  0  0
  9 28  1  0  0  0  0
 10 15  1  0  0  0  0
 10 28  2  0  0  0  0
 11 12  1  0  0  0  0
 12 15  2  0  0  0  0
 13 14  1  0  0  0  0
 13 18  1  0  0  0  0
 14 25  1  0  0  0  0
 15 29  1  0  0  0  0
 16 35  1  0  0  0  0
 17 25  1  0  0  0  0
 17 29  1  0  0  0  0
 17 31  2  0  0  0  0
 18 30  1  0  0  0  0
 19 20  1  0  0  0  0
 19 24  1  0  0  0  0
 20 24  1  0  0  0  0
 21 22  1  0  0  0  0
 21 25  1  0  0  0  0
 22 29  1  0  0  0  0
 23 25  1  0  0  0  0
 23 30  1  0  0  0  0
 24 26  1  0  0  0  0
 26 34  1  0  0  0  0
 30 34  1  6  0  0  0
 32 34  2  0  0  0  0
 33 34  2  0  0  0  0
  2 36  1  0  0  0  0
  3 37  1  0  0  0  0
  4 38  1  0  0  0  0
  5 39  1  0  0  0  0
  6 40  1  0  0  0  0
  7 41  1  0  0  0  0
  8 42  1  0  0  0  0
  9 43  1  0  0  0  0
 10 44  1  0  0  0  0
 18 45  1  0  0  0  0
 18 46  1  0  0  0  0
 19 47  1  0  0  0  0
 19 48  1  0  0  0  0
 20 49  1  0  0  0  0
 20 50  1  0  0  0  0
 21 51  1  0  0  0  0
 21 52  1  0  0  0  0
 22 53  1  0  0  0  0
 22 54  1  0  0  0  0
 23 55  1  0  0  0  0
 23 56  1  0  0  0  0
 26 57  1  0  0  0  0
 26 58  1  0  0  0  0
M  END
> <compound>
EDJ-MED-8bb691af-6

> <compound_smiles>
c1ccc2c(c1)cncc2N3CCC4(C3=O)CN(Cc5c4cc(cc5)Cl)S(=O)(=O)CC6(CC6)C#N

> <enantiomer_smiles>
c1ccc2c(c1)cncc2N3CCC4(C3=O)C[N@](Cc5c4cc(cc5)Cl)S(=O)(=O)CC6(CC6)C#N

> <scaffold>
tetrahydroisoquinoline-5spiro-isoquinoline

> <clash_score>
0

> <docking_score>
-8.720376968383789

> <overlap_score>
0.9743955731391907

> <MMFF_internal_energy>
122.63312186447946

> <docked_smiles>
c1ccc2c(c1)cncc2N3CC[C@@]4(C3=O)C[N@](Cc5c4cc(cc5)Cl)S(=O)(=O)CC6(CC6)C#N

$$$$
ALP-POS-ecbed2ba-6_2
  -OEChem-12272114573D

 61 66  0     1  0  0  0  0  0999 V2000
    3.3432    2.6279   20.4411 C   0  0  0  0  0  0  0  0  0  0  0  0
    3.8960    1.9291   21.5050 C   0  0  0  0  0  0  0  0  0  0  0  0
    3.7865    2.4205   19.1660 C   0  0  0  0  0  0  0  0  0  0  0  0
    4.8973    1.0233   21.2988 C   0  0  0  0  0  0  0  0  0  0  0  0
   12.0765    0.0316   24.1541 C   0  0  0  0  0  0  0  0  0  0  0  0
   12.9132   -0.6032   23.2569 C   0  0  0  0  0  0  0  0  0  0  0  0
   10.9991   -1.4331   22.0443 C   0  0  0  0  0  0  0  0  0  0  0  0
    5.3278    1.2339   17.6066 C   0  0  0  0  0  0  0  0  0  0  0  0
    6.8438   -0.2892   18.3752 C   0  0  0  0  0  0  0  0  0  0  0  0
    4.8226    1.4906   18.9054 C   0  0  0  0  0  0  0  0  0  0  0  0
    5.3982    0.7733   19.9948 C   0  0  0  0  0  0  0  0  0  0  0  0
   10.7040   -0.0625   23.9898 C   0  0  0  0  0  0  0  0  0  0  0  0
   10.1406   -0.7765   22.9250 C   0  0  0  0  0  0  0  0  0  0  0  0
    6.4440   -0.1472   19.6979 C   0  0  0  0  0  0  0  0  0  0  0  0
   12.3683   -1.3298   22.2234 C   0  0  0  0  0  0  0  0  0  0  0  0
    8.2490    0.0169   21.4271 C   0  0  0  0  0  0  0  0  0  0  0  0
    9.9479    0.5589   24.9534 C   0  0  0  0  0  0  0  0  0  0  0  0
    6.3968    5.2306   25.4276 C   0  0  0  0  0  0  0  0  0  0  0  0
    6.6062    4.4762   26.7113 C   0  0  0  0  0  0  0  0  0  0  0  0
    8.0140   -2.1541   22.4331 C   0  0  0  0  0  0  0  0  0  0  0  0
    6.9866   -1.9366   21.3580 C   0  0  0  0  0  0  0  0  0  0  0  0
    7.8721   -0.1194   23.8831 C   0  0  0  0  0  0  0  0  0  0  0  0
    8.6238   -0.7606   22.6929 C   0  0  3  0  0  0  0  0  0  0  0  0
    7.7686    4.7292   25.7898 C   0  0  0  0  0  0  0  0  0  0  0  0
    9.2684    6.4037   25.1046 C   0  0  0  0  0  0  0  0  0  0  0  0
    8.3874    3.5882   25.0137 C   0  0  0  0  0  0  0  0  0  0  0  0
    6.3062    0.3769   17.3421 N   0  0  0  0  0  0  0  0  0  0  0  0
    7.2292   -0.6897   20.7790 N   0  0  0  0  0  0  0  0  0  0  0  0
    8.6609    1.0133   24.4995 N   0  0  1  0  0  0  0  0  0  0  0  0
    8.8299    1.0397   21.0799 O   0  0  0  0  0  0  0  0  0  0  0  0
    8.2407    1.8013   26.9144 O   0  0  0  0  0  0  0  0  0  0  0  0
    6.3653    1.9471   25.2271 O   0  0  0  0  0  0  0  0  0  0  0  0
    8.7111    5.7271   26.2159 O   0  0  0  0  0  0  0  0  0  0  0  0
    7.7708    2.0177   25.5632 S   0  0  0  0  0  0  0  0  0  0  0  0
   13.4272   -2.1411   21.1086 Cl  0  0  0  0  0  0  0  0  0  0  0  0
    2.5432    3.3510   20.6369 H   0  0  0  0  0  0  0  0  0  0  0  0
    3.5174    2.1137   22.5168 H   0  0  0  0  0  0  0  0  0  0  0  0
    3.3409    2.9743   18.3364 H   0  0  0  0  0  0  0  0  0  0  0  0
    5.3118    0.4895   22.1572 H   0  0  0  0  0  0  0  0  0  0  0  0
   12.5024    0.5995   24.9735 H   0  0  0  0  0  0  0  0  0  0  0  0
   13.9910   -0.5177   23.3793 H   0  0  0  0  0  0  0  0  0  0  0  0
   10.6036   -2.0162   21.2241 H   0  0  0  0  0  0  0  0  0  0  0  0
    4.9141    1.7511   16.7474 H   0  0  0  0  0  0  0  0  0  0  0  0
    7.6445   -0.9764   18.1043 H   0  0  0  0  0  0  0  0  0  0  0  0
    9.7849   -0.1194   25.8306 H   0  0  0  0  0  0  0  0  0  0  0  0
   10.4793    1.4568   25.3613 H   0  0  0  0  0  0  0  0  0  0  0  0
    5.8551    4.7302   24.6340 H   0  0  0  0  0  0  0  0  0  0  0  0
    6.2057    6.2948   25.4948 H   0  0  0  0  0  0  0  0  0  0  0  0
    6.5550    5.0353   27.6379 H   0  0  0  0  0  0  0  0  0  0  0  0
    6.2048    3.4720   26.7745 H   0  0  0  0  0  0  0  0  0  0  0  0
    7.5152   -2.5456   23.3338 H   0  0  0  0  0  0  0  0  0  0  0  0
    8.7649   -2.9030   22.1434 H   0  0  0  0  0  0  0  0  0  0  0  0
    7.0587   -2.7248   20.5721 H   0  0  0  0  0  0  0  0  0  0  0  0
    5.9518   -1.9952   21.7720 H   0  0  0  0  0  0  0  0  0  0  0  0
    6.8867    0.2641   23.5642 H   0  0  0  0  0  0  0  0  0  0  0  0
    7.6652   -0.8660   24.6733 H   0  0  0  0  0  0  0  0  0  0  0  0
    9.9802    7.1555   25.4542 H   0  0  0  0  0  0  0  0  0  0  0  0
    8.4706    6.8812   24.5300 H   0  0  0  0  0  0  0  0  0  0  0  0
    9.7876    5.6802   24.4717 H   0  0  0  0  0  0  0  0  0  0  0  0
    9.4732    3.5710   25.1421 H   0  0  0  0  0  0  0  0  0  0  0  0
    8.1577    3.6698   23.9479 H   0  0  0  0  0  0  0  0  0  0  0  0
  1  2  1  0  0  0  0
  1  3  2  0  0  0  0
  2  4  2  0  0  0  0
  3 10  1  0  0  0  0
  4 11  1  0  0  0  0
  5  6  2  0  0  0  0
  5 12  1  0  0  0  0
  6 15  1  0  0  0  0
  7 13  1  0  0  0  0
  7 15  2  0  0  0  0
  8 10  2  0  0  0  0
  8 27  1  0  0  0  0
  9 14  1  0  0  0  0
  9 27  2  0  0  0  0
 10 11  1  0  0  0  0
 11 14  2  0  0  0  0
 12 13  2  0  0  0  0
 12 17  1  0  0  0  0
 13 23  1  0  0  0  0
 14 28  1  0  0  0  0
 15 35  1  0  0  0  0
 16 23  1  0  0  0  0
 16 28  1  0  0  0  0
 16 30  2  0  0  0  0
 17 29  1  0  0  0  0
 18 19  1  0  0  0  0
 18 24  1  0  0  0  0
 19 24  1  0  0  0  0
 20 21  1  0  0  0  0
 20 23  1  0  0  0  0
 21 28  1  0  0  0  0
 22 23  1  0  0  0  0
 22 29  1  0  0  0  0
 24 26  1  0  0  0  0
 24 33  1  0  0  0  0
 25 33  1  0  0  0  0
 26 34  1  0  0  0  0
 29 34  1  6  0  0  0
 31 34  2  0  0  0  0
 32 34  2  0  0  0  0
  1 36  1  0  0  0  0
  2 37  1  0  0  0  0
  3 38  1  0  0  0  0
  4 39  1  0  0  0  0
  5 40  1  0  0  0  0
  6 41  1  0  0  0  0
  7 42  1  0  0  0  0
  8 43  1  0  0  0  0
  9 44  1  0  0  0  0
 17 45  1  0  0  0  0
 17 46  1  0  0  0  0
 18 47  1  0  0  0  0
 18 48  1  0  0  0  0
 19 49  1  0  0  0  0
 19 50  1  0  0  0  0
 20 51  1  0  0  0  0
 20 52  1  0  0  0  0
 21 53  1  0  0  0  0
 21 54  1  0  0  0  0
 22 55  1  0  0  0  0
 22 56  1  0  0  0  0
 25 57  1  0  0  0  0
 25 58  1  0  0  0  0
 25 59  1  0  0  0  0
 26 60  1  0  0  0  0
 26 61  1  0  0  0  0
M  END
> <compound>
ALP-POS-ecbed2ba-6

> <compound_smiles>
COC1(CC1)CS(=O)(=O)N2Cc3ccc(cc3C4(C2)CCN(C4=O)c5cncc6c5cccc6)Cl

> <enantiomer_smiles>
COC1(CC1)CS(=O)(=O)[N@]2Cc3ccc(cc3C4(C2)CCN(C4=O)c5cncc6c5cccc6)Cl

> <scaffold>
tetrahydroisoquinoline-5spiro-isoquinoline

> <clash_score>
0

> <docking_score>
-8.685564041137695

> <overlap_score>
0.9701404571533203

> <MMFF_internal_energy>
129.05221845872097

> <docked_smiles>
COC1(CC1)CS(=O)(=O)[N@]2Cc3ccc(cc3[C@]4(C2)CCN(C4=O)c5cncc6c5cccc6)Cl

$$$$
MAT-POS-853c0ffa-17_2
  -OEChem-12272114573D

 60 65  0     1  0  0  0  0  0999 V2000
    3.3432    2.6279   20.4411 C   0  0  0  0  0  0  0  0  0  0  0  0
    3.7865    2.4205   19.1660 C   0  0  0  0  0  0  0  0  0  0  0  0
   12.0765    0.0316   24.1541 C   0  0  0  0  0  0  0  0  0  0  0  0
    3.8960    1.9291   21.5050 C   0  0  0  0  0  0  0  0  0  0  0  0
   12.9132   -0.6032   23.2569 C   0  0  0  0  0  0  0  0  0  0  0  0
   10.9991   -1.4331   22.0443 C   0  0  0  0  0  0  0  0  0  0  0  0
    5.3278    1.2339   17.6066 C   0  0  0  0  0  0  0  0  0  0  0  0
    6.8438   -0.2892   18.3752 C   0  0  0  0  0  0  0  0  0  0  0  0
    4.8226    1.4906   18.9054 C   0  0  0  0  0  0  0  0  0  0  0  0
    5.3982    0.7733   19.9948 C   0  0  0  0  0  0  0  0  0  0  0  0
   10.7040   -0.0625   23.9898 C   0  0  0  0  0  0  0  0  0  0  0  0
   10.1406   -0.7765   22.9250 C   0  0  0  0  0  0  0  0  0  0  0  0
    6.4440   -0.1472   19.6979 C   0  0  0  0  0  0  0  0  0  0  0  0
   12.3683   -1.3298   22.2234 C   0  0  0  0  0  0  0  0  0  0  0  0
    4.8973    1.0233   21.2988 C   0  0  0  0  0  0  0  0  0  0  0  0
    8.2490    0.0169   21.4271 C   0  0  0  0  0  0  0  0  0  0  0  0
    9.9479    0.5589   24.9534 C   0  0  0  0  0  0  0  0  0  0  0  0
    9.7623    3.0001   22.8980 C   0  0  0  0  0  0  0  0  0  0  0  0
    9.6273    4.4957   22.9278 C   0  0  0  0  0  0  0  0  0  0  0  0
    8.0140   -2.1541   22.4331 C   0  0  0  0  0  0  0  0  0  0  0  0
    6.9866   -1.9366   21.3580 C   0  0  0  0  0  0  0  0  0  0  0  0
    7.8721   -0.1194   23.8831 C   0  0  0  0  0  0  0  0  0  0  0  0
    8.6238   -0.7606   22.6929 C   0  0  3  0  0  0  0  0  0  0  0  0
    8.5331    3.6312   23.5091 C   0  0  0  0  0  0  0  0  0  0  0  0
    7.2376    3.5293   22.7519 C   0  0  0  0  0  0  0  0  0  0  0  0
    8.3874    3.5882   25.0137 C   0  0  0  0  0  0  0  0  0  0  0  0
    6.3062    0.3769   17.3421 N   0  0  0  0  0  0  0  0  0  0  0  0
    7.2292   -0.6897   20.7790 N   0  0  0  0  0  0  0  0  0  0  0  0
    8.6609    1.0133   24.4995 N   0  0  1  0  0  0  0  0  0  0  0  0
    8.8299    1.0397   21.0799 O   0  0  0  0  0  0  0  0  0  0  0  0
    8.2407    1.8013   26.9144 O   0  0  0  0  0  0  0  0  0  0  0  0
    6.3653    1.9471   25.2271 O   0  0  0  0  0  0  0  0  0  0  0  0
    7.7708    2.0177   25.5632 S   0  0  0  0  0  0  0  0  0  0  0  0
   13.4272   -2.1411   21.1086 Cl  0  0  0  0  0  0  0  0  0  0  0  0
    5.4623    0.2453   22.7515 Cl  0  0  0  0  0  0  0  0  0  0  0  0
    2.5425    3.3507   20.6372 H   0  0  0  0  0  0  0  0  0  0  0  0
    3.3401    2.9737   18.3362 H   0  0  0  0  0  0  0  0  0  0  0  0
   12.5024    0.5995   24.9735 H   0  0  0  0  0  0  0  0  0  0  0  0
    3.4992    2.1328   22.5080 H   0  0  0  0  0  0  0  0  0  0  0  0
   13.9910   -0.5177   23.3793 H   0  0  0  0  0  0  0  0  0  0  0  0
   10.6036   -2.0162   21.2241 H   0  0  0  0  0  0  0  0  0  0  0  0
    4.9135    1.7511   16.7477 H   0  0  0  0  0  0  0  0  0  0  0  0
    7.6449   -0.9747   18.1006 H   0  0  0  0  0  0  0  0  0  0  0  0
    9.7849   -0.1194   25.8306 H   0  0  0  0  0  0  0  0  0  0  0  0
   10.4793    1.4568   25.3613 H   0  0  0  0  0  0  0  0  0  0  0  0
    9.6694    2.5059   21.9381 H   0  0  0  0  0  0  0  0  0  0  0  0
   10.4953    2.5480   23.5555 H   0  0  0  0  0  0  0  0  0  0  0  0
   10.2701    5.0451   23.6055 H   0  0  0  0  0  0  0  0  0  0  0  0
    9.4442    5.0031   21.9880 H   0  0  0  0  0  0  0  0  0  0  0  0
    7.5152   -2.5456   23.3338 H   0  0  0  0  0  0  0  0  0  0  0  0
    8.7649   -2.9030   22.1434 H   0  0  0  0  0  0  0  0  0  0  0  0
    7.0587   -2.7248   20.5721 H   0  0  0  0  0  0  0  0  0  0  0  0
    5.9518   -1.9952   21.7720 H   0  0  0  0  0  0  0  0  0  0  0  0
    6.8867    0.2641   23.5642 H   0  0  0  0  0  0  0  0  0  0  0  0
    7.6652   -0.8660   24.6733 H   0  0  0  0  0  0  0  0  0  0  0  0
    6.4245    4.0240   23.2971 H   0  0  0  0  0  0  0  0  0  0  0  0
    6.9534    2.4809   22.5997 H   0  0  0  0  0  0  0  0  0  0  0  0
    7.3209    4.0034   21.7662 H   0  0  0  0  0  0  0  0  0  0  0  0
    7.6838    4.3500   25.3607 H   0  0  0  0  0  0  0  0  0  0  0  0
    9.3513    3.7460   25.5050 H   0  0  0  0  0  0  0  0  0  0  0  0
  1  2  2  0  0  0  0
  1  4  1  0  0  0  0
  2  9  1  0  0  0  0
  3  5  2  0  0  0  0
  3 11  1  0  0  0  0
  4 15  2  0  0  0  0
  5 14  1  0  0  0  0
  6 12  1  0  0  0  0
  6 14  2  0  0  0  0
  7  9  2  0  0  0  0
  7 27  1  0  0  0  0
  8 13  1  0  0  0  0
  8 27  2  0  0  0  0
  9 10  1  0  0  0  0
 10 13  2  0  0  0  0
 10 15  1  0  0  0  0
 11 12  2  0  0  0  0
 11 17  1  0  0  0  0
 12 23  1  0  0  0  0
 13 28  1  0  0  0  0
 14 34  1  0  0  0  0
 15 35  1  0  0  0  0
 16 23  1  0  0  0  0
 16 28  1  0  0  0  0
 16 30  2  0  0  0  0
 17 29  1  0  0  0  0
 18 19  1  0  0  0  0
 18 24  1  0  0  0  0
 19 24  1  0  0  0  0
 20 21  1  0  0  0  0
 20 23  1  0  0  0  0
 21 28  1  0  0  0  0
 22 23  1  0  0  0  0
 22 29  1  0  0  0  0
 24 25  1  0  0  0  0
 24 26  1  0  0  0  0
 26 33  1  0  0  0  0
 29 33  1  6  0  0  0
 31 33  2  0  0  0  0
 32 33  2  0  0  0  0
  1 36  1  0  0  0  0
  2 37  1  0  0  0  0
  3 38  1  0  0  0  0
  4 39  1  0  0  0  0
  5 40  1  0  0  0  0
  6 41  1  0  0  0  0
  7 42  1  0  0  0  0
  8 43  1  0  0  0  0
 17 44  1  0  0  0  0
 17 45  1  0  0  0  0
 18 46  1  0  0  0  0
 18 47  1  0  0  0  0
 19 48  1  0  0  0  0
 19 49  1  0  0  0  0
 20 50  1  0  0  0  0
 20 51  1  0  0  0  0
 21 52  1  0  0  0  0
 21 53  1  0  0  0  0
 22 54  1  0  0  0  0
 22 55  1  0  0  0  0
 25 56  1  0  0  0  0
 25 57  1  0  0  0  0
 25 58  1  0  0  0  0
 26 59  1  0  0  0  0
 26 60  1  0  0  0  0
M  END
> <compound>
MAT-POS-853c0ffa-17

> <compound_smiles>
CC1(CC1)CS(=O)(=O)N2Cc3ccc(cc3C4(C2)CCN(C4=O)c5cncc6c5c(ccc6)Cl)Cl

> <enantiomer_smiles>
CC1(CC1)CS(=O)(=O)[N@]2Cc3ccc(cc3C4(C2)CCN(C4=O)c5cncc6c5c(ccc6)Cl)Cl

> <scaffold>
tetrahydroisoquinoline-5spiro-isoquinoline

> <clash_score>
0

> <docking_score>
-8.98965072631836

> <overlap_score>
0.9821762442588806

> <MMFF_internal_energy>
235.02155210137846

> <docked_smiles>
CC1(CC1)CS(=O)(=O)[N@]2Cc3ccc(cc3[C@]4(C2)CCN(C4=O)c5cncc6c5c(ccc6)Cl)Cl

$$$$
MAT-POS-853c0ffa-21_1
  -OEChem-12272114573D

 60 65  0     1  0  0  0  0  0999 V2000
    3.7865    2.4205   19.1660 C   0  0  0  0  0  0  0  0  0  0  0  0
   12.0765    0.0316   24.1541 C   0  0  0  0  0  0  0  0  0  0  0  0
    3.3432    2.6279   20.4411 C   0  0  0  0  0  0  0  0  0  0  0  0
   12.9132   -0.6032   23.2569 C   0  0  0  0  0  0  0  0  0  0  0  0
    4.8973    1.0233   21.2988 C   0  0  0  0  0  0  0  0  0  0  0  0
   10.9991   -1.4331   22.0443 C   0  0  0  0  0  0  0  0  0  0  0  0
    5.3278    1.2339   17.6066 C   0  0  0  0  0  0  0  0  0  0  0  0
    6.8438   -0.2892   18.3752 C   0  0  0  0  0  0  0  0  0  0  0  0
    4.8226    1.4906   18.9054 C   0  0  0  0  0  0  0  0  0  0  0  0
    5.3982    0.7733   19.9948 C   0  0  0  0  0  0  0  0  0  0  0  0
   10.7040   -0.0625   23.9898 C   0  0  0  0  0  0  0  0  0  0  0  0
   10.1406   -0.7765   22.9250 C   0  0  0  0  0  0  0  0  0  0  0  0
    6.4440   -0.1472   19.6979 C   0  0  0  0  0  0  0  0  0  0  0  0
    3.8960    1.9291   21.5050 C   0  0  0  0  0  0  0  0  0  0  0  0
   12.3683   -1.3298   22.2234 C   0  0  0  0  0  0  0  0  0  0  0  0
    8.2490    0.0169   21.4271 C   0  0  0  0  0  0  0  0  0  0  0  0
    9.9479    0.5589   24.9534 C   0  0  0  0  0  0  0  0  0  0  0  0
    9.6162    5.7503   24.2277 C   0  0  0  0  0  0  0  0  0  0  0  0
    8.8345    6.1030   25.4609 C   0  0  0  0  0  0  0  0  0  0  0  0
    8.0140   -2.1541   22.4331 C   0  0  0  0  0  0  0  0  0  0  0  0
    6.9866   -1.9366   21.3580 C   0  0  0  0  0  0  0  0  0  0  0  0
    7.8721   -0.1194   23.8831 C   0  0  0  0  0  0  0  0  0  0  0  0
    8.6238   -0.7606   22.6929 C   0  0  3  0  0  0  0  0  0  0  0  0
    8.3214    5.0316   24.5273 C   0  0  0  0  0  0  0  0  0  0  0  0
    7.1236    5.3522   23.6762 C   0  0  0  0  0  0  0  0  0  0  0  0
    8.3989    3.5932   24.9882 C   0  0  0  0  0  0  0  0  0  0  0  0
    6.3062    0.3769   17.3421 N   0  0  0  0  0  0  0  0  0  0  0  0
    7.2292   -0.6897   20.7790 N   0  0  0  0  0  0  0  0  0  0  0  0
    8.6609    1.0133   24.4995 N   0  0  2  0  0  0  0  0  0  0  0  0
    8.7572    1.0941   21.1350 O   0  0  0  0  0  0  0  0  0  0  0  0
    7.4179    2.5201   22.8172 O   0  0  0  0  0  0  0  0  0  0  0  0
    9.9251    2.7322   23.0499 O   0  0  0  0  0  0  0  0  0  0  0  0
    3.4314    2.1555   22.7514 F   0  0  0  0  0  0  0  0  0  0  0  0
    8.6198    2.4832   23.6217 S   0  0  0  0  0  0  0  0  0  0  0  0
   13.4275   -2.1421   21.1097 Cl  0  0  0  0  0  0  0  0  0  0  0  0
    3.3399    2.9734   18.3365 H   0  0  0  0  0  0  0  0  0  0  0  0
   12.5015    0.5938   24.9776 H   0  0  0  0  0  0  0  0  0  0  0  0
    2.5430    3.3508   20.6361 H   0  0  0  0  0  0  0  0  0  0  0  0
   13.9911   -0.5212   23.3814 H   0  0  0  0  0  0  0  0  0  0  0  0
    5.3103    0.4884   22.1571 H   0  0  0  0  0  0  0  0  0  0  0  0
   10.6037   -2.0228   21.2288 H   0  0  0  0  0  0  0  0  0  0  0  0
    4.9138    1.7515   16.7475 H   0  0  0  0  0  0  0  0  0  0  0  0
    7.6445   -0.9762   18.1044 H   0  0  0  0  0  0  0  0  0  0  0  0
    9.7581   -0.1287   25.8173 H   0  0  0  0  0  0  0  0  0  0  0  0
   10.4931    1.4391   25.3829 H   0  0  0  0  0  0  0  0  0  0  0  0
    9.6341    6.4725   23.4201 H   0  0  0  0  0  0  0  0  0  0  0  0
   10.5494    5.2157   24.3596 H   0  0  0  0  0  0  0  0  0  0  0  0
    9.2443    5.8046   26.4185 H   0  0  0  0  0  0  0  0  0  0  0  0
    8.3290    7.0613   25.4790 H   0  0  0  0  0  0  0  0  0  0  0  0
    7.5801   -2.6060   23.3366 H   0  0  0  0  0  0  0  0  0  0  0  0
    8.7749   -2.8608   22.0657 H   0  0  0  0  0  0  0  0  0  0  0  0
    7.0227   -2.7506   20.5953 H   0  0  0  0  0  0  0  0  0  0  0  0
    5.9554   -1.9484   21.7832 H   0  0  0  0  0  0  0  0  0  0  0  0
    6.8886    0.2769   23.5666 H   0  0  0  0  0  0  0  0  0  0  0  0
    7.6579   -0.8710   24.6633 H   0  0  0  0  0  0  0  0  0  0  0  0
    6.2503    4.7682   23.9918 H   0  0  0  0  0  0  0  0  0  0  0  0
    7.3194    5.1238   22.6214 H   0  0  0  0  0  0  0  0  0  0  0  0
    6.8636    6.4153   23.7493 H   0  0  0  0  0  0  0  0  0  0  0  0
    7.4792    3.2960   25.4995 H   0  0  0  0  0  0  0  0  0  0  0  0
    9.2447    3.4440   25.6648 H   0  0  0  0  0  0  0  0  0  0  0  0
  1  3  2  0  0  0  0
  1  9  1  0  0  0  0
  2  4  2  0  0  0  0
  2 11  1  0  0  0  0
  3 14  1  0  0  0  0
  4 15  1  0  0  0  0
  5 10  1  0  0  0  0
  5 14  2  0  0  0  0
  6 12  1  0  0  0  0
  6 15  2  0  0  0  0
  7  9  2  0  0  0  0
  7 27  1  0  0  0  0
  8 13  1  0  0  0  0
  8 27  2  0  0  0  0
  9 10  1  0  0  0  0
 10 13  2  0  0  0  0
 11 12  2  0  0  0  0
 11 17  1  0  0  0  0
 12 23  1  0  0  0  0
 13 28  1  0  0  0  0
 14 33  1  0  0  0  0
 15 35  1  0  0  0  0
 16 23  1  0  0  0  0
 16 28  1  0  0  0  0
 16 30  2  0  0  0  0
 17 29  1  0  0  0  0
 18 19  1  0  0  0  0
 18 24  1  0  0  0  0
 19 24  1  0  0  0  0
 20 21  1  0  0  0  0
 20 23  1  0  0  0  0
 21 28  1  0  0  0  0
 22 23  1  0  0  0  0
 22 29  1  0  0  0  0
 24 25  1  0  0  0  0
 24 26  1  0  0  0  0
 26 34  1  0  0  0  0
 29 34  1  1  0  0  0
 31 34  2  0  0  0  0
 32 34  2  0  0  0  0
  1 36  1  0  0  0  0
  2 37  1  0  0  0  0
  3 38  1  0  0  0  0
  4 39  1  0  0  0  0
  5 40  1  0  0  0  0
  6 41  1  0  0  0  0
  7 42  1  0  0  0  0
  8 43  1  0  0  0  0
 17 44  1  0  0  0  0
 17 45  1  0  0  0  0
 18 46  1  0  0  0  0
 18 47  1  0  0  0  0
 19 48  1  0  0  0  0
 19 49  1  0  0  0  0
 20 50  1  0  0  0  0
 20 51  1  0  0  0  0
 21 52  1  0  0  0  0
 21 53  1  0  0  0  0
 22 54  1  0  0  0  0
 22 55  1  0  0  0  0
 25 56  1  0  0  0  0
 25 57  1  0  0  0  0
 25 58  1  0  0  0  0
 26 59  1  0  0  0  0
 26 60  1  0  0  0  0
M  END
> <compound>
MAT-POS-853c0ffa-21

> <compound_smiles>
CC1(CC1)CS(=O)(=O)N2Cc3ccc(cc3C4(C2)CCN(C4=O)c5cncc6c5cc(cc6)F)Cl

> <enantiomer_smiles>
CC1(CC1)CS(=O)(=O)[N@@]2Cc3ccc(cc3C4(C2)CCN(C4=O)c5cncc6c5cc(cc6)F)Cl

> <scaffold>
tetrahydroisoquinoline-5spiro-isoquinoline

> <clash_score>
0

> <docking_score>
-9.06955623626709

> <overlap_score>
0.9843121767044067

> <MMFF_internal_energy>
145.264848692845

> <docked_smiles>
CC1(CC1)CS(=O)(=O)[N@@]2Cc3ccc(cc3[C@]4(C2)CCN(C4=O)c5cncc6c5cc(cc6)F)Cl

$$$$
ALP-POS-ecbed2ba-9_2
  -OEChem-12272114573D

 57 62  0     1  0  0  0  0  0999 V2000
    9.5639    6.1886   24.1691 C   0  0  0  0  0  0  0  0  0  0  0  0
    3.3432    2.6279   20.4411 C   0  0  0  0  0  0  0  0  0  0  0  0
    3.8960    1.9291   21.5050 C   0  0  0  0  0  0  0  0  0  0  0  0
    3.7865    2.4205   19.1660 C   0  0  0  0  0  0  0  0  0  0  0  0
    4.8973    1.0233   21.2988 C   0  0  0  0  0  0  0  0  0  0  0  0
   12.0765    0.0316   24.1541 C   0  0  0  0  0  0  0  0  0  0  0  0
   12.9132   -0.6032   23.2569 C   0  0  0  0  0  0  0  0  0  0  0  0
   10.9991   -1.4331   22.0443 C   0  0  0  0  0  0  0  0  0  0  0  0
    5.3278    1.2339   17.6066 C   0  0  0  0  0  0  0  0  0  0  0  0
    6.8438   -0.2892   18.3752 C   0  0  0  0  0  0  0  0  0  0  0  0
    4.8226    1.4906   18.9054 C   0  0  0  0  0  0  0  0  0  0  0  0
    5.3982    0.7733   19.9948 C   0  0  0  0  0  0  0  0  0  0  0  0
   10.7040   -0.0625   23.9898 C   0  0  0  0  0  0  0  0  0  0  0  0
   10.1406   -0.7765   22.9250 C   0  0  0  0  0  0  0  0  0  0  0  0
    6.4440   -0.1472   19.6979 C   0  0  0  0  0  0  0  0  0  0  0  0
   12.3683   -1.3298   22.2234 C   0  0  0  0  0  0  0  0  0  0  0  0
    8.2490    0.0169   21.4271 C   0  0  0  0  0  0  0  0  0  0  0  0
    9.9479    0.5589   24.9534 C   0  0  0  0  0  0  0  0  0  0  0  0
    8.0140   -2.1541   22.4331 C   0  0  0  0  0  0  0  0  0  0  0  0
    6.9866   -1.9366   21.3580 C   0  0  0  0  0  0  0  0  0  0  0  0
    8.2287    4.0963   23.6697 C   0  0  0  0  0  0  0  0  0  0  0  0
    7.9615    4.8597   25.6101 C   0  0  0  0  0  0  0  0  0  0  0  0
    7.8721   -0.1194   23.8831 C   0  0  0  0  0  0  0  0  0  0  0  0
    8.2787    5.5273   24.2523 C   0  0  0  0  0  0  0  0  0  0  0  0
    8.6238   -0.7606   22.6929 C   0  0  3  0  0  0  0  0  0  0  0  0
   10.5939    6.7185   24.1025 N   0  0  0  0  0  0  0  0  0  0  0  0
    6.3062    0.3769   17.3421 N   0  0  0  0  0  0  0  0  0  0  0  0
    7.2292   -0.6897   20.7790 N   0  0  0  0  0  0  0  0  0  0  0  0
    8.6609    1.0133   24.4995 N   0  0  2  0  0  0  0  0  0  0  0  0
    8.3498    3.5251   25.0499 N   0  0  0  0  0  0  0  0  0  0  0  0
    8.8299    1.0397   21.0799 O   0  0  0  0  0  0  0  0  0  0  0  0
    6.3606    1.9290   25.2319 O   0  0  0  0  0  0  0  0  0  0  0  0
    8.2311    1.7904   26.9208 O   0  0  0  0  0  0  0  0  0  0  0  0
    7.7708    2.0177   25.5632 S   0  0  0  0  0  0  0  0  0  0  0  0
   13.4272   -2.1411   21.1086 Cl  0  0  0  0  0  0  0  0  0  0  0  0
    2.5432    3.3510   20.6369 H   0  0  0  0  0  0  0  0  0  0  0  0
    3.5174    2.1137   22.5168 H   0  0  0  0  0  0  0  0  0  0  0  0
    3.3409    2.9743   18.3364 H   0  0  0  0  0  0  0  0  0  0  0  0
    5.3118    0.4895   22.1572 H   0  0  0  0  0  0  0  0  0  0  0  0
   12.5024    0.5995   24.9735 H   0  0  0  0  0  0  0  0  0  0  0  0
   13.9910   -0.5177   23.3793 H   0  0  0  0  0  0  0  0  0  0  0  0
   10.6036   -2.0162   21.2241 H   0  0  0  0  0  0  0  0  0  0  0  0
    4.9141    1.7511   16.7474 H   0  0  0  0  0  0  0  0  0  0  0  0
    7.6445   -0.9764   18.1043 H   0  0  0  0  0  0  0  0  0  0  0  0
    9.7849   -0.1194   25.8306 H   0  0  0  0  0  0  0  0  0  0  0  0
   10.4793    1.4568   25.3613 H   0  0  0  0  0  0  0  0  0  0  0  0
    7.5152   -2.5456   23.3338 H   0  0  0  0  0  0  0  0  0  0  0  0
    8.7649   -2.9030   22.1434 H   0  0  0  0  0  0  0  0  0  0  0  0
    7.0587   -2.7248   20.5721 H   0  0  0  0  0  0  0  0  0  0  0  0
    5.9518   -1.9952   21.7720 H   0  0  0  0  0  0  0  0  0  0  0  0
    7.2899    3.8169   23.1782 H   0  0  0  0  0  0  0  0  0  0  0  0
    9.0745    3.8058   23.0314 H   0  0  0  0  0  0  0  0  0  0  0  0
    8.6043    5.1518   26.4520 H   0  0  0  0  0  0  0  0  0  0  0  0
    6.9121    4.8989   25.9235 H   0  0  0  0  0  0  0  0  0  0  0  0
    6.8867    0.2641   23.5642 H   0  0  0  0  0  0  0  0  0  0  0  0
    7.6652   -0.8660   24.6733 H   0  0  0  0  0  0  0  0  0  0  0  0
    7.4580    6.1537   23.8928 H   0  0  0  0  0  0  0  0  0  0  0  0
  1 24  1  0  0  0  0
  1 26  3  0  0  0  0
  2  3  1  0  0  0  0
  2  4  2  0  0  0  0
  3  5  2  0  0  0  0
  4 11  1  0  0  0  0
  5 12  1  0  0  0  0
  6  7  1  0  0  0  0
  6 13  2  0  0  0  0
  7 16  2  0  0  0  0
  8 14  2  0  0  0  0
  8 16  1  0  0  0  0
  9 11  2  0  0  0  0
  9 27  1  0  0  0  0
 10 15  1  0  0  0  0
 10 27  2  0  0  0  0
 11 12  1  0  0  0  0
 12 15  2  0  0  0  0
 13 14  1  0  0  0  0
 13 18  1  0  0  0  0
 14 25  1  0  0  0  0
 15 28  1  0  0  0  0
 16 35  1  0  0  0  0
 17 25  1  0  0  0  0
 17 28  1  0  0  0  0
 17 31  2  0  0  0  0
 18 29  1  0  0  0  0
 19 20  1  0  0  0  0
 19 25  1  0  0  0  0
 20 28  1  0  0  0  0
 21 24  1  0  0  0  0
 21 30  1  0  0  0  0
 22 24  1  0  0  0  0
 22 30  1  0  0  0  0
 23 25  1  0  0  0  0
 23 29  1  0  0  0  0
 29 34  1  6  0  0  0
 30 34  1  0  0  0  0
 32 34  2  0  0  0  0
 33 34  2  0  0  0  0
  2 36  1  0  0  0  0
  3 37  1  0  0  0  0
  4 38  1  0  0  0  0
  5 39  1  0  0  0  0
  6 40  1  0  0  0  0
  7 41  1  0  0  0  0
  8 42  1  0  0  0  0
  9 43  1  0  0  0  0
 10 44  1  0  0  0  0
 18 45  1  0  0  0  0
 18 46  1  0  0  0  0
 19 47  1  0  0  0  0
 19 48  1  0  0  0  0
 20 49  1  0  0  0  0
 20 50  1  0  0  0  0
 21 51  1  0  0  0  0
 21 52  1  0  0  0  0
 22 53  1  0  0  0  0
 22 54  1  0  0  0  0
 23 55  1  0  0  0  0
 23 56  1  0  0  0  0
 24 57  1  0  0  0  0
M  END
> <compound>
ALP-POS-ecbed2ba-9

> <compound_smiles>
c1ccc2c(c1)cncc2N3CCC4(C3=O)CN(Cc5c4cc(cc5)Cl)S(=O)(=O)N6CC(C6)C#N

> <enantiomer_smiles>
c1ccc2c(c1)cncc2N3CCC4(C3=O)C[N@](Cc5c4cc(cc5)Cl)S(=O)(=O)N6CC(C6)C#N

> <scaffold>
tetrahydroisoquinoline-5spiro-isoquinoline

> <clash_score>
0

> <docking_score>
-9.082954406738281

> <overlap_score>
0.9703284502029419

> <MMFF_internal_energy>
-30.42368320213924

> <docked_smiles>
c1ccc2c(c1)cncc2N3CC[C@@]4(C3=O)C[N@](Cc5c4cc(cc5)Cl)S(=O)(=O)N6CC(C6)C#N

$$$$
ALP-POS-ecbed2ba-4_2
  -OEChem-12272114573D

 58 63  0     1  0  0  0  0  0999 V2000
    7.3205    3.4054   22.7658 C   0  0  0  0  0  0  0  0  0  0  0  0
    3.3432    2.6279   20.4411 C   0  0  0  0  0  0  0  0  0  0  0  0
    3.8960    1.9291   21.5050 C   0  0  0  0  0  0  0  0  0  0  0  0
    3.7865    2.4205   19.1660 C   0  0  0  0  0  0  0  0  0  0  0  0
    4.8973    1.0233   21.2988 C   0  0  0  0  0  0  0  0  0  0  0  0
   12.0765    0.0316   24.1541 C   0  0  0  0  0  0  0  0  0  0  0  0
   12.9132   -0.6032   23.2569 C   0  0  0  0  0  0  0  0  0  0  0  0
   10.9991   -1.4331   22.0443 C   0  0  0  0  0  0  0  0  0  0  0  0
    5.3278    1.2339   17.6066 C   0  0  0  0  0  0  0  0  0  0  0  0
    6.8438   -0.2892   18.3752 C   0  0  0  0  0  0  0  0  0  0  0  0
    4.8226    1.4906   18.9054 C   0  0  0  0  0  0  0  0  0  0  0  0
    5.3982    0.7733   19.9948 C   0  0  0  0  0  0  0  0  0  0  0  0
   10.7040   -0.0625   23.9898 C   0  0  0  0  0  0  0  0  0  0  0  0
   10.1406   -0.7765   22.9250 C   0  0  0  0  0  0  0  0  0  0  0  0
    6.4440   -0.1472   19.6979 C   0  0  0  0  0  0  0  0  0  0  0  0
   12.3683   -1.3298   22.2234 C   0  0  0  0  0  0  0  0  0  0  0  0
    8.2490    0.0169   21.4271 C   0  0  0  0  0  0  0  0  0  0  0  0
    9.9479    0.5589   24.9534 C   0  0  0  0  0  0  0  0  0  0  0  0
    9.8217    3.1213   22.9038 C   0  0  0  0  0  0  0  0  0  0  0  0
    9.5383    4.5944   22.9183 C   0  0  0  0  0  0  0  0  0  0  0  0
    8.0140   -2.1541   22.4331 C   0  0  0  0  0  0  0  0  0  0  0  0
    6.9866   -1.9366   21.3580 C   0  0  0  0  0  0  0  0  0  0  0  0
    7.8721   -0.1194   23.8831 C   0  0  0  0  0  0  0  0  0  0  0  0
    8.5331    3.6312   23.5091 C   0  0  0  0  0  0  0  0  0  0  0  0
    8.6238   -0.7606   22.6929 C   0  0  3  0  0  0  0  0  0  0  0  0
    8.3874    3.5882   25.0137 C   0  0  0  0  0  0  0  0  0  0  0  0
    6.3436    3.2234   22.1669 N   0  0  0  0  0  0  0  0  0  0  0  0
    6.3062    0.3769   17.3421 N   0  0  0  0  0  0  0  0  0  0  0  0
    7.2292   -0.6897   20.7790 N   0  0  0  0  0  0  0  0  0  0  0  0
    8.6609    1.0133   24.4995 N   0  0  2  0  0  0  0  0  0  0  0  0
    8.8299    1.0397   21.0799 O   0  0  0  0  0  0  0  0  0  0  0  0
    8.2407    1.8013   26.9144 O   0  0  0  0  0  0  0  0  0  0  0  0
    6.3653    1.9471   25.2271 O   0  0  0  0  0  0  0  0  0  0  0  0
    7.7708    2.0177   25.5632 S   0  0  0  0  0  0  0  0  0  0  0  0
   13.4272   -2.1411   21.1086 Cl  0  0  0  0  0  0  0  0  0  0  0  0
    2.5432    3.3510   20.6369 H   0  0  0  0  0  0  0  0  0  0  0  0
    3.5174    2.1137   22.5168 H   0  0  0  0  0  0  0  0  0  0  0  0
    3.3409    2.9743   18.3364 H   0  0  0  0  0  0  0  0  0  0  0  0
    5.3118    0.4895   22.1572 H   0  0  0  0  0  0  0  0  0  0  0  0
   12.5024    0.5995   24.9735 H   0  0  0  0  0  0  0  0  0  0  0  0
   13.9910   -0.5177   23.3793 H   0  0  0  0  0  0  0  0  0  0  0  0
   10.6036   -2.0162   21.2241 H   0  0  0  0  0  0  0  0  0  0  0  0
    4.9141    1.7511   16.7474 H   0  0  0  0  0  0  0  0  0  0  0  0
    7.6445   -0.9764   18.1043 H   0  0  0  0  0  0  0  0  0  0  0  0
    9.7849   -0.1194   25.8306 H   0  0  0  0  0  0  0  0  0  0  0  0
   10.4793    1.4568   25.3613 H   0  0  0  0  0  0  0  0  0  0  0  0
    9.7878    2.6129   21.9468 H   0  0  0  0  0  0  0  0  0  0  0  0
   10.5952    2.7515   23.5670 H   0  0  0  0  0  0  0  0  0  0  0  0
   10.1228    5.2116   23.5908 H   0  0  0  0  0  0  0  0  0  0  0  0
    9.3157    5.0716   21.9707 H   0  0  0  0  0  0  0  0  0  0  0  0
    7.5152   -2.5456   23.3338 H   0  0  0  0  0  0  0  0  0  0  0  0
    8.7649   -2.9030   22.1434 H   0  0  0  0  0  0  0  0  0  0  0  0
    7.0587   -2.7248   20.5721 H   0  0  0  0  0  0  0  0  0  0  0  0
    5.9518   -1.9952   21.7720 H   0  0  0  0  0  0  0  0  0  0  0  0
    6.8867    0.2641   23.5642 H   0  0  0  0  0  0  0  0  0  0  0  0
    7.6652   -0.8660   24.6733 H   0  0  0  0  0  0  0  0  0  0  0  0
    7.6838    4.3500   25.3607 H   0  0  0  0  0  0  0  0  0  0  0  0
    9.3513    3.7460   25.5050 H   0  0  0  0  0  0  0  0  0  0  0  0
  1 24  1  0  0  0  0
  1 27  3  0  0  0  0
  2  3  1  0  0  0  0
  2  4  2  0  0  0  0
  3  5  2  0  0  0  0
  4 11  1  0  0  0  0
  5 12  1  0  0  0  0
  6  7  1  0  0  0  0
  6 13  2  0  0  0  0
  7 16  2  0  0  0  0
  8 14  2  0  0  0  0
  8 16  1  0  0  0  0
  9 11  2  0  0  0  0
  9 28  1  0  0  0  0
 10 15  1  0  0  0  0
 10 28  2  0  0  0  0
 11 12  1  0  0  0  0
 12 15  2  0  0  0  0
 13 14  1  0  0  0  0
 13 18  1  0  0  0  0
 14 25  1  0  0  0  0
 15 29  1  0  0  0  0
 16 35  1  0  0  0  0
 17 25  1  0  0  0  0
 17 29  1  0  0  0  0
 17 31  2  0  0  0  0
 18 30  1  0  0  0  0
 19 20  1  0  0  0  0
 19 24  1  0  0  0  0
 20 24  1  0  0  0  0
 21 22  1  0  0  0  0
 21 25  1  0  0  0  0
 22 29  1  0  0  0  0
 23 25  1  0  0  0  0
 23 30  1  0  0  0  0
 24 26  1  0  0  0  0
 26 34  1  0  0  0  0
 30 34  1  6  0  0  0
 32 34  2  0  0  0  0
 33 34  2  0  0  0  0
  2 36  1  0  0  0  0
  3 37  1  0  0  0  0
  4 38  1  0  0  0  0
  5 39  1  0  0  0  0
  6 40  1  0  0  0  0
  7 41  1  0  0  0  0
  8 42  1  0  0  0  0
  9 43  1  0  0  0  0
 10 44  1  0  0  0  0
 18 45  1  0  0  0  0
 18 46  1  0  0  0  0
 19 47  1  0  0  0  0
 19 48  1  0  0  0  0
 20 49  1  0  0  0  0
 20 50  1  0  0  0  0
 21 51  1  0  0  0  0
 21 52  1  0  0  0  0
 22 53  1  0  0  0  0
 22 54  1  0  0  0  0
 23 55  1  0  0  0  0
 23 56  1  0  0  0  0
 26 57  1  0  0  0  0
 26 58  1  0  0  0  0
M  END
> <compound>
ALP-POS-ecbed2ba-4

> <compound_smiles>
c1ccc2c(c1)cncc2N3CCC4(C3=O)CN(Cc5c4cc(cc5)Cl)S(=O)(=O)CC6(CC6)C#N

> <enantiomer_smiles>
c1ccc2c(c1)cncc2N3CCC4(C3=O)C[N@](Cc5c4cc(cc5)Cl)S(=O)(=O)CC6(CC6)C#N

> <scaffold>
tetrahydroisoquinoline-5spiro-isoquinoline

> <clash_score>
0

> <docking_score>
-8.720376968383789

> <overlap_score>
0.9743955731391907

> <MMFF_internal_energy>
122.63312186447946

> <docked_smiles>
c1ccc2c(c1)cncc2N3CC[C@@]4(C3=O)C[N@](Cc5c4cc(cc5)Cl)S(=O)(=O)CC6(CC6)C#N

$$$$
ALP-POS-ecbed2ba-4_1
  -OEChem-12272114573D

 58 63  0     1  0  0  0  0  0999 V2000
    9.9899    5.1222   23.8236 C   0  0  0  0  0  0  0  0  0  0  0  0
    3.3432    2.6279   20.4411 C   0  0  0  0  0  0  0  0  0  0  0  0
    3.8960    1.9291   21.5050 C   0  0  0  0  0  0  0  0  0  0  0  0
    3.7865    2.4205   19.1660 C   0  0  0  0  0  0  0  0  0  0  0  0
    4.8973    1.0233   21.2988 C   0  0  0  0  0  0  0  0  0  0  0  0
   12.0765    0.0316   24.1541 C   0  0  0  0  0  0  0  0  0  0  0  0
   12.9132   -0.6032   23.2569 C   0  0  0  0  0  0  0  0  0  0  0  0
   10.9991   -1.4331   22.0443 C   0  0  0  0  0  0  0  0  0  0  0  0
    5.3278    1.2339   17.6066 C   0  0  0  0  0  0  0  0  0  0  0  0
    6.8438   -0.2892   18.3752 C   0  0  0  0  0  0  0  0  0  0  0  0
    4.8226    1.4906   18.9054 C   0  0  0  0  0  0  0  0  0  0  0  0
    5.3982    0.7733   19.9948 C   0  0  0  0  0  0  0  0  0  0  0  0
   10.7040   -0.0625   23.9898 C   0  0  0  0  0  0  0  0  0  0  0  0
   10.1406   -0.7765   22.9250 C   0  0  0  0  0  0  0  0  0  0  0  0
    6.4440   -0.1472   19.6979 C   0  0  0  0  0  0  0  0  0  0  0  0
   12.3683   -1.3298   22.2234 C   0  0  0  0  0  0  0  0  0  0  0  0
    8.2490    0.0169   21.4271 C   0  0  0  0  0  0  0  0  0  0  0  0
    9.9479    0.5589   24.9534 C   0  0  0  0  0  0  0  0  0  0  0  0
    8.5324    6.1021   25.6323 C   0  0  0  0  0  0  0  0  0  0  0  0
    7.7014    6.0179   24.3861 C   0  0  0  0  0  0  0  0  0  0  0  0
    8.0140   -2.1541   22.4331 C   0  0  0  0  0  0  0  0  0  0  0  0
    6.9866   -1.9366   21.3580 C   0  0  0  0  0  0  0  0  0  0  0  0
    7.8721   -0.1194   23.8831 C   0  0  0  0  0  0  0  0  0  0  0  0
    8.7994    5.0058   24.6255 C   0  0  0  0  0  0  0  0  0  0  0  0
    8.6238   -0.7606   22.6929 C   0  0  3  0  0  0  0  0  0  0  0  0
    8.3989    3.5932   24.9882 C   0  0  0  0  0  0  0  0  0  0  0  0
   10.9490    5.2161   23.1776 N   0  0  0  0  0  0  0  0  0  0  0  0
    6.3062    0.3769   17.3421 N   0  0  0  0  0  0  0  0  0  0  0  0
    7.2292   -0.6897   20.7790 N   0  0  0  0  0  0  0  0  0  0  0  0
    8.6609    1.0133   24.4995 N   0  0  1  0  0  0  0  0  0  0  0  0
    8.7572    1.0941   21.1350 O   0  0  0  0  0  0  0  0  0  0  0  0
    7.4179    2.5201   22.8172 O   0  0  0  0  0  0  0  0  0  0  0  0
    9.9251    2.7322   23.0499 O   0  0  0  0  0  0  0  0  0  0  0  0
    8.6198    2.4832   23.6217 S   0  0  0  0  0  0  0  0  0  0  0  0
   13.4275   -2.1421   21.1097 Cl  0  0  0  0  0  0  0  0  0  0  0  0
    2.5432    3.3510   20.6369 H   0  0  0  0  0  0  0  0  0  0  0  0
    3.5174    2.1137   22.5168 H   0  0  0  0  0  0  0  0  0  0  0  0
    3.3409    2.9743   18.3364 H   0  0  0  0  0  0  0  0  0  0  0  0
    5.3118    0.4895   22.1572 H   0  0  0  0  0  0  0  0  0  0  0  0
   12.5015    0.5938   24.9776 H   0  0  0  0  0  0  0  0  0  0  0  0
   13.9911   -0.5212   23.3814 H   0  0  0  0  0  0  0  0  0  0  0  0
   10.6037   -2.0228   21.2288 H   0  0  0  0  0  0  0  0  0  0  0  0
    4.9141    1.7511   16.7474 H   0  0  0  0  0  0  0  0  0  0  0  0
    7.6445   -0.9764   18.1043 H   0  0  0  0  0  0  0  0  0  0  0  0
    9.7581   -0.1287   25.8173 H   0  0  0  0  0  0  0  0  0  0  0  0
   10.4931    1.4391   25.3829 H   0  0  0  0  0  0  0  0  0  0  0  0
    9.2347    6.9241   25.7129 H   0  0  0  0  0  0  0  0  0  0  0  0
    8.0587    5.8395   26.5712 H   0  0  0  0  0  0  0  0  0  0  0  0
    6.6706    5.6996   24.4905 H   0  0  0  0  0  0  0  0  0  0  0  0
    7.8473    6.7843   23.6333 H   0  0  0  0  0  0  0  0  0  0  0  0
    7.5801   -2.6060   23.3366 H   0  0  0  0  0  0  0  0  0  0  0  0
    8.7749   -2.8608   22.0657 H   0  0  0  0  0  0  0  0  0  0  0  0
    7.0227   -2.7506   20.5953 H   0  0  0  0  0  0  0  0  0  0  0  0
    5.9554   -1.9484   21.7832 H   0  0  0  0  0  0  0  0  0  0  0  0
    6.8886    0.2769   23.5666 H   0  0  0  0  0  0  0  0  0  0  0  0
    7.6579   -0.8710   24.6633 H   0  0  0  0  0  0  0  0  0  0  0  0
    7.3445    3.5466   25.2742 H   0  0  0  0  0  0  0  0  0  0  0  0
    9.0072    3.2136   25.8136 H   0  0  0  0  0  0  0  0  0  0  0  0
  1 24  1  0  0  0  0
  1 27  3  0  0  0  0
  2  3  1  0  0  0  0
  2  4  2  0  0  0  0
  3  5  2  0  0  0  0
  4 11  1  0  0  0  0
  5 12  1  0  0  0  0
  6  7  1  0  0  0  0
  6 13  2  0  0  0  0
  7 16  2  0  0  0  0
  8 14  2  0  0  0  0
  8 16  1  0  0  0  0
  9 11  2  0  0  0  0
  9 28  1  0  0  0  0
 10 15  1  0  0  0  0
 10 28  2  0  0  0  0
 11 12  1  0  0  0  0
 12 15  2  0  0  0  0
 13 14  1  0  0  0  0
 13 18  1  0  0  0  0
 14 25  1  0  0  0  0
 15 29  1  0  0  0  0
 16 35  1  0  0  0  0
 17 25  1  0  0  0  0
 17 29  1  0  0  0  0
 17 31  2  0  0  0  0
 18 30  1  0  0  0  0
 19 20  1  0  0  0  0
 19 24  1  0  0  0  0
 20 24  1  0  0  0  0
 21 22  1  0  0  0  0
 21 25  1  0  0  0  0
 22 29  1  0  0  0  0
 23 25  1  0  0  0  0
 23 30  1  0  0  0  0
 24 26  1  0  0  0  0
 26 34  1  0  0  0  0
 30 34  1  1  0  0  0
 32 34  2  0  0  0  0
 33 34  2  0  0  0  0
  2 36  1  0  0  0  0
  3 37  1  0  0  0  0
  4 38  1  0  0  0  0
  5 39  1  0  0  0  0
  6 40  1  0  0  0  0
  7 41  1  0  0  0  0
  8 42  1  0  0  0  0
  9 43  1  0  0  0  0
 10 44  1  0  0  0  0
 18 45  1  0  0  0  0
 18 46  1  0  0  0  0
 19 47  1  0  0  0  0
 19 48  1  0  0  0  0
 20 49  1  0  0  0  0
 20 50  1  0  0  0  0
 21 51  1  0  0  0  0
 21 52  1  0  0  0  0
 22 53  1  0  0  0  0
 22 54  1  0  0  0  0
 23 55  1  0  0  0  0
 23 56  1  0  0  0  0
 26 57  1  0  0  0  0
 26 58  1  0  0  0  0
M  END
> <compound>
ALP-POS-ecbed2ba-4

> <compound_smiles>
c1ccc2c(c1)cncc2N3CCC4(C3=O)CN(Cc5c4cc(cc5)Cl)S(=O)(=O)CC6(CC6)C#N

> <enantiomer_smiles>
c1ccc2c(c1)cncc2N3CCC4(C3=O)C[N@@](Cc5c4cc(cc5)Cl)S(=O)(=O)CC6(CC6)C#N

> <scaffold>
tetrahydroisoquinoline-5spiro-isoquinoline

> <clash_score>
0

> <docking_score>
-9.21580696105957

> <overlap_score>
0.9734877347946167

> <MMFF_internal_energy>
135.0583350593557

> <docked_smiles>
c1ccc2c(c1)cncc2N3CC[C@@]4(C3=O)C[N@@](Cc5c4cc(cc5)Cl)S(=O)(=O)CC6(CC6)C#N

$$$$
MAT-POS-853c0ffa-21_2
  -OEChem-12272114573D

 60 65  0     1  0  0  0  0  0999 V2000
    3.7865    2.4205   19.1660 C   0  0  0  0  0  0  0  0  0  0  0  0
   12.0765    0.0316   24.1541 C   0  0  0  0  0  0  0  0  0  0  0  0
    3.3432    2.6279   20.4411 C   0  0  0  0  0  0  0  0  0  0  0  0
   12.9132   -0.6032   23.2569 C   0  0  0  0  0  0  0  0  0  0  0  0
    4.8973    1.0233   21.2988 C   0  0  0  0  0  0  0  0  0  0  0  0
   10.9991   -1.4331   22.0443 C   0  0  0  0  0  0  0  0  0  0  0  0
    5.3278    1.2339   17.6066 C   0  0  0  0  0  0  0  0  0  0  0  0
    6.8438   -0.2892   18.3752 C   0  0  0  0  0  0  0  0  0  0  0  0
    4.8226    1.4906   18.9054 C   0  0  0  0  0  0  0  0  0  0  0  0
    5.3982    0.7733   19.9948 C   0  0  0  0  0  0  0  0  0  0  0  0
   10.7040   -0.0625   23.9898 C   0  0  0  0  0  0  0  0  0  0  0  0
   10.1406   -0.7765   22.9250 C   0  0  0  0  0  0  0  0  0  0  0  0
    6.4440   -0.1472   19.6979 C   0  0  0  0  0  0  0  0  0  0  0  0
    3.8960    1.9291   21.5050 C   0  0  0  0  0  0  0  0  0  0  0  0
   12.3683   -1.3298   22.2234 C   0  0  0  0  0  0  0  0  0  0  0  0
    8.2490    0.0169   21.4271 C   0  0  0  0  0  0  0  0  0  0  0  0
    9.9479    0.5589   24.9534 C   0  0  0  0  0  0  0  0  0  0  0  0
    9.7623    3.0001   22.8980 C   0  0  0  0  0  0  0  0  0  0  0  0
    9.6273    4.4957   22.9278 C   0  0  0  0  0  0  0  0  0  0  0  0
    8.0140   -2.1541   22.4331 C   0  0  0  0  0  0  0  0  0  0  0  0
    6.9866   -1.9366   21.3580 C   0  0  0  0  0  0  0  0  0  0  0  0
    7.8721   -0.1194   23.8831 C   0  0  0  0  0  0  0  0  0  0  0  0
    8.6238   -0.7606   22.6929 C   0  0  3  0  0  0  0  0  0  0  0  0
    8.5331    3.6312   23.5091 C   0  0  0  0  0  0  0  0  0  0  0  0
    7.2376    3.5293   22.7519 C   0  0  0  0  0  0  0  0  0  0  0  0
    8.3874    3.5882   25.0137 C   0  0  0  0  0  0  0  0  0  0  0  0
    6.3062    0.3769   17.3421 N   0  0  0  0  0  0  0  0  0  0  0  0
    7.2292   -0.6897   20.7790 N   0  0  0  0  0  0  0  0  0  0  0  0
    8.6609    1.0133   24.4995 N   0  0  1  0  0  0  0  0  0  0  0  0
    8.8299    1.0397   21.0799 O   0  0  0  0  0  0  0  0  0  0  0  0
    8.2407    1.8013   26.9144 O   0  0  0  0  0  0  0  0  0  0  0  0
    6.3653    1.9471   25.2271 O   0  0  0  0  0  0  0  0  0  0  0  0
    3.4314    2.1555   22.7514 F   0  0  0  0  0  0  0  0  0  0  0  0
    7.7708    2.0177   25.5632 S   0  0  0  0  0  0  0  0  0  0  0  0
   13.4272   -2.1411   21.1086 Cl  0  0  0  0  0  0  0  0  0  0  0  0
    3.3399    2.9734   18.3365 H   0  0  0  0  0  0  0  0  0  0  0  0
   12.5024    0.5995   24.9735 H   0  0  0  0  0  0  0  0  0  0  0  0
    2.5430    3.3508   20.6361 H   0  0  0  0  0  0  0  0  0  0  0  0
   13.9910   -0.5177   23.3793 H   0  0  0  0  0  0  0  0  0  0  0  0
    5.3103    0.4884   22.1571 H   0  0  0  0  0  0  0  0  0  0  0  0
   10.6036   -2.0162   21.2241 H   0  0  0  0  0  0  0  0  0  0  0  0
    4.9138    1.7515   16.7475 H   0  0  0  0  0  0  0  0  0  0  0  0
    7.6445   -0.9762   18.1044 H   0  0  0  0  0  0  0  0  0  0  0  0
    9.7849   -0.1194   25.8306 H   0  0  0  0  0  0  0  0  0  0  0  0
   10.4793    1.4568   25.3613 H   0  0  0  0  0  0  0  0  0  0  0  0
    9.6694    2.5059   21.9381 H   0  0  0  0  0  0  0  0  0  0  0  0
   10.4953    2.5480   23.5555 H   0  0  0  0  0  0  0  0  0  0  0  0
   10.2701    5.0451   23.6055 H   0  0  0  0  0  0  0  0  0  0  0  0
    9.4442    5.0031   21.9880 H   0  0  0  0  0  0  0  0  0  0  0  0
    7.5152   -2.5456   23.3338 H   0  0  0  0  0  0  0  0  0  0  0  0
    8.7649   -2.9030   22.1434 H   0  0  0  0  0  0  0  0  0  0  0  0
    7.0587   -2.7248   20.5721 H   0  0  0  0  0  0  0  0  0  0  0  0
    5.9518   -1.9952   21.7720 H   0  0  0  0  0  0  0  0  0  0  0  0
    6.8867    0.2641   23.5642 H   0  0  0  0  0  0  0  0  0  0  0  0
    7.6652   -0.8660   24.6733 H   0  0  0  0  0  0  0  0  0  0  0  0
    6.4245    4.0240   23.2971 H   0  0  0  0  0  0  0  0  0  0  0  0
    6.9534    2.4809   22.5997 H   0  0  0  0  0  0  0  0  0  0  0  0
    7.3209    4.0034   21.7662 H   0  0  0  0  0  0  0  0  0  0  0  0
    7.6838    4.3500   25.3607 H   0  0  0  0  0  0  0  0  0  0  0  0
    9.3513    3.7460   25.5050 H   0  0  0  0  0  0  0  0  0  0  0  0
  1  3  2  0  0  0  0
  1  9  1  0  0  0  0
  2  4  2  0  0  0  0
  2 11  1  0  0  0  0
  3 14  1  0  0  0  0
  4 15  1  0  0  0  0
  5 10  1  0  0  0  0
  5 14  2  0  0  0  0
  6 12  1  0  0  0  0
  6 15  2  0  0  0  0
  7  9  2  0  0  0  0
  7 27  1  0  0  0  0
  8 13  1  0  0  0  0
  8 27  2  0  0  0  0
  9 10  1  0  0  0  0
 10 13  2  0  0  0  0
 11 12  2  0  0  0  0
 11 17  1  0  0  0  0
 12 23  1  0  0  0  0
 13 28  1  0  0  0  0
 14 33  1  0  0  0  0
 15 35  1  0  0  0  0
 16 23  1  0  0  0  0
 16 28  1  0  0  0  0
 16 30  2  0  0  0  0
 17 29  1  0  0  0  0
 18 19  1  0  0  0  0
 18 24  1  0  0  0  0
 19 24  1  0  0  0  0
 20 21  1  0  0  0  0
 20 23  1  0  0  0  0
 21 28  1  0  0  0  0
 22 23  1  0  0  0  0
 22 29  1  0  0  0  0
 24 25  1  0  0  0  0
 24 26  1  0  0  0  0
 26 34  1  0  0  0  0
 29 34  1  6  0  0  0
 31 34  2  0  0  0  0
 32 34  2  0  0  0  0
  1 36  1  0  0  0  0
  2 37  1  0  0  0  0
  3 38  1  0  0  0  0
  4 39  1  0  0  0  0
  5 40  1  0  0  0  0
  6 41  1  0  0  0  0
  7 42  1  0  0  0  0
  8 43  1  0  0  0  0
 17 44  1  0  0  0  0
 17 45  1  0  0  0  0
 18 46  1  0  0  0  0
 18 47  1  0  0  0  0
 19 48  1  0  0  0  0
 19 49  1  0  0  0  0
 20 50  1  0  0  0  0
 20 51  1  0  0  0  0
 21 52  1  0  0  0  0
 21 53  1  0  0  0  0
 22 54  1  0  0  0  0
 22 55  1  0  0  0  0
 25 56  1  0  0  0  0
 25 57  1  0  0  0  0
 25 58  1  0  0  0  0
 26 59  1  0  0  0  0
 26 60  1  0  0  0  0
M  END
> <compound>
MAT-POS-853c0ffa-21

> <compound_smiles>
CC1(CC1)CS(=O)(=O)N2Cc3ccc(cc3C4(C2)CCN(C4=O)c5cncc6c5cc(cc6)F)Cl

> <enantiomer_smiles>
CC1(CC1)CS(=O)(=O)[N@]2Cc3ccc(cc3C4(C2)CCN(C4=O)c5cncc6c5cc(cc6)F)Cl

> <scaffold>
tetrahydroisoquinoline-5spiro-isoquinoline

> <clash_score>
0

> <docking_score>
-8.650457382202148

> <overlap_score>
0.9837248921394348

> <MMFF_internal_energy>
146.36239102289912

> <docked_smiles>
CC1(CC1)CS(=O)(=O)[N@]2Cc3ccc(cc3[C@]4(C2)CCN(C4=O)c5cncc6c5cc(cc6)F)Cl

$$$$
ALP-POS-ecbed2ba-6_1
  -OEChem-12272114573D

 61 66  0     1  0  0  0  0  0999 V2000
    3.3432    2.6279   20.4411 C   0  0  0  0  0  0  0  0  0  0  0  0
    3.8960    1.9291   21.5050 C   0  0  0  0  0  0  0  0  0  0  0  0
    3.7865    2.4205   19.1660 C   0  0  0  0  0  0  0  0  0  0  0  0
    4.8973    1.0233   21.2988 C   0  0  0  0  0  0  0  0  0  0  0  0
   12.0765    0.0316   24.1541 C   0  0  0  0  0  0  0  0  0  0  0  0
   12.9132   -0.6032   23.2569 C   0  0  0  0  0  0  0  0  0  0  0  0
   10.9991   -1.4331   22.0443 C   0  0  0  0  0  0  0  0  0  0  0  0
    5.3278    1.2339   17.6066 C   0  0  0  0  0  0  0  0  0  0  0  0
    6.8438   -0.2892   18.3752 C   0  0  0  0  0  0  0  0  0  0  0  0
    4.8226    1.4906   18.9054 C   0  0  0  0  0  0  0  0  0  0  0  0
    5.3982    0.7733   19.9948 C   0  0  0  0  0  0  0  0  0  0  0  0
   10.7040   -0.0625   23.9898 C   0  0  0  0  0  0  0  0  0  0  0  0
   10.1406   -0.7765   22.9250 C   0  0  0  0  0  0  0  0  0  0  0  0
    6.4440   -0.1472   19.6979 C   0  0  0  0  0  0  0  0  0  0  0  0
   12.3683   -1.3298   22.2234 C   0  0  0  0  0  0  0  0  0  0  0  0
    8.2490    0.0169   21.4271 C   0  0  0  0  0  0  0  0  0  0  0  0
    9.9479    0.5589   24.9534 C   0  0  0  0  0  0  0  0  0  0  0  0
    7.5775    5.3800   23.2665 C   0  0  0  0  0  0  0  0  0  0  0  0
    7.0196    5.7824   24.6035 C   0  0  0  0  0  0  0  0  0  0  0  0
    8.0140   -2.1541   22.4331 C   0  0  0  0  0  0  0  0  0  0  0  0
    6.9866   -1.9366   21.3580 C   0  0  0  0  0  0  0  0  0  0  0  0
    7.8721   -0.1194   23.8831 C   0  0  0  0  0  0  0  0  0  0  0  0
    8.6238   -0.7606   22.6929 C   0  0  3  0  0  0  0  0  0  0  0  0
    8.3214    5.0316   24.5273 C   0  0  0  0  0  0  0  0  0  0  0  0
   10.4527    5.6360   23.7430 C   0  0  0  0  0  0  0  0  0  0  0  0
    8.3989    3.5932   24.9882 C   0  0  0  0  0  0  0  0  0  0  0  0
    6.3062    0.3769   17.3421 N   0  0  0  0  0  0  0  0  0  0  0  0
    7.2292   -0.6897   20.7790 N   0  0  0  0  0  0  0  0  0  0  0  0
    8.6609    1.0133   24.4995 N   0  0  2  0  0  0  0  0  0  0  0  0
    8.7572    1.0941   21.1350 O   0  0  0  0  0  0  0  0  0  0  0  0
    7.4179    2.5201   22.8172 O   0  0  0  0  0  0  0  0  0  0  0  0
    9.9251    2.7322   23.0499 O   0  0  0  0  0  0  0  0  0  0  0  0
    9.5109    5.7951   24.7876 O   0  0  0  0  0  0  0  0  0  0  0  0
    8.6198    2.4832   23.6217 S   0  0  0  0  0  0  0  0  0  0  0  0
   13.4275   -2.1421   21.1097 Cl  0  0  0  0  0  0  0  0  0  0  0  0
    2.5432    3.3510   20.6369 H   0  0  0  0  0  0  0  0  0  0  0  0
    3.5174    2.1137   22.5168 H   0  0  0  0  0  0  0  0  0  0  0  0
    3.3409    2.9743   18.3364 H   0  0  0  0  0  0  0  0  0  0  0  0
    5.3118    0.4895   22.1572 H   0  0  0  0  0  0  0  0  0  0  0  0
   12.5015    0.5938   24.9776 H   0  0  0  0  0  0  0  0  0  0  0  0
   13.9911   -0.5212   23.3814 H   0  0  0  0  0  0  0  0  0  0  0  0
   10.6037   -2.0228   21.2288 H   0  0  0  0  0  0  0  0  0  0  0  0
    4.9141    1.7511   16.7474 H   0  0  0  0  0  0  0  0  0  0  0  0
    7.6445   -0.9764   18.1043 H   0  0  0  0  0  0  0  0  0  0  0  0
    9.7581   -0.1287   25.8173 H   0  0  0  0  0  0  0  0  0  0  0  0
   10.4931    1.4391   25.3829 H   0  0  0  0  0  0  0  0  0  0  0  0
    7.0702    4.5882   22.7287 H   0  0  0  0  0  0  0  0  0  0  0  0
    7.9799    6.1615   22.6333 H   0  0  0  0  0  0  0  0  0  0  0  0
    7.0481    6.8334   24.8653 H   0  0  0  0  0  0  0  0  0  0  0  0
    6.1401    5.2589   24.9585 H   0  0  0  0  0  0  0  0  0  0  0  0
    7.5801   -2.6060   23.3366 H   0  0  0  0  0  0  0  0  0  0  0  0
    8.7749   -2.8608   22.0657 H   0  0  0  0  0  0  0  0  0  0  0  0
    7.0227   -2.7506   20.5953 H   0  0  0  0  0  0  0  0  0  0  0  0
    5.9554   -1.9484   21.7832 H   0  0  0  0  0  0  0  0  0  0  0  0
    6.8886    0.2769   23.5666 H   0  0  0  0  0  0  0  0  0  0  0  0
    7.6579   -0.8710   24.6633 H   0  0  0  0  0  0  0  0  0  0  0  0
   11.3461    6.2251   23.9641 H   0  0  0  0  0  0  0  0  0  0  0  0
   10.0105    5.9651   22.7993 H   0  0  0  0  0  0  0  0  0  0  0  0
   10.7246    4.5805   23.6672 H   0  0  0  0  0  0  0  0  0  0  0  0
    7.4792    3.2960   25.4995 H   0  0  0  0  0  0  0  0  0  0  0  0
    9.2447    3.4440   25.6648 H   0  0  0  0  0  0  0  0  0  0  0  0
  1  2  1  0  0  0  0
  1  3  2  0  0  0  0
  2  4  2  0  0  0  0
  3 10  1  0  0  0  0
  4 11  1  0  0  0  0
  5  6  2  0  0  0  0
  5 12  1  0  0  0  0
  6 15  1  0  0  0  0
  7 13  1  0  0  0  0
  7 15  2  0  0  0  0
  8 10  2  0  0  0  0
  8 27  1  0  0  0  0
  9 14  1  0  0  0  0
  9 27  2  0  0  0  0
 10 11  1  0  0  0  0
 11 14  2  0  0  0  0
 12 13  2  0  0  0  0
 12 17  1  0  0  0  0
 13 23  1  0  0  0  0
 14 28  1  0  0  0  0
 15 35  1  0  0  0  0
 16 23  1  0  0  0  0
 16 28  1  0  0  0  0
 16 30  2  0  0  0  0
 17 29  1  0  0  0  0
 18 19  1  0  0  0  0
 18 24  1  0  0  0  0
 19 24  1  0  0  0  0
 20 21  1  0  0  0  0
 20 23  1  0  0  0  0
 21 28  1  0  0  0  0
 22 23  1  0  0  0  0
 22 29  1  0  0  0  0
 24 26  1  0  0  0  0
 24 33  1  0  0  0  0
 25 33  1  0  0  0  0
 26 34  1  0  0  0  0
 29 34  1  1  0  0  0
 31 34  2  0  0  0  0
 32 34  2  0  0  0  0
  1 36  1  0  0  0  0
  2 37  1  0  0  0  0
  3 38  1  0  0  0  0
  4 39  1  0  0  0  0
  5 40  1  0  0  0  0
  6 41  1  0  0  0  0
  7 42  1  0  0  0  0
  8 43  1  0  0  0  0
  9 44  1  0  0  0  0
 17 45  1  0  0  0  0
 17 46  1  0  0  0  0
 18 47  1  0  0  0  0
 18 48  1  0  0  0  0
 19 49  1  0  0  0  0
 19 50  1  0  0  0  0
 20 51  1  0  0  0  0
 20 52  1  0  0  0  0
 21 53  1  0  0  0  0
 21 54  1  0  0  0  0
 22 55  1  0  0  0  0
 22 56  1  0  0  0  0
 25 57  1  0  0  0  0
 25 58  1  0  0  0  0
 25 59  1  0  0  0  0
 26 60  1  0  0  0  0
 26 61  1  0  0  0  0
M  END
> <compound>
ALP-POS-ecbed2ba-6

> <compound_smiles>
COC1(CC1)CS(=O)(=O)N2Cc3ccc(cc3C4(C2)CCN(C4=O)c5cncc6c5cccc6)Cl

> <enantiomer_smiles>
COC1(CC1)CS(=O)(=O)[N@@]2Cc3ccc(cc3C4(C2)CCN(C4=O)c5cncc6c5cccc6)Cl

> <scaffold>
tetrahydroisoquinoline-5spiro-isoquinoline

> <clash_score>
0

> <docking_score>
-9.54549503326416

> <overlap_score>
0.973649263381958

> <MMFF_internal_energy>
143.3275622841616

> <docked_smiles>
COC1(CC1)CS(=O)(=O)[N@@]2Cc3ccc(cc3[C@]4(C2)CCN(C4=O)c5cncc6c5cccc6)Cl

$$$$
EDG-MED-0c930815-1_2
  -OEChem-12272114573D

 56 61  0     1  0  0  0  0  0999 V2000
    7.3201    3.4065   22.7657 C   0  0  0  0  0  0  0  0  0  0  0  0
    3.3432    2.6279   20.4411 C   0  0  0  0  0  0  0  0  0  0  0  0
    3.8960    1.9291   21.5050 C   0  0  0  0  0  0  0  0  0  0  0  0
    3.7865    2.4205   19.1660 C   0  0  0  0  0  0  0  0  0  0  0  0
    4.8973    1.0233   21.2988 C   0  0  0  0  0  0  0  0  0  0  0  0
   12.0765    0.0316   24.1541 C   0  0  0  0  0  0  0  0  0  0  0  0
   12.9132   -0.6032   23.2569 C   0  0  0  0  0  0  0  0  0  0  0  0
   10.9991   -1.4331   22.0443 C   0  0  0  0  0  0  0  0  0  0  0  0
    5.3278    1.2339   17.6066 C   0  0  0  0  0  0  0  0  0  0  0  0
    6.8438   -0.2892   18.3752 C   0  0  0  0  0  0  0  0  0  0  0  0
    4.8226    1.4906   18.9054 C   0  0  0  0  0  0  0  0  0  0  0  0
    5.3982    0.7733   19.9948 C   0  0  0  0  0  0  0  0  0  0  0  0
   10.7040   -0.0625   23.9898 C   0  0  0  0  0  0  0  0  0  0  0  0
   10.1406   -0.7765   22.9250 C   0  0  0  0  0  0  0  0  0  0  0  0
    6.4440   -0.1472   19.6979 C   0  0  0  0  0  0  0  0  0  0  0  0
   12.3683   -1.3298   22.2234 C   0  0  0  0  0  0  0  0  0  0  0  0
    6.9866   -1.9366   21.3580 C   0  0  0  0  0  0  0  0  0  0  0  0
    8.2490    0.0169   21.4271 C   0  0  0  0  0  0  0  0  0  0  0  0
    9.9479    0.5589   24.9534 C   0  0  0  0  0  0  0  0  0  0  0  0
    9.8215    3.1256   22.9060 C   0  0  0  0  0  0  0  0  0  0  0  0
    9.5361    4.5983   22.9216 C   0  0  0  0  0  0  0  0  0  0  0  0
    7.8721   -0.1194   23.8831 C   0  0  0  0  0  0  0  0  0  0  0  0
    8.5316    3.6332   23.5104 C   0  0  0  0  0  0  0  0  0  0  0  0
    8.6238   -0.7606   22.6929 C   0  0  3  0  0  0  0  0  0  0  0  0
    8.3844    3.5886   25.0149 C   0  0  0  0  0  0  0  0  0  0  0  0
    6.3440    3.2238   22.1657 N   0  0  0  0  0  0  0  0  0  0  0  0
    6.3062    0.3769   17.3421 N   0  0  0  0  0  0  0  0  0  0  0  0
    7.2292   -0.6897   20.7790 N   0  0  0  0  0  0  0  0  0  0  0  0
    8.6609    1.0133   24.4995 N   0  0  2  0  0  0  0  0  0  0  0  0
    8.0140   -2.1541   22.4331 N   0  3  0  0  0  0  0  0  0  0  0  0
    8.7831    1.0570   21.0313 O   0  0  0  0  0  0  0  0  0  0  0  0
    8.2437    1.7963   26.9109 O   0  0  0  0  0  0  0  0  0  0  0  0
    6.3635    1.9461   25.2292 O   0  0  0  0  0  0  0  0  0  0  0  0
    7.7694    2.0169   25.5622 S   0  0  0  0  0  0  0  0  0  0  0  0
   13.4271   -2.1418   21.1092 Cl  0  0  0  0  0  0  0  0  0  0  0  0
    2.5431    3.3512   20.6364 H   0  0  0  0  0  0  0  0  0  0  0  0
    3.5171    2.1134   22.5167 H   0  0  0  0  0  0  0  0  0  0  0  0
    3.3416    2.9753   18.3366 H   0  0  0  0  0  0  0  0  0  0  0  0
    5.3142    0.4868   22.1546 H   0  0  0  0  0  0  0  0  0  0  0  0
   12.5019    0.5990   24.9748 H   0  0  0  0  0  0  0  0  0  0  0  0
   13.9909   -0.5174   23.3796 H   0  0  0  0  0  0  0  0  0  0  0  0
   10.6025   -2.0179   21.2248 H   0  0  0  0  0  0  0  0  0  0  0  0
    4.9137    1.7514   16.7476 H   0  0  0  0  0  0  0  0  0  0  0  0
    7.6454   -0.9762   18.1080 H   0  0  0  0  0  0  0  0  0  0  0  0
    6.2909   -2.6132   21.1515 H   0  0  0  0  0  0  0  0  0  0  0  0
    9.7863   -0.1190   25.8313 H   0  0  0  0  0  0  0  0  0  0  0  0
   10.4803    1.4568   25.3604 H   0  0  0  0  0  0  0  0  0  0  0  0
    9.7892    2.6180   21.9485 H   0  0  0  0  0  0  0  0  0  0  0  0
   10.5948    2.7562   23.5696 H   0  0  0  0  0  0  0  0  0  0  0  0
   10.1191    5.2157   23.5952 H   0  0  0  0  0  0  0  0  0  0  0  0
    9.3138    5.0761   21.9742 H   0  0  0  0  0  0  0  0  0  0  0  0
    6.8931    0.2649   23.5473 H   0  0  0  0  0  0  0  0  0  0  0  0
    7.6654   -0.8721   24.6651 H   0  0  0  0  0  0  0  0  0  0  0  0
    7.6795    4.3491   25.3619 H   0  0  0  0  0  0  0  0  0  0  0  0
    9.3477    3.7472   25.5073 H   0  0  0  0  0  0  0  0  0  0  0  0
    8.1407   -3.0019   22.7842 H   0  0  0  0  0  0  0  0  0  0  0  0
  1 23  1  0  0  0  0
  1 26  3  0  0  0  0
  2  3  1  0  0  0  0
  2  4  2  0  0  0  0
  3  5  2  0  0  0  0
  4 11  1  0  0  0  0
  5 12  1  0  0  0  0
  6  7  1  0  0  0  0
  6 13  2  0  0  0  0
  7 16  2  0  0  0  0
  8 14  2  0  0  0  0
  8 16  1  0  0  0  0
  9 11  2  0  0  0  0
  9 27  1  0  0  0  0
 10 15  1  0  0  0  0
 10 27  2  0  0  0  0
 11 12  1  0  0  0  0
 12 15  2  0  0  0  0
 13 14  1  0  0  0  0
 13 19  1  0  0  0  0
 14 24  1  0  0  0  0
 15 28  1  0  0  0  0
 16 35  1  0  0  0  0
 17 28  1  0  0  0  0
 17 30  2  0  0  0  0
 18 24  1  0  0  0  0
 18 28  1  0  0  0  0
 18 31  2  0  0  0  0
 19 29  1  0  0  0  0
 20 21  1  0  0  0  0
 20 23  1  0  0  0  0
 21 23  1  0  0  0  0
 22 24  1  0  0  0  0
 22 29  1  0  0  0  0
 23 25  1  0  0  0  0
 24 30  1  0  0  0  0
 25 34  1  0  0  0  0
 29 34  1  6  0  0  0
 32 34  2  0  0  0  0
 33 34  2  0  0  0  0
  2 36  1  0  0  0  0
  3 37  1  0  0  0  0
  4 38  1  0  0  0  0
  5 39  1  0  0  0  0
  6 40  1  0  0  0  0
  7 41  1  0  0  0  0
  8 42  1  0  0  0  0
  9 43  1  0  0  0  0
 10 44  1  0  0  0  0
 17 45  1  0  0  0  0
 19 46  1  0  0  0  0
 19 47  1  0  0  0  0
 20 48  1  0  0  0  0
 20 49  1  0  0  0  0
 21 50  1  0  0  0  0
 21 51  1  0  0  0  0
 22 52  1  0  0  0  0
 22 53  1  0  0  0  0
 25 54  1  0  0  0  0
 25 55  1  0  0  0  0
 30 56  1  0  0  0  0
M  CHG  1  30   1
M  END
> <compound>
EDG-MED-0c930815-1

> <compound_smiles>
c1ccc2c(c1)cncc2N3C=NC4(C3=O)CN(Cc5c4cc(cc5)Cl)S(=O)(=O)CC6(CC6)C#N

> <enantiomer_smiles>
c1ccc2c(c1)cncc2N3C=NC4(C3=O)C[N@](Cc5c4cc(cc5)Cl)S(=O)(=O)CC6(CC6)C#N

> <scaffold>
tetrahydroisoquinoline-5spiro-isoquinoline

> <clash_score>
0

> <docking_score>
-7.559429168701172

> <overlap_score>
0.9742873311042786

> <MMFF_internal_energy>
202.3230861146158

> <docked_smiles>
c1ccc2c(c1)cncc2N3C=[NH+][C@@]4(C3=O)C[N@](Cc5c4cc(cc5)Cl)S(=O)(=O)CC6(CC6)C#N

$$$$
EDG-MED-0c930815-1_1
  -OEChem-12272114573D

 56 61  0     1  0  0  0  0  0999 V2000
    9.9903    5.1237   23.7688 C   0  0  0  0  0  0  0  0  0  0  0  0
    3.3432    2.6279   20.4411 C   0  0  0  0  0  0  0  0  0  0  0  0
    3.8960    1.9291   21.5050 C   0  0  0  0  0  0  0  0  0  0  0  0
    3.7865    2.4205   19.1660 C   0  0  0  0  0  0  0  0  0  0  0  0
    4.8973    1.0233   21.2988 C   0  0  0  0  0  0  0  0  0  0  0  0
   12.0765    0.0316   24.1541 C   0  0  0  0  0  0  0  0  0  0  0  0
   12.9132   -0.6032   23.2569 C   0  0  0  0  0  0  0  0  0  0  0  0
   10.9991   -1.4331   22.0443 C   0  0  0  0  0  0  0  0  0  0  0  0
    5.3278    1.2339   17.6066 C   0  0  0  0  0  0  0  0  0  0  0  0
    6.8438   -0.2892   18.3752 C   0  0  0  0  0  0  0  0  0  0  0  0
    4.8226    1.4906   18.9054 C   0  0  0  0  0  0  0  0  0  0  0  0
    5.3982    0.7733   19.9948 C   0  0  0  0  0  0  0  0  0  0  0  0
   10.7040   -0.0625   23.9898 C   0  0  0  0  0  0  0  0  0  0  0  0
   10.1406   -0.7765   22.9250 C   0  0  0  0  0  0  0  0  0  0  0  0
    6.4440   -0.1472   19.6979 C   0  0  0  0  0  0  0  0  0  0  0  0
   12.3683   -1.3298   22.2234 C   0  0  0  0  0  0  0  0  0  0  0  0
    6.9866   -1.9366   21.3580 C   0  0  0  0  0  0  0  0  0  0  0  0
    8.2490    0.0169   21.4271 C   0  0  0  0  0  0  0  0  0  0  0  0
    9.9479    0.5589   24.9534 C   0  0  0  0  0  0  0  0  0  0  0  0
    8.5317    6.1435   25.5543 C   0  0  0  0  0  0  0  0  0  0  0  0
    7.7022    6.0335   24.3092 C   0  0  0  0  0  0  0  0  0  0  0  0
    7.8721   -0.1194   23.8831 C   0  0  0  0  0  0  0  0  0  0  0  0
    8.7988    5.0256   24.5716 C   0  0  0  0  0  0  0  0  0  0  0  0
    8.6238   -0.7606   22.6929 C   0  0  3  0  0  0  0  0  0  0  0  0
    8.3965    3.6216   24.9639 C   0  0  0  0  0  0  0  0  0  0  0  0
   10.9503    5.2028   23.1220 N   0  0  0  0  0  0  0  0  0  0  0  0
    6.3062    0.3769   17.3421 N   0  0  0  0  0  0  0  0  0  0  0  0
    7.2292   -0.6897   20.7790 N   0  0  0  0  0  0  0  0  0  0  0  0
    8.6609    1.0133   24.4995 N   0  0  1  0  0  0  0  0  0  0  0  0
    8.0140   -2.1541   22.4331 N   0  3  0  0  0  0  0  0  0  0  0  0
    8.7328    1.0947   21.0692 O   0  0  0  0  0  0  0  0  0  0  0  0
    7.4097    2.4891   22.8260 O   0  0  0  0  0  0  0  0  0  0  0  0
    9.9164    2.7302   23.0344 O   0  0  0  0  0  0  0  0  0  0  0  0
    8.6178    2.4823   23.6218 S   0  0  0  0  0  0  0  0  0  0  0  0
   13.4268   -2.1424   21.1095 Cl  0  0  0  0  0  0  0  0  0  0  0  0
    2.5431    3.3512   20.6364 H   0  0  0  0  0  0  0  0  0  0  0  0
    3.5171    2.1134   22.5167 H   0  0  0  0  0  0  0  0  0  0  0  0
    3.3416    2.9753   18.3366 H   0  0  0  0  0  0  0  0  0  0  0  0
    5.3142    0.4868   22.1546 H   0  0  0  0  0  0  0  0  0  0  0  0
   12.5016    0.5938   24.9784 H   0  0  0  0  0  0  0  0  0  0  0  0
   13.9909   -0.5214   23.3821 H   0  0  0  0  0  0  0  0  0  0  0  0
   10.6022   -2.0214   21.2274 H   0  0  0  0  0  0  0  0  0  0  0  0
    4.9137    1.7514   16.7476 H   0  0  0  0  0  0  0  0  0  0  0  0
    7.6454   -0.9762   18.1080 H   0  0  0  0  0  0  0  0  0  0  0  0
    6.2847   -2.6088   21.1580 H   0  0  0  0  0  0  0  0  0  0  0  0
    9.7594   -0.1292   25.8171 H   0  0  0  0  0  0  0  0  0  0  0  0
   10.4934    1.4387   25.3829 H   0  0  0  0  0  0  0  0  0  0  0  0
    9.2348    6.9664   25.6181 H   0  0  0  0  0  0  0  0  0  0  0  0
    8.0567    5.9016   26.4981 H   0  0  0  0  0  0  0  0  0  0  0  0
    6.6708    5.7185   24.4192 H   0  0  0  0  0  0  0  0  0  0  0  0
    7.8497    6.7834   23.5404 H   0  0  0  0  0  0  0  0  0  0  0  0
    6.8895    0.2695   23.5603 H   0  0  0  0  0  0  0  0  0  0  0  0
    7.6720   -0.8812   24.6567 H   0  0  0  0  0  0  0  0  0  0  0  0
    7.3417    3.5821   25.2496 H   0  0  0  0  0  0  0  0  0  0  0  0
    9.0034    3.2591   25.7980 H   0  0  0  0  0  0  0  0  0  0  0  0
    8.1551   -3.0054   22.7698 H   0  0  0  0  0  0  0  0  0  0  0  0
  1 23  1  0  0  0  0
  1 26  3  0  0  0  0
  2  3  1  0  0  0  0
  2  4  2  0  0  0  0
  3  5  2  0  0  0  0
  4 11  1  0  0  0  0
  5 12  1  0  0  0  0
  6  7  1  0  0  0  0
  6 13  2  0  0  0  0
  7 16  2  0  0  0  0
  8 14  2  0  0  0  0
  8 16  1  0  0  0  0
  9 11  2  0  0  0  0
  9 27  1  0  0  0  0
 10 15  1  0  0  0  0
 10 27  2  0  0  0  0
 11 12  1  0  0  0  0
 12 15  2  0  0  0  0
 13 14  1  0  0  0  0
 13 19  1  0  0  0  0
 14 24  1  0  0  0  0
 15 28  1  0  0  0  0
 16 35  1  0  0  0  0
 17 28  1  0  0  0  0
 17 30  2  0  0  0  0
 18 24  1  0  0  0  0
 18 28  1  0  0  0  0
 18 31  2  0  0  0  0
 19 29  1  0  0  0  0
 20 21  1  0  0  0  0
 20 23  1  0  0  0  0
 21 23  1  0  0  0  0
 22 24  1  0  0  0  0
 22 29  1  0  0  0  0
 23 25  1  0  0  0  0
 24 30  1  0  0  0  0
 25 34  1  0  0  0  0
 29 34  1  1  0  0  0
 32 34  2  0  0  0  0
 33 34  2  0  0  0  0
  2 36  1  0  0  0  0
  3 37  1  0  0  0  0
  4 38  1  0  0  0  0
  5 39  1  0  0  0  0
  6 40  1  0  0  0  0
  7 41  1  0  0  0  0
  8 42  1  0  0  0  0
  9 43  1  0  0  0  0
 10 44  1  0  0  0  0
 17 45  1  0  0  0  0
 19 46  1  0  0  0  0
 19 47  1  0  0  0  0
 20 48  1  0  0  0  0
 20 49  1  0  0  0  0
 21 50  1  0  0  0  0
 21 51  1  0  0  0  0
 22 52  1  0  0  0  0
 22 53  1  0  0  0  0
 25 54  1  0  0  0  0
 25 55  1  0  0  0  0
 30 56  1  0  0  0  0
M  CHG  1  30   1
M  END
> <compound>
EDG-MED-0c930815-1

> <compound_smiles>
c1ccc2c(c1)cncc2N3C=NC4(C3=O)CN(Cc5c4cc(cc5)Cl)S(=O)(=O)CC6(CC6)C#N

> <enantiomer_smiles>
c1ccc2c(c1)cncc2N3C=NC4(C3=O)C[N@@](Cc5c4cc(cc5)Cl)S(=O)(=O)CC6(CC6)C#N

> <scaffold>
tetrahydroisoquinoline-5spiro-isoquinoline

> <clash_score>
0

> <docking_score>
-8.088583946228027

> <overlap_score>
0.9734765291213989

> <MMFF_internal_energy>
209.5530315664865

> <docked_smiles>
c1ccc2c(c1)cncc2N3C=[NH+][C@@]4(C3=O)C[N@@](Cc5c4cc(cc5)Cl)S(=O)(=O)CC6(CC6)C#N

$$$$
ALP-POS-ecbed2ba-13_2
  -OEChem-12272114573D

 60 64  0     1  0  0  0  0  0999 V2000
    9.8307    3.0822   23.0570 C   0  0  0  0  0  0  0  0  0  0  0  0
    3.3432    2.6279   20.4411 C   0  0  0  0  0  0  0  0  0  0  0  0
    3.8960    1.9291   21.5050 C   0  0  0  0  0  0  0  0  0  0  0  0
    3.7865    2.4205   19.1660 C   0  0  0  0  0  0  0  0  0  0  0  0
    4.8973    1.0233   21.2988 C   0  0  0  0  0  0  0  0  0  0  0  0
   12.0765    0.0316   24.1541 C   0  0  0  0  0  0  0  0  0  0  0  0
   12.9132   -0.6032   23.2569 C   0  0  0  0  0  0  0  0  0  0  0  0
   10.9991   -1.4331   22.0443 C   0  0  0  0  0  0  0  0  0  0  0  0
    5.3278    1.2339   17.6066 C   0  0  0  0  0  0  0  0  0  0  0  0
    6.8438   -0.2892   18.3752 C   0  0  0  0  0  0  0  0  0  0  0  0
    4.8226    1.4906   18.9054 C   0  0  0  0  0  0  0  0  0  0  0  0
    5.3982    0.7733   19.9948 C   0  0  0  0  0  0  0  0  0  0  0  0
   10.7040   -0.0625   23.9898 C   0  0  0  0  0  0  0  0  0  0  0  0
   10.1406   -0.7765   22.9250 C   0  0  0  0  0  0  0  0  0  0  0  0
    6.4440   -0.1472   19.6979 C   0  0  0  0  0  0  0  0  0  0  0  0
   12.3683   -1.3298   22.2234 C   0  0  0  0  0  0  0  0  0  0  0  0
    8.2490    0.0169   21.4271 C   0  0  0  0  0  0  0  0  0  0  0  0
    9.9479    0.5589   24.9534 C   0  0  0  0  0  0  0  0  0  0  0  0
    8.0140   -2.1541   22.4331 C   0  0  0  0  0  0  0  0  0  0  0  0
    6.9866   -1.9366   21.3580 C   0  0  0  0  0  0  0  0  0  0  0  0
    7.8721   -0.1194   23.8831 C   0  0  0  0  0  0  0  0  0  0  0  0
    8.6238   -0.7606   22.6929 C   0  0  3  0  0  0  0  0  0  0  0  0
    7.3899    3.1085   22.7200 C   0  0  0  0  0  0  0  0  0  0  0  0
    8.6452    5.2243   23.1481 C   0  0  0  0  0  0  0  0  0  0  0  0
    8.3874    3.5882   25.0137 C   0  0  0  0  0  0  0  0  0  0  0  0
    8.5684    3.7240   23.4903 C   0  0  0  0  0  0  0  0  0  0  0  0
   10.8201    2.5801   22.7166 N   0  0  0  0  0  0  0  0  0  0  0  0
    6.3062    0.3769   17.3421 N   0  0  0  0  0  0  0  0  0  0  0  0
    7.2292   -0.6897   20.7790 N   0  0  0  0  0  0  0  0  0  0  0  0
    8.6609    1.0133   24.4995 N   0  0  1  0  0  0  0  0  0  0  0  0
    8.8299    1.0397   21.0799 O   0  0  0  0  0  0  0  0  0  0  0  0
    8.2407    1.8013   26.9144 O   0  0  0  0  0  0  0  0  0  0  0  0
    6.3653    1.9471   25.2271 O   0  0  0  0  0  0  0  0  0  0  0  0
    7.7708    2.0177   25.5632 S   0  0  0  0  0  0  0  0  0  0  0  0
   13.4272   -2.1411   21.1086 Cl  0  0  0  0  0  0  0  0  0  0  0  0
    2.5432    3.3510   20.6369 H   0  0  0  0  0  0  0  0  0  0  0  0
    3.5174    2.1137   22.5168 H   0  0  0  0  0  0  0  0  0  0  0  0
    3.3409    2.9743   18.3364 H   0  0  0  0  0  0  0  0  0  0  0  0
    5.3118    0.4895   22.1572 H   0  0  0  0  0  0  0  0  0  0  0  0
   12.5024    0.5995   24.9735 H   0  0  0  0  0  0  0  0  0  0  0  0
   13.9910   -0.5177   23.3793 H   0  0  0  0  0  0  0  0  0  0  0  0
   10.6036   -2.0162   21.2241 H   0  0  0  0  0  0  0  0  0  0  0  0
    4.9141    1.7511   16.7474 H   0  0  0  0  0  0  0  0  0  0  0  0
    7.6445   -0.9764   18.1043 H   0  0  0  0  0  0  0  0  0  0  0  0
    9.7849   -0.1194   25.8306 H   0  0  0  0  0  0  0  0  0  0  0  0
   10.4793    1.4568   25.3613 H   0  0  0  0  0  0  0  0  0  0  0  0
    7.5152   -2.5456   23.3338 H   0  0  0  0  0  0  0  0  0  0  0  0
    8.7649   -2.9030   22.1434 H   0  0  0  0  0  0  0  0  0  0  0  0
    7.0587   -2.7248   20.5721 H   0  0  0  0  0  0  0  0  0  0  0  0
    5.9518   -1.9952   21.7720 H   0  0  0  0  0  0  0  0  0  0  0  0
    6.8867    0.2641   23.5642 H   0  0  0  0  0  0  0  0  0  0  0  0
    7.6652   -0.8660   24.6733 H   0  0  0  0  0  0  0  0  0  0  0  0
    6.4398    3.5646   23.0200 H   0  0  0  0  0  0  0  0  0  0  0  0
    7.5030    3.2563   21.6389 H   0  0  0  0  0  0  0  0  0  0  0  0
    7.3128    2.0277   22.8814 H   0  0  0  0  0  0  0  0  0  0  0  0
    7.7314    5.7511   23.4489 H   0  0  0  0  0  0  0  0  0  0  0  0
    8.7698    5.3818   22.0698 H   0  0  0  0  0  0  0  0  0  0  0  0
    9.4896    5.7041   23.6561 H   0  0  0  0  0  0  0  0  0  0  0  0
    9.3397    3.7329   25.5379 H   0  0  0  0  0  0  0  0  0  0  0  0
    7.6805    4.3355   25.3919 H   0  0  0  0  0  0  0  0  0  0  0  0
  1 26  1  0  0  0  0
  1 27  3  0  0  0  0
  2  3  1  0  0  0  0
  2  4  2  0  0  0  0
  3  5  2  0  0  0  0
  4 11  1  0  0  0  0
  5 12  1  0  0  0  0
  6  7  2  0  0  0  0
  6 13  1  0  0  0  0
  7 16  1  0  0  0  0
  8 14  1  0  0  0  0
  8 16  2  0  0  0  0
  9 11  2  0  0  0  0
  9 28  1  0  0  0  0
 10 15  1  0  0  0  0
 10 28  2  0  0  0  0
 11 12  1  0  0  0  0
 12 15  2  0  0  0  0
 13 14  2  0  0  0  0
 13 18  1  0  0  0  0
 14 22  1  0  0  0  0
 15 29  1  0  0  0  0
 16 35  1  0  0  0  0
 17 22  1  0  0  0  0
 17 29  1  0  0  0  0
 17 31  2  0  0  0  0
 18 30  1  0  0  0  0
 19 20  1  0  0  0  0
 19 22  1  0  0  0  0
 20 29  1  0  0  0  0
 21 22  1  0  0  0  0
 21 30  1  0  0  0  0
 23 26  1  0  0  0  0
 24 26  1  0  0  0  0
 25 26  1  0  0  0  0
 25 34  1  0  0  0  0
 30 34  1  6  0  0  0
 32 34  2  0  0  0  0
 33 34  2  0  0  0  0
  2 36  1  0  0  0  0
  3 37  1  0  0  0  0
  4 38  1  0  0  0  0
  5 39  1  0  0  0  0
  6 40  1  0  0  0  0
  7 41  1  0  0  0  0
  8 42  1  0  0  0  0
  9 43  1  0  0  0  0
 10 44  1  0  0  0  0
 18 45  1  0  0  0  0
 18 46  1  0  0  0  0
 19 47  1  0  0  0  0
 19 48  1  0  0  0  0
 20 49  1  0  0  0  0
 20 50  1  0  0  0  0
 21 51  1  0  0  0  0
 21 52  1  0  0  0  0
 23 53  1  0  0  0  0
 23 54  1  0  0  0  0
 23 55  1  0  0  0  0
 24 56  1  0  0  0  0
 24 57  1  0  0  0  0
 24 58  1  0  0  0  0
 25 59  1  0  0  0  0
 25 60  1  0  0  0  0
M  END
> <compound>
ALP-POS-ecbed2ba-13

> <compound_smiles>
CC(C)(CS(=O)(=O)N1Cc2ccc(cc2C3(C1)CCN(C3=O)c4cncc5c4cccc5)Cl)C#N

> <enantiomer_smiles>
CC(C)(CS(=O)(=O)[N@]1Cc2ccc(cc2C3(C1)CCN(C3=O)c4cncc5c4cccc5)Cl)C#N

> <scaffold>
tetrahydroisoquinoline-5spiro-isoquinoline

> <clash_score>
0

> <docking_score>
-8.666067123413086

> <overlap_score>
0.9754720330238342

> <MMFF_internal_energy>
74.11462785066377

> <docked_smiles>
CC(C)(CS(=O)(=O)[N@]1Cc2ccc(cc2[C@]3(C1)CCN(C3=O)c4cncc5c4cccc5)Cl)C#N

$$$$
EDG-MED-00af8776-1_1
  -OEChem-12272114573D

 56 61  0     1  0  0  0  0  0999 V2000
    9.9903    5.1237   23.7688 C   0  0  0  0  0  0  0  0  0  0  0  0
    3.3432    2.6279   20.4411 C   0  0  0  0  0  0  0  0  0  0  0  0
    3.8960    1.9291   21.5050 C   0  0  0  0  0  0  0  0  0  0  0  0
    3.7865    2.4205   19.1660 C   0  0  0  0  0  0  0  0  0  0  0  0
    4.8973    1.0233   21.2988 C   0  0  0  0  0  0  0  0  0  0  0  0
   12.0765    0.0316   24.1541 C   0  0  0  0  0  0  0  0  0  0  0  0
   12.9132   -0.6032   23.2569 C   0  0  0  0  0  0  0  0  0  0  0  0
   10.9991   -1.4331   22.0443 C   0  0  0  0  0  0  0  0  0  0  0  0
    5.3278    1.2339   17.6066 C   0  0  0  0  0  0  0  0  0  0  0  0
    6.8438   -0.2892   18.3752 C   0  0  0  0  0  0  0  0  0  0  0  0
    4.8226    1.4906   18.9054 C   0  0  0  0  0  0  0  0  0  0  0  0
    5.3982    0.7733   19.9948 C   0  0  0  0  0  0  0  0  0  0  0  0
   10.7040   -0.0625   23.9898 C   0  0  0  0  0  0  0  0  0  0  0  0
   10.1406   -0.7765   22.9250 C   0  0  0  0  0  0  0  0  0  0  0  0
    6.4440   -0.1472   19.6979 C   0  0  0  0  0  0  0  0  0  0  0  0
   12.3683   -1.3298   22.2234 C   0  0  0  0  0  0  0  0  0  0  0  0
    6.9866   -1.9366   21.3580 C   0  0  0  0  0  0  0  0  0  0  0  0
    8.2490    0.0169   21.4271 C   0  0  0  0  0  0  0  0  0  0  0  0
    9.9479    0.5589   24.9534 C   0  0  0  0  0  0  0  0  0  0  0  0
    8.5317    6.1435   25.5543 C   0  0  0  0  0  0  0  0  0  0  0  0
    7.7022    6.0335   24.3092 C   0  0  0  0  0  0  0  0  0  0  0  0
    7.8721   -0.1194   23.8831 C   0  0  0  0  0  0  0  0  0  0  0  0
    8.7988    5.0256   24.5716 C   0  0  0  0  0  0  0  0  0  0  0  0
    8.6238   -0.7606   22.6929 C   0  0  3  0  0  0  0  0  0  0  0  0
    8.3965    3.6216   24.9639 C   0  0  0  0  0  0  0  0  0  0  0  0
   10.9503    5.2028   23.1220 N   0  0  0  0  0  0  0  0  0  0  0  0
    6.3062    0.3769   17.3421 N   0  0  0  0  0  0  0  0  0  0  0  0
    7.2292   -0.6897   20.7790 N   0  0  0  0  0  0  0  0  0  0  0  0
    8.6609    1.0133   24.4995 N   0  0  1  0  0  0  0  0  0  0  0  0
    8.0140   -2.1541   22.4331 N   0  3  0  0  0  0  0  0  0  0  0  0
    8.7328    1.0947   21.0692 O   0  0  0  0  0  0  0  0  0  0  0  0
    7.4097    2.4891   22.8260 O   0  0  0  0  0  0  0  0  0  0  0  0
    9.9164    2.7302   23.0344 O   0  0  0  0  0  0  0  0  0  0  0  0
    8.6178    2.4823   23.6218 S   0  0  0  0  0  0  0  0  0  0  0  0
   13.4268   -2.1424   21.1095 Cl  0  0  0  0  0  0  0  0  0  0  0  0
    2.5431    3.3512   20.6364 H   0  0  0  0  0  0  0  0  0  0  0  0
    3.5171    2.1134   22.5167 H   0  0  0  0  0  0  0  0  0  0  0  0
    3.3416    2.9753   18.3366 H   0  0  0  0  0  0  0  0  0  0  0  0
    5.3142    0.4868   22.1546 H   0  0  0  0  0  0  0  0  0  0  0  0
   12.5016    0.5938   24.9784 H   0  0  0  0  0  0  0  0  0  0  0  0
   13.9909   -0.5214   23.3821 H   0  0  0  0  0  0  0  0  0  0  0  0
   10.6022   -2.0214   21.2274 H   0  0  0  0  0  0  0  0  0  0  0  0
    4.9137    1.7514   16.7476 H   0  0  0  0  0  0  0  0  0  0  0  0
    7.6454   -0.9762   18.1080 H   0  0  0  0  0  0  0  0  0  0  0  0
    6.2847   -2.6088   21.1580 H   0  0  0  0  0  0  0  0  0  0  0  0
    9.7594   -0.1292   25.8171 H   0  0  0  0  0  0  0  0  0  0  0  0
   10.4934    1.4387   25.3829 H   0  0  0  0  0  0  0  0  0  0  0  0
    9.2348    6.9664   25.6181 H   0  0  0  0  0  0  0  0  0  0  0  0
    8.0567    5.9016   26.4981 H   0  0  0  0  0  0  0  0  0  0  0  0
    6.6708    5.7185   24.4192 H   0  0  0  0  0  0  0  0  0  0  0  0
    7.8497    6.7834   23.5404 H   0  0  0  0  0  0  0  0  0  0  0  0
    6.8895    0.2695   23.5603 H   0  0  0  0  0  0  0  0  0  0  0  0
    7.6720   -0.8812   24.6567 H   0  0  0  0  0  0  0  0  0  0  0  0
    7.3417    3.5821   25.2496 H   0  0  0  0  0  0  0  0  0  0  0  0
    9.0034    3.2591   25.7980 H   0  0  0  0  0  0  0  0  0  0  0  0
    8.1551   -3.0054   22.7698 H   0  0  0  0  0  0  0  0  0  0  0  0
  1 23  1  0  0  0  0
  1 26  3  0  0  0  0
  2  3  1  0  0  0  0
  2  4  2  0  0  0  0
  3  5  2  0  0  0  0
  4 11  1  0  0  0  0
  5 12  1  0  0  0  0
  6  7  1  0  0  0  0
  6 13  2  0  0  0  0
  7 16  2  0  0  0  0
  8 14  2  0  0  0  0
  8 16  1  0  0  0  0
  9 11  2  0  0  0  0
  9 27  1  0  0  0  0
 10 15  1  0  0  0  0
 10 27  2  0  0  0  0
 11 12  1  0  0  0  0
 12 15  2  0  0  0  0
 13 14  1  0  0  0  0
 13 19  1  0  0  0  0
 14 24  1  0  0  0  0
 15 28  1  0  0  0  0
 16 35  1  0  0  0  0
 17 28  1  0  0  0  0
 17 30  2  0  0  0  0
 18 24  1  0  0  0  0
 18 28  1  0  0  0  0
 18 31  2  0  0  0  0
 19 29  1  0  0  0  0
 20 21  1  0  0  0  0
 20 23  1  0  0  0  0
 21 23  1  0  0  0  0
 22 24  1  0  0  0  0
 22 29  1  0  0  0  0
 23 25  1  0  0  0  0
 24 30  1  0  0  0  0
 25 34  1  0  0  0  0
 29 34  1  1  0  0  0
 32 34  2  0  0  0  0
 33 34  2  0  0  0  0
  2 36  1  0  0  0  0
  3 37  1  0  0  0  0
  4 38  1  0  0  0  0
  5 39  1  0  0  0  0
  6 40  1  0  0  0  0
  7 41  1  0  0  0  0
  8 42  1  0  0  0  0
  9 43  1  0  0  0  0
 10 44  1  0  0  0  0
 17 45  1  0  0  0  0
 19 46  1  0  0  0  0
 19 47  1  0  0  0  0
 20 48  1  0  0  0  0
 20 49  1  0  0  0  0
 21 50  1  0  0  0  0
 21 51  1  0  0  0  0
 22 52  1  0  0  0  0
 22 53  1  0  0  0  0
 25 54  1  0  0  0  0
 25 55  1  0  0  0  0
 30 56  1  0  0  0  0
M  CHG  1  30   1
M  END
> <compound>
EDG-MED-00af8776-1

> <compound_smiles>
c1ccc2c(c1)cncc2N3C=NC4(C3=O)CN(Cc5c4cc(cc5)Cl)S(=O)(=O)CC6(CC6)C#N

> <enantiomer_smiles>
c1ccc2c(c1)cncc2N3C=NC4(C3=O)C[N@@](Cc5c4cc(cc5)Cl)S(=O)(=O)CC6(CC6)C#N

> <scaffold>
tetrahydroisoquinoline-5spiro-isoquinoline

> <clash_score>
0

> <docking_score>
-8.088583946228027

> <overlap_score>
0.9734765291213989

> <MMFF_internal_energy>
209.5530315664865

> <docked_smiles>
c1ccc2c(c1)cncc2N3C=[NH+][C@@]4(C3=O)C[N@@](Cc5c4cc(cc5)Cl)S(=O)(=O)CC6(CC6)C#N

$$$$
ALP-POS-ecbed2ba-9_1
  -OEChem-12272114573D

 57 62  0     1  0  0  0  0  0999 V2000
    6.3540    5.9169   26.2057 C   0  0  0  0  0  0  0  0  0  0  0  0
    3.3432    2.6279   20.4411 C   0  0  0  0  0  0  0  0  0  0  0  0
    3.8960    1.9291   21.5050 C   0  0  0  0  0  0  0  0  0  0  0  0
    3.7865    2.4205   19.1660 C   0  0  0  0  0  0  0  0  0  0  0  0
    4.8973    1.0233   21.2988 C   0  0  0  0  0  0  0  0  0  0  0  0
   12.0765    0.0316   24.1541 C   0  0  0  0  0  0  0  0  0  0  0  0
   12.9132   -0.6032   23.2569 C   0  0  0  0  0  0  0  0  0  0  0  0
   10.9991   -1.4331   22.0443 C   0  0  0  0  0  0  0  0  0  0  0  0
    5.3278    1.2339   17.6066 C   0  0  0  0  0  0  0  0  0  0  0  0
    6.8438   -0.2892   18.3752 C   0  0  0  0  0  0  0  0  0  0  0  0
    4.8226    1.4906   18.9054 C   0  0  0  0  0  0  0  0  0  0  0  0
    5.3982    0.7733   19.9948 C   0  0  0  0  0  0  0  0  0  0  0  0
   10.7040   -0.0625   23.9898 C   0  0  0  0  0  0  0  0  0  0  0  0
   10.1406   -0.7765   22.9250 C   0  0  0  0  0  0  0  0  0  0  0  0
    6.4440   -0.1472   19.6979 C   0  0  0  0  0  0  0  0  0  0  0  0
   12.3683   -1.3298   22.2234 C   0  0  0  0  0  0  0  0  0  0  0  0
    8.2490    0.0169   21.4271 C   0  0  0  0  0  0  0  0  0  0  0  0
    9.9479    0.5589   24.9534 C   0  0  0  0  0  0  0  0  0  0  0  0
    8.0140   -2.1541   22.4331 C   0  0  0  0  0  0  0  0  0  0  0  0
    6.9866   -1.9366   21.3580 C   0  0  0  0  0  0  0  0  0  0  0  0
    7.2593    3.5712   25.8766 C   0  0  0  0  0  0  0  0  0  0  0  0
    8.2838    5.0530   24.8061 C   0  0  0  0  0  0  0  0  0  0  0  0
    7.8721   -0.1194   23.8831 C   0  0  0  0  0  0  0  0  0  0  0  0
    7.5215    5.0701   26.1511 C   0  0  0  0  0  0  0  0  0  0  0  0
    8.6238   -0.7606   22.6929 C   0  0  3  0  0  0  0  0  0  0  0  0
    5.4155    6.5976   26.2495 N   0  0  0  0  0  0  0  0  0  0  0  0
    6.3062    0.3769   17.3421 N   0  0  0  0  0  0  0  0  0  0  0  0
    7.2292   -0.6897   20.7790 N   0  0  0  0  0  0  0  0  0  0  0  0
    8.6609    1.0133   24.4995 N   0  0  1  0  0  0  0  0  0  0  0  0
    8.4087    3.5615   24.9122 N   0  0  0  0  0  0  0  0  0  0  0  0
    8.7572    1.0941   21.1350 O   0  0  0  0  0  0  0  0  0  0  0  0
    9.9196    2.7278   23.0249 O   0  0  0  0  0  0  0  0  0  0  0  0
    7.4152    2.4986   22.8124 O   0  0  0  0  0  0  0  0  0  0  0  0
    8.6198    2.4832   23.6217 S   0  0  0  0  0  0  0  0  0  0  0  0
   13.4275   -2.1421   21.1097 Cl  0  0  0  0  0  0  0  0  0  0  0  0
    2.5432    3.3510   20.6369 H   0  0  0  0  0  0  0  0  0  0  0  0
    3.5174    2.1137   22.5168 H   0  0  0  0  0  0  0  0  0  0  0  0
    3.3409    2.9743   18.3364 H   0  0  0  0  0  0  0  0  0  0  0  0
    5.3118    0.4895   22.1572 H   0  0  0  0  0  0  0  0  0  0  0  0
   12.5015    0.5938   24.9776 H   0  0  0  0  0  0  0  0  0  0  0  0
   13.9911   -0.5212   23.3814 H   0  0  0  0  0  0  0  0  0  0  0  0
   10.6037   -2.0228   21.2288 H   0  0  0  0  0  0  0  0  0  0  0  0
    4.9141    1.7511   16.7474 H   0  0  0  0  0  0  0  0  0  0  0  0
    7.6445   -0.9764   18.1043 H   0  0  0  0  0  0  0  0  0  0  0  0
    9.7581   -0.1287   25.8173 H   0  0  0  0  0  0  0  0  0  0  0  0
   10.4931    1.4391   25.3829 H   0  0  0  0  0  0  0  0  0  0  0  0
    7.5801   -2.6060   23.3366 H   0  0  0  0  0  0  0  0  0  0  0  0
    8.7749   -2.8608   22.0657 H   0  0  0  0  0  0  0  0  0  0  0  0
    7.0227   -2.7506   20.5953 H   0  0  0  0  0  0  0  0  0  0  0  0
    5.9554   -1.9484   21.7832 H   0  0  0  0  0  0  0  0  0  0  0  0
    7.4155    2.8999   26.7248 H   0  0  0  0  0  0  0  0  0  0  0  0
    6.3107    3.3310   25.3831 H   0  0  0  0  0  0  0  0  0  0  0  0
    7.7076    5.3516   23.9230 H   0  0  0  0  0  0  0  0  0  0  0  0
    9.2524    5.5595   24.8047 H   0  0  0  0  0  0  0  0  0  0  0  0
    6.8886    0.2769   23.5666 H   0  0  0  0  0  0  0  0  0  0  0  0
    7.6579   -0.8710   24.6633 H   0  0  0  0  0  0  0  0  0  0  0  0
    8.1943    5.2220   27.0053 H   0  0  0  0  0  0  0  0  0  0  0  0
  1 24  1  0  0  0  0
  1 26  3  0  0  0  0
  2  3  1  0  0  0  0
  2  4  2  0  0  0  0
  3  5  2  0  0  0  0
  4 11  1  0  0  0  0
  5 12  1  0  0  0  0
  6  7  1  0  0  0  0
  6 13  2  0  0  0  0
  7 16  2  0  0  0  0
  8 14  2  0  0  0  0
  8 16  1  0  0  0  0
  9 11  2  0  0  0  0
  9 27  1  0  0  0  0
 10 15  1  0  0  0  0
 10 27  2  0  0  0  0
 11 12  1  0  0  0  0
 12 15  2  0  0  0  0
 13 14  1  0  0  0  0
 13 18  1  0  0  0  0
 14 25  1  0  0  0  0
 15 28  1  0  0  0  0
 16 35  1  0  0  0  0
 17 25  1  0  0  0  0
 17 28  1  0  0  0  0
 17 31  2  0  0  0  0
 18 29  1  0  0  0  0
 19 20  1  0  0  0  0
 19 25  1  0  0  0  0
 20 28  1  0  0  0  0
 21 24  1  0  0  0  0
 21 30  1  0  0  0  0
 22 24  1  0  0  0  0
 22 30  1  0  0  0  0
 23 25  1  0  0  0  0
 23 29  1  0  0  0  0
 29 34  1  1  0  0  0
 30 34  1  0  0  0  0
 32 34  2  0  0  0  0
 33 34  2  0  0  0  0
  2 36  1  0  0  0  0
  3 37  1  0  0  0  0
  4 38  1  0  0  0  0
  5 39  1  0  0  0  0
  6 40  1  0  0  0  0
  7 41  1  0  0  0  0
  8 42  1  0  0  0  0
  9 43  1  0  0  0  0
 10 44  1  0  0  0  0
 18 45  1  0  0  0  0
 18 46  1  0  0  0  0
 19 47  1  0  0  0  0
 19 48  1  0  0  0  0
 20 49  1  0  0  0  0
 20 50  1  0  0  0  0
 21 51  1  0  0  0  0
 21 52  1  0  0  0  0
 22 53  1  0  0  0  0
 22 54  1  0  0  0  0
 23 55  1  0  0  0  0
 23 56  1  0  0  0  0
 24 57  1  0  0  0  0
M  END
> <compound>
ALP-POS-ecbed2ba-9

> <compound_smiles>
c1ccc2c(c1)cncc2N3CCC4(C3=O)CN(Cc5c4cc(cc5)Cl)S(=O)(=O)N6CC(C6)C#N

> <enantiomer_smiles>
c1ccc2c(c1)cncc2N3CCC4(C3=O)C[N@@](Cc5c4cc(cc5)Cl)S(=O)(=O)N6CC(C6)C#N

> <scaffold>
tetrahydroisoquinoline-5spiro-isoquinoline

> <clash_score>
0

> <docking_score>
-8.440345764160156

> <overlap_score>
0.9739203453063965

> <MMFF_internal_energy>
-16.99832744192968

> <docked_smiles>
c1ccc2c(c1)cncc2N3CC[C@@]4(C3=O)C[N@@](Cc5c4cc(cc5)Cl)S(=O)(=O)N6CC(C6)C#N

$$$$
ALP-POS-ecbed2ba-16_2
  -OEChem-12272114573D

 59 63  0     1  0  0  0  0  0999 V2000
    7.0315    5.1129   22.7284 C   0  0  0  0  0  0  0  0  0  0  0  0
    3.3432    2.6279   20.4411 C   0  0  0  0  0  0  0  0  0  0  0  0
    3.8960    1.9291   21.5050 C   0  0  0  0  0  0  0  0  0  0  0  0
    3.7865    2.4205   19.1660 C   0  0  0  0  0  0  0  0  0  0  0  0
    4.8973    1.0233   21.2988 C   0  0  0  0  0  0  0  0  0  0  0  0
   12.0765    0.0316   24.1541 C   0  0  0  0  0  0  0  0  0  0  0  0
   12.9132   -0.6032   23.2569 C   0  0  0  0  0  0  0  0  0  0  0  0
   10.9991   -1.4331   22.0443 C   0  0  0  0  0  0  0  0  0  0  0  0
    5.3278    1.2339   17.6066 C   0  0  0  0  0  0  0  0  0  0  0  0
    6.8438   -0.2892   18.3752 C   0  0  0  0  0  0  0  0  0  0  0  0
    4.8226    1.4906   18.9054 C   0  0  0  0  0  0  0  0  0  0  0  0
    5.3982    0.7733   19.9948 C   0  0  0  0  0  0  0  0  0  0  0  0
   10.7040   -0.0625   23.9898 C   0  0  0  0  0  0  0  0  0  0  0  0
   10.1406   -0.7765   22.9250 C   0  0  0  0  0  0  0  0  0  0  0  0
    6.4440   -0.1472   19.6979 C   0  0  0  0  0  0  0  0  0  0  0  0
   12.3683   -1.3298   22.2234 C   0  0  0  0  0  0  0  0  0  0  0  0
    8.2490    0.0169   21.4271 C   0  0  0  0  0  0  0  0  0  0  0  0
    9.9479    0.5589   24.9534 C   0  0  0  0  0  0  0  0  0  0  0  0
    8.0140   -2.1541   22.4331 C   0  0  0  0  0  0  0  0  0  0  0  0
    6.9866   -1.9366   21.3580 C   0  0  0  0  0  0  0  0  0  0  0  0
    7.8721   -0.1194   23.8831 C   0  0  0  0  0  0  0  0  0  0  0  0
    8.6238   -0.7606   22.6929 C   0  0  3  0  0  0  0  0  0  0  0  0
    7.1822    3.5140   25.7191 C   0  0  0  0  0  0  0  0  0  0  0  0
    8.4380    5.3499   23.0857 C   0  0  0  0  0  0  0  0  0  0  0  0
    8.7087    5.0606   24.5583 C   0  0  0  0  0  0  0  0  0  0  0  0
    5.9220    4.9265   22.4444 N   0  0  0  0  0  0  0  0  0  0  0  0
    6.3062    0.3769   17.3421 N   0  0  0  0  0  0  0  0  0  0  0  0
    7.2292   -0.6897   20.7790 N   0  0  0  0  0  0  0  0  0  0  0  0
    8.6609    1.0133   24.4995 N   0  0  2  0  0  0  0  0  0  0  0  0
    8.4044    3.6433   24.8844 N   0  0  2  0  0  0  0  0  0  0  0  0
    8.7572    1.0941   21.1350 O   0  0  0  0  0  0  0  0  0  0  0  0
    7.4336    2.4722   22.7864 O   0  0  0  0  0  0  0  0  0  0  0  0
    9.9276    2.6762   23.0243 O   0  0  0  0  0  0  0  0  0  0  0  0
    8.6198    2.4832   23.6217 S   0  0  0  0  0  0  0  0  0  0  0  0
   13.4275   -2.1421   21.1097 Cl  0  0  0  0  0  0  0  0  0  0  0  0
    2.5432    3.3510   20.6369 H   0  0  0  0  0  0  0  0  0  0  0  0
    3.5174    2.1137   22.5168 H   0  0  0  0  0  0  0  0  0  0  0  0
    3.3409    2.9743   18.3364 H   0  0  0  0  0  0  0  0  0  0  0  0
    5.3118    0.4895   22.1572 H   0  0  0  0  0  0  0  0  0  0  0  0
   12.5015    0.5938   24.9776 H   0  0  0  0  0  0  0  0  0  0  0  0
   13.9911   -0.5212   23.3814 H   0  0  0  0  0  0  0  0  0  0  0  0
   10.6037   -2.0228   21.2288 H   0  0  0  0  0  0  0  0  0  0  0  0
    4.9141    1.7511   16.7474 H   0  0  0  0  0  0  0  0  0  0  0  0
    7.6445   -0.9764   18.1043 H   0  0  0  0  0  0  0  0  0  0  0  0
    9.7581   -0.1287   25.8173 H   0  0  0  0  0  0  0  0  0  0  0  0
   10.4931    1.4391   25.3829 H   0  0  0  0  0  0  0  0  0  0  0  0
    7.5801   -2.6060   23.3366 H   0  0  0  0  0  0  0  0  0  0  0  0
    8.7749   -2.8608   22.0657 H   0  0  0  0  0  0  0  0  0  0  0  0
    7.0227   -2.7506   20.5953 H   0  0  0  0  0  0  0  0  0  0  0  0
    5.9554   -1.9484   21.7832 H   0  0  0  0  0  0  0  0  0  0  0  0
    6.8886    0.2769   23.5666 H   0  0  0  0  0  0  0  0  0  0  0  0
    7.6579   -0.8710   24.6633 H   0  0  0  0  0  0  0  0  0  0  0  0
    6.9959    2.4517   25.9353 H   0  0  0  0  0  0  0  0  0  0  0  0
    7.3233    4.0609   26.6630 H   0  0  0  0  0  0  0  0  0  0  0  0
    6.3220    3.9340   25.1770 H   0  0  0  0  0  0  0  0  0  0  0  0
    8.6846    6.3978   22.8786 H   0  0  0  0  0  0  0  0  0  0  0  0
    9.0880    4.7358   22.4515 H   0  0  0  0  0  0  0  0  0  0  0  0
    9.7640    5.2493   24.7809 H   0  0  0  0  0  0  0  0  0  0  0  0
    8.1117    5.7169   25.2013 H   0  0  0  0  0  0  0  0  0  0  0  0
  1 24  1  0  0  0  0
  1 26  3  0  0  0  0
  2  3  1  0  0  0  0
  2  4  2  0  0  0  0
  3  5  2  0  0  0  0
  4 11  1  0  0  0  0
  5 12  1  0  0  0  0
  6  7  2  0  0  0  0
  6 13  1  0  0  0  0
  7 16  1  0  0  0  0
  8 14  1  0  0  0  0
  8 16  2  0  0  0  0
  9 11  2  0  0  0  0
  9 27  1  0  0  0  0
 10 15  1  0  0  0  0
 10 27  2  0  0  0  0
 11 12  1  0  0  0  0
 12 15  2  0  0  0  0
 13 14  2  0  0  0  0
 13 18  1  0  0  0  0
 14 22  1  0  0  0  0
 15 28  1  0  0  0  0
 16 35  1  0  0  0  0
 17 22  1  0  0  0  0
 17 28  1  0  0  0  0
 17 31  2  0  0  0  0
 18 29  1  0  0  0  0
 19 20  1  0  0  0  0
 19 22  1  0  0  0  0
 20 28  1  0  0  0  0
 21 22  1  0  0  0  0
 21 29  1  0  0  0  0
 23 30  1  6  0  0  0
 24 25  1  0  0  0  0
 25 30  1  0  0  0  0
 29 34  1  1  0  0  0
 30 34  1  0  0  0  0
 32 34  2  0  0  0  0
 33 34  2  0  0  0  0
  2 36  1  0  0  0  0
  3 37  1  0  0  0  0
  4 38  1  0  0  0  0
  5 39  1  0  0  0  0
  6 40  1  0  0  0  0
  7 41  1  0  0  0  0
  8 42  1  0  0  0  0
  9 43  1  0  0  0  0
 10 44  1  0  0  0  0
 18 45  1  0  0  0  0
 18 46  1  0  0  0  0
 19 47  1  0  0  0  0
 19 48  1  0  0  0  0
 20 49  1  0  0  0  0
 20 50  1  0  0  0  0
 21 51  1  0  0  0  0
 21 52  1  0  0  0  0
 23 53  1  0  0  0  0
 23 54  1  0  0  0  0
 23 55  1  0  0  0  0
 24 56  1  0  0  0  0
 24 57  1  0  0  0  0
 25 58  1  0  0  0  0
 25 59  1  0  0  0  0
M  END
> <compound>
ALP-POS-ecbed2ba-16

> <compound_smiles>
CN(CCC#N)S(=O)(=O)N1Cc2ccc(cc2C3(C1)CCN(C3=O)c4cncc5c4cccc5)Cl

> <enantiomer_smiles>
C[N@](CCC#N)S(=O)(=O)[N@@]1Cc2ccc(cc2C3(C1)CCN(C3=O)c4cncc5c4cccc5)Cl

> <scaffold>
tetrahydroisoquinoline-5spiro-isoquinoline

> <clash_score>
0

> <docking_score>
-9.143144607543945

> <overlap_score>
0.9748197197914124

> <MMFF_internal_energy>
-3.1908766202641363

> <docked_smiles>
C[N@](CCC#N)S(=O)(=O)[N@@]1Cc2ccc(cc2[C@]3(C1)CCN(C3=O)c4cncc5c4cccc5)Cl

$$$$
EDG-MED-00af8776-1_2
  -OEChem-12272114573D

 56 61  0     1  0  0  0  0  0999 V2000
    7.3201    3.4065   22.7657 C   0  0  0  0  0  0  0  0  0  0  0  0
    3.3432    2.6279   20.4411 C   0  0  0  0  0  0  0  0  0  0  0  0
    3.8960    1.9291   21.5050 C   0  0  0  0  0  0  0  0  0  0  0  0
    3.7865    2.4205   19.1660 C   0  0  0  0  0  0  0  0  0  0  0  0
    4.8973    1.0233   21.2988 C   0  0  0  0  0  0  0  0  0  0  0  0
   12.0765    0.0316   24.1541 C   0  0  0  0  0  0  0  0  0  0  0  0
   12.9132   -0.6032   23.2569 C   0  0  0  0  0  0  0  0  0  0  0  0
   10.9991   -1.4331   22.0443 C   0  0  0  0  0  0  0  0  0  0  0  0
    5.3278    1.2339   17.6066 C   0  0  0  0  0  0  0  0  0  0  0  0
    6.8438   -0.2892   18.3752 C   0  0  0  0  0  0  0  0  0  0  0  0
    4.8226    1.4906   18.9054 C   0  0  0  0  0  0  0  0  0  0  0  0
    5.3982    0.7733   19.9948 C   0  0  0  0  0  0  0  0  0  0  0  0
   10.7040   -0.0625   23.9898 C   0  0  0  0  0  0  0  0  0  0  0  0
   10.1406   -0.7765   22.9250 C   0  0  0  0  0  0  0  0  0  0  0  0
    6.4440   -0.1472   19.6979 C   0  0  0  0  0  0  0  0  0  0  0  0
   12.3683   -1.3298   22.2234 C   0  0  0  0  0  0  0  0  0  0  0  0
    6.9866   -1.9366   21.3580 C   0  0  0  0  0  0  0  0  0  0  0  0
    8.2490    0.0169   21.4271 C   0  0  0  0  0  0  0  0  0  0  0  0
    9.9479    0.5589   24.9534 C   0  0  0  0  0  0  0  0  0  0  0  0
    9.8215    3.1256   22.9060 C   0  0  0  0  0  0  0  0  0  0  0  0
    9.5361    4.5983   22.9216 C   0  0  0  0  0  0  0  0  0  0  0  0
    7.8721   -0.1194   23.8831 C   0  0  0  0  0  0  0  0  0  0  0  0
    8.5316    3.6332   23.5104 C   0  0  0  0  0  0  0  0  0  0  0  0
    8.6238   -0.7606   22.6929 C   0  0  3  0  0  0  0  0  0  0  0  0
    8.3844    3.5886   25.0149 C   0  0  0  0  0  0  0  0  0  0  0  0
    6.3440    3.2238   22.1657 N   0  0  0  0  0  0  0  0  0  0  0  0
    6.3062    0.3769   17.3421 N   0  0  0  0  0  0  0  0  0  0  0  0
    7.2292   -0.6897   20.7790 N   0  0  0  0  0  0  0  0  0  0  0  0
    8.6609    1.0133   24.4995 N   0  0  2  0  0  0  0  0  0  0  0  0
    8.0140   -2.1541   22.4331 N   0  3  0  0  0  0  0  0  0  0  0  0
    8.7831    1.0570   21.0313 O   0  0  0  0  0  0  0  0  0  0  0  0
    8.2437    1.7963   26.9109 O   0  0  0  0  0  0  0  0  0  0  0  0
    6.3635    1.9461   25.2292 O   0  0  0  0  0  0  0  0  0  0  0  0
    7.7694    2.0169   25.5622 S   0  0  0  0  0  0  0  0  0  0  0  0
   13.4271   -2.1418   21.1092 Cl  0  0  0  0  0  0  0  0  0  0  0  0
    2.5431    3.3512   20.6364 H   0  0  0  0  0  0  0  0  0  0  0  0
    3.5171    2.1134   22.5167 H   0  0  0  0  0  0  0  0  0  0  0  0
    3.3416    2.9753   18.3366 H   0  0  0  0  0  0  0  0  0  0  0  0
    5.3142    0.4868   22.1546 H   0  0  0  0  0  0  0  0  0  0  0  0
   12.5019    0.5990   24.9748 H   0  0  0  0  0  0  0  0  0  0  0  0
   13.9909   -0.5174   23.3796 H   0  0  0  0  0  0  0  0  0  0  0  0
   10.6025   -2.0179   21.2248 H   0  0  0  0  0  0  0  0  0  0  0  0
    4.9137    1.7514   16.7476 H   0  0  0  0  0  0  0  0  0  0  0  0
    7.6454   -0.9762   18.1080 H   0  0  0  0  0  0  0  0  0  0  0  0
    6.2909   -2.6132   21.1515 H   0  0  0  0  0  0  0  0  0  0  0  0
    9.7863   -0.1190   25.8313 H   0  0  0  0  0  0  0  0  0  0  0  0
   10.4803    1.4568   25.3604 H   0  0  0  0  0  0  0  0  0  0  0  0
    9.7892    2.6180   21.9485 H   0  0  0  0  0  0  0  0  0  0  0  0
   10.5948    2.7562   23.5696 H   0  0  0  0  0  0  0  0  0  0  0  0
   10.1191    5.2157   23.5952 H   0  0  0  0  0  0  0  0  0  0  0  0
    9.3138    5.0761   21.9742 H   0  0  0  0  0  0  0  0  0  0  0  0
    6.8931    0.2649   23.5473 H   0  0  0  0  0  0  0  0  0  0  0  0
    7.6654   -0.8721   24.6651 H   0  0  0  0  0  0  0  0  0  0  0  0
    7.6795    4.3491   25.3619 H   0  0  0  0  0  0  0  0  0  0  0  0
    9.3477    3.7472   25.5073 H   0  0  0  0  0  0  0  0  0  0  0  0
    8.1407   -3.0019   22.7842 H   0  0  0  0  0  0  0  0  0  0  0  0
  1 23  1  0  0  0  0
  1 26  3  0  0  0  0
  2  3  1  0  0  0  0
  2  4  2  0  0  0  0
  3  5  2  0  0  0  0
  4 11  1  0  0  0  0
  5 12  1  0  0  0  0
  6  7  1  0  0  0  0
  6 13  2  0  0  0  0
  7 16  2  0  0  0  0
  8 14  2  0  0  0  0
  8 16  1  0  0  0  0
  9 11  2  0  0  0  0
  9 27  1  0  0  0  0
 10 15  1  0  0  0  0
 10 27  2  0  0  0  0
 11 12  1  0  0  0  0
 12 15  2  0  0  0  0
 13 14  1  0  0  0  0
 13 19  1  0  0  0  0
 14 24  1  0  0  0  0
 15 28  1  0  0  0  0
 16 35  1  0  0  0  0
 17 28  1  0  0  0  0
 17 30  2  0  0  0  0
 18 24  1  0  0  0  0
 18 28  1  0  0  0  0
 18 31  2  0  0  0  0
 19 29  1  0  0  0  0
 20 21  1  0  0  0  0
 20 23  1  0  0  0  0
 21 23  1  0  0  0  0
 22 24  1  0  0  0  0
 22 29  1  0  0  0  0
 23 25  1  0  0  0  0
 24 30  1  0  0  0  0
 25 34  1  0  0  0  0
 29 34  1  6  0  0  0
 32 34  2  0  0  0  0
 33 34  2  0  0  0  0
  2 36  1  0  0  0  0
  3 37  1  0  0  0  0
  4 38  1  0  0  0  0
  5 39  1  0  0  0  0
  6 40  1  0  0  0  0
  7 41  1  0  0  0  0
  8 42  1  0  0  0  0
  9 43  1  0  0  0  0
 10 44  1  0  0  0  0
 17 45  1  0  0  0  0
 19 46  1  0  0  0  0
 19 47  1  0  0  0  0
 20 48  1  0  0  0  0
 20 49  1  0  0  0  0
 21 50  1  0  0  0  0
 21 51  1  0  0  0  0
 22 52  1  0  0  0  0
 22 53  1  0  0  0  0
 25 54  1  0  0  0  0
 25 55  1  0  0  0  0
 30 56  1  0  0  0  0
M  CHG  1  30   1
M  END
> <compound>
EDG-MED-00af8776-1

> <compound_smiles>
c1ccc2c(c1)cncc2N3C=NC4(C3=O)CN(Cc5c4cc(cc5)Cl)S(=O)(=O)CC6(CC6)C#N

> <enantiomer_smiles>
c1ccc2c(c1)cncc2N3C=NC4(C3=O)C[N@](Cc5c4cc(cc5)Cl)S(=O)(=O)CC6(CC6)C#N

> <scaffold>
tetrahydroisoquinoline-5spiro-isoquinoline

> <clash_score>
0

> <docking_score>
-7.559429168701172

> <overlap_score>
0.9742873311042786

> <MMFF_internal_energy>
202.3230861146158

> <docked_smiles>
c1ccc2c(c1)cncc2N3C=[NH+][C@@]4(C3=O)C[N@](Cc5c4cc(cc5)Cl)S(=O)(=O)CC6(CC6)C#N

$$$$
ALP-POS-ecbed2ba-10_1
  -OEChem-12272114573D

 60 65  0     1  0  0  0  0  0999 V2000
    3.3432    2.6279   20.4411 C   0  0  0  0  0  0  0  0  0  0  0  0
    3.8960    1.9291   21.5050 C   0  0  0  0  0  0  0  0  0  0  0  0
    3.7865    2.4205   19.1660 C   0  0  0  0  0  0  0  0  0  0  0  0
    4.8973    1.0233   21.2988 C   0  0  0  0  0  0  0  0  0  0  0  0
   12.0765    0.0316   24.1541 C   0  0  0  0  0  0  0  0  0  0  0  0
   12.9132   -0.6032   23.2569 C   0  0  0  0  0  0  0  0  0  0  0  0
   10.9991   -1.4331   22.0443 C   0  0  0  0  0  0  0  0  0  0  0  0
    5.3278    1.2339   17.6066 C   0  0  0  0  0  0  0  0  0  0  0  0
    6.8438   -0.2892   18.3752 C   0  0  0  0  0  0  0  0  0  0  0  0
    4.8226    1.4906   18.9054 C   0  0  0  0  0  0  0  0  0  0  0  0
    5.3982    0.7733   19.9948 C   0  0  0  0  0  0  0  0  0  0  0  0
   10.7040   -0.0625   23.9898 C   0  0  0  0  0  0  0  0  0  0  0  0
   10.1406   -0.7765   22.9250 C   0  0  0  0  0  0  0  0  0  0  0  0
    6.4440   -0.1472   19.6979 C   0  0  0  0  0  0  0  0  0  0  0  0
   12.3683   -1.3298   22.2234 C   0  0  0  0  0  0  0  0  0  0  0  0
    8.2490    0.0169   21.4271 C   0  0  0  0  0  0  0  0  0  0  0  0
    9.9479    0.5589   24.9534 C   0  0  0  0  0  0  0  0  0  0  0  0
    8.0140   -2.1541   22.4331 C   0  0  0  0  0  0  0  0  0  0  0  0
    6.9866   -1.9366   21.3580 C   0  0  0  0  0  0  0  0  0  0  0  0
    7.2611    3.6386   25.8415 C   0  0  0  0  0  0  0  0  0  0  0  0
    8.3211    5.0844   24.7410 C   0  0  0  0  0  0  0  0  0  0  0  0
    7.8721   -0.1194   23.8831 C   0  0  0  0  0  0  0  0  0  0  0  0
    7.4621    5.1555   26.0183 C   0  0  0  0  0  0  0  0  0  0  0  0
    8.6238   -0.7606   22.6929 C   0  0  3  0  0  0  0  0  0  0  0  0
    8.2721    6.9710   27.2756 C   0  0  0  0  0  0  0  0  0  0  0  0
    6.3062    0.3769   17.3421 N   0  0  0  0  0  0  0  0  0  0  0  0
    7.2292   -0.6897   20.7790 N   0  0  0  0  0  0  0  0  0  0  0  0
    8.6609    1.0133   24.4995 N   0  0  2  0  0  0  0  0  0  0  0  0
    8.4086    3.5967   24.8811 N   0  0  0  0  0  0  0  0  0  0  0  0
    8.7572    1.0941   21.1350 O   0  0  0  0  0  0  0  0  0  0  0  0
    9.9258    2.7014   23.0280 O   0  0  0  0  0  0  0  0  0  0  0  0
    7.4210    2.4868   22.8036 O   0  0  0  0  0  0  0  0  0  0  0  0
    8.1438    5.5623   27.2185 O   0  0  0  0  0  0  0  0  0  0  0  0
    8.6198    2.4832   23.6217 S   0  0  0  0  0  0  0  0  0  0  0  0
   13.4275   -2.1421   21.1097 Cl  0  0  0  0  0  0  0  0  0  0  0  0
    2.5432    3.3510   20.6369 H   0  0  0  0  0  0  0  0  0  0  0  0
    3.5174    2.1137   22.5168 H   0  0  0  0  0  0  0  0  0  0  0  0
    3.3409    2.9743   18.3364 H   0  0  0  0  0  0  0  0  0  0  0  0
    5.3118    0.4895   22.1572 H   0  0  0  0  0  0  0  0  0  0  0  0
   12.5015    0.5938   24.9776 H   0  0  0  0  0  0  0  0  0  0  0  0
   13.9911   -0.5212   23.3814 H   0  0  0  0  0  0  0  0  0  0  0  0
   10.6037   -2.0228   21.2288 H   0  0  0  0  0  0  0  0  0  0  0  0
    4.9141    1.7511   16.7474 H   0  0  0  0  0  0  0  0  0  0  0  0
    7.6445   -0.9764   18.1043 H   0  0  0  0  0  0  0  0  0  0  0  0
    9.7581   -0.1287   25.8173 H   0  0  0  0  0  0  0  0  0  0  0  0
   10.4931    1.4391   25.3829 H   0  0  0  0  0  0  0  0  0  0  0  0
    7.5801   -2.6060   23.3366 H   0  0  0  0  0  0  0  0  0  0  0  0
    8.7749   -2.8608   22.0657 H   0  0  0  0  0  0  0  0  0  0  0  0
    7.0227   -2.7506   20.5953 H   0  0  0  0  0  0  0  0  0  0  0  0
    5.9554   -1.9484   21.7832 H   0  0  0  0  0  0  0  0  0  0  0  0
    7.4466    3.0372   26.7391 H   0  0  0  0  0  0  0  0  0  0  0  0
    6.3152    3.3368   25.3823 H   0  0  0  0  0  0  0  0  0  0  0  0
    7.8233    5.3938   23.8174 H   0  0  0  0  0  0  0  0  0  0  0  0
    9.3021    5.5681   24.8139 H   0  0  0  0  0  0  0  0  0  0  0  0
    6.8886    0.2769   23.5666 H   0  0  0  0  0  0  0  0  0  0  0  0
    7.6579   -0.8710   24.6633 H   0  0  0  0  0  0  0  0  0  0  0  0
    6.5375    5.7282   25.8843 H   0  0  0  0  0  0  0  0  0  0  0  0
    8.7919    7.2533   28.1944 H   0  0  0  0  0  0  0  0  0  0  0  0
    7.2803    7.4295   27.2498 H   0  0  0  0  0  0  0  0  0  0  0  0
    8.8508    7.3105   26.4132 H   0  0  0  0  0  0  0  0  0  0  0  0
  1  2  1  0  0  0  0
  1  3  2  0  0  0  0
  2  4  2  0  0  0  0
  3 10  1  0  0  0  0
  4 11  1  0  0  0  0
  5  6  2  0  0  0  0
  5 12  1  0  0  0  0
  6 15  1  0  0  0  0
  7 13  1  0  0  0  0
  7 15  2  0  0  0  0
  8 10  2  0  0  0  0
  8 26  1  0  0  0  0
  9 14  1  0  0  0  0
  9 26  2  0  0  0  0
 10 11  1  0  0  0  0
 11 14  2  0  0  0  0
 12 13  2  0  0  0  0
 12 17  1  0  0  0  0
 13 24  1  0  0  0  0
 14 27  1  0  0  0  0
 15 35  1  0  0  0  0
 16 24  1  0  0  0  0
 16 27  1  0  0  0  0
 16 30  2  0  0  0  0
 17 28  1  0  0  0  0
 18 19  1  0  0  0  0
 18 24  1  0  0  0  0
 19 27  1  0  0  0  0
 20 23  1  0  0  0  0
 20 29  1  0  0  0  0
 21 23  1  0  0  0  0
 21 29  1  0  0  0  0
 22 24  1  0  0  0  0
 22 28  1  0  0  0  0
 23 33  1  0  0  0  0
 25 33  1  0  0  0  0
 28 34  1  1  0  0  0
 29 34  1  0  0  0  0
 31 34  2  0  0  0  0
 32 34  2  0  0  0  0
  1 36  1  0  0  0  0
  2 37  1  0  0  0  0
  3 38  1  0  0  0  0
  4 39  1  0  0  0  0
  5 40  1  0  0  0  0
  6 41  1  0  0  0  0
  7 42  1  0  0  0  0
  8 43  1  0  0  0  0
  9 44  1  0  0  0  0
 17 45  1  0  0  0  0
 17 46  1  0  0  0  0
 18 47  1  0  0  0  0
 18 48  1  0  0  0  0
 19 49  1  0  0  0  0
 19 50  1  0  0  0  0
 20 51  1  0  0  0  0
 20 52  1  0  0  0  0
 21 53  1  0  0  0  0
 21 54  1  0  0  0  0
 22 55  1  0  0  0  0
 22 56  1  0  0  0  0
 23 57  1  0  0  0  0
 25 58  1  0  0  0  0
 25 59  1  0  0  0  0
 25 60  1  0  0  0  0
M  END
> <compound>
ALP-POS-ecbed2ba-10

> <compound_smiles>
COC1CN(C1)S(=O)(=O)N2Cc3ccc(cc3C4(C2)CCN(C4=O)c5cncc6c5cccc6)Cl

> <enantiomer_smiles>
COC1CN(C1)S(=O)(=O)[N@@]2Cc3ccc(cc3C4(C2)CCN(C4=O)c5cncc6c5cccc6)Cl

> <scaffold>
tetrahydroisoquinoline-5spiro-isoquinoline

> <clash_score>
0

> <docking_score>
-8.7603178024292

> <overlap_score>
0.9741001129150391

> <MMFF_internal_energy>
20.368910330052937

> <docked_smiles>
COC1CN(C1)S(=O)(=O)[N@@]2Cc3ccc(cc3[C@]4(C2)CCN(C4=O)c5cncc6c5cccc6)Cl

$$$$
EDG-MED-b6bce001-1_2
  -OEChem-12272114573D

 56 61  0     1  0  0  0  0  0999 V2000
    7.3201    3.4065   22.7657 C   0  0  0  0  0  0  0  0  0  0  0  0
    3.3432    2.6279   20.4411 C   0  0  0  0  0  0  0  0  0  0  0  0
    3.8960    1.9291   21.5050 C   0  0  0  0  0  0  0  0  0  0  0  0
    3.7865    2.4205   19.1660 C   0  0  0  0  0  0  0  0  0  0  0  0
    4.8973    1.0233   21.2988 C   0  0  0  0  0  0  0  0  0  0  0  0
   12.0765    0.0316   24.1541 C   0  0  0  0  0  0  0  0  0  0  0  0
   12.9132   -0.6032   23.2569 C   0  0  0  0  0  0  0  0  0  0  0  0
   10.9991   -1.4331   22.0443 C   0  0  0  0  0  0  0  0  0  0  0  0
    5.3278    1.2339   17.6066 C   0  0  0  0  0  0  0  0  0  0  0  0
    6.8438   -0.2892   18.3752 C   0  0  0  0  0  0  0  0  0  0  0  0
    4.8226    1.4906   18.9054 C   0  0  0  0  0  0  0  0  0  0  0  0
    5.3982    0.7733   19.9948 C   0  0  0  0  0  0  0  0  0  0  0  0
   10.7040   -0.0625   23.9898 C   0  0  0  0  0  0  0  0  0  0  0  0
   10.1406   -0.7765   22.9250 C   0  0  0  0  0  0  0  0  0  0  0  0
    6.4440   -0.1472   19.6979 C   0  0  0  0  0  0  0  0  0  0  0  0
   12.3683   -1.3298   22.2234 C   0  0  0  0  0  0  0  0  0  0  0  0
    6.9866   -1.9366   21.3580 C   0  0  0  0  0  0  0  0  0  0  0  0
    8.2490    0.0169   21.4271 C   0  0  0  0  0  0  0  0  0  0  0  0
    9.9479    0.5589   24.9534 C   0  0  0  0  0  0  0  0  0  0  0  0
    9.8215    3.1256   22.9060 C   0  0  0  0  0  0  0  0  0  0  0  0
    9.5361    4.5983   22.9216 C   0  0  0  0  0  0  0  0  0  0  0  0
    7.8721   -0.1194   23.8831 C   0  0  0  0  0  0  0  0  0  0  0  0
    8.5316    3.6332   23.5104 C   0  0  0  0  0  0  0  0  0  0  0  0
    8.6238   -0.7606   22.6929 C   0  0  3  0  0  0  0  0  0  0  0  0
    8.3844    3.5886   25.0149 C   0  0  0  0  0  0  0  0  0  0  0  0
    6.3440    3.2238   22.1657 N   0  0  0  0  0  0  0  0  0  0  0  0
    6.3062    0.3769   17.3421 N   0  0  0  0  0  0  0  0  0  0  0  0
    7.2292   -0.6897   20.7790 N   0  0  0  0  0  0  0  0  0  0  0  0
    8.6609    1.0133   24.4995 N   0  0  2  0  0  0  0  0  0  0  0  0
    8.0140   -2.1541   22.4331 N   0  3  0  0  0  0  0  0  0  0  0  0
    8.7831    1.0570   21.0313 O   0  0  0  0  0  0  0  0  0  0  0  0
    8.2437    1.7963   26.9109 O   0  0  0  0  0  0  0  0  0  0  0  0
    6.3635    1.9461   25.2292 O   0  0  0  0  0  0  0  0  0  0  0  0
    7.7694    2.0169   25.5622 S   0  0  0  0  0  0  0  0  0  0  0  0
   13.4271   -2.1418   21.1092 Cl  0  0  0  0  0  0  0  0  0  0  0  0
    2.5431    3.3512   20.6364 H   0  0  0  0  0  0  0  0  0  0  0  0
    3.5171    2.1134   22.5167 H   0  0  0  0  0  0  0  0  0  0  0  0
    3.3416    2.9753   18.3366 H   0  0  0  0  0  0  0  0  0  0  0  0
    5.3142    0.4868   22.1546 H   0  0  0  0  0  0  0  0  0  0  0  0
   12.5019    0.5990   24.9748 H   0  0  0  0  0  0  0  0  0  0  0  0
   13.9909   -0.5174   23.3796 H   0  0  0  0  0  0  0  0  0  0  0  0
   10.6025   -2.0179   21.2248 H   0  0  0  0  0  0  0  0  0  0  0  0
    4.9137    1.7514   16.7476 H   0  0  0  0  0  0  0  0  0  0  0  0
    7.6454   -0.9762   18.1080 H   0  0  0  0  0  0  0  0  0  0  0  0
    6.2909   -2.6132   21.1515 H   0  0  0  0  0  0  0  0  0  0  0  0
    9.7863   -0.1190   25.8313 H   0  0  0  0  0  0  0  0  0  0  0  0
   10.4803    1.4568   25.3604 H   0  0  0  0  0  0  0  0  0  0  0  0
    9.7892    2.6180   21.9485 H   0  0  0  0  0  0  0  0  0  0  0  0
   10.5948    2.7562   23.5696 H   0  0  0  0  0  0  0  0  0  0  0  0
   10.1191    5.2157   23.5952 H   0  0  0  0  0  0  0  0  0  0  0  0
    9.3138    5.0761   21.9742 H   0  0  0  0  0  0  0  0  0  0  0  0
    6.8931    0.2649   23.5473 H   0  0  0  0  0  0  0  0  0  0  0  0
    7.6654   -0.8721   24.6651 H   0  0  0  0  0  0  0  0  0  0  0  0
    7.6795    4.3491   25.3619 H   0  0  0  0  0  0  0  0  0  0  0  0
    9.3477    3.7472   25.5073 H   0  0  0  0  0  0  0  0  0  0  0  0
    8.1407   -3.0019   22.7842 H   0  0  0  0  0  0  0  0  0  0  0  0
  1 23  1  0  0  0  0
  1 26  3  0  0  0  0
  2  3  1  0  0  0  0
  2  4  2  0  0  0  0
  3  5  2  0  0  0  0
  4 11  1  0  0  0  0
  5 12  1  0  0  0  0
  6  7  1  0  0  0  0
  6 13  2  0  0  0  0
  7 16  2  0  0  0  0
  8 14  2  0  0  0  0
  8 16  1  0  0  0  0
  9 11  2  0  0  0  0
  9 27  1  0  0  0  0
 10 15  1  0  0  0  0
 10 27  2  0  0  0  0
 11 12  1  0  0  0  0
 12 15  2  0  0  0  0
 13 14  1  0  0  0  0
 13 19  1  0  0  0  0
 14 24  1  0  0  0  0
 15 28  1  0  0  0  0
 16 35  1  0  0  0  0
 17 28  1  0  0  0  0
 17 30  2  0  0  0  0
 18 24  1  0  0  0  0
 18 28  1  0  0  0  0
 18 31  2  0  0  0  0
 19 29  1  0  0  0  0
 20 21  1  0  0  0  0
 20 23  1  0  0  0  0
 21 23  1  0  0  0  0
 22 24  1  0  0  0  0
 22 29  1  0  0  0  0
 23 25  1  0  0  0  0
 24 30  1  0  0  0  0
 25 34  1  0  0  0  0
 29 34  1  6  0  0  0
 32 34  2  0  0  0  0
 33 34  2  0  0  0  0
  2 36  1  0  0  0  0
  3 37  1  0  0  0  0
  4 38  1  0  0  0  0
  5 39  1  0  0  0  0
  6 40  1  0  0  0  0
  7 41  1  0  0  0  0
  8 42  1  0  0  0  0
  9 43  1  0  0  0  0
 10 44  1  0  0  0  0
 17 45  1  0  0  0  0
 19 46  1  0  0  0  0
 19 47  1  0  0  0  0
 20 48  1  0  0  0  0
 20 49  1  0  0  0  0
 21 50  1  0  0  0  0
 21 51  1  0  0  0  0
 22 52  1  0  0  0  0
 22 53  1  0  0  0  0
 25 54  1  0  0  0  0
 25 55  1  0  0  0  0
 30 56  1  0  0  0  0
M  CHG  1  30   1
M  END
> <compound>
EDG-MED-b6bce001-1

> <compound_smiles>
c1ccc2c(c1)cncc2N3C=NC4(C3=O)CN(Cc5c4cc(cc5)Cl)S(=O)(=O)CC6(CC6)C#N

> <enantiomer_smiles>
c1ccc2c(c1)cncc2N3C=NC4(C3=O)C[N@](Cc5c4cc(cc5)Cl)S(=O)(=O)CC6(CC6)C#N

> <scaffold>
tetrahydroisoquinoline-5spiro-isoquinoline

> <clash_score>
0

> <docking_score>
-7.559429168701172

> <overlap_score>
0.9742873311042786

> <MMFF_internal_energy>
202.3230861146158

> <docked_smiles>
c1ccc2c(c1)cncc2N3C=[NH+][C@@]4(C3=O)C[N@](Cc5c4cc(cc5)Cl)S(=O)(=O)CC6(CC6)C#N

$$$$
ALP-POS-ecbed2ba-10_2
  -OEChem-12272114573D

 60 65  0     1  0  0  0  0  0999 V2000
    3.3432    2.6279   20.4411 C   0  0  0  0  0  0  0  0  0  0  0  0
    3.8960    1.9291   21.5050 C   0  0  0  0  0  0  0  0  0  0  0  0
    3.7865    2.4205   19.1660 C   0  0  0  0  0  0  0  0  0  0  0  0
    4.8973    1.0233   21.2988 C   0  0  0  0  0  0  0  0  0  0  0  0
   12.0765    0.0316   24.1541 C   0  0  0  0  0  0  0  0  0  0  0  0
   12.9132   -0.6032   23.2569 C   0  0  0  0  0  0  0  0  0  0  0  0
   10.9991   -1.4331   22.0443 C   0  0  0  0  0  0  0  0  0  0  0  0
    5.3278    1.2339   17.6066 C   0  0  0  0  0  0  0  0  0  0  0  0
    6.8438   -0.2892   18.3752 C   0  0  0  0  0  0  0  0  0  0  0  0
    4.8226    1.4906   18.9054 C   0  0  0  0  0  0  0  0  0  0  0  0
    5.3982    0.7733   19.9948 C   0  0  0  0  0  0  0  0  0  0  0  0
   10.7040   -0.0625   23.9898 C   0  0  0  0  0  0  0  0  0  0  0  0
   10.1406   -0.7765   22.9250 C   0  0  0  0  0  0  0  0  0  0  0  0
    6.4440   -0.1472   19.6979 C   0  0  0  0  0  0  0  0  0  0  0  0
   12.3683   -1.3298   22.2234 C   0  0  0  0  0  0  0  0  0  0  0  0
    8.2490    0.0169   21.4271 C   0  0  0  0  0  0  0  0  0  0  0  0
    9.9479    0.5589   24.9534 C   0  0  0  0  0  0  0  0  0  0  0  0
    8.0140   -2.1541   22.4331 C   0  0  0  0  0  0  0  0  0  0  0  0
    6.9866   -1.9366   21.3580 C   0  0  0  0  0  0  0  0  0  0  0  0
    7.5255    4.6446   24.4919 C   0  0  0  0  0  0  0  0  0  0  0  0
    9.3684    3.7670   23.9832 C   0  0  0  0  0  0  0  0  0  0  0  0
    7.8721   -0.1194   23.8831 C   0  0  0  0  0  0  0  0  0  0  0  0
    8.7462    5.1475   23.6982 C   0  0  0  0  0  0  0  0  0  0  0  0
    8.6238   -0.7606   22.6929 C   0  0  3  0  0  0  0  0  0  0  0  0
   10.5347    6.6549   23.4490 C   0  0  0  0  0  0  0  0  0  0  0  0
    6.3062    0.3769   17.3421 N   0  0  0  0  0  0  0  0  0  0  0  0
    7.2292   -0.6897   20.7790 N   0  0  0  0  0  0  0  0  0  0  0  0
    8.6609    1.0133   24.4995 N   0  0  1  0  0  0  0  0  0  0  0  0
    8.3482    3.5262   25.0518 N   0  0  0  0  0  0  0  0  0  0  0  0
    8.8299    1.0397   21.0799 O   0  0  0  0  0  0  0  0  0  0  0  0
    6.3631    1.9241   25.2230 O   0  0  0  0  0  0  0  0  0  0  0  0
    8.2231    1.7935   26.9240 O   0  0  0  0  0  0  0  0  0  0  0  0
    9.4347    6.2806   24.2577 O   0  0  0  0  0  0  0  0  0  0  0  0
    7.7708    2.0177   25.5632 S   0  0  0  0  0  0  0  0  0  0  0  0
   13.4272   -2.1411   21.1086 Cl  0  0  0  0  0  0  0  0  0  0  0  0
    2.5432    3.3510   20.6369 H   0  0  0  0  0  0  0  0  0  0  0  0
    3.5174    2.1137   22.5168 H   0  0  0  0  0  0  0  0  0  0  0  0
    3.3409    2.9743   18.3364 H   0  0  0  0  0  0  0  0  0  0  0  0
    5.3118    0.4895   22.1572 H   0  0  0  0  0  0  0  0  0  0  0  0
   12.5024    0.5995   24.9735 H   0  0  0  0  0  0  0  0  0  0  0  0
   13.9910   -0.5177   23.3793 H   0  0  0  0  0  0  0  0  0  0  0  0
   10.6036   -2.0162   21.2241 H   0  0  0  0  0  0  0  0  0  0  0  0
    4.9141    1.7511   16.7474 H   0  0  0  0  0  0  0  0  0  0  0  0
    7.6445   -0.9764   18.1043 H   0  0  0  0  0  0  0  0  0  0  0  0
    9.7849   -0.1194   25.8306 H   0  0  0  0  0  0  0  0  0  0  0  0
   10.4793    1.4568   25.3613 H   0  0  0  0  0  0  0  0  0  0  0  0
    7.5152   -2.5456   23.3338 H   0  0  0  0  0  0  0  0  0  0  0  0
    8.7649   -2.9030   22.1434 H   0  0  0  0  0  0  0  0  0  0  0  0
    7.0587   -2.7248   20.5721 H   0  0  0  0  0  0  0  0  0  0  0  0
    5.9518   -1.9952   21.7720 H   0  0  0  0  0  0  0  0  0  0  0  0
    7.1639    5.3265   25.2704 H   0  0  0  0  0  0  0  0  0  0  0  0
    6.6837    4.2892   23.8905 H   0  0  0  0  0  0  0  0  0  0  0  0
    9.3056    3.0414   23.1672 H   0  0  0  0  0  0  0  0  0  0  0  0
   10.3898    3.7913   24.3805 H   0  0  0  0  0  0  0  0  0  0  0  0
    6.8867    0.2641   23.5642 H   0  0  0  0  0  0  0  0  0  0  0  0
    7.6652   -0.8660   24.6733 H   0  0  0  0  0  0  0  0  0  0  0  0
    8.5287    5.3112   22.6368 H   0  0  0  0  0  0  0  0  0  0  0  0
   11.0394    7.5156   23.8947 H   0  0  0  0  0  0  0  0  0  0  0  0
   10.1817    6.9055   22.4455 H   0  0  0  0  0  0  0  0  0  0  0  0
   11.2330    5.8169   23.3887 H   0  0  0  0  0  0  0  0  0  0  0  0
  1  2  1  0  0  0  0
  1  3  2  0  0  0  0
  2  4  2  0  0  0  0
  3 10  1  0  0  0  0
  4 11  1  0  0  0  0
  5  6  2  0  0  0  0
  5 12  1  0  0  0  0
  6 15  1  0  0  0  0
  7 13  1  0  0  0  0
  7 15  2  0  0  0  0
  8 10  2  0  0  0  0
  8 26  1  0  0  0  0
  9 14  1  0  0  0  0
  9 26  2  0  0  0  0
 10 11  1  0  0  0  0
 11 14  2  0  0  0  0
 12 13  2  0  0  0  0
 12 17  1  0  0  0  0
 13 24  1  0  0  0  0
 14 27  1  0  0  0  0
 15 35  1  0  0  0  0
 16 24  1  0  0  0  0
 16 27  1  0  0  0  0
 16 30  2  0  0  0  0
 17 28  1  0  0  0  0
 18 19  1  0  0  0  0
 18 24  1  0  0  0  0
 19 27  1  0  0  0  0
 20 23  1  0  0  0  0
 20 29  1  0  0  0  0
 21 23  1  0  0  0  0
 21 29  1  0  0  0  0
 22 24  1  0  0  0  0
 22 28  1  0  0  0  0
 23 33  1  0  0  0  0
 25 33  1  0  0  0  0
 28 34  1  6  0  0  0
 29 34  1  0  0  0  0
 31 34  2  0  0  0  0
 32 34  2  0  0  0  0
  1 36  1  0  0  0  0
  2 37  1  0  0  0  0
  3 38  1  0  0  0  0
  4 39  1  0  0  0  0
  5 40  1  0  0  0  0
  6 41  1  0  0  0  0
  7 42  1  0  0  0  0
  8 43  1  0  0  0  0
  9 44  1  0  0  0  0
 17 45  1  0  0  0  0
 17 46  1  0  0  0  0
 18 47  1  0  0  0  0
 18 48  1  0  0  0  0
 19 49  1  0  0  0  0
 19 50  1  0  0  0  0
 20 51  1  0  0  0  0
 20 52  1  0  0  0  0
 21 53  1  0  0  0  0
 21 54  1  0  0  0  0
 22 55  1  0  0  0  0
 22 56  1  0  0  0  0
 23 57  1  0  0  0  0
 25 58  1  0  0  0  0
 25 59  1  0  0  0  0
 25 60  1  0  0  0  0
M  END
> <compound>
ALP-POS-ecbed2ba-10

> <compound_smiles>
COC1CN(C1)S(=O)(=O)N2Cc3ccc(cc3C4(C2)CCN(C4=O)c5cncc6c5cccc6)Cl

> <enantiomer_smiles>
COC1CN(C1)S(=O)(=O)[N@]2Cc3ccc(cc3C4(C2)CCN(C4=O)c5cncc6c5cccc6)Cl

> <scaffold>
tetrahydroisoquinoline-5spiro-isoquinoline

> <clash_score>
0

> <docking_score>
-9.059295654296875

> <overlap_score>
0.9708666801452637

> <MMFF_internal_energy>
9.031802680122793

> <docked_smiles>
COC1CN(C1)S(=O)(=O)[N@]2Cc3ccc(cc3[C@]4(C2)CCN(C4=O)c5cncc6c5cccc6)Cl

$$$$
ALP-POS-ecbed2ba-13_1
  -OEChem-12272114573D

 60 64  0     1  0  0  0  0  0999 V2000
    9.5470    5.5243   23.9295 C   0  0  0  0  0  0  0  0  0  0  0  0
    3.3432    2.6279   20.4411 C   0  0  0  0  0  0  0  0  0  0  0  0
    3.8960    1.9291   21.5050 C   0  0  0  0  0  0  0  0  0  0  0  0
    3.7865    2.4205   19.1660 C   0  0  0  0  0  0  0  0  0  0  0  0
    4.8973    1.0233   21.2988 C   0  0  0  0  0  0  0  0  0  0  0  0
   12.0765    0.0316   24.1541 C   0  0  0  0  0  0  0  0  0  0  0  0
   12.9132   -0.6032   23.2569 C   0  0  0  0  0  0  0  0  0  0  0  0
   10.9991   -1.4331   22.0443 C   0  0  0  0  0  0  0  0  0  0  0  0
    5.3278    1.2339   17.6066 C   0  0  0  0  0  0  0  0  0  0  0  0
    6.8438   -0.2892   18.3752 C   0  0  0  0  0  0  0  0  0  0  0  0
    4.8226    1.4906   18.9054 C   0  0  0  0  0  0  0  0  0  0  0  0
    5.3982    0.7733   19.9948 C   0  0  0  0  0  0  0  0  0  0  0  0
   10.7040   -0.0625   23.9898 C   0  0  0  0  0  0  0  0  0  0  0  0
   10.1406   -0.7765   22.9250 C   0  0  0  0  0  0  0  0  0  0  0  0
    6.4440   -0.1472   19.6979 C   0  0  0  0  0  0  0  0  0  0  0  0
   12.3683   -1.3298   22.2234 C   0  0  0  0  0  0  0  0  0  0  0  0
    8.2490    0.0169   21.4271 C   0  0  0  0  0  0  0  0  0  0  0  0
    9.9479    0.5589   24.9534 C   0  0  0  0  0  0  0  0  0  0  0  0
    8.0140   -2.1541   22.4331 C   0  0  0  0  0  0  0  0  0  0  0  0
    6.9866   -1.9366   21.3580 C   0  0  0  0  0  0  0  0  0  0  0  0
    7.8721   -0.1194   23.8831 C   0  0  0  0  0  0  0  0  0  0  0  0
    8.6238   -0.7606   22.6929 C   0  0  3  0  0  0  0  0  0  0  0  0
    7.0971    5.3726   23.7132 C   0  0  0  0  0  0  0  0  0  0  0  0
    8.1573    5.8980   25.9122 C   0  0  0  0  0  0  0  0  0  0  0  0
    8.3989    3.5932   24.9882 C   0  0  0  0  0  0  0  0  0  0  0  0
    8.3090    5.0842   24.6127 C   0  0  0  0  0  0  0  0  0  0  0  0
   10.5171    5.8703   23.3946 N   0  0  0  0  0  0  0  0  0  0  0  0
    6.3062    0.3769   17.3421 N   0  0  0  0  0  0  0  0  0  0  0  0
    7.2292   -0.6897   20.7790 N   0  0  0  0  0  0  0  0  0  0  0  0
    8.6609    1.0133   24.4995 N   0  0  2  0  0  0  0  0  0  0  0  0
    8.7572    1.0941   21.1350 O   0  0  0  0  0  0  0  0  0  0  0  0
    7.4179    2.5201   22.8172 O   0  0  0  0  0  0  0  0  0  0  0  0
    9.9251    2.7322   23.0499 O   0  0  0  0  0  0  0  0  0  0  0  0
    8.6198    2.4832   23.6217 S   0  0  0  0  0  0  0  0  0  0  0  0
   13.4275   -2.1421   21.1097 Cl  0  0  0  0  0  0  0  0  0  0  0  0
    2.5432    3.3510   20.6369 H   0  0  0  0  0  0  0  0  0  0  0  0
    3.5174    2.1137   22.5168 H   0  0  0  0  0  0  0  0  0  0  0  0
    3.3409    2.9743   18.3364 H   0  0  0  0  0  0  0  0  0  0  0  0
    5.3118    0.4895   22.1572 H   0  0  0  0  0  0  0  0  0  0  0  0
   12.5015    0.5938   24.9776 H   0  0  0  0  0  0  0  0  0  0  0  0
   13.9911   -0.5212   23.3814 H   0  0  0  0  0  0  0  0  0  0  0  0
   10.6037   -2.0228   21.2288 H   0  0  0  0  0  0  0  0  0  0  0  0
    4.9141    1.7511   16.7474 H   0  0  0  0  0  0  0  0  0  0  0  0
    7.6445   -0.9764   18.1043 H   0  0  0  0  0  0  0  0  0  0  0  0
    9.7581   -0.1287   25.8173 H   0  0  0  0  0  0  0  0  0  0  0  0
   10.4931    1.4391   25.3829 H   0  0  0  0  0  0  0  0  0  0  0  0
    7.5801   -2.6060   23.3366 H   0  0  0  0  0  0  0  0  0  0  0  0
    8.7749   -2.8608   22.0657 H   0  0  0  0  0  0  0  0  0  0  0  0
    7.0227   -2.7506   20.5953 H   0  0  0  0  0  0  0  0  0  0  0  0
    5.9554   -1.9484   21.7832 H   0  0  0  0  0  0  0  0  0  0  0  0
    6.8886    0.2769   23.5666 H   0  0  0  0  0  0  0  0  0  0  0  0
    7.6579   -0.8710   24.6633 H   0  0  0  0  0  0  0  0  0  0  0  0
    6.1642    5.0569   24.1933 H   0  0  0  0  0  0  0  0  0  0  0  0
    7.0125    6.4442   23.4943 H   0  0  0  0  0  0  0  0  0  0  0  0
    7.1711    4.8611   22.7473 H   0  0  0  0  0  0  0  0  0  0  0  0
    7.2520    5.6113   26.4610 H   0  0  0  0  0  0  0  0  0  0  0  0
    8.0833    6.9723   25.7040 H   0  0  0  0  0  0  0  0  0  0  0  0
    9.0140    5.7445   26.5784 H   0  0  0  0  0  0  0  0  0  0  0  0
    9.2443    3.4070   25.6613 H   0  0  0  0  0  0  0  0  0  0  0  0
    7.4866    3.2623   25.4973 H   0  0  0  0  0  0  0  0  0  0  0  0
  1 26  1  0  0  0  0
  1 27  3  0  0  0  0
  2  3  1  0  0  0  0
  2  4  2  0  0  0  0
  3  5  2  0  0  0  0
  4 11  1  0  0  0  0
  5 12  1  0  0  0  0
  6  7  2  0  0  0  0
  6 13  1  0  0  0  0
  7 16  1  0  0  0  0
  8 14  1  0  0  0  0
  8 16  2  0  0  0  0
  9 11  2  0  0  0  0
  9 28  1  0  0  0  0
 10 15  1  0  0  0  0
 10 28  2  0  0  0  0
 11 12  1  0  0  0  0
 12 15  2  0  0  0  0
 13 14  2  0  0  0  0
 13 18  1  0  0  0  0
 14 22  1  0  0  0  0
 15 29  1  0  0  0  0
 16 35  1  0  0  0  0
 17 22  1  0  0  0  0
 17 29  1  0  0  0  0
 17 31  2  0  0  0  0
 18 30  1  0  0  0  0
 19 20  1  0  0  0  0
 19 22  1  0  0  0  0
 20 29  1  0  0  0  0
 21 22  1  0  0  0  0
 21 30  1  0  0  0  0
 23 26  1  0  0  0  0
 24 26  1  0  0  0  0
 25 26  1  0  0  0  0
 25 34  1  0  0  0  0
 30 34  1  1  0  0  0
 32 34  2  0  0  0  0
 33 34  2  0  0  0  0
  2 36  1  0  0  0  0
  3 37  1  0  0  0  0
  4 38  1  0  0  0  0
  5 39  1  0  0  0  0
  6 40  1  0  0  0  0
  7 41  1  0  0  0  0
  8 42  1  0  0  0  0
  9 43  1  0  0  0  0
 10 44  1  0  0  0  0
 18 45  1  0  0  0  0
 18 46  1  0  0  0  0
 19 47  1  0  0  0  0
 19 48  1  0  0  0  0
 20 49  1  0  0  0  0
 20 50  1  0  0  0  0
 21 51  1  0  0  0  0
 21 52  1  0  0  0  0
 23 53  1  0  0  0  0
 23 54  1  0  0  0  0
 23 55  1  0  0  0  0
 24 56  1  0  0  0  0
 24 57  1  0  0  0  0
 24 58  1  0  0  0  0
 25 59  1  0  0  0  0
 25 60  1  0  0  0  0
M  END
> <compound>
ALP-POS-ecbed2ba-13

> <compound_smiles>
CC(C)(CS(=O)(=O)N1Cc2ccc(cc2C3(C1)CCN(C3=O)c4cncc5c4cccc5)Cl)C#N

> <enantiomer_smiles>
CC(C)(CS(=O)(=O)[N@@]1Cc2ccc(cc2C3(C1)CCN(C3=O)c4cncc5c4cccc5)Cl)C#N

> <scaffold>
tetrahydroisoquinoline-5spiro-isoquinoline

> <clash_score>
0

> <docking_score>
-9.245058059692383

> <overlap_score>
0.9741029739379883

> <MMFF_internal_energy>
75.31456406221142

> <docked_smiles>
CC(C)(CS(=O)(=O)[N@@]1Cc2ccc(cc2[C@]3(C1)CCN(C3=O)c4cncc5c4cccc5)Cl)C#N

$$$$
EDG-MED-b6bce001-1_1
  -OEChem-12272114573D

 56 61  0     1  0  0  0  0  0999 V2000
    9.9903    5.1237   23.7688 C   0  0  0  0  0  0  0  0  0  0  0  0
    3.3432    2.6279   20.4411 C   0  0  0  0  0  0  0  0  0  0  0  0
    3.8960    1.9291   21.5050 C   0  0  0  0  0  0  0  0  0  0  0  0
    3.7865    2.4205   19.1660 C   0  0  0  0  0  0  0  0  0  0  0  0
    4.8973    1.0233   21.2988 C   0  0  0  0  0  0  0  0  0  0  0  0
   12.0765    0.0316   24.1541 C   0  0  0  0  0  0  0  0  0  0  0  0
   12.9132   -0.6032   23.2569 C   0  0  0  0  0  0  0  0  0  0  0  0
   10.9991   -1.4331   22.0443 C   0  0  0  0  0  0  0  0  0  0  0  0
    5.3278    1.2339   17.6066 C   0  0  0  0  0  0  0  0  0  0  0  0
    6.8438   -0.2892   18.3752 C   0  0  0  0  0  0  0  0  0  0  0  0
    4.8226    1.4906   18.9054 C   0  0  0  0  0  0  0  0  0  0  0  0
    5.3982    0.7733   19.9948 C   0  0  0  0  0  0  0  0  0  0  0  0
   10.7040   -0.0625   23.9898 C   0  0  0  0  0  0  0  0  0  0  0  0
   10.1406   -0.7765   22.9250 C   0  0  0  0  0  0  0  0  0  0  0  0
    6.4440   -0.1472   19.6979 C   0  0  0  0  0  0  0  0  0  0  0  0
   12.3683   -1.3298   22.2234 C   0  0  0  0  0  0  0  0  0  0  0  0
    6.9866   -1.9366   21.3580 C   0  0  0  0  0  0  0  0  0  0  0  0
    8.2490    0.0169   21.4271 C   0  0  0  0  0  0  0  0  0  0  0  0
    9.9479    0.5589   24.9534 C   0  0  0  0  0  0  0  0  0  0  0  0
    8.5317    6.1435   25.5543 C   0  0  0  0  0  0  0  0  0  0  0  0
    7.7022    6.0335   24.3092 C   0  0  0  0  0  0  0  0  0  0  0  0
    7.8721   -0.1194   23.8831 C   0  0  0  0  0  0  0  0  0  0  0  0
    8.7988    5.0256   24.5716 C   0  0  0  0  0  0  0  0  0  0  0  0
    8.6238   -0.7606   22.6929 C   0  0  3  0  0  0  0  0  0  0  0  0
    8.3965    3.6216   24.9639 C   0  0  0  0  0  0  0  0  0  0  0  0
   10.9503    5.2028   23.1220 N   0  0  0  0  0  0  0  0  0  0  0  0
    6.3062    0.3769   17.3421 N   0  0  0  0  0  0  0  0  0  0  0  0
    7.2292   -0.6897   20.7790 N   0  0  0  0  0  0  0  0  0  0  0  0
    8.6609    1.0133   24.4995 N   0  0  1  0  0  0  0  0  0  0  0  0
    8.0140   -2.1541   22.4331 N   0  3  0  0  0  0  0  0  0  0  0  0
    8.7328    1.0947   21.0692 O   0  0  0  0  0  0  0  0  0  0  0  0
    7.4097    2.4891   22.8260 O   0  0  0  0  0  0  0  0  0  0  0  0
    9.9164    2.7302   23.0344 O   0  0  0  0  0  0  0  0  0  0  0  0
    8.6178    2.4823   23.6218 S   0  0  0  0  0  0  0  0  0  0  0  0
   13.4268   -2.1424   21.1095 Cl  0  0  0  0  0  0  0  0  0  0  0  0
    2.5431    3.3512   20.6364 H   0  0  0  0  0  0  0  0  0  0  0  0
    3.5171    2.1134   22.5167 H   0  0  0  0  0  0  0  0  0  0  0  0
    3.3416    2.9753   18.3366 H   0  0  0  0  0  0  0  0  0  0  0  0
    5.3142    0.4868   22.1546 H   0  0  0  0  0  0  0  0  0  0  0  0
   12.5016    0.5938   24.9784 H   0  0  0  0  0  0  0  0  0  0  0  0
   13.9909   -0.5214   23.3821 H   0  0  0  0  0  0  0  0  0  0  0  0
   10.6022   -2.0214   21.2274 H   0  0  0  0  0  0  0  0  0  0  0  0
    4.9137    1.7514   16.7476 H   0  0  0  0  0  0  0  0  0  0  0  0
    7.6454   -0.9762   18.1080 H   0  0  0  0  0  0  0  0  0  0  0  0
    6.2847   -2.6088   21.1580 H   0  0  0  0  0  0  0  0  0  0  0  0
    9.7594   -0.1292   25.8171 H   0  0  0  0  0  0  0  0  0  0  0  0
   10.4934    1.4387   25.3829 H   0  0  0  0  0  0  0  0  0  0  0  0
    9.2348    6.9664   25.6181 H   0  0  0  0  0  0  0  0  0  0  0  0
    8.0567    5.9016   26.4981 H   0  0  0  0  0  0  0  0  0  0  0  0
    6.6708    5.7185   24.4192 H   0  0  0  0  0  0  0  0  0  0  0  0
    7.8497    6.7834   23.5404 H   0  0  0  0  0  0  0  0  0  0  0  0
    6.8895    0.2695   23.5603 H   0  0  0  0  0  0  0  0  0  0  0  0
    7.6720   -0.8812   24.6567 H   0  0  0  0  0  0  0  0  0  0  0  0
    7.3417    3.5821   25.2496 H   0  0  0  0  0  0  0  0  0  0  0  0
    9.0034    3.2591   25.7980 H   0  0  0  0  0  0  0  0  0  0  0  0
    8.1551   -3.0054   22.7698 H   0  0  0  0  0  0  0  0  0  0  0  0
  1 23  1  0  0  0  0
  1 26  3  0  0  0  0
  2  3  1  0  0  0  0
  2  4  2  0  0  0  0
  3  5  2  0  0  0  0
  4 11  1  0  0  0  0
  5 12  1  0  0  0  0
  6  7  1  0  0  0  0
  6 13  2  0  0  0  0
  7 16  2  0  0  0  0
  8 14  2  0  0  0  0
  8 16  1  0  0  0  0
  9 11  2  0  0  0  0
  9 27  1  0  0  0  0
 10 15  1  0  0  0  0
 10 27  2  0  0  0  0
 11 12  1  0  0  0  0
 12 15  2  0  0  0  0
 13 14  1  0  0  0  0
 13 19  1  0  0  0  0
 14 24  1  0  0  0  0
 15 28  1  0  0  0  0
 16 35  1  0  0  0  0
 17 28  1  0  0  0  0
 17 30  2  0  0  0  0
 18 24  1  0  0  0  0
 18 28  1  0  0  0  0
 18 31  2  0  0  0  0
 19 29  1  0  0  0  0
 20 21  1  0  0  0  0
 20 23  1  0  0  0  0
 21 23  1  0  0  0  0
 22 24  1  0  0  0  0
 22 29  1  0  0  0  0
 23 25  1  0  0  0  0
 24 30  1  0  0  0  0
 25 34  1  0  0  0  0
 29 34  1  1  0  0  0
 32 34  2  0  0  0  0
 33 34  2  0  0  0  0
  2 36  1  0  0  0  0
  3 37  1  0  0  0  0
  4 38  1  0  0  0  0
  5 39  1  0  0  0  0
  6 40  1  0  0  0  0
  7 41  1  0  0  0  0
  8 42  1  0  0  0  0
  9 43  1  0  0  0  0
 10 44  1  0  0  0  0
 17 45  1  0  0  0  0
 19 46  1  0  0  0  0
 19 47  1  0  0  0  0
 20 48  1  0  0  0  0
 20 49  1  0  0  0  0
 21 50  1  0  0  0  0
 21 51  1  0  0  0  0
 22 52  1  0  0  0  0
 22 53  1  0  0  0  0
 25 54  1  0  0  0  0
 25 55  1  0  0  0  0
 30 56  1  0  0  0  0
M  CHG  1  30   1
M  END
> <compound>
EDG-MED-b6bce001-1

> <compound_smiles>
c1ccc2c(c1)cncc2N3C=NC4(C3=O)CN(Cc5c4cc(cc5)Cl)S(=O)(=O)CC6(CC6)C#N

> <enantiomer_smiles>
c1ccc2c(c1)cncc2N3C=NC4(C3=O)C[N@@](Cc5c4cc(cc5)Cl)S(=O)(=O)CC6(CC6)C#N

> <scaffold>
tetrahydroisoquinoline-5spiro-isoquinoline

> <clash_score>
0

> <docking_score>
-8.088583946228027

> <overlap_score>
0.9734765291213989

> <MMFF_internal_energy>
209.5530315664865

> <docked_smiles>
c1ccc2c(c1)cncc2N3C=[NH+][C@@]4(C3=O)C[N@@](Cc5c4cc(cc5)Cl)S(=O)(=O)CC6(CC6)C#N

$$$$
ALP-POS-ecbed2ba-16_1
  -OEChem-12272114573D

 59 63  0     1  0  0  0  0  0999 V2000
    8.8981    5.6783   24.5738 C   0  0  0  0  0  0  0  0  0  0  0  0
    3.3432    2.6279   20.4411 C   0  0  0  0  0  0  0  0  0  0  0  0
    3.8960    1.9291   21.5050 C   0  0  0  0  0  0  0  0  0  0  0  0
    3.7865    2.4205   19.1660 C   0  0  0  0  0  0  0  0  0  0  0  0
    4.8973    1.0233   21.2988 C   0  0  0  0  0  0  0  0  0  0  0  0
   12.0765    0.0316   24.1541 C   0  0  0  0  0  0  0  0  0  0  0  0
   12.9132   -0.6032   23.2569 C   0  0  0  0  0  0  0  0  0  0  0  0
   10.9991   -1.4331   22.0443 C   0  0  0  0  0  0  0  0  0  0  0  0
    5.3278    1.2339   17.6066 C   0  0  0  0  0  0  0  0  0  0  0  0
    6.8438   -0.2892   18.3752 C   0  0  0  0  0  0  0  0  0  0  0  0
    4.8226    1.4906   18.9054 C   0  0  0  0  0  0  0  0  0  0  0  0
    5.3982    0.7733   19.9948 C   0  0  0  0  0  0  0  0  0  0  0  0
   10.7040   -0.0625   23.9898 C   0  0  0  0  0  0  0  0  0  0  0  0
   10.1406   -0.7765   22.9250 C   0  0  0  0  0  0  0  0  0  0  0  0
    6.4440   -0.1472   19.6979 C   0  0  0  0  0  0  0  0  0  0  0  0
   12.3683   -1.3298   22.2234 C   0  0  0  0  0  0  0  0  0  0  0  0
    8.2490    0.0169   21.4271 C   0  0  0  0  0  0  0  0  0  0  0  0
    9.9479    0.5589   24.9534 C   0  0  0  0  0  0  0  0  0  0  0  0
    8.0140   -2.1541   22.4331 C   0  0  0  0  0  0  0  0  0  0  0  0
    6.9866   -1.9366   21.3580 C   0  0  0  0  0  0  0  0  0  0  0  0
    7.8721   -0.1194   23.8831 C   0  0  0  0  0  0  0  0  0  0  0  0
    8.6238   -0.7606   22.6929 C   0  0  3  0  0  0  0  0  0  0  0  0
    8.7355    3.1148   26.8066 C   0  0  0  0  0  0  0  0  0  0  0  0
    7.4669    5.3493   24.4988 C   0  0  0  0  0  0  0  0  0  0  0  0
    7.0236    4.4651   25.6596 C   0  0  0  0  0  0  0  0  0  0  0  0
   10.0273    5.9391   24.6311 N   0  0  0  0  0  0  0  0  0  0  0  0
    6.3062    0.3769   17.3421 N   0  0  0  0  0  0  0  0  0  0  0  0
    7.2292   -0.6897   20.7790 N   0  0  0  0  0  0  0  0  0  0  0  0
    8.6609    1.0133   24.4995 N   0  0  2  0  0  0  0  0  0  0  0  0
    7.7805    3.1866   25.6707 N   0  0  1  0  0  0  0  0  0  0  0  0
    8.8191    1.0385   21.0718 O   0  0  0  0  0  0  0  0  0  0  0  0
    7.2185    2.6007   23.2097 O   0  0  0  0  0  0  0  0  0  0  0  0
    9.5770    3.2351   23.8038 O   0  0  0  0  0  0  0  0  0  0  0  0
    8.3267    2.5839   24.1459 S   0  0  0  0  0  0  0  0  0  0  0  0
   13.4275   -2.1421   21.1097 Cl  0  0  0  0  0  0  0  0  0  0  0  0
    2.5432    3.3510   20.6369 H   0  0  0  0  0  0  0  0  0  0  0  0
    3.5174    2.1137   22.5168 H   0  0  0  0  0  0  0  0  0  0  0  0
    3.3409    2.9743   18.3364 H   0  0  0  0  0  0  0  0  0  0  0  0
    5.3118    0.4895   22.1572 H   0  0  0  0  0  0  0  0  0  0  0  0
   12.5015    0.5938   24.9776 H   0  0  0  0  0  0  0  0  0  0  0  0
   13.9911   -0.5212   23.3814 H   0  0  0  0  0  0  0  0  0  0  0  0
   10.6037   -2.0228   21.2288 H   0  0  0  0  0  0  0  0  0  0  0  0
    4.9141    1.7511   16.7474 H   0  0  0  0  0  0  0  0  0  0  0  0
    7.6445   -0.9764   18.1043 H   0  0  0  0  0  0  0  0  0  0  0  0
    9.7578   -0.1285   25.8173 H   0  0  0  0  0  0  0  0  0  0  0  0
   10.4928    1.4393   25.3829 H   0  0  0  0  0  0  0  0  0  0  0  0
    7.5801   -2.6060   23.3366 H   0  0  0  0  0  0  0  0  0  0  0  0
    8.7749   -2.8608   22.0657 H   0  0  0  0  0  0  0  0  0  0  0  0
    7.0227   -2.7506   20.5953 H   0  0  0  0  0  0  0  0  0  0  0  0
    5.9554   -1.9484   21.7833 H   0  0  0  0  0  0  0  0  0  0  0  0
    6.8886    0.2771   23.5668 H   0  0  0  0  0  0  0  0  0  0  0  0
    7.6579   -0.8709   24.6635 H   0  0  0  0  0  0  0  0  0  0  0  0
    9.2718    2.1549   26.7752 H   0  0  0  0  0  0  0  0  0  0  0  0
    9.4579    3.9409   26.7309 H   0  0  0  0  0  0  0  0  0  0  0  0
    8.1840    3.1957   27.7549 H   0  0  0  0  0  0  0  0  0  0  0  0
    7.2731    4.8225   23.5572 H   0  0  0  0  0  0  0  0  0  0  0  0
    6.8769    6.2731   24.4773 H   0  0  0  0  0  0  0  0  0  0  0  0
    7.2055    4.9846   26.6062 H   0  0  0  0  0  0  0  0  0  0  0  0
    5.9508    4.2509   25.5998 H   0  0  0  0  0  0  0  0  0  0  0  0
  1 24  1  0  0  0  0
  1 26  3  0  0  0  0
  2  3  1  0  0  0  0
  2  4  2  0  0  0  0
  3  5  2  0  0  0  0
  4 11  1  0  0  0  0
  5 12  1  0  0  0  0
  6  7  2  0  0  0  0
  6 13  1  0  0  0  0
  7 16  1  0  0  0  0
  8 14  1  0  0  0  0
  8 16  2  0  0  0  0
  9 11  2  0  0  0  0
  9 27  1  0  0  0  0
 10 15  1  0  0  0  0
 10 27  2  0  0  0  0
 11 12  1  0  0  0  0
 12 15  2  0  0  0  0
 13 14  2  0  0  0  0
 13 18  1  0  0  0  0
 14 22  1  0  0  0  0
 15 28  1  0  0  0  0
 16 35  1  0  0  0  0
 17 22  1  0  0  0  0
 17 28  1  0  0  0  0
 17 31  2  0  0  0  0
 18 29  1  0  0  0  0
 19 20  1  0  0  0  0
 19 22  1  0  0  0  0
 20 28  1  0  0  0  0
 21 22  1  0  0  0  0
 21 29  1  0  0  0  0
 23 30  1  1  0  0  0
 24 25  1  0  0  0  0
 25 30  1  0  0  0  0
 29 34  1  1  0  0  0
 30 34  1  0  0  0  0
 32 34  2  0  0  0  0
 33 34  2  0  0  0  0
  2 36  1  0  0  0  0
  3 37  1  0  0  0  0
  4 38  1  0  0  0  0
  5 39  1  0  0  0  0
  6 40  1  0  0  0  0
  7 41  1  0  0  0  0
  8 42  1  0  0  0  0
  9 43  1  0  0  0  0
 10 44  1  0  0  0  0
 18 45  1  0  0  0  0
 18 46  1  0  0  0  0
 19 47  1  0  0  0  0
 19 48  1  0  0  0  0
 20 49  1  0  0  0  0
 20 50  1  0  0  0  0
 21 51  1  0  0  0  0
 21 52  1  0  0  0  0
 23 53  1  0  0  0  0
 23 54  1  0  0  0  0
 23 55  1  0  0  0  0
 24 56  1  0  0  0  0
 24 57  1  0  0  0  0
 25 58  1  0  0  0  0
 25 59  1  0  0  0  0
M  END
> <compound>
ALP-POS-ecbed2ba-16

> <compound_smiles>
CN(CCC#N)S(=O)(=O)N1Cc2ccc(cc2C3(C1)CCN(C3=O)c4cncc5c4cccc5)Cl

> <enantiomer_smiles>
C[N@@](CCC#N)S(=O)(=O)[N@@]1Cc2ccc(cc2C3(C1)CCN(C3=O)c4cncc5c4cccc5)Cl

> <scaffold>
tetrahydroisoquinoline-5spiro-isoquinoline

> <clash_score>
0

> <docking_score>
-8.370984077453613

> <overlap_score>
0.9727581143379211

> <MMFF_internal_energy>
-3.3442953156173427

> <docked_smiles>
C[N@@](CCC#N)S(=O)(=O)[N@@]1Cc2ccc(cc2[C@]3(C1)CCN(C3=O)c4cncc5c4cccc5)Cl

$$$$
ALP-POS-ecbed2ba-16_3
  -OEChem-12272114573D

 59 63  0     1  0  0  0  0  0999 V2000
    5.0319    4.7842   22.1629 C   0  0  0  0  0  0  0  0  0  0  0  0
    3.3432    2.6279   20.4411 C   0  0  0  0  0  0  0  0  0  0  0  0
    3.8960    1.9291   21.5050 C   0  0  0  0  0  0  0  0  0  0  0  0
    3.7865    2.4205   19.1660 C   0  0  0  0  0  0  0  0  0  0  0  0
    4.8973    1.0233   21.2988 C   0  0  0  0  0  0  0  0  0  0  0  0
   12.0765    0.0316   24.1541 C   0  0  0  0  0  0  0  0  0  0  0  0
   12.9132   -0.6032   23.2569 C   0  0  0  0  0  0  0  0  0  0  0  0
   10.9991   -1.4331   22.0443 C   0  0  0  0  0  0  0  0  0  0  0  0
    5.3278    1.2339   17.6066 C   0  0  0  0  0  0  0  0  0  0  0  0
    6.8438   -0.2892   18.3752 C   0  0  0  0  0  0  0  0  0  0  0  0
    4.8226    1.4906   18.9054 C   0  0  0  0  0  0  0  0  0  0  0  0
    5.3982    0.7733   19.9948 C   0  0  0  0  0  0  0  0  0  0  0  0
   10.7040   -0.0625   23.9898 C   0  0  0  0  0  0  0  0  0  0  0  0
   10.1406   -0.7765   22.9250 C   0  0  0  0  0  0  0  0  0  0  0  0
    6.4440   -0.1472   19.6979 C   0  0  0  0  0  0  0  0  0  0  0  0
   12.3683   -1.3298   22.2234 C   0  0  0  0  0  0  0  0  0  0  0  0
    8.2490    0.0169   21.4271 C   0  0  0  0  0  0  0  0  0  0  0  0
    9.9479    0.5589   24.9534 C   0  0  0  0  0  0  0  0  0  0  0  0
    8.0140   -2.1541   22.4331 C   0  0  0  0  0  0  0  0  0  0  0  0
    6.9866   -1.9366   21.3580 C   0  0  0  0  0  0  0  0  0  0  0  0
    7.8721   -0.1194   23.8831 C   0  0  0  0  0  0  0  0  0  0  0  0
    8.6238   -0.7606   22.6929 C   0  0  3  0  0  0  0  0  0  0  0  0
    8.8661    4.1042   24.1578 C   0  0  0  0  0  0  0  0  0  0  0  0
    6.0431    4.7945   23.2305 C   0  0  0  0  0  0  0  0  0  0  0  0
    6.5974    3.4003   23.5041 C   0  0  0  0  0  0  0  0  0  0  0  0
    4.2337    4.7783   21.3208 N   0  0  0  0  0  0  0  0  0  0  0  0
    6.3062    0.3769   17.3421 N   0  0  0  0  0  0  0  0  0  0  0  0
    7.2292   -0.6897   20.7790 N   0  0  0  0  0  0  0  0  0  0  0  0
    8.6609    1.0133   24.4995 N   0  0  1  0  0  0  0  0  0  0  0  0
    7.6110    3.4369   24.5899 N   0  0  1  0  0  0  0  0  0  0  0  0
    8.8299    1.0397   21.0799 O   0  0  0  0  0  0  0  0  0  0  0  0
    8.6187    2.3214   26.7008 O   0  0  0  0  0  0  0  0  0  0  0  0
    6.4562    1.4400   25.7707 O   0  0  0  0  0  0  0  0  0  0  0  0
    7.7708    2.0177   25.5632 S   0  0  0  0  0  0  0  0  0  0  0  0
   13.4272   -2.1411   21.1086 Cl  0  0  0  0  0  0  0  0  0  0  0  0
    2.5432    3.3510   20.6369 H   0  0  0  0  0  0  0  0  0  0  0  0
    3.5174    2.1137   22.5168 H   0  0  0  0  0  0  0  0  0  0  0  0
    3.3409    2.9743   18.3364 H   0  0  0  0  0  0  0  0  0  0  0  0
    5.3118    0.4895   22.1572 H   0  0  0  0  0  0  0  0  0  0  0  0
   12.5024    0.5995   24.9735 H   0  0  0  0  0  0  0  0  0  0  0  0
   13.9910   -0.5177   23.3793 H   0  0  0  0  0  0  0  0  0  0  0  0
   10.6036   -2.0162   21.2241 H   0  0  0  0  0  0  0  0  0  0  0  0
    4.9141    1.7511   16.7474 H   0  0  0  0  0  0  0  0  0  0  0  0
    7.6445   -0.9764   18.1043 H   0  0  0  0  0  0  0  0  0  0  0  0
    9.7849   -0.1194   25.8306 H   0  0  0  0  0  0  0  0  0  0  0  0
   10.4793    1.4568   25.3613 H   0  0  0  0  0  0  0  0  0  0  0  0
    7.5152   -2.5456   23.3338 H   0  0  0  0  0  0  0  0  0  0  0  0
    8.7649   -2.9030   22.1434 H   0  0  0  0  0  0  0  0  0  0  0  0
    7.0587   -2.7248   20.5721 H   0  0  0  0  0  0  0  0  0  0  0  0
    5.9518   -1.9952   21.7720 H   0  0  0  0  0  0  0  0  0  0  0  0
    6.8867    0.2641   23.5642 H   0  0  0  0  0  0  0  0  0  0  0  0
    7.6652   -0.8660   24.6733 H   0  0  0  0  0  0  0  0  0  0  0  0
    9.5851    4.1084   24.9902 H   0  0  0  0  0  0  0  0  0  0  0  0
    9.2962    3.5589   23.3047 H   0  0  0  0  0  0  0  0  0  0  0  0
    8.6464    5.1395   23.8580 H   0  0  0  0  0  0  0  0  0  0  0  0
    5.5854    5.1809   24.1486 H   0  0  0  0  0  0  0  0  0  0  0  0
    6.8549    5.4810   22.9628 H   0  0  0  0  0  0  0  0  0  0  0  0
    5.7831    2.7360   23.8114 H   0  0  0  0  0  0  0  0  0  0  0  0
    7.0490    2.9755   22.6007 H   0  0  0  0  0  0  0  0  0  0  0  0
  1 24  1  0  0  0  0
  1 26  3  0  0  0  0
  2  3  1  0  0  0  0
  2  4  2  0  0  0  0
  3  5  2  0  0  0  0
  4 11  1  0  0  0  0
  5 12  1  0  0  0  0
  6  7  2  0  0  0  0
  6 13  1  0  0  0  0
  7 16  1  0  0  0  0
  8 14  1  0  0  0  0
  8 16  2  0  0  0  0
  9 11  2  0  0  0  0
  9 27  1  0  0  0  0
 10 15  1  0  0  0  0
 10 27  2  0  0  0  0
 11 12  1  0  0  0  0
 12 15  2  0  0  0  0
 13 14  2  0  0  0  0
 13 18  1  0  0  0  0
 14 22  1  0  0  0  0
 15 28  1  0  0  0  0
 16 35  1  0  0  0  0
 17 22  1  0  0  0  0
 17 28  1  0  0  0  0
 17 31  2  0  0  0  0
 18 29  1  0  0  0  0
 19 20  1  0  0  0  0
 19 22  1  0  0  0  0
 20 28  1  0  0  0  0
 21 22  1  0  0  0  0
 21 29  1  0  0  0  0
 23 30  1  1  0  0  0
 24 25  1  0  0  0  0
 25 30  1  0  0  0  0
 29 34  1  6  0  0  0
 30 34  1  0  0  0  0
 32 34  2  0  0  0  0
 33 34  2  0  0  0  0
  2 36  1  0  0  0  0
  3 37  1  0  0  0  0
  4 38  1  0  0  0  0
  5 39  1  0  0  0  0
  6 40  1  0  0  0  0
  7 41  1  0  0  0  0
  8 42  1  0  0  0  0
  9 43  1  0  0  0  0
 10 44  1  0  0  0  0
 18 45  1  0  0  0  0
 18 46  1  0  0  0  0
 19 47  1  0  0  0  0
 19 48  1  0  0  0  0
 20 49  1  0  0  0  0
 20 50  1  0  0  0  0
 21 51  1  0  0  0  0
 21 52  1  0  0  0  0
 23 53  1  0  0  0  0
 23 54  1  0  0  0  0
 23 55  1  0  0  0  0
 24 56  1  0  0  0  0
 24 57  1  0  0  0  0
 25 58  1  0  0  0  0
 25 59  1  0  0  0  0
M  END
> <compound>
ALP-POS-ecbed2ba-16

> <compound_smiles>
CN(CCC#N)S(=O)(=O)N1Cc2ccc(cc2C3(C1)CCN(C3=O)c4cncc5c4cccc5)Cl

> <enantiomer_smiles>
C[N@@](CCC#N)S(=O)(=O)[N@]1Cc2ccc(cc2C3(C1)CCN(C3=O)c4cncc5c4cccc5)Cl

> <scaffold>
tetrahydroisoquinoline-5spiro-isoquinoline

> <clash_score>
0

> <docking_score>
-8.602313041687012

> <overlap_score>
0.9740273356437683

> <MMFF_internal_energy>
-16.344951121041568

> <docked_smiles>
C[N@@](CCC#N)S(=O)(=O)[N@]1Cc2ccc(cc2[C@]3(C1)CCN(C3=O)c4cncc5c4cccc5)Cl

$$$$
ALP-POS-ecbed2ba-16_4
  -OEChem-12272114573D

 59 63  0     1  0  0  0  0  0999 V2000
   10.8618    4.7688   23.1706 C   0  0  0  0  0  0  0  0  0  0  0  0
    3.3432    2.6279   20.4411 C   0  0  0  0  0  0  0  0  0  0  0  0
    3.8960    1.9291   21.5050 C   0  0  0  0  0  0  0  0  0  0  0  0
    3.7865    2.4205   19.1660 C   0  0  0  0  0  0  0  0  0  0  0  0
    4.8973    1.0233   21.2988 C   0  0  0  0  0  0  0  0  0  0  0  0
   12.0765    0.0316   24.1541 C   0  0  0  0  0  0  0  0  0  0  0  0
   12.9132   -0.6032   23.2569 C   0  0  0  0  0  0  0  0  0  0  0  0
   10.9991   -1.4331   22.0443 C   0  0  0  0  0  0  0  0  0  0  0  0
    5.3278    1.2339   17.6066 C   0  0  0  0  0  0  0  0  0  0  0  0
    6.8438   -0.2892   18.3752 C   0  0  0  0  0  0  0  0  0  0  0  0
    4.8226    1.4906   18.9054 C   0  0  0  0  0  0  0  0  0  0  0  0
    5.3982    0.7733   19.9948 C   0  0  0  0  0  0  0  0  0  0  0  0
   10.7040   -0.0625   23.9898 C   0  0  0  0  0  0  0  0  0  0  0  0
   10.1406   -0.7765   22.9250 C   0  0  0  0  0  0  0  0  0  0  0  0
    6.4440   -0.1472   19.6979 C   0  0  0  0  0  0  0  0  0  0  0  0
   12.3683   -1.3298   22.2234 C   0  0  0  0  0  0  0  0  0  0  0  0
    8.2490    0.0169   21.4271 C   0  0  0  0  0  0  0  0  0  0  0  0
    9.9479    0.5589   24.9534 C   0  0  0  0  0  0  0  0  0  0  0  0
    8.0140   -2.1541   22.4331 C   0  0  0  0  0  0  0  0  0  0  0  0
    6.9866   -1.9366   21.3580 C   0  0  0  0  0  0  0  0  0  0  0  0
    7.8721   -0.1194   23.8831 C   0  0  0  0  0  0  0  0  0  0  0  0
    8.6238   -0.7606   22.6929 C   0  0  3  0  0  0  0  0  0  0  0  0
    6.9078    3.2882   23.2896 C   0  0  0  0  0  0  0  0  0  0  0  0
    9.6718    3.9143   23.2959 C   0  0  0  0  0  0  0  0  0  0  0  0
    8.8018    4.3188   24.4814 C   0  0  0  0  0  0  0  0  0  0  0  0
   11.8016    5.4420   23.0698 N   0  0  0  0  0  0  0  0  0  0  0  0
    6.3062    0.3769   17.3421 N   0  0  0  0  0  0  0  0  0  0  0  0
    7.2292   -0.6897   20.7790 N   0  0  0  0  0  0  0  0  0  0  0  0
    8.6609    1.0133   24.4995 N   0  0  1  0  0  0  0  0  0  0  0  0
    7.6110    3.4369   24.5899 N   0  0  2  0  0  0  0  0  0  0  0  0
    8.8299    1.0397   21.0799 O   0  0  0  0  0  0  0  0  0  0  0  0
    8.6187    2.3214   26.7008 O   0  0  0  0  0  0  0  0  0  0  0  0
    6.4562    1.4400   25.7707 O   0  0  0  0  0  0  0  0  0  0  0  0
    7.7708    2.0177   25.5632 S   0  0  0  0  0  0  0  0  0  0  0  0
   13.4272   -2.1411   21.1086 Cl  0  0  0  0  0  0  0  0  0  0  0  0
    2.5432    3.3510   20.6369 H   0  0  0  0  0  0  0  0  0  0  0  0
    3.5174    2.1137   22.5168 H   0  0  0  0  0  0  0  0  0  0  0  0
    3.3409    2.9743   18.3364 H   0  0  0  0  0  0  0  0  0  0  0  0
    5.3118    0.4895   22.1572 H   0  0  0  0  0  0  0  0  0  0  0  0
   12.5024    0.5995   24.9735 H   0  0  0  0  0  0  0  0  0  0  0  0
   13.9910   -0.5177   23.3793 H   0  0  0  0  0  0  0  0  0  0  0  0
   10.6036   -2.0162   21.2241 H   0  0  0  0  0  0  0  0  0  0  0  0
    4.9141    1.7511   16.7474 H   0  0  0  0  0  0  0  0  0  0  0  0
    7.6445   -0.9764   18.1043 H   0  0  0  0  0  0  0  0  0  0  0  0
    9.7849   -0.1194   25.8306 H   0  0  0  0  0  0  0  0  0  0  0  0
   10.4793    1.4568   25.3613 H   0  0  0  0  0  0  0  0  0  0  0  0
    7.5152   -2.5456   23.3338 H   0  0  0  0  0  0  0  0  0  0  0  0
    8.7649   -2.9030   22.1434 H   0  0  0  0  0  0  0  0  0  0  0  0
    7.0587   -2.7248   20.5721 H   0  0  0  0  0  0  0  0  0  0  0  0
    5.9518   -1.9952   21.7720 H   0  0  0  0  0  0  0  0  0  0  0  0
    6.8867    0.2641   23.5642 H   0  0  0  0  0  0  0  0  0  0  0  0
    7.6652   -0.8660   24.6733 H   0  0  0  0  0  0  0  0  0  0  0  0
    6.0360    2.6296   23.4167 H   0  0  0  0  0  0  0  0  0  0  0  0
    6.5732    4.2756   22.9388 H   0  0  0  0  0  0  0  0  0  0  0  0
    7.5938    2.8496   22.5500 H   0  0  0  0  0  0  0  0  0  0  0  0
    9.9941    2.8752   23.4304 H   0  0  0  0  0  0  0  0  0  0  0  0
    9.0908    3.9526   22.3670 H   0  0  0  0  0  0  0  0  0  0  0  0
    9.3813    4.2352   25.4066 H   0  0  0  0  0  0  0  0  0  0  0  0
    8.4745    5.3603   24.3881 H   0  0  0  0  0  0  0  0  0  0  0  0
  1 24  1  0  0  0  0
  1 26  3  0  0  0  0
  2  3  1  0  0  0  0
  2  4  2  0  0  0  0
  3  5  2  0  0  0  0
  4 11  1  0  0  0  0
  5 12  1  0  0  0  0
  6  7  2  0  0  0  0
  6 13  1  0  0  0  0
  7 16  1  0  0  0  0
  8 14  1  0  0  0  0
  8 16  2  0  0  0  0
  9 11  2  0  0  0  0
  9 27  1  0  0  0  0
 10 15  1  0  0  0  0
 10 27  2  0  0  0  0
 11 12  1  0  0  0  0
 12 15  2  0  0  0  0
 13 14  2  0  0  0  0
 13 18  1  0  0  0  0
 14 22  1  0  0  0  0
 15 28  1  0  0  0  0
 16 35  1  0  0  0  0
 17 22  1  0  0  0  0
 17 28  1  0  0  0  0
 17 31  2  0  0  0  0
 18 29  1  0  0  0  0
 19 20  1  0  0  0  0
 19 22  1  0  0  0  0
 20 28  1  0  0  0  0
 21 22  1  0  0  0  0
 21 29  1  0  0  0  0
 23 30  1  6  0  0  0
 24 25  1  0  0  0  0
 25 30  1  0  0  0  0
 29 34  1  6  0  0  0
 30 34  1  0  0  0  0
 32 34  2  0  0  0  0
 33 34  2  0  0  0  0
  2 36  1  0  0  0  0
  3 37  1  0  0  0  0
  4 38  1  0  0  0  0
  5 39  1  0  0  0  0
  6 40  1  0  0  0  0
  7 41  1  0  0  0  0
  8 42  1  0  0  0  0
  9 43  1  0  0  0  0
 10 44  1  0  0  0  0
 18 45  1  0  0  0  0
 18 46  1  0  0  0  0
 19 47  1  0  0  0  0
 19 48  1  0  0  0  0
 20 49  1  0  0  0  0
 20 50  1  0  0  0  0
 21 51  1  0  0  0  0
 21 52  1  0  0  0  0
 23 53  1  0  0  0  0
 23 54  1  0  0  0  0
 23 55  1  0  0  0  0
 24 56  1  0  0  0  0
 24 57  1  0  0  0  0
 25 58  1  0  0  0  0
 25 59  1  0  0  0  0
M  END
> <compound>
ALP-POS-ecbed2ba-16

> <compound_smiles>
CN(CCC#N)S(=O)(=O)N1Cc2ccc(cc2C3(C1)CCN(C3=O)c4cncc5c4cccc5)Cl

> <enantiomer_smiles>
C[N@](CCC#N)S(=O)(=O)[N@]1Cc2ccc(cc2C3(C1)CCN(C3=O)c4cncc5c4cccc5)Cl

> <scaffold>
tetrahydroisoquinoline-5spiro-isoquinoline

> <clash_score>
0

> <docking_score>
-8.603787422180176

> <overlap_score>
0.9719414114952087

> <MMFF_internal_energy>
-26.464659347803575

> <docked_smiles>
C[N@](CCC#N)S(=O)(=O)[N@]1Cc2ccc(cc2[C@]3(C1)CCN(C3=O)c4cncc5c4cccc5)Cl

$$$$
MIK-ENA-5d9157e9-1_2
  -OEChem-12272114573D

 58 63  0     1  0  0  0  0  0999 V2000
    7.3094    3.4355   22.8011 C   0  0  0  0  0  0  0  0  0  0  0  0
    3.3432    2.6279   20.4411 C   0  0  0  0  0  0  0  0  0  0  0  0
    3.8960    1.9291   21.5050 C   0  0  0  0  0  0  0  0  0  0  0  0
    3.7865    2.4205   19.1660 C   0  0  0  0  0  0  0  0  0  0  0  0
    4.8973    1.0233   21.2988 C   0  0  0  0  0  0  0  0  0  0  0  0
   12.0765    0.0316   24.1541 C   0  0  0  0  0  0  0  0  0  0  0  0
   12.9132   -0.6032   23.2569 C   0  0  0  0  0  0  0  0  0  0  0  0
   10.9991   -1.4331   22.0443 C   0  0  0  0  0  0  0  0  0  0  0  0
    5.3278    1.2339   17.6066 C   0  0  0  0  0  0  0  0  0  0  0  0
    6.8438   -0.2892   18.3752 C   0  0  0  0  0  0  0  0  0  0  0  0
    4.8226    1.4906   18.9054 C   0  0  0  0  0  0  0  0  0  0  0  0
    5.3982    0.7733   19.9948 C   0  0  0  0  0  0  0  0  0  0  0  0
   10.7040   -0.0625   23.9898 C   0  0  0  0  0  0  0  0  0  0  0  0
   10.1406   -0.7765   22.9250 C   0  0  0  0  0  0  0  0  0  0  0  0
    6.4440   -0.1472   19.6979 C   0  0  0  0  0  0  0  0  0  0  0  0
   12.3683   -1.3298   22.2234 C   0  0  0  0  0  0  0  0  0  0  0  0
    8.2490    0.0169   21.4271 C   0  0  0  0  0  0  0  0  0  0  0  0
    9.9479    0.5589   24.9534 C   0  0  0  0  0  0  0  0  0  0  0  0
    9.8122    3.1638   22.9346 C   0  0  0  0  0  0  0  0  0  0  0  0
    9.5202    4.6348   22.9720 C   0  0  0  0  0  0  0  0  0  0  0  0
    8.0140   -2.1541   22.4331 C   0  0  0  0  0  0  0  0  0  0  0  0
    6.9866   -1.9366   21.3580 C   0  0  0  0  0  0  0  0  0  0  0  0
    7.8721   -0.1194   23.8831 C   0  0  0  0  0  0  0  0  0  0  0  0
    8.5207    3.6567   23.5478 C   0  0  0  0  0  0  0  0  0  0  0  0
    8.6238   -0.7606   22.6929 C   0  0  1  0  0  0  0  0  0  0  0  0
    8.3755    3.5895   25.0516 C   0  0  0  0  0  0  0  0  0  0  0  0
    6.3334    3.2573   22.1995 N   0  0  0  0  0  0  0  0  0  0  0  0
    6.3062    0.3769   17.3421 N   0  0  0  0  0  0  0  0  0  0  0  0
    7.2292   -0.6897   20.7790 N   0  0  0  0  0  0  0  0  0  0  0  0
    8.6609    1.0133   24.4995 N   0  0  2  0  0  0  0  0  0  0  0  0
    8.7588    1.0926   21.1315 O   0  0  0  0  0  0  0  0  0  0  0  0
    8.2494    1.7666   26.9193 O   0  0  0  0  0  0  0  0  0  0  0  0
    6.3609    1.9371   25.2489 O   0  0  0  0  0  0  0  0  0  0  0  0
    7.7681    2.0072   25.5765 S   0  0  0  0  0  0  0  0  0  0  0  0
   13.4284   -2.1375   21.1073 Cl  0  0  0  0  0  0  0  0  0  0  0  0
    2.5432    3.3510   20.6369 H   0  0  0  0  0  0  0  0  0  0  0  0
    3.5174    2.1137   22.5168 H   0  0  0  0  0  0  0  0  0  0  0  0
    3.3409    2.9743   18.3364 H   0  0  0  0  0  0  0  0  0  0  0  0
    5.3118    0.4895   22.1572 H   0  0  0  0  0  0  0  0  0  0  0  0
   12.5035    0.6053   24.9687 H   0  0  0  0  0  0  0  0  0  0  0  0
   13.9915   -0.5091   23.3734 H   0  0  0  0  0  0  0  0  0  0  0  0
   10.6130   -2.0083   21.2173 H   0  0  0  0  0  0  0  0  0  0  0  0
    4.9141    1.7511   16.7474 H   0  0  0  0  0  0  0  0  0  0  0  0
    7.6445   -0.9764   18.1043 H   0  0  0  0  0  0  0  0  0  0  0  0
    9.7904   -0.1142   25.8401 H   0  0  0  0  0  0  0  0  0  0  0  0
   10.4809    1.4598   25.3620 H   0  0  0  0  0  0  0  0  0  0  0  0
    9.7811    2.6702   21.9698 H   0  0  0  0  0  0  0  0  0  0  0  0
   10.5879    2.7883   23.5919 H   0  0  0  0  0  0  0  0  0  0  0  0
   10.1012    5.2449   23.6540 H   0  0  0  0  0  0  0  0  0  0  0  0
    9.2947    5.1254   22.0319 H   0  0  0  0  0  0  0  0  0  0  0  0
    7.5755   -2.6005   23.3392 H   0  0  0  0  0  0  0  0  0  0  0  0
    8.7528   -2.8828   22.0695 H   0  0  0  0  0  0  0  0  0  0  0  0
    7.0226   -2.7507   20.5946 H   0  0  0  0  0  0  0  0  0  0  0  0
    5.9544   -1.9486   21.7821 H   0  0  0  0  0  0  0  0  0  0  0  0
    6.8938    0.2792   23.5661 H   0  0  0  0  0  0  0  0  0  0  0  0
    7.6737   -0.8615   24.6765 H   0  0  0  0  0  0  0  0  0  0  0  0
    7.6675    4.3417   25.4104 H   0  0  0  0  0  0  0  0  0  0  0  0
    9.3385    3.7452   25.5452 H   0  0  0  0  0  0  0  0  0  0  0  0
  1 24  1  0  0  0  0
  1 27  3  0  0  0  0
  2  3  1  0  0  0  0
  2  4  2  0  0  0  0
  3  5  2  0  0  0  0
  4 11  1  0  0  0  0
  5 12  1  0  0  0  0
  6  7  1  0  0  0  0
  6 13  2  0  0  0  0
  7 16  2  0  0  0  0
  8 14  2  0  0  0  0
  8 16  1  0  0  0  0
  9 11  2  0  0  0  0
  9 28  1  0  0  0  0
 10 15  1  0  0  0  0
 10 28  2  0  0  0  0
 11 12  1  0  0  0  0
 12 15  2  0  0  0  0
 13 14  1  0  0  0  0
 13 18  1  0  0  0  0
 14 25  1  6  0  0  0
 15 29  1  0  0  0  0
 16 35  1  0  0  0  0
 17 25  1  1  0  0  0
 17 29  1  0  0  0  0
 17 31  2  0  0  0  0
 18 30  1  0  0  0  0
 19 20  1  0  0  0  0
 19 24  1  0  0  0  0
 20 24  1  0  0  0  0
 21 22  1  0  0  0  0
 21 25  1  1  0  0  0
 22 29  1  0  0  0  0
 23 25  1  6  0  0  0
 23 30  1  0  0  0  0
 24 26  1  0  0  0  0
 26 34  1  0  0  0  0
 30 34  1  6  0  0  0
 32 34  2  0  0  0  0
 33 34  2  0  0  0  0
  2 36  1  0  0  0  0
  3 37  1  0  0  0  0
  4 38  1  0  0  0  0
  5 39  1  0  0  0  0
  6 40  1  0  0  0  0
  7 41  1  0  0  0  0
  8 42  1  0  0  0  0
  9 43  1  0  0  0  0
 10 44  1  0  0  0  0
 18 45  1  0  0  0  0
 18 46  1  0  0  0  0
 19 47  1  0  0  0  0
 19 48  1  0  0  0  0
 20 49  1  0  0  0  0
 20 50  1  0  0  0  0
 21 51  1  0  0  0  0
 21 52  1  0  0  0  0
 22 53  1  0  0  0  0
 22 54  1  0  0  0  0
 23 55  1  0  0  0  0
 23 56  1  0  0  0  0
 26 57  1  0  0  0  0
 26 58  1  0  0  0  0
M  END
> <compound>
MIK-ENA-5d9157e9-1

> <compound_smiles>
c1ccc2c(c1)cncc2N3CC[C@@]4(C3=O)CN(Cc5c4cc(cc5)Cl)S(=O)(=O)CC6(CC6)C#N

> <enantiomer_smiles>
c1ccc2c(c1)cncc2N3CC[C@@]4(C3=O)C[N@](Cc5c4cc(cc5)Cl)S(=O)(=O)CC6(CC6)C#N

> <scaffold>
tetrahydroisoquinoline-5spiro-isoquinoline

> <clash_score>
0

> <docking_score>
-8.790911674499512

> <overlap_score>
0.9741023182868958

> <MMFF_internal_energy>
120.61386305457411

> <docked_smiles>
c1ccc2c(c1)cncc2N3CC[C@@]4(C3=O)C[N@](Cc5c4cc(cc5)Cl)S(=O)(=O)CC6(CC6)C#N

$$$$
ALP-POS-ecbed2ba-21_3
  -OEChem-12272114573D

 62 66  0     1  0  0  0  0  0999 V2000
    3.3432    2.6279   20.4411 C   0  0  0  0  0  0  0  0  0  0  0  0
    3.8960    1.9291   21.5050 C   0  0  0  0  0  0  0  0  0  0  0  0
    3.7865    2.4205   19.1660 C   0  0  0  0  0  0  0  0  0  0  0  0
    4.8973    1.0233   21.2988 C   0  0  0  0  0  0  0  0  0  0  0  0
   12.0765    0.0316   24.1541 C   0  0  0  0  0  0  0  0  0  0  0  0
   12.9132   -0.6032   23.2569 C   0  0  0  0  0  0  0  0  0  0  0  0
   10.9991   -1.4331   22.0443 C   0  0  0  0  0  0  0  0  0  0  0  0
    5.3278    1.2339   17.6066 C   0  0  0  0  0  0  0  0  0  0  0  0
    6.8438   -0.2892   18.3752 C   0  0  0  0  0  0  0  0  0  0  0  0
    4.8226    1.4906   18.9054 C   0  0  0  0  0  0  0  0  0  0  0  0
    5.3982    0.7733   19.9948 C   0  0  0  0  0  0  0  0  0  0  0  0
   10.7040   -0.0625   23.9898 C   0  0  0  0  0  0  0  0  0  0  0  0
   10.1406   -0.7765   22.9250 C   0  0  0  0  0  0  0  0  0  0  0  0
    6.4440   -0.1472   19.6979 C   0  0  0  0  0  0  0  0  0  0  0  0
   12.3683   -1.3298   22.2234 C   0  0  0  0  0  0  0  0  0  0  0  0
    8.2490    0.0169   21.4271 C   0  0  0  0  0  0  0  0  0  0  0  0
    9.9479    0.5589   24.9534 C   0  0  0  0  0  0  0  0  0  0  0  0
    8.0140   -2.1541   22.4331 C   0  0  0  0  0  0  0  0  0  0  0  0
    6.9866   -1.9366   21.3580 C   0  0  0  0  0  0  0  0  0  0  0  0
    7.8721   -0.1194   23.8831 C   0  0  0  0  0  0  0  0  0  0  0  0
    8.6238   -0.7606   22.6929 C   0  0  3  0  0  0  0  0  0  0  0  0
    6.4179    3.5203   23.7084 C   0  0  0  0  0  0  0  0  0  0  0  0
    9.9655    7.5724   24.1879 C   0  0  0  0  0  0  0  0  0  0  0  0
    7.9160    4.7384   25.2386 C   0  0  0  0  0  0  0  0  0  0  0  0
    9.0303    5.4363   24.4803 C   0  0  0  0  0  0  0  0  0  0  0  0
    6.3062    0.3769   17.3421 N   0  0  0  0  0  0  0  0  0  0  0  0
    7.2292   -0.6897   20.7790 N   0  0  0  0  0  0  0  0  0  0  0  0
    8.6609    1.0133   24.4995 N   0  0  1  0  0  0  0  0  0  0  0  0
    7.6110    3.4369   24.5899 N   0  0  1  0  0  0  0  0  0  0  0  0
    8.8299    1.0397   21.0799 O   0  0  0  0  0  0  0  0  0  0  0  0
    8.6187    2.3214   26.7008 O   0  0  0  0  0  0  0  0  0  0  0  0
    6.4562    1.4400   25.7707 O   0  0  0  0  0  0  0  0  0  0  0  0
    9.2944    6.6967   25.0833 O   0  0  0  0  0  0  0  0  0  0  0  0
    7.7708    2.0177   25.5632 S   0  0  0  0  0  0  0  0  0  0  0  0
   13.4272   -2.1411   21.1086 Cl  0  0  0  0  0  0  0  0  0  0  0  0
    2.5432    3.3510   20.6369 H   0  0  0  0  0  0  0  0  0  0  0  0
    3.5174    2.1137   22.5168 H   0  0  0  0  0  0  0  0  0  0  0  0
    3.3409    2.9743   18.3364 H   0  0  0  0  0  0  0  0  0  0  0  0
    5.3118    0.4895   22.1572 H   0  0  0  0  0  0  0  0  0  0  0  0
   12.5024    0.5995   24.9735 H   0  0  0  0  0  0  0  0  0  0  0  0
   13.9910   -0.5177   23.3793 H   0  0  0  0  0  0  0  0  0  0  0  0
   10.6036   -2.0162   21.2241 H   0  0  0  0  0  0  0  0  0  0  0  0
    4.9141    1.7511   16.7474 H   0  0  0  0  0  0  0  0  0  0  0  0
    7.6445   -0.9764   18.1043 H   0  0  0  0  0  0  0  0  0  0  0  0
    9.7849   -0.1194   25.8306 H   0  0  0  0  0  0  0  0  0  0  0  0
   10.4793    1.4568   25.3613 H   0  0  0  0  0  0  0  0  0  0  0  0
    7.5152   -2.5456   23.3338 H   0  0  0  0  0  0  0  0  0  0  0  0
    8.7649   -2.9030   22.1434 H   0  0  0  0  0  0  0  0  0  0  0  0
    7.0587   -2.7248   20.5721 H   0  0  0  0  0  0  0  0  0  0  0  0
    5.9518   -1.9952   21.7720 H   0  0  0  0  0  0  0  0  0  0  0  0
    6.8867    0.2641   23.5642 H   0  0  0  0  0  0  0  0  0  0  0  0
    7.6652   -0.8660   24.6733 H   0  0  0  0  0  0  0  0  0  0  0  0
    6.2300    2.5377   23.2509 H   0  0  0  0  0  0  0  0  0  0  0  0
    5.5429    3.8210   24.3033 H   0  0  0  0  0  0  0  0  0  0  0  0
    6.5973    4.2642   22.9182 H   0  0  0  0  0  0  0  0  0  0  0  0
   10.1518    8.5285   24.6831 H   0  0  0  0  0  0  0  0  0  0  0  0
    9.3511    7.7249   23.2970 H   0  0  0  0  0  0  0  0  0  0  0  0
   10.9183    7.1228   23.8983 H   0  0  0  0  0  0  0  0  0  0  0  0
    8.2033    4.5450   26.2770 H   0  0  0  0  0  0  0  0  0  0  0  0
    7.0071    5.3473   25.2258 H   0  0  0  0  0  0  0  0  0  0  0  0
    8.7243    5.6147   23.4448 H   0  0  0  0  0  0  0  0  0  0  0  0
    9.9514    4.8446   24.4835 H   0  0  0  0  0  0  0  0  0  0  0  0
  1  2  1  0  0  0  0
  1  3  2  0  0  0  0
  2  4  2  0  0  0  0
  3 10  1  0  0  0  0
  4 11  1  0  0  0  0
  5  6  2  0  0  0  0
  5 12  1  0  0  0  0
  6 15  1  0  0  0  0
  7 13  1  0  0  0  0
  7 15  2  0  0  0  0
  8 10  2  0  0  0  0
  8 26  1  0  0  0  0
  9 14  1  0  0  0  0
  9 26  2  0  0  0  0
 10 11  1  0  0  0  0
 11 14  2  0  0  0  0
 12 13  2  0  0  0  0
 12 17  1  0  0  0  0
 13 21  1  0  0  0  0
 14 27  1  0  0  0  0
 15 35  1  0  0  0  0
 16 21  1  0  0  0  0
 16 27  1  0  0  0  0
 16 30  2  0  0  0  0
 17 28  1  0  0  0  0
 18 19  1  0  0  0  0
 18 21  1  0  0  0  0
 19 27  1  0  0  0  0
 20 21  1  0  0  0  0
 20 28  1  0  0  0  0
 22 29  1  1  0  0  0
 23 33  1  0  0  0  0
 24 25  1  0  0  0  0
 24 29  1  0  0  0  0
 25 33  1  0  0  0  0
 28 34  1  6  0  0  0
 29 34  1  0  0  0  0
 31 34  2  0  0  0  0
 32 34  2  0  0  0  0
  1 36  1  0  0  0  0
  2 37  1  0  0  0  0
  3 38  1  0  0  0  0
  4 39  1  0  0  0  0
  5 40  1  0  0  0  0
  6 41  1  0  0  0  0
  7 42  1  0  0  0  0
  8 43  1  0  0  0  0
  9 44  1  0  0  0  0
 17 45  1  0  0  0  0
 17 46  1  0  0  0  0
 18 47  1  0  0  0  0
 18 48  1  0  0  0  0
 19 49  1  0  0  0  0
 19 50  1  0  0  0  0
 20 51  1  0  0  0  0
 20 52  1  0  0  0  0
 22 53  1  0  0  0  0
 22 54  1  0  0  0  0
 22 55  1  0  0  0  0
 23 56  1  0  0  0  0
 23 57  1  0  0  0  0
 23 58  1  0  0  0  0
 24 59  1  0  0  0  0
 24 60  1  0  0  0  0
 25 61  1  0  0  0  0
 25 62  1  0  0  0  0
M  END
> <compound>
ALP-POS-ecbed2ba-21

> <compound_smiles>
CN(CCOC)S(=O)(=O)N1Cc2ccc(cc2C3(C1)CCN(C3=O)c4cncc5c4cccc5)Cl

> <enantiomer_smiles>
C[N@@](CCOC)S(=O)(=O)[N@]1Cc2ccc(cc2C3(C1)CCN(C3=O)c4cncc5c4cccc5)Cl

> <scaffold>
tetrahydroisoquinoline-5spiro-isoquinoline

> <clash_score>
0

> <docking_score>
-9.114203453063965

> <overlap_score>
0.9712714552879333

> <MMFF_internal_energy>
-2.411269170766344

> <docked_smiles>
C[N@@](CCOC)S(=O)(=O)[N@]1Cc2ccc(cc2[C@]3(C1)CCN(C3=O)c4cncc5c4cccc5)Cl

$$$$
ALP-POS-ecbed2ba-21_1
  -OEChem-12272114573D

 62 66  0     1  0  0  0  0  0999 V2000
    3.3432    2.6279   20.4411 C   0  0  0  0  0  0  0  0  0  0  0  0
    3.8960    1.9291   21.5050 C   0  0  0  0  0  0  0  0  0  0  0  0
    3.7865    2.4205   19.1660 C   0  0  0  0  0  0  0  0  0  0  0  0
    4.8973    1.0233   21.2988 C   0  0  0  0  0  0  0  0  0  0  0  0
   12.0765    0.0316   24.1541 C   0  0  0  0  0  0  0  0  0  0  0  0
   12.9132   -0.6032   23.2569 C   0  0  0  0  0  0  0  0  0  0  0  0
   10.9991   -1.4331   22.0443 C   0  0  0  0  0  0  0  0  0  0  0  0
    5.3278    1.2339   17.6066 C   0  0  0  0  0  0  0  0  0  0  0  0
    6.8438   -0.2892   18.3752 C   0  0  0  0  0  0  0  0  0  0  0  0
    4.8226    1.4906   18.9054 C   0  0  0  0  0  0  0  0  0  0  0  0
    5.3982    0.7733   19.9948 C   0  0  0  0  0  0  0  0  0  0  0  0
   10.7040   -0.0625   23.9898 C   0  0  0  0  0  0  0  0  0  0  0  0
   10.1406   -0.7765   22.9250 C   0  0  0  0  0  0  0  0  0  0  0  0
    6.4440   -0.1472   19.6979 C   0  0  0  0  0  0  0  0  0  0  0  0
   12.3683   -1.3298   22.2234 C   0  0  0  0  0  0  0  0  0  0  0  0
    8.2490    0.0169   21.4271 C   0  0  0  0  0  0  0  0  0  0  0  0
    9.9479    0.5589   24.9534 C   0  0  0  0  0  0  0  0  0  0  0  0
    8.0140   -2.1541   22.4331 C   0  0  0  0  0  0  0  0  0  0  0  0
    6.9866   -1.9366   21.3580 C   0  0  0  0  0  0  0  0  0  0  0  0
    7.8721   -0.1194   23.8831 C   0  0  0  0  0  0  0  0  0  0  0  0
    8.6238   -0.7606   22.6929 C   0  0  3  0  0  0  0  0  0  0  0  0
    9.1560    3.5157   26.3272 C   0  0  0  0  0  0  0  0  0  0  0  0
    8.1230    7.4120   22.4815 C   0  0  0  0  0  0  0  0  0  0  0  0
    7.5480    4.8511   25.0231 C   0  0  0  0  0  0  0  0  0  0  0  0
    8.0077    5.3955   23.6830 C   0  0  0  0  0  0  0  0  0  0  0  0
    6.3062    0.3769   17.3421 N   0  0  0  0  0  0  0  0  0  0  0  0
    7.2292   -0.6897   20.7790 N   0  0  0  0  0  0  0  0  0  0  0  0
    8.6609    1.0133   24.4995 N   0  0  2  0  0  0  0  0  0  0  0  0
    8.1392    3.5060   25.2439 N   0  0  1  0  0  0  0  0  0  0  0  0
    8.7645    1.0869   21.1203 O   0  0  0  0  0  0  0  0  0  0  0  0
    7.3396    2.5678   22.9645 O   0  0  0  0  0  0  0  0  0  0  0  0
    9.7957    2.9599   23.3273 O   0  0  0  0  0  0  0  0  0  0  0  0
    7.4114    6.6670   23.4601 O   0  0  0  0  0  0  0  0  0  0  0  0
    8.4970    2.5650   23.8392 S   0  0  0  0  0  0  0  0  0  0  0  0
   13.4275   -2.1421   21.1097 Cl  0  0  0  0  0  0  0  0  0  0  0  0
    2.5432    3.3510   20.6369 H   0  0  0  0  0  0  0  0  0  0  0  0
    3.5174    2.1137   22.5168 H   0  0  0  0  0  0  0  0  0  0  0  0
    3.3409    2.9743   18.3364 H   0  0  0  0  0  0  0  0  0  0  0  0
    5.3118    0.4895   22.1572 H   0  0  0  0  0  0  0  0  0  0  0  0
   12.5015    0.5938   24.9776 H   0  0  0  0  0  0  0  0  0  0  0  0
   13.9911   -0.5212   23.3814 H   0  0  0  0  0  0  0  0  0  0  0  0
   10.6037   -2.0228   21.2288 H   0  0  0  0  0  0  0  0  0  0  0  0
    4.9141    1.7511   16.7474 H   0  0  0  0  0  0  0  0  0  0  0  0
    7.6445   -0.9764   18.1043 H   0  0  0  0  0  0  0  0  0  0  0  0
    9.7582   -0.1287   25.8172 H   0  0  0  0  0  0  0  0  0  0  0  0
   10.4932    1.4390   25.3828 H   0  0  0  0  0  0  0  0  0  0  0  0
    7.5801   -2.6060   23.3366 H   0  0  0  0  0  0  0  0  0  0  0  0
    8.7749   -2.8608   22.0657 H   0  0  0  0  0  0  0  0  0  0  0  0
    7.0227   -2.7506   20.5953 H   0  0  0  0  0  0  0  0  0  0  0  0
    5.9554   -1.9484   21.7832 H   0  0  0  0  0  0  0  0  0  0  0  0
    6.8886    0.2770   23.5668 H   0  0  0  0  0  0  0  0  0  0  0  0
    7.6579   -0.8709   24.6635 H   0  0  0  0  0  0  0  0  0  0  0  0
    9.5654    2.5028   26.4556 H   0  0  0  0  0  0  0  0  0  0  0  0
    9.9681    4.2084   26.0615 H   0  0  0  0  0  0  0  0  0  0  0  0
    8.6873    3.8433   27.2669 H   0  0  0  0  0  0  0  0  0  0  0  0
    7.6383    8.3804   22.3361 H   0  0  0  0  0  0  0  0  0  0  0  0
    8.1403    6.8562   21.5406 H   0  0  0  0  0  0  0  0  0  0  0  0
    9.1471    7.5681   22.8290 H   0  0  0  0  0  0  0  0  0  0  0  0
    7.8617    5.5027   25.8448 H   0  0  0  0  0  0  0  0  0  0  0  0
    6.4585    4.7520   25.0405 H   0  0  0  0  0  0  0  0  0  0  0  0
    7.6885    4.7268   22.8775 H   0  0  0  0  0  0  0  0  0  0  0  0
    9.0963    5.5057   23.6452 H   0  0  0  0  0  0  0  0  0  0  0  0
  1  2  1  0  0  0  0
  1  3  2  0  0  0  0
  2  4  2  0  0  0  0
  3 10  1  0  0  0  0
  4 11  1  0  0  0  0
  5  6  2  0  0  0  0
  5 12  1  0  0  0  0
  6 15  1  0  0  0  0
  7 13  1  0  0  0  0
  7 15  2  0  0  0  0
  8 10  2  0  0  0  0
  8 26  1  0  0  0  0
  9 14  1  0  0  0  0
  9 26  2  0  0  0  0
 10 11  1  0  0  0  0
 11 14  2  0  0  0  0
 12 13  2  0  0  0  0
 12 17  1  0  0  0  0
 13 21  1  0  0  0  0
 14 27  1  0  0  0  0
 15 35  1  0  0  0  0
 16 21  1  0  0  0  0
 16 27  1  0  0  0  0
 16 30  2  0  0  0  0
 17 28  1  0  0  0  0
 18 19  1  0  0  0  0
 18 21  1  0  0  0  0
 19 27  1  0  0  0  0
 20 21  1  0  0  0  0
 20 28  1  0  0  0  0
 22 29  1  1  0  0  0
 23 33  1  0  0  0  0
 24 25  1  0  0  0  0
 24 29  1  0  0  0  0
 25 33  1  0  0  0  0
 28 34  1  1  0  0  0
 29 34  1  0  0  0  0
 31 34  2  0  0  0  0
 32 34  2  0  0  0  0
  1 36  1  0  0  0  0
  2 37  1  0  0  0  0
  3 38  1  0  0  0  0
  4 39  1  0  0  0  0
  5 40  1  0  0  0  0
  6 41  1  0  0  0  0
  7 42  1  0  0  0  0
  8 43  1  0  0  0  0
  9 44  1  0  0  0  0
 17 45  1  0  0  0  0
 17 46  1  0  0  0  0
 18 47  1  0  0  0  0
 18 48  1  0  0  0  0
 19 49  1  0  0  0  0
 19 50  1  0  0  0  0
 20 51  1  0  0  0  0
 20 52  1  0  0  0  0
 22 53  1  0  0  0  0
 22 54  1  0  0  0  0
 22 55  1  0  0  0  0
 23 56  1  0  0  0  0
 23 57  1  0  0  0  0
 23 58  1  0  0  0  0
 24 59  1  0  0  0  0
 24 60  1  0  0  0  0
 25 61  1  0  0  0  0
 25 62  1  0  0  0  0
M  END
> <compound>
ALP-POS-ecbed2ba-21

> <compound_smiles>
CN(CCOC)S(=O)(=O)N1Cc2ccc(cc2C3(C1)CCN(C3=O)c4cncc5c4cccc5)Cl

> <enantiomer_smiles>
C[N@@](CCOC)S(=O)(=O)[N@@]1Cc2ccc(cc2C3(C1)CCN(C3=O)c4cncc5c4cccc5)Cl

> <scaffold>
tetrahydroisoquinoline-5spiro-isoquinoline

> <clash_score>
0.636612761140114

> <docking_score>
-8.638801574707031

> <overlap_score>
0.9735120534896851

> <MMFF_internal_energy>
12.258340674581486

> <docked_smiles>
C[N@@](CCOC)S(=O)(=O)[N@@]1Cc2ccc(cc2[C@]3(C1)CCN(C3=O)c4cncc5c4cccc5)Cl

$$$$
MIK-ENA-5d9157e9-1_1
  -OEChem-12272114573D

 58 63  0     1  0  0  0  0  0999 V2000
    9.9875    5.1233   23.8275 C   0  0  0  0  0  0  0  0  0  0  0  0
    3.3432    2.6279   20.4411 C   0  0  0  0  0  0  0  0  0  0  0  0
    3.8960    1.9291   21.5050 C   0  0  0  0  0  0  0  0  0  0  0  0
    3.7865    2.4205   19.1660 C   0  0  0  0  0  0  0  0  0  0  0  0
    4.8973    1.0233   21.2988 C   0  0  0  0  0  0  0  0  0  0  0  0
   12.0765    0.0316   24.1541 C   0  0  0  0  0  0  0  0  0  0  0  0
   12.9132   -0.6032   23.2569 C   0  0  0  0  0  0  0  0  0  0  0  0
   10.9991   -1.4331   22.0443 C   0  0  0  0  0  0  0  0  0  0  0  0
    5.3278    1.2339   17.6066 C   0  0  0  0  0  0  0  0  0  0  0  0
    6.8438   -0.2892   18.3752 C   0  0  0  0  0  0  0  0  0  0  0  0
    4.8226    1.4906   18.9054 C   0  0  0  0  0  0  0  0  0  0  0  0
    5.3982    0.7733   19.9948 C   0  0  0  0  0  0  0  0  0  0  0  0
   10.7040   -0.0625   23.9898 C   0  0  0  0  0  0  0  0  0  0  0  0
   10.1406   -0.7765   22.9250 C   0  0  0  0  0  0  0  0  0  0  0  0
    6.4440   -0.1472   19.6979 C   0  0  0  0  0  0  0  0  0  0  0  0
   12.3683   -1.3298   22.2234 C   0  0  0  0  0  0  0  0  0  0  0  0
    8.2490    0.0169   21.4271 C   0  0  0  0  0  0  0  0  0  0  0  0
    9.9479    0.5589   24.9534 C   0  0  0  0  0  0  0  0  0  0  0  0
    8.5292    6.1008   25.6368 C   0  0  0  0  0  0  0  0  0  0  0  0
    7.6985    6.0171   24.3904 C   0  0  0  0  0  0  0  0  0  0  0  0
    8.0140   -2.1541   22.4331 C   0  0  0  0  0  0  0  0  0  0  0  0
    6.9866   -1.9366   21.3580 C   0  0  0  0  0  0  0  0  0  0  0  0
    7.8721   -0.1194   23.8831 C   0  0  0  0  0  0  0  0  0  0  0  0
    8.7970    5.0055   24.6291 C   0  0  0  0  0  0  0  0  0  0  0  0
    8.6238   -0.7606   22.6929 C   0  0  1  0  0  0  0  0  0  0  0  0
    8.3973    3.5924   24.9905 C   0  0  0  0  0  0  0  0  0  0  0  0
   10.9467    5.2183   23.1817 N   0  0  0  0  0  0  0  0  0  0  0  0
    6.3062    0.3769   17.3421 N   0  0  0  0  0  0  0  0  0  0  0  0
    7.2292   -0.6897   20.7790 N   0  0  0  0  0  0  0  0  0  0  0  0
    8.6609    1.0133   24.4995 N   0  0  1  0  0  0  0  0  0  0  0  0
    8.7576    1.0939   21.1347 O   0  0  0  0  0  0  0  0  0  0  0  0
    7.4170    2.5201   22.8188 O   0  0  0  0  0  0  0  0  0  0  0  0
    9.9241    2.7343   23.0514 O   0  0  0  0  0  0  0  0  0  0  0  0
    8.6190    2.4836   23.6231 S   0  0  0  0  0  0  0  0  0  0  0  0
   13.4269   -2.1431   21.1100 Cl  0  0  0  0  0  0  0  0  0  0  0  0
    2.5432    3.3510   20.6369 H   0  0  0  0  0  0  0  0  0  0  0  0
    3.5174    2.1137   22.5168 H   0  0  0  0  0  0  0  0  0  0  0  0
    3.3409    2.9743   18.3364 H   0  0  0  0  0  0  0  0  0  0  0  0
    5.3118    0.4895   22.1572 H   0  0  0  0  0  0  0  0  0  0  0  0
   12.5021    0.5936   24.9776 H   0  0  0  0  0  0  0  0  0  0  0  0
   13.9910   -0.5222   23.3823 H   0  0  0  0  0  0  0  0  0  0  0  0
   10.6038   -2.0223   21.2285 H   0  0  0  0  0  0  0  0  0  0  0  0
    4.9141    1.7511   16.7474 H   0  0  0  0  0  0  0  0  0  0  0  0
    7.6445   -0.9764   18.1043 H   0  0  0  0  0  0  0  0  0  0  0  0
    9.7593   -0.1283   25.8177 H   0  0  0  0  0  0  0  0  0  0  0  0
   10.4932    1.4394   25.3816 H   0  0  0  0  0  0  0  0  0  0  0  0
    9.2310    6.9232   25.7181 H   0  0  0  0  0  0  0  0  0  0  0  0
    8.0555    5.8371   26.5753 H   0  0  0  0  0  0  0  0  0  0  0  0
    6.6678    5.6981   24.4943 H   0  0  0  0  0  0  0  0  0  0  0  0
    7.8440    6.7842   23.6383 H   0  0  0  0  0  0  0  0  0  0  0  0
    7.5800   -2.6065   23.3362 H   0  0  0  0  0  0  0  0  0  0  0  0
    8.7751   -2.8606   22.0656 H   0  0  0  0  0  0  0  0  0  0  0  0
    7.0225   -2.7506   20.5953 H   0  0  0  0  0  0  0  0  0  0  0  0
    5.9555   -1.9476   21.7836 H   0  0  0  0  0  0  0  0  0  0  0  0
    6.8885    0.2772   23.5674 H   0  0  0  0  0  0  0  0  0  0  0  0
    7.6586   -0.8709   24.6639 H   0  0  0  0  0  0  0  0  0  0  0  0
    7.3429    3.5449   25.2763 H   0  0  0  0  0  0  0  0  0  0  0  0
    9.0057    3.2124   25.8157 H   0  0  0  0  0  0  0  0  0  0  0  0
  1 24  1  0  0  0  0
  1 27  3  0  0  0  0
  2  3  1  0  0  0  0
  2  4  2  0  0  0  0
  3  5  2  0  0  0  0
  4 11  1  0  0  0  0
  5 12  1  0  0  0  0
  6  7  1  0  0  0  0
  6 13  2  0  0  0  0
  7 16  2  0  0  0  0
  8 14  2  0  0  0  0
  8 16  1  0  0  0  0
  9 11  2  0  0  0  0
  9 28  1  0  0  0  0
 10 15  1  0  0  0  0
 10 28  2  0  0  0  0
 11 12  1  0  0  0  0
 12 15  2  0  0  0  0
 13 14  1  0  0  0  0
 13 18  1  0  0  0  0
 14 25  1  6  0  0  0
 15 29  1  0  0  0  0
 16 35  1  0  0  0  0
 17 25  1  1  0  0  0
 17 29  1  0  0  0  0
 17 31  2  0  0  0  0
 18 30  1  0  0  0  0
 19 20  1  0  0  0  0
 19 24  1  0  0  0  0
 20 24  1  0  0  0  0
 21 22  1  0  0  0  0
 21 25  1  1  0  0  0
 22 29  1  0  0  0  0
 23 25  1  6  0  0  0
 23 30  1  0  0  0  0
 24 26  1  0  0  0  0
 26 34  1  0  0  0  0
 30 34  1  1  0  0  0
 32 34  2  0  0  0  0
 33 34  2  0  0  0  0
  2 36  1  0  0  0  0
  3 37  1  0  0  0  0
  4 38  1  0  0  0  0
  5 39  1  0  0  0  0
  6 40  1  0  0  0  0
  7 41  1  0  0  0  0
  8 42  1  0  0  0  0
  9 43  1  0  0  0  0
 10 44  1  0  0  0  0
 18 45  1  0  0  0  0
 18 46  1  0  0  0  0
 19 47  1  0  0  0  0
 19 48  1  0  0  0  0
 20 49  1  0  0  0  0
 20 50  1  0  0  0  0
 21 51  1  0  0  0  0
 21 52  1  0  0  0  0
 22 53  1  0  0  0  0
 22 54  1  0  0  0  0
 23 55  1  0  0  0  0
 23 56  1  0  0  0  0
 26 57  1  0  0  0  0
 26 58  1  0  0  0  0
M  END
> <compound>
MIK-ENA-5d9157e9-1

> <compound_smiles>
c1ccc2c(c1)cncc2N3CC[C@@]4(C3=O)CN(Cc5c4cc(cc5)Cl)S(=O)(=O)CC6(CC6)C#N

> <enantiomer_smiles>
c1ccc2c(c1)cncc2N3CC[C@@]4(C3=O)C[N@@](Cc5c4cc(cc5)Cl)S(=O)(=O)CC6(CC6)C#N

> <scaffold>
tetrahydroisoquinoline-5spiro-isoquinoline

> <clash_score>
0

> <docking_score>
-9.214418411254883

> <overlap_score>
0.9734804034233093

> <MMFF_internal_energy>
134.9911618682676

> <docked_smiles>
c1ccc2c(c1)cncc2N3CC[C@@]4(C3=O)C[N@@](Cc5c4cc(cc5)Cl)S(=O)(=O)CC6(CC6)C#N

$$$$
ALP-POS-ecbed2ba-21_2
  -OEChem-12272114573D

 62 66  0     1  0  0  0  0  0999 V2000
    3.3432    2.6279   20.4411 C   0  0  0  0  0  0  0  0  0  0  0  0
    3.8960    1.9291   21.5050 C   0  0  0  0  0  0  0  0  0  0  0  0
    3.7865    2.4205   19.1660 C   0  0  0  0  0  0  0  0  0  0  0  0
    4.8973    1.0233   21.2988 C   0  0  0  0  0  0  0  0  0  0  0  0
   12.0765    0.0316   24.1541 C   0  0  0  0  0  0  0  0  0  0  0  0
   12.9132   -0.6032   23.2569 C   0  0  0  0  0  0  0  0  0  0  0  0
   10.9991   -1.4331   22.0443 C   0  0  0  0  0  0  0  0  0  0  0  0
    5.3278    1.2339   17.6066 C   0  0  0  0  0  0  0  0  0  0  0  0
    6.8438   -0.2892   18.3752 C   0  0  0  0  0  0  0  0  0  0  0  0
    4.8226    1.4906   18.9054 C   0  0  0  0  0  0  0  0  0  0  0  0
    5.3982    0.7733   19.9948 C   0  0  0  0  0  0  0  0  0  0  0  0
   10.7040   -0.0625   23.9898 C   0  0  0  0  0  0  0  0  0  0  0  0
   10.1406   -0.7765   22.9250 C   0  0  0  0  0  0  0  0  0  0  0  0
    6.4440   -0.1472   19.6979 C   0  0  0  0  0  0  0  0  0  0  0  0
   12.3683   -1.3298   22.2234 C   0  0  0  0  0  0  0  0  0  0  0  0
    8.2490    0.0169   21.4271 C   0  0  0  0  0  0  0  0  0  0  0  0
    9.9479    0.5589   24.9534 C   0  0  0  0  0  0  0  0  0  0  0  0
    8.0140   -2.1541   22.4331 C   0  0  0  0  0  0  0  0  0  0  0  0
    6.9866   -1.9366   21.3580 C   0  0  0  0  0  0  0  0  0  0  0  0
    7.8721   -0.1194   23.8831 C   0  0  0  0  0  0  0  0  0  0  0  0
    8.6238   -0.7606   22.6929 C   0  0  3  0  0  0  0  0  0  0  0  0
    7.1822    3.5140   25.7191 C   0  0  0  0  0  0  0  0  0  0  0  0
    6.6997    5.2568   21.4768 C   0  0  0  0  0  0  0  0  0  0  0  0
    8.7087    5.0606   24.5583 C   0  0  0  0  0  0  0  0  0  0  0  0
    8.4024    5.3235   23.0952 C   0  0  0  0  0  0  0  0  0  0  0  0
    6.3062    0.3769   17.3421 N   0  0  0  0  0  0  0  0  0  0  0  0
    7.2292   -0.6897   20.7790 N   0  0  0  0  0  0  0  0  0  0  0  0
    8.6609    1.0133   24.4995 N   0  0  2  0  0  0  0  0  0  0  0  0
    8.4044    3.6433   24.8844 N   0  0  2  0  0  0  0  0  0  0  0  0
    8.7572    1.0941   21.1350 O   0  0  0  0  0  0  0  0  0  0  0  0
    7.4336    2.4722   22.7864 O   0  0  0  0  0  0  0  0  0  0  0  0
    9.9276    2.6762   23.0243 O   0  0  0  0  0  0  0  0  0  0  0  0
    7.0345    5.0315   22.8392 O   0  0  0  0  0  0  0  0  0  0  0  0
    8.6198    2.4832   23.6217 S   0  0  0  0  0  0  0  0  0  0  0  0
   13.4275   -2.1421   21.1097 Cl  0  0  0  0  0  0  0  0  0  0  0  0
    2.5432    3.3510   20.6369 H   0  0  0  0  0  0  0  0  0  0  0  0
    3.5174    2.1137   22.5168 H   0  0  0  0  0  0  0  0  0  0  0  0
    3.3409    2.9743   18.3364 H   0  0  0  0  0  0  0  0  0  0  0  0
    5.3118    0.4895   22.1572 H   0  0  0  0  0  0  0  0  0  0  0  0
   12.5015    0.5938   24.9776 H   0  0  0  0  0  0  0  0  0  0  0  0
   13.9911   -0.5212   23.3814 H   0  0  0  0  0  0  0  0  0  0  0  0
   10.6037   -2.0228   21.2288 H   0  0  0  0  0  0  0  0  0  0  0  0
    4.9141    1.7511   16.7474 H   0  0  0  0  0  0  0  0  0  0  0  0
    7.6445   -0.9764   18.1043 H   0  0  0  0  0  0  0  0  0  0  0  0
    9.7581   -0.1287   25.8173 H   0  0  0  0  0  0  0  0  0  0  0  0
   10.4931    1.4391   25.3829 H   0  0  0  0  0  0  0  0  0  0  0  0
    7.5801   -2.6060   23.3366 H   0  0  0  0  0  0  0  0  0  0  0  0
    8.7749   -2.8608   22.0657 H   0  0  0  0  0  0  0  0  0  0  0  0
    7.0227   -2.7506   20.5953 H   0  0  0  0  0  0  0  0  0  0  0  0
    5.9554   -1.9484   21.7832 H   0  0  0  0  0  0  0  0  0  0  0  0
    6.8886    0.2769   23.5666 H   0  0  0  0  0  0  0  0  0  0  0  0
    7.6579   -0.8710   24.6633 H   0  0  0  0  0  0  0  0  0  0  0  0
    6.9959    2.4517   25.9353 H   0  0  0  0  0  0  0  0  0  0  0  0
    7.3233    4.0609   26.6630 H   0  0  0  0  0  0  0  0  0  0  0  0
    6.3220    3.9340   25.1770 H   0  0  0  0  0  0  0  0  0  0  0  0
    5.6444    5.0230   21.3167 H   0  0  0  0  0  0  0  0  0  0  0  0
    7.3244    4.6272   20.8382 H   0  0  0  0  0  0  0  0  0  0  0  0
    6.8784    6.3074   21.2360 H   0  0  0  0  0  0  0  0  0  0  0  0
    9.7642    5.2451   24.7822 H   0  0  0  0  0  0  0  0  0  0  0  0
    8.0902    5.6980   25.1974 H   0  0  0  0  0  0  0  0  0  0  0  0
    9.0114    4.6710   22.4618 H   0  0  0  0  0  0  0  0  0  0  0  0
    8.5965    6.3664   22.8244 H   0  0  0  0  0  0  0  0  0  0  0  0
  1  2  1  0  0  0  0
  1  3  2  0  0  0  0
  2  4  2  0  0  0  0
  3 10  1  0  0  0  0
  4 11  1  0  0  0  0
  5  6  2  0  0  0  0
  5 12  1  0  0  0  0
  6 15  1  0  0  0  0
  7 13  1  0  0  0  0
  7 15  2  0  0  0  0
  8 10  2  0  0  0  0
  8 26  1  0  0  0  0
  9 14  1  0  0  0  0
  9 26  2  0  0  0  0
 10 11  1  0  0  0  0
 11 14  2  0  0  0  0
 12 13  2  0  0  0  0
 12 17  1  0  0  0  0
 13 21  1  0  0  0  0
 14 27  1  0  0  0  0
 15 35  1  0  0  0  0
 16 21  1  0  0  0  0
 16 27  1  0  0  0  0
 16 30  2  0  0  0  0
 17 28  1  0  0  0  0
 18 19  1  0  0  0  0
 18 21  1  0  0  0  0
 19 27  1  0  0  0  0
 20 21  1  0  0  0  0
 20 28  1  0  0  0  0
 22 29  1  6  0  0  0
 23 33  1  0  0  0  0
 24 25  1  0  0  0  0
 24 29  1  0  0  0  0
 25 33  1  0  0  0  0
 28 34  1  1  0  0  0
 29 34  1  0  0  0  0
 31 34  2  0  0  0  0
 32 34  2  0  0  0  0
  1 36  1  0  0  0  0
  2 37  1  0  0  0  0
  3 38  1  0  0  0  0
  4 39  1  0  0  0  0
  5 40  1  0  0  0  0
  6 41  1  0  0  0  0
  7 42  1  0  0  0  0
  8 43  1  0  0  0  0
  9 44  1  0  0  0  0
 17 45  1  0  0  0  0
 17 46  1  0  0  0  0
 18 47  1  0  0  0  0
 18 48  1  0  0  0  0
 19 49  1  0  0  0  0
 19 50  1  0  0  0  0
 20 51  1  0  0  0  0
 20 52  1  0  0  0  0
 22 53  1  0  0  0  0
 22 54  1  0  0  0  0
 22 55  1  0  0  0  0
 23 56  1  0  0  0  0
 23 57  1  0  0  0  0
 23 58  1  0  0  0  0
 24 59  1  0  0  0  0
 24 60  1  0  0  0  0
 25 61  1  0  0  0  0
 25 62  1  0  0  0  0
M  END
> <compound>
ALP-POS-ecbed2ba-21

> <compound_smiles>
CN(CCOC)S(=O)(=O)N1Cc2ccc(cc2C3(C1)CCN(C3=O)c4cncc5c4cccc5)Cl

> <enantiomer_smiles>
C[N@](CCOC)S(=O)(=O)[N@@]1Cc2ccc(cc2C3(C1)CCN(C3=O)c4cncc5c4cccc5)Cl

> <scaffold>
tetrahydroisoquinoline-5spiro-isoquinoline

> <clash_score>
0

> <docking_score>
-9.411309242248535

> <overlap_score>
0.9748103022575378

> <MMFF_internal_energy>
11.20385782779592

> <docked_smiles>
C[N@](CCOC)S(=O)(=O)[N@@]1Cc2ccc(cc2[C@]3(C1)CCN(C3=O)c4cncc5c4cccc5)Cl

$$$$
MIK-ENA-5d9157e9-2_1
  -OEChem-12272114573D

 58 63  0     1  0  0  0  0  0999 V2000
    7.0818    5.4593   23.8859 C   0  0  0  0  0  0  0  0  0  0  0  0
    3.3432    2.6279   20.4411 C   0  0  0  0  0  0  0  0  0  0  0  0
    3.8960    1.9291   21.5050 C   0  0  0  0  0  0  0  0  0  0  0  0
    3.7865    2.4205   19.1660 C   0  0  0  0  0  0  0  0  0  0  0  0
    4.8973    1.0233   21.2988 C   0  0  0  0  0  0  0  0  0  0  0  0
   12.0765    0.0316   24.1541 C   0  0  0  0  0  0  0  0  0  0  0  0
   12.9132   -0.6032   23.2569 C   0  0  0  0  0  0  0  0  0  0  0  0
   10.9991   -1.4331   22.0443 C   0  0  0  0  0  0  0  0  0  0  0  0
    5.3278    1.2339   17.6066 C   0  0  0  0  0  0  0  0  0  0  0  0
    6.8438   -0.2892   18.3752 C   0  0  0  0  0  0  0  0  0  0  0  0
    4.8226    1.4906   18.9054 C   0  0  0  0  0  0  0  0  0  0  0  0
    5.3982    0.7733   19.9948 C   0  0  0  0  0  0  0  0  0  0  0  0
   10.7040   -0.0625   23.9898 C   0  0  0  0  0  0  0  0  0  0  0  0
   10.1406   -0.7765   22.9250 C   0  0  0  0  0  0  0  0  0  0  0  0
    6.4440   -0.1472   19.6979 C   0  0  0  0  0  0  0  0  0  0  0  0
   12.3683   -1.3298   22.2234 C   0  0  0  0  0  0  0  0  0  0  0  0
    8.2490    0.0169   21.4271 C   0  0  0  0  0  0  0  0  0  0  0  0
    9.9479    0.5589   24.9534 C   0  0  0  0  0  0  0  0  0  0  0  0
    9.5946    5.6471   23.8073 C   0  0  0  0  0  0  0  0  0  0  0  0
    9.1546    6.1092   25.1651 C   0  0  0  0  0  0  0  0  0  0  0  0
    8.0140   -2.1541   22.4331 C   0  0  0  0  0  0  0  0  0  0  0  0
    6.9866   -1.9366   21.3580 C   0  0  0  0  0  0  0  0  0  0  0  0
    7.8721   -0.1194   23.8831 C   0  0  0  0  0  0  0  0  0  0  0  0
    8.3512    5.0569   24.4340 C   0  0  0  0  0  0  0  0  0  0  0  0
    8.6238   -0.7606   22.6929 C   0  0  2  0  0  0  0  0  0  0  0  0
    8.4159    3.6330   24.9394 C   0  0  0  0  0  0  0  0  0  0  0  0
    6.0590    5.7834   23.4443 N   0  0  0  0  0  0  0  0  0  0  0  0
    6.3062    0.3769   17.3421 N   0  0  0  0  0  0  0  0  0  0  0  0
    7.2292   -0.6897   20.7790 N   0  0  0  0  0  0  0  0  0  0  0  0
    8.6609    1.0133   24.4995 N   0  0  1  0  0  0  0  0  0  0  0  0
    8.8269    1.0416   21.0800 O   0  0  0  0  0  0  0  0  0  0  0  0
    7.4351    2.5143   22.7915 O   0  0  0  0  0  0  0  0  0  0  0  0
    9.9436    2.6860   23.0428 O   0  0  0  0  0  0  0  0  0  0  0  0
    8.6284    2.4792   23.6084 S   0  0  0  0  0  0  0  0  0  0  0  0
   13.4284   -2.1463   21.1138 Cl  0  0  0  0  0  0  0  0  0  0  0  0
    2.5432    3.3510   20.6369 H   0  0  0  0  0  0  0  0  0  0  0  0
    3.5174    2.1137   22.5168 H   0  0  0  0  0  0  0  0  0  0  0  0
    3.3409    2.9743   18.3364 H   0  0  0  0  0  0  0  0  0  0  0  0
    5.3118    0.4895   22.1572 H   0  0  0  0  0  0  0  0  0  0  0  0
   12.5029    0.5851   24.9828 H   0  0  0  0  0  0  0  0  0  0  0  0
   13.9915   -0.5301   23.3880 H   0  0  0  0  0  0  0  0  0  0  0  0
   10.6126   -2.0323   21.2348 H   0  0  0  0  0  0  0  0  0  0  0  0
    4.9141    1.7511   16.7474 H   0  0  0  0  0  0  0  0  0  0  0  0
    7.6445   -0.9764   18.1043 H   0  0  0  0  0  0  0  0  0  0  0  0
    9.7577   -0.1310   25.8198 H   0  0  0  0  0  0  0  0  0  0  0  0
   10.4958    1.4366   25.3938 H   0  0  0  0  0  0  0  0  0  0  0  0
    9.4881    6.3416   22.9817 H   0  0  0  0  0  0  0  0  0  0  0  0
   10.4867    5.0342   23.7495 H   0  0  0  0  0  0  0  0  0  0  0  0
    9.7529    5.8064   26.0168 H   0  0  0  0  0  0  0  0  0  0  0  0
    8.7546    7.1134   25.2478 H   0  0  0  0  0  0  0  0  0  0  0  0
    7.5122   -2.5723   23.3177 H   0  0  0  0  0  0  0  0  0  0  0  0
    8.7695   -2.8991   22.1383 H   0  0  0  0  0  0  0  0  0  0  0  0
    7.0562   -2.7255   20.5716 H   0  0  0  0  0  0  0  0  0  0  0  0
    5.9511   -1.9953   21.7718 H   0  0  0  0  0  0  0  0  0  0  0  0
    6.8943    0.2847   23.5666 H   0  0  0  0  0  0  0  0  0  0  0  0
    7.6705   -0.8633   24.6720 H   0  0  0  0  0  0  0  0  0  0  0  0
    7.4932    3.3597   25.4587 H   0  0  0  0  0  0  0  0  0  0  0  0
    9.2598    3.4977   25.6213 H   0  0  0  0  0  0  0  0  0  0  0  0
  1 24  1  0  0  0  0
  1 27  3  0  0  0  0
  2  3  1  0  0  0  0
  2  4  2  0  0  0  0
  3  5  2  0  0  0  0
  4 11  1  0  0  0  0
  5 12  1  0  0  0  0
  6  7  1  0  0  0  0
  6 13  2  0  0  0  0
  7 16  2  0  0  0  0
  8 14  2  0  0  0  0
  8 16  1  0  0  0  0
  9 11  2  0  0  0  0
  9 28  1  0  0  0  0
 10 15  1  0  0  0  0
 10 28  2  0  0  0  0
 11 12  1  0  0  0  0
 12 15  2  0  0  0  0
 13 14  1  0  0  0  0
 13 18  1  0  0  0  0
 14 25  1  1  0  0  0
 15 29  1  0  0  0  0
 16 35  1  0  0  0  0
 17 25  1  6  0  0  0
 17 29  1  0  0  0  0
 17 31  2  0  0  0  0
 18 30  1  0  0  0  0
 19 20  1  0  0  0  0
 19 24  1  0  0  0  0
 20 24  1  0  0  0  0
 21 22  1  0  0  0  0
 21 25  1  6  0  0  0
 22 29  1  0  0  0  0
 23 25  1  1  0  0  0
 23 30  1  0  0  0  0
 24 26  1  0  0  0  0
 26 34  1  0  0  0  0
 30 34  1  1  0  0  0
 32 34  2  0  0  0  0
 33 34  2  0  0  0  0
  2 36  1  0  0  0  0
  3 37  1  0  0  0  0
  4 38  1  0  0  0  0
  5 39  1  0  0  0  0
  6 40  1  0  0  0  0
  7 41  1  0  0  0  0
  8 42  1  0  0  0  0
  9 43  1  0  0  0  0
 10 44  1  0  0  0  0
 18 45  1  0  0  0  0
 18 46  1  0  0  0  0
 19 47  1  0  0  0  0
 19 48  1  0  0  0  0
 20 49  1  0  0  0  0
 20 50  1  0  0  0  0
 21 51  1  0  0  0  0
 21 52  1  0  0  0  0
 22 53  1  0  0  0  0
 22 54  1  0  0  0  0
 23 55  1  0  0  0  0
 23 56  1  0  0  0  0
 26 57  1  0  0  0  0
 26 58  1  0  0  0  0
M  END
> <compound>
MIK-ENA-5d9157e9-2

> <compound_smiles>
c1ccc2c(c1)cncc2N3CC[C@]4(C3=O)CN(Cc5c4cc(cc5)Cl)S(=O)(=O)CC6(CC6)C#N

> <enantiomer_smiles>
c1ccc2c(c1)cncc2N3CC[C@]4(C3=O)C[N@@](Cc5c4cc(cc5)Cl)S(=O)(=O)CC6(CC6)C#N

> <scaffold>
tetrahydroisoquinoline-5spiro-isoquinoline

> <clash_score>
0

> <docking_score>
-9.00686264038086

> <overlap_score>
0.9738457798957825

> <MMFF_internal_energy>
123.70455831512857

> <docked_smiles>
c1ccc2c(c1)cncc2N3CC[C@@]4(C3=O)C[N@@](Cc5c4cc(cc5)Cl)S(=O)(=O)CC6(CC6)C#N

$$$$
MAT-POS-38eb6498-5_1
  -OEChem-12272114573D

 62 66  0     1  0  0  0  0  0999 V2000
    3.7865    2.4205   19.1660 C   0  0  0  0  0  0  0  0  0  0  0  0
    3.3432    2.6279   20.4411 C   0  0  0  0  0  0  0  0  0  0  0  0
   12.0765    0.0316   24.1541 C   0  0  0  0  0  0  0  0  0  0  0  0
   12.9132   -0.6032   23.2569 C   0  0  0  0  0  0  0  0  0  0  0  0
    4.8973    1.0233   21.2988 C   0  0  0  0  0  0  0  0  0  0  0  0
   10.9991   -1.4331   22.0443 C   0  0  0  0  0  0  0  0  0  0  0  0
    5.3278    1.2339   17.6066 C   0  0  0  0  0  0  0  0  0  0  0  0
    6.8438   -0.2892   18.3752 C   0  0  0  0  0  0  0  0  0  0  0  0
    4.8226    1.4906   18.9054 C   0  0  0  0  0  0  0  0  0  0  0  0
    5.3982    0.7733   19.9948 C   0  0  0  0  0  0  0  0  0  0  0  0
    3.8960    1.9291   21.5050 C   0  0  0  0  0  0  0  0  0  0  0  0
   10.7040   -0.0625   23.9898 C   0  0  0  0  0  0  0  0  0  0  0  0
   10.1406   -0.7765   22.9250 C   0  0  0  0  0  0  0  0  0  0  0  0
    6.4440   -0.1472   19.6979 C   0  0  0  0  0  0  0  0  0  0  0  0
   12.3683   -1.3298   22.2234 C   0  0  0  0  0  0  0  0  0  0  0  0
    8.2490    0.0169   21.4271 C   0  0  0  0  0  0  0  0  0  0  0  0
    3.3923    2.1749   22.8577 C   0  0  0  0  0  0  0  0  0  0  0  0
    7.3800    2.6707   23.1135 C   0  0  0  0  0  0  0  0  0  0  0  0
    9.9479    0.5589   24.9534 C   0  0  0  0  0  0  0  0  0  0  0  0
    8.0140   -2.1541   22.4331 C   0  0  0  0  0  0  0  0  0  0  0  0
    6.9866   -1.9366   21.3580 C   0  0  0  0  0  0  0  0  0  0  0  0
    7.8721   -0.1194   23.8831 C   0  0  0  0  0  0  0  0  0  0  0  0
    8.6238   -0.7606   22.6929 C   0  0  3  0  0  0  0  0  0  0  0  0
    2.3155    3.8415   24.3896 C   0  0  0  0  0  0  0  0  0  0  0  0
    6.3064    4.4181   21.7238 C   0  0  0  0  0  0  0  0  0  0  0  0
    8.7403    2.1972   23.5605 C   0  0  0  0  0  0  0  0  0  0  0  0
    6.3062    0.3769   17.3421 N   0  0  0  0  0  0  0  0  0  0  0  0
    7.2292   -0.6897   20.7790 N   0  0  0  0  0  0  0  0  0  0  0  0
    2.8394    3.4368   23.1049 N   0  0  0  0  0  0  0  0  0  0  0  0
    7.4727    3.7787   22.2847 N   0  0  0  0  0  0  0  0  0  0  0  0
    8.6609    1.0133   24.4995 N   0  3  2  0  0  0  0  0  0  0  0  0
    8.7573    1.0936   21.1337 O   0  0  0  0  0  0  0  0  0  0  0  0
    3.4748    1.2977   23.7355 O   0  0  0  0  0  0  0  0  0  0  0  0
    6.3322    2.1271   23.4522 O   0  0  0  0  0  0  0  0  0  0  0  0
   13.4273   -2.1424   21.1098 Cl  0  0  0  0  0  0  0  0  0  0  0  0
    3.3419    2.9748   18.3365 H   0  0  0  0  0  0  0  0  0  0  0  0
    2.5417    3.3539   20.6249 H   0  0  0  0  0  0  0  0  0  0  0  0
   12.5019    0.5946   24.9768 H   0  0  0  0  0  0  0  0  0  0  0  0
   13.9911   -0.5203   23.3811 H   0  0  0  0  0  0  0  0  0  0  0  0
    5.3193    0.4829   22.1508 H   0  0  0  0  0  0  0  0  0  0  0  0
   10.6042   -2.0222   21.2286 H   0  0  0  0  0  0  0  0  0  0  0  0
    4.9132    1.7508   16.7475 H   0  0  0  0  0  0  0  0  0  0  0  0
    7.6453   -0.9751   18.1044 H   0  0  0  0  0  0  0  0  0  0  0  0
    9.7388   -0.1131   25.8254 H   0  0  0  0  0  0  0  0  0  0  0  0
   10.4771    1.4544   25.3711 H   0  0  0  0  0  0  0  0  0  0  0  0
    7.5768   -2.6110   23.3318 H   0  0  0  0  0  0  0  0  0  0  0  0
    8.7734   -2.8622   22.0653 H   0  0  0  0  0  0  0  0  0  0  0  0
    7.0225   -2.7503   20.5949 H   0  0  0  0  0  0  0  0  0  0  0  0
    5.9552   -1.9477   21.7830 H   0  0  0  0  0  0  0  0  0  0  0  0
    6.8958    0.3004   23.5785 H   0  0  0  0  0  0  0  0  0  0  0  0
    7.6733   -0.8520   24.6844 H   0  0  0  0  0  0  0  0  0  0  0  0
    1.2320    3.6541   24.4198 H   0  0  0  0  0  0  0  0  0  0  0  0
    2.8095    3.2646   25.1852 H   0  0  0  0  0  0  0  0  0  0  0  0
    2.5063    4.9141   24.5419 H   0  0  0  0  0  0  0  0  0  0  0  0
    6.0820    3.9763   20.7417 H   0  0  0  0  0  0  0  0  0  0  0  0
    5.4486    4.2710   22.3965 H   0  0  0  0  0  0  0  0  0  0  0  0
    6.4995    5.4946   21.6059 H   0  0  0  0  0  0  0  0  0  0  0  0
    9.2580    2.9867   24.1123 H   0  0  0  0  0  0  0  0  0  0  0  0
    9.3353    1.8814   22.6991 H   0  0  0  0  0  0  0  0  0  0  0  0
    2.8542    4.1374   22.3710 H   0  0  0  0  0  0  0  0  0  0  0  0
    8.3848    4.1756   22.0775 H   0  0  0  0  0  0  0  0  0  0  0  0
    8.1123    1.3501   25.3127 H   0  0  0  0  0  0  0  0  0  0  0  0
  1  2  2  0  0  0  0
  1  9  1  0  0  0  0
  2 11  1  0  0  0  0
  3  4  2  0  0  0  0
  3 12  1  0  0  0  0
  4 15  1  0  0  0  0
  5 10  1  0  0  0  0
  5 11  2  0  0  0  0
  6 13  1  0  0  0  0
  6 15  2  0  0  0  0
  7  9  2  0  0  0  0
  7 27  1  0  0  0  0
  8 14  1  0  0  0  0
  8 27  2  0  0  0  0
  9 10  1  0  0  0  0
 10 14  2  0  0  0  0
 11 17  1  0  0  0  0
 12 13  2  0  0  0  0
 12 19  1  0  0  0  0
 13 23  1  0  0  0  0
 14 28  1  0  0  0  0
 15 35  1  0  0  0  0
 16 23  1  0  0  0  0
 16 28  1  0  0  0  0
 16 32  2  0  0  0  0
 17 29  1  0  0  0  0
 17 33  2  0  0  0  0
 18 26  1  0  0  0  0
 18 30  1  0  0  0  0
 18 34  2  0  0  0  0
 19 31  1  0  0  0  0
 20 21  1  0  0  0  0
 20 23  1  0  0  0  0
 21 28  1  0  0  0  0
 22 23  1  0  0  0  0
 22 31  1  0  0  0  0
 24 29  1  0  0  0  0
 25 30  1  0  0  0  0
 26 31  1  1  0  0  0
  1 36  1  0  0  0  0
  2 37  1  0  0  0  0
  3 38  1  0  0  0  0
  4 39  1  0  0  0  0
  5 40  1  0  0  0  0
  6 41  1  0  0  0  0
  7 42  1  0  0  0  0
  8 43  1  0  0  0  0
 19 44  1  0  0  0  0
 19 45  1  0  0  0  0
 20 46  1  0  0  0  0
 20 47  1  0  0  0  0
 21 48  1  0  0  0  0
 21 49  1  0  0  0  0
 22 50  1  0  0  0  0
 22 51  1  0  0  0  0
 24 52  1  0  0  0  0
 24 53  1  0  0  0  0
 24 54  1  0  0  0  0
 25 55  1  0  0  0  0
 25 56  1  0  0  0  0
 25 57  1  0  0  0  0
 26 58  1  0  0  0  0
 26 59  1  0  0  0  0
 29 60  1  0  0  0  0
 30 61  1  0  0  0  0
 31 62  1  0  0  0  0
M  CHG  1  31   1
M  END
> <compound>
MAT-POS-38eb6498-5

> <compound_smiles>
CNC(=O)CN1Cc2ccc(cc2C3(C1)CCN(C3=O)c4cncc5c4cc(cc5)C(=O)NC)Cl

> <enantiomer_smiles>
CNC(=O)C[N@@]1Cc2ccc(cc2C3(C1)CCN(C3=O)c4cncc5c4cc(cc5)C(=O)NC)Cl

> <scaffold>
tetrahydroisoquinoline-5spiro-isoquinoline

> <clash_score>
0

> <docking_score>
-8.934343338012695

> <overlap_score>
0.9882935285568237

> <MMFF_internal_energy>
158.4328974554418

> <docked_smiles>
CNC(=O)C[N@@H+]1Cc2ccc(cc2[C@]3(C1)CCN(C3=O)c4cncc5c4cc(cc5)C(=O)NC)Cl

$$$$
MIK-ENA-5d9157e9-2_2
  -OEChem-12272114573D

 58 63  0     1  0  0  0  0  0999 V2000
    8.7500    5.6666   25.0560 C   0  0  0  0  0  0  0  0  0  0  0  0
    3.3432    2.6279   20.4411 C   0  0  0  0  0  0  0  0  0  0  0  0
    3.8960    1.9291   21.5050 C   0  0  0  0  0  0  0  0  0  0  0  0
    3.7865    2.4205   19.1660 C   0  0  0  0  0  0  0  0  0  0  0  0
    4.8973    1.0233   21.2988 C   0  0  0  0  0  0  0  0  0  0  0  0
   12.0765    0.0316   24.1541 C   0  0  0  0  0  0  0  0  0  0  0  0
   12.9132   -0.6032   23.2569 C   0  0  0  0  0  0  0  0  0  0  0  0
   10.9991   -1.4331   22.0443 C   0  0  0  0  0  0  0  0  0  0  0  0
    5.3278    1.2339   17.6066 C   0  0  0  0  0  0  0  0  0  0  0  0
    6.8438   -0.2892   18.3752 C   0  0  0  0  0  0  0  0  0  0  0  0
    4.8226    1.4906   18.9054 C   0  0  0  0  0  0  0  0  0  0  0  0
    5.3982    0.7733   19.9948 C   0  0  0  0  0  0  0  0  0  0  0  0
   10.7040   -0.0625   23.9898 C   0  0  0  0  0  0  0  0  0  0  0  0
   10.1406   -0.7765   22.9250 C   0  0  0  0  0  0  0  0  0  0  0  0
    6.4440   -0.1472   19.6979 C   0  0  0  0  0  0  0  0  0  0  0  0
   12.3683   -1.3298   22.2234 C   0  0  0  0  0  0  0  0  0  0  0  0
    8.2490    0.0169   21.4271 C   0  0  0  0  0  0  0  0  0  0  0  0
    9.9479    0.5589   24.9534 C   0  0  0  0  0  0  0  0  0  0  0  0
    6.6038    5.1905   23.8218 C   0  0  0  0  0  0  0  0  0  0  0  0
    7.5920    5.7047   22.8170 C   0  0  0  0  0  0  0  0  0  0  0  0
    8.0140   -2.1541   22.4331 C   0  0  0  0  0  0  0  0  0  0  0  0
    6.9866   -1.9366   21.3580 C   0  0  0  0  0  0  0  0  0  0  0  0
    7.8721   -0.1194   23.8831 C   0  0  0  0  0  0  0  0  0  0  0  0
    8.0798    4.9263   24.0184 C   0  0  0  0  0  0  0  0  0  0  0  0
    8.6238   -0.7606   22.6929 C   0  0  2  0  0  0  0  0  0  0  0  0
    8.5868    3.5188   23.7968 C   0  0  0  0  0  0  0  0  0  0  0  0
    9.2899    6.2631   25.8920 N   0  0  0  0  0  0  0  0  0  0  0  0
    6.3062    0.3769   17.3421 N   0  0  0  0  0  0  0  0  0  0  0  0
    7.2292   -0.6897   20.7790 N   0  0  0  0  0  0  0  0  0  0  0  0
    8.6609    1.0133   24.4995 N   0  0  2  0  0  0  0  0  0  0  0  0
    8.7495    1.0905   21.1251 O   0  0  0  0  0  0  0  0  0  0  0  0
    8.5137    2.7467   26.2919 O   0  0  0  0  0  0  0  0  0  0  0  0
    6.5109    2.3027   24.8164 O   0  0  0  0  0  0  0  0  0  0  0  0
    7.9416    2.3963   25.0101 S   0  0  0  0  0  0  0  0  0  0  0  0
   13.4272   -2.1412   21.1088 Cl  0  0  0  0  0  0  0  0  0  0  0  0
    2.5432    3.3510   20.6369 H   0  0  0  0  0  0  0  0  0  0  0  0
    3.5174    2.1137   22.5168 H   0  0  0  0  0  0  0  0  0  0  0  0
    3.3409    2.9743   18.3364 H   0  0  0  0  0  0  0  0  0  0  0  0
    5.3118    0.4895   22.1572 H   0  0  0  0  0  0  0  0  0  0  0  0
   12.5021    0.5986   24.9741 H   0  0  0  0  0  0  0  0  0  0  0  0
   13.9910   -0.5165   23.3784 H   0  0  0  0  0  0  0  0  0  0  0  0
   10.6039   -2.0167   21.2244 H   0  0  0  0  0  0  0  0  0  0  0  0
    4.9141    1.7511   16.7474 H   0  0  0  0  0  0  0  0  0  0  0  0
    7.6445   -0.9764   18.1043 H   0  0  0  0  0  0  0  0  0  0  0  0
    9.7844   -0.1186   25.8311 H   0  0  0  0  0  0  0  0  0  0  0  0
   10.4795    1.4569   25.3609 H   0  0  0  0  0  0  0  0  0  0  0  0
    6.1106    5.9167   24.4580 H   0  0  0  0  0  0  0  0  0  0  0  0
    5.9652    4.3672   23.5231 H   0  0  0  0  0  0  0  0  0  0  0  0
    7.6146    5.2263   21.8446 H   0  0  0  0  0  0  0  0  0  0  0  0
    7.7591    6.7752   22.7804 H   0  0  0  0  0  0  0  0  0  0  0  0
    7.5152   -2.5458   23.3338 H   0  0  0  0  0  0  0  0  0  0  0  0
    8.7651   -2.9029   22.1433 H   0  0  0  0  0  0  0  0  0  0  0  0
    7.0587   -2.7249   20.5720 H   0  0  0  0  0  0  0  0  0  0  0  0
    5.9516   -1.9961   21.7713 H   0  0  0  0  0  0  0  0  0  0  0  0
    6.8866    0.2645   23.5647 H   0  0  0  0  0  0  0  0  0  0  0  0
    7.6651   -0.8656   24.6736 H   0  0  0  0  0  0  0  0  0  0  0  0
    9.6772    3.4797   23.8691 H   0  0  0  0  0  0  0  0  0  0  0  0
    8.2829    3.1431   22.8160 H   0  0  0  0  0  0  0  0  0  0  0  0
  1 24  1  0  0  0  0
  1 27  3  0  0  0  0
  2  3  1  0  0  0  0
  2  4  2  0  0  0  0
  3  5  2  0  0  0  0
  4 11  1  0  0  0  0
  5 12  1  0  0  0  0
  6  7  1  0  0  0  0
  6 13  2  0  0  0  0
  7 16  2  0  0  0  0
  8 14  2  0  0  0  0
  8 16  1  0  0  0  0
  9 11  2  0  0  0  0
  9 28  1  0  0  0  0
 10 15  1  0  0  0  0
 10 28  2  0  0  0  0
 11 12  1  0  0  0  0
 12 15  2  0  0  0  0
 13 14  1  0  0  0  0
 13 18  1  0  0  0  0
 14 25  1  1  0  0  0
 15 29  1  0  0  0  0
 16 35  1  0  0  0  0
 17 25  1  6  0  0  0
 17 29  1  0  0  0  0
 17 31  2  0  0  0  0
 18 30  1  0  0  0  0
 19 20  1  0  0  0  0
 19 24  1  0  0  0  0
 20 24  1  0  0  0  0
 21 22  1  0  0  0  0
 21 25  1  6  0  0  0
 22 29  1  0  0  0  0
 23 25  1  1  0  0  0
 23 30  1  0  0  0  0
 24 26  1  0  0  0  0
 26 34  1  0  0  0  0
 30 34  1  6  0  0  0
 32 34  2  0  0  0  0
 33 34  2  0  0  0  0
  2 36  1  0  0  0  0
  3 37  1  0  0  0  0
  4 38  1  0  0  0  0
  5 39  1  0  0  0  0
  6 40  1  0  0  0  0
  7 41  1  0  0  0  0
  8 42  1  0  0  0  0
  9 43  1  0  0  0  0
 10 44  1  0  0  0  0
 18 45  1  0  0  0  0
 18 46  1  0  0  0  0
 19 47  1  0  0  0  0
 19 48  1  0  0  0  0
 20 49  1  0  0  0  0
 20 50  1  0  0  0  0
 21 51  1  0  0  0  0
 21 52  1  0  0  0  0
 22 53  1  0  0  0  0
 22 54  1  0  0  0  0
 23 55  1  0  0  0  0
 23 56  1  0  0  0  0
 26 57  1  0  0  0  0
 26 58  1  0  0  0  0
M  END
> <compound>
MIK-ENA-5d9157e9-2

> <compound_smiles>
c1ccc2c(c1)cncc2N3CC[C@]4(C3=O)CN(Cc5c4cc(cc5)Cl)S(=O)(=O)CC6(CC6)C#N

> <enantiomer_smiles>
c1ccc2c(c1)cncc2N3CC[C@]4(C3=O)C[N@](Cc5c4cc(cc5)Cl)S(=O)(=O)CC6(CC6)C#N

> <scaffold>
tetrahydroisoquinoline-5spiro-isoquinoline

> <clash_score>
0

> <docking_score>
-8.963698387145996

> <overlap_score>
0.9708592891693115

> <MMFF_internal_energy>
108.05608547372725

> <docked_smiles>
c1ccc2c(c1)cncc2N3CC[C@@]4(C3=O)C[N@](Cc5c4cc(cc5)Cl)S(=O)(=O)CC6(CC6)C#N

$$$$
ALP-POS-ecbed2ba-21_4
  -OEChem-12272114573D

 62 66  0     1  0  0  0  0  0999 V2000
    3.3432    2.6279   20.4411 C   0  0  0  0  0  0  0  0  0  0  0  0
    3.8960    1.9291   21.5050 C   0  0  0  0  0  0  0  0  0  0  0  0
    3.7865    2.4205   19.1660 C   0  0  0  0  0  0  0  0  0  0  0  0
    4.8973    1.0233   21.2988 C   0  0  0  0  0  0  0  0  0  0  0  0
   12.0765    0.0316   24.1541 C   0  0  0  0  0  0  0  0  0  0  0  0
   12.9132   -0.6032   23.2569 C   0  0  0  0  0  0  0  0  0  0  0  0
   10.9991   -1.4331   22.0443 C   0  0  0  0  0  0  0  0  0  0  0  0
    5.3278    1.2339   17.6066 C   0  0  0  0  0  0  0  0  0  0  0  0
    6.8438   -0.2892   18.3752 C   0  0  0  0  0  0  0  0  0  0  0  0
    4.8226    1.4906   18.9054 C   0  0  0  0  0  0  0  0  0  0  0  0
    5.3982    0.7733   19.9948 C   0  0  0  0  0  0  0  0  0  0  0  0
   10.7040   -0.0625   23.9898 C   0  0  0  0  0  0  0  0  0  0  0  0
   10.1406   -0.7765   22.9250 C   0  0  0  0  0  0  0  0  0  0  0  0
    6.4440   -0.1472   19.6979 C   0  0  0  0  0  0  0  0  0  0  0  0
   12.3683   -1.3298   22.2234 C   0  0  0  0  0  0  0  0  0  0  0  0
    8.2490    0.0169   21.4271 C   0  0  0  0  0  0  0  0  0  0  0  0
    9.9479    0.5589   24.9534 C   0  0  0  0  0  0  0  0  0  0  0  0
    8.0140   -2.1541   22.4331 C   0  0  0  0  0  0  0  0  0  0  0  0
    6.9866   -1.9366   21.3580 C   0  0  0  0  0  0  0  0  0  0  0  0
    7.8721   -0.1194   23.8831 C   0  0  0  0  0  0  0  0  0  0  0  0
    8.6238   -0.7606   22.6929 C   0  0  3  0  0  0  0  0  0  0  0  0
    8.6791    4.4625   24.7109 C   0  0  0  0  0  0  0  0  0  0  0  0
    6.8186    5.9476   21.3978 C   0  0  0  0  0  0  0  0  0  0  0  0
    6.2594    4.0481   24.5041 C   0  0  0  0  0  0  0  0  0  0  0  0
    6.3033    5.2537   23.5831 C   0  0  0  0  0  0  0  0  0  0  0  0
    6.3062    0.3769   17.3421 N   0  0  0  0  0  0  0  0  0  0  0  0
    7.2292   -0.6897   20.7790 N   0  0  0  0  0  0  0  0  0  0  0  0
    8.6609    1.0133   24.4995 N   0  0  1  0  0  0  0  0  0  0  0  0
    7.6110    3.4369   24.5899 N   0  0  2  0  0  0  0  0  0  0  0  0
    8.8299    1.0397   21.0799 O   0  0  0  0  0  0  0  0  0  0  0  0
    8.6187    2.3214   26.7008 O   0  0  0  0  0  0  0  0  0  0  0  0
    6.4562    1.4400   25.7707 O   0  0  0  0  0  0  0  0  0  0  0  0
    6.7544    4.8491   22.2968 O   0  0  0  0  0  0  0  0  0  0  0  0
    7.7708    2.0177   25.5632 S   0  0  0  0  0  0  0  0  0  0  0  0
   13.4272   -2.1411   21.1086 Cl  0  0  0  0  0  0  0  0  0  0  0  0
    2.5432    3.3510   20.6369 H   0  0  0  0  0  0  0  0  0  0  0  0
    3.5174    2.1137   22.5168 H   0  0  0  0  0  0  0  0  0  0  0  0
    3.3409    2.9743   18.3364 H   0  0  0  0  0  0  0  0  0  0  0  0
    5.3118    0.4895   22.1572 H   0  0  0  0  0  0  0  0  0  0  0  0
   12.5024    0.5995   24.9735 H   0  0  0  0  0  0  0  0  0  0  0  0
   13.9910   -0.5177   23.3793 H   0  0  0  0  0  0  0  0  0  0  0  0
   10.6036   -2.0162   21.2241 H   0  0  0  0  0  0  0  0  0  0  0  0
    4.9141    1.7511   16.7474 H   0  0  0  0  0  0  0  0  0  0  0  0
    7.6445   -0.9764   18.1043 H   0  0  0  0  0  0  0  0  0  0  0  0
    9.7849   -0.1194   25.8306 H   0  0  0  0  0  0  0  0  0  0  0  0
   10.4793    1.4568   25.3613 H   0  0  0  0  0  0  0  0  0  0  0  0
    7.5152   -2.5456   23.3338 H   0  0  0  0  0  0  0  0  0  0  0  0
    8.7649   -2.9030   22.1434 H   0  0  0  0  0  0  0  0  0  0  0  0
    7.0587   -2.7248   20.5721 H   0  0  0  0  0  0  0  0  0  0  0  0
    5.9518   -1.9952   21.7720 H   0  0  0  0  0  0  0  0  0  0  0  0
    6.8867    0.2641   23.5642 H   0  0  0  0  0  0  0  0  0  0  0  0
    7.6652   -0.8660   24.6733 H   0  0  0  0  0  0  0  0  0  0  0  0
    9.6591    3.9666   24.7713 H   0  0  0  0  0  0  0  0  0  0  0  0
    8.6556    5.1219   23.8308 H   0  0  0  0  0  0  0  0  0  0  0  0
    8.5134    5.0587   25.6203 H   0  0  0  0  0  0  0  0  0  0  0  0
    7.1679    5.6010   20.4221 H   0  0  0  0  0  0  0  0  0  0  0  0
    7.5011    6.7040   21.7934 H   0  0  0  0  0  0  0  0  0  0  0  0
    5.8205    6.3795   21.2925 H   0  0  0  0  0  0  0  0  0  0  0  0
    5.9463    4.3314   25.5140 H   0  0  0  0  0  0  0  0  0  0  0  0
    5.5686    3.2950   24.1130 H   0  0  0  0  0  0  0  0  0  0  0  0
    7.0085    5.9956   23.9705 H   0  0  0  0  0  0  0  0  0  0  0  0
    5.3171    5.7180   23.4805 H   0  0  0  0  0  0  0  0  0  0  0  0
  1  2  1  0  0  0  0
  1  3  2  0  0  0  0
  2  4  2  0  0  0  0
  3 10  1  0  0  0  0
  4 11  1  0  0  0  0
  5  6  2  0  0  0  0
  5 12  1  0  0  0  0
  6 15  1  0  0  0  0
  7 13  1  0  0  0  0
  7 15  2  0  0  0  0
  8 10  2  0  0  0  0
  8 26  1  0  0  0  0
  9 14  1  0  0  0  0
  9 26  2  0  0  0  0
 10 11  1  0  0  0  0
 11 14  2  0  0  0  0
 12 13  2  0  0  0  0
 12 17  1  0  0  0  0
 13 21  1  0  0  0  0
 14 27  1  0  0  0  0
 15 35  1  0  0  0  0
 16 21  1  0  0  0  0
 16 27  1  0  0  0  0
 16 30  2  0  0  0  0
 17 28  1  0  0  0  0
 18 19  1  0  0  0  0
 18 21  1  0  0  0  0
 19 27  1  0  0  0  0
 20 21  1  0  0  0  0
 20 28  1  0  0  0  0
 22 29  1  6  0  0  0
 23 33  1  0  0  0  0
 24 25  1  0  0  0  0
 24 29  1  0  0  0  0
 25 33  1  0  0  0  0
 28 34  1  6  0  0  0
 29 34  1  0  0  0  0
 31 34  2  0  0  0  0
 32 34  2  0  0  0  0
  1 36  1  0  0  0  0
  2 37  1  0  0  0  0
  3 38  1  0  0  0  0
  4 39  1  0  0  0  0
  5 40  1  0  0  0  0
  6 41  1  0  0  0  0
  7 42  1  0  0  0  0
  8 43  1  0  0  0  0
  9 44  1  0  0  0  0
 17 45  1  0  0  0  0
 17 46  1  0  0  0  0
 18 47  1  0  0  0  0
 18 48  1  0  0  0  0
 19 49  1  0  0  0  0
 19 50  1  0  0  0  0
 20 51  1  0  0  0  0
 20 52  1  0  0  0  0
 22 53  1  0  0  0  0
 22 54  1  0  0  0  0
 22 55  1  0  0  0  0
 23 56  1  0  0  0  0
 23 57  1  0  0  0  0
 23 58  1  0  0  0  0
 24 59  1  0  0  0  0
 24 60  1  0  0  0  0
 25 61  1  0  0  0  0
 25 62  1  0  0  0  0
M  END
> <compound>
ALP-POS-ecbed2ba-21

> <compound_smiles>
CN(CCOC)S(=O)(=O)N1Cc2ccc(cc2C3(C1)CCN(C3=O)c4cncc5c4cccc5)Cl

> <enantiomer_smiles>
C[N@](CCOC)S(=O)(=O)[N@]1Cc2ccc(cc2C3(C1)CCN(C3=O)c4cncc5c4cccc5)Cl

> <scaffold>
tetrahydroisoquinoline-5spiro-isoquinoline

> <clash_score>
0

> <docking_score>
-8.943132400512695

> <overlap_score>
0.9710607528686523

> <MMFF_internal_energy>
4.298716387198369

> <docked_smiles>
C[N@](CCOC)S(=O)(=O)[N@]1Cc2ccc(cc2[C@]3(C1)CCN(C3=O)c4cncc5c4cccc5)Cl

$$$$
MAT-POS-69786b79-4_1
  -OEChem-12272114573D

 60 65  0     1  0  0  0  0  0999 V2000
    9.2334    6.1237   25.4856 C   0  0  0  0  0  0  0  0  0  0  0  0
    3.3432    2.6279   20.4411 C   0  0  0  0  0  0  0  0  0  0  0  0
    3.8960    1.9291   21.5050 C   0  0  0  0  0  0  0  0  0  0  0  0
    3.7865    2.4205   19.1660 C   0  0  0  0  0  0  0  0  0  0  0  0
    4.8973    1.0233   21.2988 C   0  0  0  0  0  0  0  0  0  0  0  0
   12.0765    0.0316   24.1541 C   0  0  0  0  0  0  0  0  0  0  0  0
   12.9132   -0.6032   23.2569 C   0  0  0  0  0  0  0  0  0  0  0  0
   10.9991   -1.4331   22.0443 C   0  0  0  0  0  0  0  0  0  0  0  0
    5.3278    1.2339   17.6066 C   0  0  0  0  0  0  0  0  0  0  0  0
    6.8438   -0.2892   18.3752 C   0  0  0  0  0  0  0  0  0  0  0  0
    4.8226    1.4906   18.9054 C   0  0  0  0  0  0  0  0  0  0  0  0
    5.3982    0.7733   19.9948 C   0  0  0  0  0  0  0  0  0  0  0  0
   10.7040   -0.0625   23.9898 C   0  0  0  0  0  0  0  0  0  0  0  0
   10.1406   -0.7765   22.9250 C   0  0  0  0  0  0  0  0  0  0  0  0
    6.4440   -0.1472   19.6979 C   0  0  0  0  0  0  0  0  0  0  0  0
   12.3683   -1.3298   22.2234 C   0  0  0  0  0  0  0  0  0  0  0  0
    8.2490    0.0169   21.4271 C   0  0  0  0  0  0  0  0  0  0  0  0
    9.4173    3.3884   24.1905 C   0  0  0  0  0  0  0  0  0  0  0  0
    9.9479    0.5589   24.9534 C   0  0  0  0  0  0  0  0  0  0  0  0
   10.7171    6.4246   23.4712 C   0  0  0  0  0  0  0  0  0  0  0  0
    9.3943    7.0463   23.1462 C   0  0  0  0  0  0  0  0  0  0  0  0
    8.0140   -2.1541   22.4331 C   0  0  0  0  0  0  0  0  0  0  0  0
    6.9866   -1.9366   21.3580 C   0  0  0  0  0  0  0  0  0  0  0  0
    7.8721   -0.1194   23.8831 C   0  0  0  0  0  0  0  0  0  0  0  0
    9.4542    5.8634   24.0887 C   0  0  0  0  0  0  0  0  0  0  0  0
    8.6238   -0.7606   22.6929 C   0  0  3  0  0  0  0  0  0  0  0  0
    8.7403    2.1972   23.5605 C   0  0  0  0  0  0  0  0  0  0  0  0
    9.0552    6.3338   26.6127 N   0  0  0  0  0  0  0  0  0  0  0  0
    6.3062    0.3769   17.3421 N   0  0  0  0  0  0  0  0  0  0  0  0
    7.2292   -0.6897   20.7790 N   0  0  0  0  0  0  0  0  0  0  0  0
    8.9593    4.5804   23.6497 N   0  0  0  0  0  0  0  0  0  0  0  0
    8.6609    1.0133   24.4995 N   0  3  1  0  0  0  0  0  0  0  0  0
    8.7573    1.0936   21.1337 O   0  0  0  0  0  0  0  0  0  0  0  0
   10.2660    3.2926   25.0731 O   0  0  0  0  0  0  0  0  0  0  0  0
   13.4273   -2.1424   21.1098 Cl  0  0  0  0  0  0  0  0  0  0  0  0
    2.5432    3.3510   20.6369 H   0  0  0  0  0  0  0  0  0  0  0  0
    3.5174    2.1137   22.5168 H   0  0  0  0  0  0  0  0  0  0  0  0
    3.3409    2.9743   18.3364 H   0  0  0  0  0  0  0  0  0  0  0  0
    5.3118    0.4895   22.1572 H   0  0  0  0  0  0  0  0  0  0  0  0
   12.5019    0.5946   24.9768 H   0  0  0  0  0  0  0  0  0  0  0  0
   13.9911   -0.5203   23.3811 H   0  0  0  0  0  0  0  0  0  0  0  0
   10.6042   -2.0222   21.2286 H   0  0  0  0  0  0  0  0  0  0  0  0
    4.9141    1.7511   16.7474 H   0  0  0  0  0  0  0  0  0  0  0  0
    7.6445   -0.9764   18.1043 H   0  0  0  0  0  0  0  0  0  0  0  0
    9.7388   -0.1131   25.8254 H   0  0  0  0  0  0  0  0  0  0  0  0
   10.4771    1.4544   25.3711 H   0  0  0  0  0  0  0  0  0  0  0  0
   11.2078    5.8526   22.6919 H   0  0  0  0  0  0  0  0  0  0  0  0
   11.3999    6.9921   24.0933 H   0  0  0  0  0  0  0  0  0  0  0  0
    9.1890    8.0312   23.5501 H   0  0  0  0  0  0  0  0  0  0  0  0
    8.9985    6.8911   22.1489 H   0  0  0  0  0  0  0  0  0  0  0  0
    7.5768   -2.6110   23.3318 H   0  0  0  0  0  0  0  0  0  0  0  0
    8.7734   -2.8622   22.0653 H   0  0  0  0  0  0  0  0  0  0  0  0
    7.0225   -2.7503   20.5949 H   0  0  0  0  0  0  0  0  0  0  0  0
    5.9552   -1.9477   21.7830 H   0  0  0  0  0  0  0  0  0  0  0  0
    6.8958    0.3004   23.5785 H   0  0  0  0  0  0  0  0  0  0  0  0
    7.6733   -0.8520   24.6844 H   0  0  0  0  0  0  0  0  0  0  0  0
    9.3034    1.8541   22.6882 H   0  0  0  0  0  0  0  0  0  0  0  0
    7.7144    2.4484   23.2771 H   0  0  0  0  0  0  0  0  0  0  0  0
    8.2698    4.5609   22.9037 H   0  0  0  0  0  0  0  0  0  0  0  0
    8.1123    1.3501   25.3127 H   0  0  0  0  0  0  0  0  0  0  0  0
  1 25  1  0  0  0  0
  1 28  3  0  0  0  0
  2  3  1  0  0  0  0
  2  4  2  0  0  0  0
  3  5  2  0  0  0  0
  4 11  1  0  0  0  0
  5 12  1  0  0  0  0
  6  7  1  0  0  0  0
  6 13  2  0  0  0  0
  7 16  2  0  0  0  0
  8 14  2  0  0  0  0
  8 16  1  0  0  0  0
  9 11  2  0  0  0  0
  9 29  1  0  0  0  0
 10 15  1  0  0  0  0
 10 29  2  0  0  0  0
 11 12  1  0  0  0  0
 12 15  2  0  0  0  0
 13 14  1  0  0  0  0
 13 19  1  0  0  0  0
 14 26  1  0  0  0  0
 15 30  1  0  0  0  0
 16 35  1  0  0  0  0
 17 26  1  0  0  0  0
 17 30  1  0  0  0  0
 17 33  2  0  0  0  0
 18 27  1  0  0  0  0
 18 31  1  0  0  0  0
 18 34  2  0  0  0  0
 19 32  1  0  0  0  0
 20 21  1  0  0  0  0
 20 25  1  0  0  0  0
 21 25  1  0  0  0  0
 22 23  1  0  0  0  0
 22 26  1  0  0  0  0
 23 30  1  0  0  0  0
 24 26  1  0  0  0  0
 24 32  1  0  0  0  0
 25 31  1  0  0  0  0
 27 32  1  1  0  0  0
  2 36  1  0  0  0  0
  3 37  1  0  0  0  0
  4 38  1  0  0  0  0
  5 39  1  0  0  0  0
  6 40  1  0  0  0  0
  7 41  1  0  0  0  0
  8 42  1  0  0  0  0
  9 43  1  0  0  0  0
 10 44  1  0  0  0  0
 19 45  1  0  0  0  0
 19 46  1  0  0  0  0
 20 47  1  0  0  0  0
 20 48  1  0  0  0  0
 21 49  1  0  0  0  0
 21 50  1  0  0  0  0
 22 51  1  0  0  0  0
 22 52  1  0  0  0  0
 23 53  1  0  0  0  0
 23 54  1  0  0  0  0
 24 55  1  0  0  0  0
 24 56  1  0  0  0  0
 27 57  1  0  0  0  0
 27 58  1  0  0  0  0
 31 59  1  0  0  0  0
 32 60  1  0  0  0  0
M  CHG  1  32   1
M  END
> <compound>
MAT-POS-69786b79-4

> <compound_smiles>
c1ccc2c(c1)cncc2N3CCC4(C3=O)CN(Cc5c4cc(cc5)Cl)CC(=O)NC6(CC6)C#N

> <enantiomer_smiles>
c1ccc2c(c1)cncc2N3CCC4(C3=O)C[N@@](Cc5c4cc(cc5)Cl)CC(=O)NC6(CC6)C#N

> <scaffold>
tetrahydroisoquinoline-5spiro-isoquinoline

> <clash_score>
0.7938120164092882

> <docking_score>
-8.863499641418457

> <overlap_score>
0.972193717956543

> <MMFF_internal_energy>
199.34774331554064

> <docked_smiles>
c1ccc2c(c1)cncc2N3CC[C@@]4(C3=O)C[N@@H+](Cc5c4cc(cc5)Cl)CC(=O)NC6(CC6)C#N

$$$$
EDJ-MED-cc48ee33-2_1
  -OEChem-12272114573D

 55 60  0     1  0  0  0  0  0999 V2000
    3.3432    2.6279   20.4411 C   0  0  0  0  0  0  0  0  0  0  0  0
    3.8960    1.9291   21.5050 C   0  0  0  0  0  0  0  0  0  0  0  0
    3.7865    2.4205   19.1660 C   0  0  0  0  0  0  0  0  0  0  0  0
    4.8973    1.0233   21.2988 C   0  0  0  0  0  0  0  0  0  0  0  0
   12.0765    0.0316   24.1541 C   0  0  0  0  0  0  0  0  0  0  0  0
   12.9132   -0.6032   23.2569 C   0  0  0  0  0  0  0  0  0  0  0  0
    5.8912    1.8363   25.3595 C   0  0  0  0  0  0  0  0  0  0  0  0
   10.9991   -1.4331   22.0443 C   0  0  0  0  0  0  0  0  0  0  0  0
    4.6541    2.4762   25.1546 C   0  0  0  0  0  0  0  0  0  0  0  0
    5.3278    1.2339   17.6066 C   0  0  0  0  0  0  0  0  0  0  0  0
    6.8438   -0.2892   18.3752 C   0  0  0  0  0  0  0  0  0  0  0  0
    4.8226    1.4906   18.9054 C   0  0  0  0  0  0  0  0  0  0  0  0
    5.3982    0.7733   19.9948 C   0  0  0  0  0  0  0  0  0  0  0  0
   10.7040   -0.0625   23.9898 C   0  0  0  0  0  0  0  0  0  0  0  0
   10.1406   -0.7765   22.9250 C   0  0  0  0  0  0  0  0  0  0  0  0
    6.4440   -0.1472   19.6979 C   0  0  0  0  0  0  0  0  0  0  0  0
   12.3683   -1.3298   22.2234 C   0  0  0  0  0  0  0  0  0  0  0  0
    6.7675    2.5154   24.5487 C   0  0  0  0  0  0  0  0  0  0  0  0
    9.9479    0.5589   24.9534 C   0  0  0  0  0  0  0  0  0  0  0  0
    8.2490    0.0169   21.4271 C   0  0  0  0  0  0  0  0  0  0  0  0
    8.2132    2.2830   24.3536 C   0  0  0  0  0  0  0  0  0  0  0  0
    8.0140   -2.1541   22.4331 C   0  0  0  0  0  0  0  0  0  0  0  0
    6.9866   -1.9366   21.3580 C   0  0  0  0  0  0  0  0  0  0  0  0
    7.8721   -0.1194   23.8831 C   0  0  0  0  0  0  0  0  0  0  0  0
    8.6238   -0.7606   22.6929 C   0  0  3  0  0  0  0  0  0  0  0  0
    6.5059    4.4603   22.9796 C   0  0  0  0  0  0  0  0  0  0  0  0
    6.3062    0.3769   17.3421 N   0  0  0  0  0  0  0  0  0  0  0  0
    4.7334    3.4846   24.2823 N   0  0  0  0  0  0  0  0  0  0  0  0
    6.0308    3.4834   23.9319 N   0  0  0  0  0  0  0  0  0  0  0  0
    7.2292   -0.6897   20.7790 N   0  0  0  0  0  0  0  0  0  0  0  0
    8.6609    1.0133   24.4995 N   0  0  0  0  0  0  0  0  0  0  0  0
   10.3406    0.7272   26.1050 O   0  0  0  0  0  0  0  0  0  0  0  0
    8.8299    1.0400   21.0816 O   0  0  0  0  0  0  0  0  0  0  0  0
    8.9094    3.2602   24.0809 O   0  0  0  0  0  0  0  0  0  0  0  0
   13.4275   -2.1447   21.1120 Cl  0  0  0  0  0  0  0  0  0  0  0  0
    2.5432    3.3510   20.6369 H   0  0  0  0  0  0  0  0  0  0  0  0
    3.5174    2.1137   22.5168 H   0  0  0  0  0  0  0  0  0  0  0  0
    3.3409    2.9743   18.3364 H   0  0  0  0  0  0  0  0  0  0  0  0
    5.3118    0.4895   22.1572 H   0  0  0  0  0  0  0  0  0  0  0  0
   12.5196    0.5926   24.9721 H   0  0  0  0  0  0  0  0  0  0  0  0
   13.9906   -0.5234   23.3831 H   0  0  0  0  0  0  0  0  0  0  0  0
    6.1108    0.9997   26.0071 H   0  0  0  0  0  0  0  0  0  0  0  0
   10.6132   -2.0228   21.2258 H   0  0  0  0  0  0  0  0  0  0  0  0
    3.6982    2.2503   25.6049 H   0  0  0  0  0  0  0  0  0  0  0  0
    4.9141    1.7511   16.7474 H   0  0  0  0  0  0  0  0  0  0  0  0
    7.6445   -0.9764   18.1043 H   0  0  0  0  0  0  0  0  0  0  0  0
    7.5108   -2.5264   23.3392 H   0  0  0  0  0  0  0  0  0  0  0  0
    8.7580   -2.9097   22.1437 H   0  0  0  0  0  0  0  0  0  0  0  0
    7.0587   -2.7257   20.5726 H   0  0  0  0  0  0  0  0  0  0  0  0
    5.9514   -1.9959   21.7712 H   0  0  0  0  0  0  0  0  0  0  0  0
    6.9255    0.3239   23.5579 H   0  0  0  0  0  0  0  0  0  0  0  0
    7.6320   -0.8680   24.6388 H   0  0  0  0  0  0  0  0  0  0  0  0
    6.4062    4.0320   21.9788 H   0  0  0  0  0  0  0  0  0  0  0  0
    5.9097    5.3729   23.0660 H   0  0  0  0  0  0  0  0  0  0  0  0
    7.5524    4.6946   23.1938 H   0  0  0  0  0  0  0  0  0  0  0  0
  1  2  1  0  0  0  0
  1  3  2  0  0  0  0
  2  4  2  0  0  0  0
  3 12  1  0  0  0  0
  4 13  1  0  0  0  0
  5  6  2  0  0  0  0
  5 14  1  0  0  0  0
  6 17  1  0  0  0  0
  7  9  1  0  0  0  0
  7 18  2  0  0  0  0
  8 15  1  0  0  0  0
  8 17  2  0  0  0  0
  9 28  2  0  0  0  0
 10 12  2  0  0  0  0
 10 27  1  0  0  0  0
 11 16  1  0  0  0  0
 11 27  2  0  0  0  0
 12 13  1  0  0  0  0
 13 16  2  0  0  0  0
 14 15  2  0  0  0  0
 14 19  1  0  0  0  0
 15 25  1  0  0  0  0
 16 30  1  0  0  0  0
 17 35  1  0  0  0  0
 18 21  1  0  0  0  0
 18 29  1  0  0  0  0
 19 31  1  0  0  0  0
 19 32  2  0  0  0  0
 20 25  1  0  0  0  0
 20 30  1  0  0  0  0
 20 33  2  0  0  0  0
 21 31  1  0  0  0  0
 21 34  2  0  0  0  0
 22 23  1  0  0  0  0
 22 25  1  0  0  0  0
 23 30  1  0  0  0  0
 24 25  1  0  0  0  0
 24 31  1  0  0  0  0
 26 29  1  0  0  0  0
 28 29  1  0  0  0  0
  1 36  1  0  0  0  0
  2 37  1  0  0  0  0
  3 38  1  0  0  0  0
  4 39  1  0  0  0  0
  5 40  1  0  0  0  0
  6 41  1  0  0  0  0
  7 42  1  0  0  0  0
  8 43  1  0  0  0  0
  9 44  1  0  0  0  0
 10 45  1  0  0  0  0
 11 46  1  0  0  0  0
 22 47  1  0  0  0  0
 22 48  1  0  0  0  0
 23 49  1  0  0  0  0
 23 50  1  0  0  0  0
 24 51  1  0  0  0  0
 24 52  1  0  0  0  0
 26 53  1  0  0  0  0
 26 54  1  0  0  0  0
 26 55  1  0  0  0  0
M  END
> <compound>
EDJ-MED-cc48ee33-2

> <compound_smiles>
Cn1c(ccn1)C(=O)N2CC3(CCN(C3=O)c4cncc5c4cccc5)c6cc(ccc6C2=O)Cl

> <enantiomer_smiles>
Cn1c(ccn1)C(=O)N2CC3(CCN(C3=O)c4cncc5c4cccc5)c6cc(ccc6C2=O)Cl

> <scaffold>
tetrahydroisoquinoline-5spiro-isoquinoline

> <clash_score>
0

> <docking_score>
-7.912055969238281

> <overlap_score>
0.9856399297714233

> <MMFF_internal_energy>
126.72172709963439

> <docked_smiles>
Cn1c(ccn1)C(=O)N2C[C@]3(CCN(C3=O)c4cncc5c4cccc5)c6cc(ccc6C2=O)Cl

$$$$
EDJ-MED-cc48ee33-4_1
  -OEChem-12272114573D

 59 64  0     1  0  0  0  0  0999 V2000
    3.3432    2.6279   20.4411 C   0  0  0  0  0  0  0  0  0  0  0  0
    3.8960    1.9291   21.5050 C   0  0  0  0  0  0  0  0  0  0  0  0
    3.7865    2.4205   19.1660 C   0  0  0  0  0  0  0  0  0  0  0  0
    4.8973    1.0233   21.2988 C   0  0  0  0  0  0  0  0  0  0  0  0
   12.0765    0.0316   24.1541 C   0  0  0  0  0  0  0  0  0  0  0  0
   12.9132   -0.6032   23.2569 C   0  0  0  0  0  0  0  0  0  0  0  0
   10.9991   -1.4331   22.0443 C   0  0  0  0  0  0  0  0  0  0  0  0
    5.3278    1.2339   17.6066 C   0  0  0  0  0  0  0  0  0  0  0  0
    4.7037    2.7023   25.4354 C   0  0  0  0  0  0  0  0  0  0  0  0
    6.8438   -0.2892   18.3752 C   0  0  0  0  0  0  0  0  0  0  0  0
    4.8226    1.4906   18.9054 C   0  0  0  0  0  0  0  0  0  0  0  0
    5.3982    0.7733   19.9948 C   0  0  0  0  0  0  0  0  0  0  0  0
   10.7040   -0.0625   23.9898 C   0  0  0  0  0  0  0  0  0  0  0  0
   10.1406   -0.7765   22.9250 C   0  0  0  0  0  0  0  0  0  0  0  0
    5.9509    2.1489   25.7817 C   0  0  0  0  0  0  0  0  0  0  0  0
    6.4440   -0.1472   19.6979 C   0  0  0  0  0  0  0  0  0  0  0  0
   12.3683   -1.3298   22.2234 C   0  0  0  0  0  0  0  0  0  0  0  0
    6.8028    2.5764   24.7927 C   0  0  0  0  0  0  0  0  0  0  0  0
    8.2490    0.0169   21.4271 C   0  0  0  0  0  0  0  0  0  0  0  0
    8.2375    2.3090   24.6292 C   0  0  0  0  0  0  0  0  0  0  0  0
    9.9479    0.5589   24.9534 C   0  0  0  0  0  0  0  0  0  0  0  0
    8.0140   -2.1541   22.4331 C   0  0  0  0  0  0  0  0  0  0  0  0
    6.9866   -1.9366   21.3580 C   0  0  0  0  0  0  0  0  0  0  0  0
    7.8721   -0.1194   23.8831 C   0  0  0  0  0  0  0  0  0  0  0  0
    8.6238   -0.7606   22.6929 C   0  0  3  0  0  0  0  0  0  0  0  0
    6.2616    1.3021   26.9461 C   0  0  0  0  0  0  0  0  0  0  0  0
    6.4881    4.0034   22.7484 C   0  0  0  0  0  0  0  0  0  0  0  0
    6.3062    0.3769   17.3421 N   0  0  0  0  0  0  0  0  0  0  0  0
    4.7543    3.4263   24.3141 N   0  0  0  0  0  0  0  0  0  0  0  0
    6.0436    3.3308   23.9473 N   0  0  0  0  0  0  0  0  0  0  0  0
    7.2292   -0.6897   20.7790 N   0  0  0  0  0  0  0  0  0  0  0  0
    8.6609    1.0133   24.4995 N   0  0  0  0  0  0  0  0  0  0  0  0
    8.8277    1.0425   21.0805 O   0  0  0  0  0  0  0  0  0  0  0  0
    8.9768    3.2919   24.6275 O   0  0  0  0  0  0  0  0  0  0  0  0
   13.4283   -2.1471   21.1145 Cl  0  0  0  0  0  0  0  0  0  0  0  0
    2.5432    3.3510   20.6369 H   0  0  0  0  0  0  0  0  0  0  0  0
    3.5174    2.1137   22.5168 H   0  0  0  0  0  0  0  0  0  0  0  0
    3.3409    2.9743   18.3364 H   0  0  0  0  0  0  0  0  0  0  0  0
    5.3118    0.4895   22.1572 H   0  0  0  0  0  0  0  0  0  0  0  0
   12.5034    0.5864   24.9813 H   0  0  0  0  0  0  0  0  0  0  0  0
   13.9913   -0.5293   23.3874 H   0  0  0  0  0  0  0  0  0  0  0  0
   10.6139   -2.0336   21.2353 H   0  0  0  0  0  0  0  0  0  0  0  0
    4.9141    1.7511   16.7474 H   0  0  0  0  0  0  0  0  0  0  0  0
    3.7587    2.6099   25.9517 H   0  0  0  0  0  0  0  0  0  0  0  0
    7.6445   -0.9764   18.1043 H   0  0  0  0  0  0  0  0  0  0  0  0
    9.7841   -0.0930   25.8515 H   0  0  0  0  0  0  0  0  0  0  0  0
   10.4579    1.4725   25.3586 H   0  0  0  0  0  0  0  0  0  0  0  0
    7.5120   -2.5701   23.3194 H   0  0  0  0  0  0  0  0  0  0  0  0
    8.7722   -2.8982   22.1400 H   0  0  0  0  0  0  0  0  0  0  0  0
    7.0511   -2.7253   20.5708 H   0  0  0  0  0  0  0  0  0  0  0  0
    5.9515   -1.9941   21.7738 H   0  0  0  0  0  0  0  0  0  0  0  0
    6.9258    0.3344   23.5581 H   0  0  0  0  0  0  0  0  0  0  0  0
    7.6176   -0.8486   24.6565 H   0  0  0  0  0  0  0  0  0  0  0  0
    6.1269    0.2325   26.7108 H   0  0  0  0  0  0  0  0  0  0  0  0
    7.3010    1.4375   27.2946 H   0  0  0  0  0  0  0  0  0  0  0  0
    5.6194    1.5351   27.8142 H   0  0  0  0  0  0  0  0  0  0  0  0
    6.3701    3.3116   21.9102 H   0  0  0  0  0  0  0  0  0  0  0  0
    5.8853    4.9020   22.5902 H   0  0  0  0  0  0  0  0  0  0  0  0
    7.5368    4.2913   22.8632 H   0  0  0  0  0  0  0  0  0  0  0  0
  1  2  1  0  0  0  0
  1  3  2  0  0  0  0
  2  4  2  0  0  0  0
  3 11  1  0  0  0  0
  4 12  1  0  0  0  0
  5  6  2  0  0  0  0
  5 13  1  0  0  0  0
  6 17  1  0  0  0  0
  7 14  1  0  0  0  0
  7 17  2  0  0  0  0
  8 11  2  0  0  0  0
  8 28  1  0  0  0  0
  9 15  1  0  0  0  0
  9 29  2  0  0  0  0
 10 16  1  0  0  0  0
 10 28  2  0  0  0  0
 11 12  1  0  0  0  0
 12 16  2  0  0  0  0
 13 14  2  0  0  0  0
 13 21  1  0  0  0  0
 14 25  1  0  0  0  0
 15 18  2  0  0  0  0
 15 26  1  0  0  0  0
 16 31  1  0  0  0  0
 17 35  1  0  0  0  0
 18 20  1  0  0  0  0
 18 30  1  0  0  0  0
 19 25  1  0  0  0  0
 19 31  1  0  0  0  0
 19 33  2  0  0  0  0
 20 32  1  0  0  0  0
 20 34  2  0  0  0  0
 21 32  1  0  0  0  0
 22 23  1  0  0  0  0
 22 25  1  0  0  0  0
 23 31  1  0  0  0  0
 24 25  1  0  0  0  0
 24 32  1  0  0  0  0
 27 30  1  0  0  0  0
 29 30  1  0  0  0  0
  1 36  1  0  0  0  0
  2 37  1  0  0  0  0
  3 38  1  0  0  0  0
  4 39  1  0  0  0  0
  5 40  1  0  0  0  0
  6 41  1  0  0  0  0
  7 42  1  0  0  0  0
  8 43  1  0  0  0  0
  9 44  1  0  0  0  0
 10 45  1  0  0  0  0
 21 46  1  0  0  0  0
 21 47  1  0  0  0  0
 22 48  1  0  0  0  0
 22 49  1  0  0  0  0
 23 50  1  0  0  0  0
 23 51  1  0  0  0  0
 24 52  1  0  0  0  0
 24 53  1  0  0  0  0
 26 54  1  0  0  0  0
 26 55  1  0  0  0  0
 26 56  1  0  0  0  0
 27 57  1  0  0  0  0
 27 58  1  0  0  0  0
 27 59  1  0  0  0  0
M  END
> <compound>
EDJ-MED-cc48ee33-4

> <compound_smiles>
Cc1cnn(c1C(=O)N2Cc3ccc(cc3C4(C2)CCN(C4=O)c5cncc6c5cccc6)Cl)C

> <enantiomer_smiles>
Cc1cnn(c1C(=O)N2Cc3ccc(cc3C4(C2)CCN(C4=O)c5cncc6c5cccc6)Cl)C

> <scaffold>
tetrahydroisoquinoline-5spiro-isoquinoline

> <clash_score>
0

> <docking_score>
-7.996363162994385

> <overlap_score>
0.9727839231491089

> <MMFF_internal_energy>
126.52157709324823

> <docked_smiles>
Cc1cnn(c1C(=O)N2Cc3ccc(cc3[C@]4(C2)CCN(C4=O)c5cncc6c5cccc6)Cl)C

$$$$
EDJ-MED-976a33d5-3_1
  -OEChem-12272114573D

 58 63  0     1  0  0  0  0  0999 V2000
    3.3432    2.6279   20.4411 C   0  0  0  0  0  0  0  0  0  0  0  0
    3.8960    1.9291   21.5050 C   0  0  0  0  0  0  0  0  0  0  0  0
    3.7865    2.4205   19.1660 C   0  0  0  0  0  0  0  0  0  0  0  0
    4.8973    1.0233   21.2988 C   0  0  0  0  0  0  0  0  0  0  0  0
   12.0765    0.0316   24.1541 C   0  0  0  0  0  0  0  0  0  0  0  0
   12.9132   -0.6032   23.2569 C   0  0  0  0  0  0  0  0  0  0  0  0
   10.9991   -1.4331   22.0443 C   0  0  0  0  0  0  0  0  0  0  0  0
    5.3278    1.2339   17.6066 C   0  0  0  0  0  0  0  0  0  0  0  0
    6.8438   -0.2892   18.3752 C   0  0  0  0  0  0  0  0  0  0  0  0
    4.8226    1.4906   18.9054 C   0  0  0  0  0  0  0  0  0  0  0  0
    5.3982    0.7733   19.9948 C   0  0  0  0  0  0  0  0  0  0  0  0
   10.1406   -0.7765   22.9250 C   0  0  0  0  0  0  0  0  0  0  0  0
    6.4440   -0.1472   19.6979 C   0  0  0  0  0  0  0  0  0  0  0  0
   10.7040   -0.0625   23.9898 C   0  0  0  0  0  0  0  0  0  0  0  0
   12.3683   -1.3298   22.2234 C   0  0  0  0  0  0  0  0  0  0  0  0
    8.2490    0.0169   21.4271 C   0  0  0  0  0  0  0  0  0  0  0  0
    7.5011    3.1009   24.8502 C   0  0  0  0  0  0  0  0  0  0  0  0
    7.9707    1.6686   26.9251 C   0  0  0  0  0  0  0  0  0  0  0  0
    6.7082    1.1424   26.3072 C   0  0  0  0  0  0  0  0  0  0  0  0
    8.0140   -2.1541   22.4331 C   0  0  0  0  0  0  0  0  0  0  0  0
    6.9866   -1.9366   21.3580 C   0  0  0  0  0  0  0  0  0  0  0  0
    7.8721   -0.1194   23.8831 C   0  0  0  0  0  0  0  0  0  0  0  0
    8.6238   -0.7606   22.6929 C   0  0  3  0  0  0  0  0  0  0  0  0
    7.7588    1.7817   25.4381 C   0  0  0  0  0  0  0  0  0  0  0  0
    8.4681    5.3731   24.5598 C   0  0  0  0  0  0  0  0  0  0  0  0
    6.3062    0.3769   17.3421 N   0  0  0  0  0  0  0  0  0  0  0  0
    7.2292   -0.6897   20.7790 N   0  0  0  0  0  0  0  0  0  0  0  0
    8.6609    1.0133   24.4995 N   0  0  2  0  0  0  0  0  0  0  0  0
    8.5158    4.0161   25.0551 N   0  0  0  0  0  0  0  0  0  0  0  0
    8.8292    1.0394   21.0791 O   0  0  0  0  0  0  0  0  0  0  0  0
    6.4549    3.2979   24.2432 O   0  0  0  0  0  0  0  0  0  0  0  0
    9.7416   -0.4389   26.1494 O   0  0  0  0  0  0  0  0  0  0  0  0
   10.7245    1.8049   25.5152 O   0  0  0  0  0  0  0  0  0  0  0  0
    9.9479    0.5589   24.9534 S   0  0  0  0  0  0  0  0  0  0  0  0
   13.4286   -2.1371   21.1070 Cl  0  0  0  0  0  0  0  0  0  0  0  0
    2.5432    3.3510   20.6369 H   0  0  0  0  0  0  0  0  0  0  0  0
    3.5174    2.1137   22.5168 H   0  0  0  0  0  0  0  0  0  0  0  0
    3.3409    2.9743   18.3364 H   0  0  0  0  0  0  0  0  0  0  0  0
    5.3118    0.4895   22.1572 H   0  0  0  0  0  0  0  0  0  0  0  0
   12.5116    0.5931   24.9783 H   0  0  0  0  0  0  0  0  0  0  0  0
   13.9913   -0.5166   23.3791 H   0  0  0  0  0  0  0  0  0  0  0  0
   10.6097   -2.0123   21.2230 H   0  0  0  0  0  0  0  0  0  0  0  0
    4.9141    1.7511   16.7474 H   0  0  0  0  0  0  0  0  0  0  0  0
    7.6445   -0.9764   18.1043 H   0  0  0  0  0  0  0  0  0  0  0  0
    7.8985    2.5652   27.5292 H   0  0  0  0  0  0  0  0  0  0  0  0
    8.6910    0.9455   27.2888 H   0  0  0  0  0  0  0  0  0  0  0  0
    6.5844    0.0672   26.2564 H   0  0  0  0  0  0  0  0  0  0  0  0
    5.7909    1.6867   26.4973 H   0  0  0  0  0  0  0  0  0  0  0  0
    7.5138   -2.5505   23.3304 H   0  0  0  0  0  0  0  0  0  0  0  0
    8.7636   -2.9034   22.1419 H   0  0  0  0  0  0  0  0  0  0  0  0
    7.0580   -2.7253   20.5725 H   0  0  0  0  0  0  0  0  0  0  0  0
    5.9516   -1.9955   21.7712 H   0  0  0  0  0  0  0  0  0  0  0  0
    6.8810    0.2599   23.5679 H   0  0  0  0  0  0  0  0  0  0  0  0
    7.6486   -0.8649   24.6723 H   0  0  0  0  0  0  0  0  0  0  0  0
    8.9095    5.4122   23.5530 H   0  0  0  0  0  0  0  0  0  0  0  0
    7.4220    5.7103   24.5147 H   0  0  0  0  0  0  0  0  0  0  0  0
    9.0363    6.0299   25.2349 H   0  0  0  0  0  0  0  0  0  0  0  0
    9.3344    3.7212   25.5789 H   0  0  0  0  0  0  0  0  0  0  0  0
  1  2  1  0  0  0  0
  1  3  2  0  0  0  0
  2  4  2  0  0  0  0
  3 10  1  0  0  0  0
  4 11  1  0  0  0  0
  5  6  2  0  0  0  0
  5 14  1  0  0  0  0
  6 15  1  0  0  0  0
  7 12  1  0  0  0  0
  7 15  2  0  0  0  0
  8 10  2  0  0  0  0
  8 26  1  0  0  0  0
  9 13  1  0  0  0  0
  9 26  2  0  0  0  0
 10 11  1  0  0  0  0
 11 13  2  0  0  0  0
 12 14  2  0  0  0  0
 12 23  1  0  0  0  0
 13 27  1  0  0  0  0
 14 34  1  0  0  0  0
 15 35  1  0  0  0  0
 16 23  1  0  0  0  0
 16 27  1  0  0  0  0
 16 30  2  0  0  0  0
 17 24  1  0  0  0  0
 17 29  1  0  0  0  0
 17 31  2  0  0  0  0
 18 19  1  0  0  0  0
 18 24  1  0  0  0  0
 19 24  1  0  0  0  0
 20 21  1  0  0  0  0
 20 23  1  0  0  0  0
 21 27  1  0  0  0  0
 22 23  1  0  0  0  0
 22 28  1  0  0  0  0
 24 28  1  1  0  0  0
 25 29  1  0  0  0  0
 28 34  1  0  0  0  0
 32 34  2  0  0  0  0
 33 34  2  0  0  0  0
  1 36  1  0  0  0  0
  2 37  1  0  0  0  0
  3 38  1  0  0  0  0
  4 39  1  0  0  0  0
  5 40  1  0  0  0  0
  6 41  1  0  0  0  0
  7 42  1  0  0  0  0
  8 43  1  0  0  0  0
  9 44  1  0  0  0  0
 18 45  1  0  0  0  0
 18 46  1  0  0  0  0
 19 47  1  0  0  0  0
 19 48  1  0  0  0  0
 20 49  1  0  0  0  0
 20 50  1  0  0  0  0
 21 51  1  0  0  0  0
 21 52  1  0  0  0  0
 22 53  1  0  0  0  0
 22 54  1  0  0  0  0
 25 55  1  0  0  0  0
 25 56  1  0  0  0  0
 25 57  1  0  0  0  0
 29 58  1  0  0  0  0
M  END
> <compound>
EDJ-MED-976a33d5-3

> <compound_smiles>
CNC(=O)C1(CC1)N2CC3(CCN(C3=O)c4cncc5c4cccc5)c6cc(ccc6S2(=O)=O)Cl

> <enantiomer_smiles>
CNC(=O)C1(CC1)[N@@]2CC3(CCN(C3=O)c4cncc5c4cccc5)c6cc(ccc6S2(=O)=O)Cl

> <scaffold>
tetralinlike-5spiro-isoquinoline

> <clash_score>
0.7228023768194397

> <docking_score>
-9.135791778564453

> <overlap_score>
1.0

> <MMFF_internal_energy>
249.68154264359546

> <docked_smiles>
CNC(=O)C1(CC1)[N@@]2C[C@]3(CCN(C3=O)c4cncc5c4cccc5)c6cc(ccc6S2(=O)=O)Cl

$$$$
EDJ-MED-98c0a822-3_1
  -OEChem-12272114573D

 60 65  0     1  0  0  0  0  0999 V2000
    3.3432    2.6279   20.4411 C   0  0  0  0  0  0  0  0  0  0  0  0
    3.8960    1.9291   21.5050 C   0  0  0  0  0  0  0  0  0  0  0  0
    3.7865    2.4205   19.1660 C   0  0  0  0  0  0  0  0  0  0  0  0
    4.8973    1.0233   21.2988 C   0  0  0  0  0  0  0  0  0  0  0  0
   12.0765    0.0316   24.1541 C   0  0  0  0  0  0  0  0  0  0  0  0
   12.9132   -0.6032   23.2569 C   0  0  0  0  0  0  0  0  0  0  0  0
   10.9991   -1.4331   22.0443 C   0  0  0  0  0  0  0  0  0  0  0  0
    5.3278    1.2339   17.6066 C   0  0  0  0  0  0  0  0  0  0  0  0
    6.8438   -0.2892   18.3752 C   0  0  0  0  0  0  0  0  0  0  0  0
    4.8226    1.4906   18.9054 C   0  0  0  0  0  0  0  0  0  0  0  0
    5.3982    0.7733   19.9948 C   0  0  0  0  0  0  0  0  0  0  0  0
   10.7040   -0.0625   23.9898 C   0  0  0  0  0  0  0  0  0  0  0  0
   10.1406   -0.7765   22.9250 C   0  0  0  0  0  0  0  0  0  0  0  0
    6.4440   -0.1472   19.6979 C   0  0  0  0  0  0  0  0  0  0  0  0
   12.3683   -1.3298   22.2234 C   0  0  0  0  0  0  0  0  0  0  0  0
    9.9479    0.5589   24.9534 C   0  0  0  0  0  0  0  0  0  0  0  0
    8.2490    0.0169   21.4271 C   0  0  0  0  0  0  0  0  0  0  0  0
    8.4797    3.2799   23.6719 C   0  0  0  0  0  0  0  0  0  0  0  0
    6.9872    2.0276   26.6007 C   0  0  0  0  0  0  0  0  0  0  0  0
    8.3246    2.6967   26.2383 C   0  0  0  0  0  0  0  0  0  0  0  0
    6.5857    2.1552   25.1207 C   0  0  0  0  0  0  0  0  0  0  0  0
    8.0140   -2.1541   22.4331 C   0  0  0  0  0  0  0  0  0  0  0  0
    6.9866   -1.9366   21.3580 C   0  0  0  0  0  0  0  0  0  0  0  0
    7.8721   -0.1194   23.8831 C   0  0  0  0  0  0  0  0  0  0  0  0
    8.6238   -0.7606   22.6929 C   0  0  3  0  0  0  0  0  0  0  0  0
    8.0994    2.2536   24.7605 C   0  0  0  0  0  0  0  0  0  0  0  0
   10.0278    5.1574   23.1613 C   0  0  0  0  0  0  0  0  0  0  0  0
    6.3062    0.3769   17.3421 N   0  0  0  0  0  0  0  0  0  0  0  0
    7.2292   -0.6897   20.7790 N   0  0  0  0  0  0  0  0  0  0  0  0
    8.6609    1.0133   24.4995 N   0  0  0  0  0  0  0  0  0  0  0  0
    9.5128    4.1244   24.0311 N   0  0  0  0  0  0  0  0  0  0  0  0
   10.3170    0.7381   26.1104 O   0  0  0  0  0  0  0  0  0  0  0  0
    8.7585    1.0935   21.1351 O   0  0  0  0  0  0  0  0  0  0  0  0
    7.8739    3.2833   22.6067 O   0  0  0  0  0  0  0  0  0  0  0  0
   13.4274   -2.1385   21.1076 Cl  0  0  0  0  0  0  0  0  0  0  0  0
    2.5432    3.3510   20.6369 H   0  0  0  0  0  0  0  0  0  0  0  0
    3.5174    2.1137   22.5168 H   0  0  0  0  0  0  0  0  0  0  0  0
    3.3409    2.9743   18.3364 H   0  0  0  0  0  0  0  0  0  0  0  0
    5.3118    0.4895   22.1572 H   0  0  0  0  0  0  0  0  0  0  0  0
   12.5170    0.5929   24.9745 H   0  0  0  0  0  0  0  0  0  0  0  0
   13.9905   -0.5171   23.3789 H   0  0  0  0  0  0  0  0  0  0  0  0
   10.6128   -2.0189   21.2227 H   0  0  0  0  0  0  0  0  0  0  0  0
    4.9141    1.7511   16.7474 H   0  0  0  0  0  0  0  0  0  0  0  0
    7.6445   -0.9764   18.1043 H   0  0  0  0  0  0  0  0  0  0  0  0
    7.0909    0.9912   26.9416 H   0  0  0  0  0  0  0  0  0  0  0  0
    6.3609    2.5733   27.3109 H   0  0  0  0  0  0  0  0  0  0  0  0
    8.3231    3.7840   26.3822 H   0  0  0  0  0  0  0  0  0  0  0  0
    9.2026    2.2838   26.7441 H   0  0  0  0  0  0  0  0  0  0  0  0
    6.0407    1.2991   24.7118 H   0  0  0  0  0  0  0  0  0  0  0  0
    6.0152    3.0654   24.8990 H   0  0  0  0  0  0  0  0  0  0  0  0
    7.5779   -2.6164   23.3303 H   0  0  0  0  0  0  0  0  0  0  0  0
    8.7848   -2.8454   22.0572 H   0  0  0  0  0  0  0  0  0  0  0  0
    7.0221   -2.7508   20.5951 H   0  0  0  0  0  0  0  0  0  0  0  0
    5.9555   -1.9472   21.7844 H   0  0  0  0  0  0  0  0  0  0  0  0
    6.8967    0.2627   23.5800 H   0  0  0  0  0  0  0  0  0  0  0  0
    7.7130   -0.8392   24.6901 H   0  0  0  0  0  0  0  0  0  0  0  0
   10.8443    4.7479   22.5483 H   0  0  0  0  0  0  0  0  0  0  0  0
    9.2226    5.5191   22.5049 H   0  0  0  0  0  0  0  0  0  0  0  0
   10.4085    5.9919   23.7686 H   0  0  0  0  0  0  0  0  0  0  0  0
    9.9301    4.0140   24.9504 H   0  0  0  0  0  0  0  0  0  0  0  0
  1  2  1  0  0  0  0
  1  3  2  0  0  0  0
  2  4  2  0  0  0  0
  3 10  1  0  0  0  0
  4 11  1  0  0  0  0
  5  6  2  0  0  0  0
  5 12  1  0  0  0  0
  6 15  1  0  0  0  0
  7 13  1  0  0  0  0
  7 15  2  0  0  0  0
  8 10  2  0  0  0  0
  8 28  1  0  0  0  0
  9 14  1  0  0  0  0
  9 28  2  0  0  0  0
 10 11  1  0  0  0  0
 11 14  2  0  0  0  0
 12 13  2  0  0  0  0
 12 16  1  0  0  0  0
 13 25  1  0  0  0  0
 14 29  1  0  0  0  0
 15 35  1  0  0  0  0
 16 30  1  0  0  0  0
 16 32  2  0  0  0  0
 17 25  1  0  0  0  0
 17 29  1  0  0  0  0
 17 33  2  0  0  0  0
 18 26  1  0  0  0  0
 18 31  1  0  0  0  0
 18 34  2  0  0  0  0
 19 20  1  0  0  0  0
 19 21  1  0  0  0  0
 20 26  1  0  0  0  0
 21 26  1  0  0  0  0
 22 23  1  0  0  0  0
 22 25  1  0  0  0  0
 23 29  1  0  0  0  0
 24 25  1  0  0  0  0
 24 30  1  0  0  0  0
 26 30  1  0  0  0  0
 27 31  1  0  0  0  0
  1 36  1  0  0  0  0
  2 37  1  0  0  0  0
  3 38  1  0  0  0  0
  4 39  1  0  0  0  0
  5 40  1  0  0  0  0
  6 41  1  0  0  0  0
  7 42  1  0  0  0  0
  8 43  1  0  0  0  0
  9 44  1  0  0  0  0
 19 45  1  0  0  0  0
 19 46  1  0  0  0  0
 20 47  1  0  0  0  0
 20 48  1  0  0  0  0
 21 49  1  0  0  0  0
 21 50  1  0  0  0  0
 22 51  1  0  0  0  0
 22 52  1  0  0  0  0
 23 53  1  0  0  0  0
 23 54  1  0  0  0  0
 24 55  1  0  0  0  0
 24 56  1  0  0  0  0
 27 57  1  0  0  0  0
 27 58  1  0  0  0  0
 27 59  1  0  0  0  0
 31 60  1  0  0  0  0
M  END
> <compound>
EDJ-MED-98c0a822-3

> <compound_smiles>
CNC(=O)C1(CCC1)N2CC3(CCN(C3=O)c4cncc5c4cccc5)c6cc(ccc6C2=O)Cl

> <enantiomer_smiles>
CNC(=O)C1(CCC1)N2CC3(CCN(C3=O)c4cncc5c4cccc5)c6cc(ccc6C2=O)Cl

> <scaffold>
tetrahydroisoquinoline-5spiro-isoquinoline

> <clash_score>
0

> <docking_score>
-8.974992752075195

> <overlap_score>
0.9879977107048035

> <MMFF_internal_energy>
173.77255722886383

> <docked_smiles>
CNC(=O)C1(CCC1)N2C[C@]3(CCN(C3=O)c4cncc5c4cccc5)c6cc(ccc6C2=O)Cl

$$$$
EDJ-MED-98c0a822-4_1
  -OEChem-12272114573D

 58 63  0     1  0  0  0  0  0999 V2000
    3.3432    2.6279   20.4411 C   0  0  0  0  0  0  0  0  0  0  0  0
    3.8960    1.9291   21.5050 C   0  0  0  0  0  0  0  0  0  0  0  0
    3.7865    2.4205   19.1660 C   0  0  0  0  0  0  0  0  0  0  0  0
    4.8973    1.0233   21.2988 C   0  0  0  0  0  0  0  0  0  0  0  0
   12.0765    0.0316   24.1541 C   0  0  0  0  0  0  0  0  0  0  0  0
   12.9132   -0.6032   23.2569 C   0  0  0  0  0  0  0  0  0  0  0  0
   10.9991   -1.4331   22.0443 C   0  0  0  0  0  0  0  0  0  0  0  0
    5.3278    1.2339   17.6066 C   0  0  0  0  0  0  0  0  0  0  0  0
    6.8438   -0.2892   18.3752 C   0  0  0  0  0  0  0  0  0  0  0  0
    4.8226    1.4906   18.9054 C   0  0  0  0  0  0  0  0  0  0  0  0
    5.3982    0.7733   19.9948 C   0  0  0  0  0  0  0  0  0  0  0  0
   10.7040   -0.0625   23.9898 C   0  0  0  0  0  0  0  0  0  0  0  0
   10.1406   -0.7765   22.9250 C   0  0  0  0  0  0  0  0  0  0  0  0
    6.4440   -0.1472   19.6979 C   0  0  0  0  0  0  0  0  0  0  0  0
   12.3683   -1.3298   22.2234 C   0  0  0  0  0  0  0  0  0  0  0  0
    9.9479    0.5589   24.9534 C   0  0  0  0  0  0  0  0  0  0  0  0
    8.2490    0.0169   21.4271 C   0  0  0  0  0  0  0  0  0  0  0  0
    8.4655    3.3002   23.6838 C   0  0  0  0  0  0  0  0  0  0  0  0
    8.0140   -2.1541   22.4331 C   0  0  0  0  0  0  0  0  0  0  0  0
    6.9866   -1.9366   21.3580 C   0  0  0  0  0  0  0  0  0  0  0  0
    7.8721   -0.1194   23.8831 C   0  0  0  0  0  0  0  0  0  0  0  0
    8.2804    2.6884   26.2331 C   0  0  0  0  0  0  0  0  0  0  0  0
    6.6067    2.1623   25.1527 C   0  0  0  0  0  0  0  0  0  0  0  0
    8.6238   -0.7606   22.6929 C   0  0  3  0  0  0  0  0  0  0  0  0
    8.0938    2.2663   24.7631 C   0  0  0  0  0  0  0  0  0  0  0  0
   10.3473    4.6629   22.7981 C   0  0  0  0  0  0  0  0  0  0  0  0
    6.3062    0.3769   17.3421 N   0  0  0  0  0  0  0  0  0  0  0  0
    7.2292   -0.6897   20.7790 N   0  0  0  0  0  0  0  0  0  0  0  0
    8.6609    1.0133   24.4995 N   0  0  0  0  0  0  0  0  0  0  0  0
    9.7872    3.7019   23.7210 N   0  0  0  0  0  0  0  0  0  0  0  0
   10.3170    0.7381   26.1104 O   0  0  0  0  0  0  0  0  0  0  0  0
    8.7585    1.0935   21.1351 O   0  0  0  0  0  0  0  0  0  0  0  0
    7.6100    3.6845   22.8951 O   0  0  0  0  0  0  0  0  0  0  0  0
    6.9057    2.3759   26.5503 O   0  0  0  0  0  0  0  0  0  0  0  0
   13.4274   -2.1385   21.1076 Cl  0  0  0  0  0  0  0  0  0  0  0  0
    2.5432    3.3510   20.6369 H   0  0  0  0  0  0  0  0  0  0  0  0
    3.5174    2.1137   22.5168 H   0  0  0  0  0  0  0  0  0  0  0  0
    3.3409    2.9743   18.3364 H   0  0  0  0  0  0  0  0  0  0  0  0
    5.3118    0.4895   22.1572 H   0  0  0  0  0  0  0  0  0  0  0  0
   12.5170    0.5929   24.9745 H   0  0  0  0  0  0  0  0  0  0  0  0
   13.9905   -0.5171   23.3789 H   0  0  0  0  0  0  0  0  0  0  0  0
   10.6128   -2.0189   21.2227 H   0  0  0  0  0  0  0  0  0  0  0  0
    4.9141    1.7511   16.7474 H   0  0  0  0  0  0  0  0  0  0  0  0
    7.6445   -0.9764   18.1043 H   0  0  0  0  0  0  0  0  0  0  0  0
    7.5779   -2.6164   23.3303 H   0  0  0  0  0  0  0  0  0  0  0  0
    8.7848   -2.8454   22.0572 H   0  0  0  0  0  0  0  0  0  0  0  0
    7.0221   -2.7508   20.5951 H   0  0  0  0  0  0  0  0  0  0  0  0
    5.9555   -1.9472   21.7844 H   0  0  0  0  0  0  0  0  0  0  0  0
    6.8967    0.2627   23.5800 H   0  0  0  0  0  0  0  0  0  0  0  0
    7.7130   -0.8392   24.6901 H   0  0  0  0  0  0  0  0  0  0  0  0
    8.9766    2.0875   26.8265 H   0  0  0  0  0  0  0  0  0  0  0  0
    8.4920    3.7497   26.4006 H   0  0  0  0  0  0  0  0  0  0  0  0
    5.9562    2.9526   24.7636 H   0  0  0  0  0  0  0  0  0  0  0  0
    6.1280    1.1920   24.9876 H   0  0  0  0  0  0  0  0  0  0  0  0
   10.7416    4.1379   21.9156 H   0  0  0  0  0  0  0  0  0  0  0  0
    9.5646    5.3696   22.4849 H   0  0  0  0  0  0  0  0  0  0  0  0
   11.1620    5.2132   23.2916 H   0  0  0  0  0  0  0  0  0  0  0  0
   10.3940    3.3027   24.4308 H   0  0  0  0  0  0  0  0  0  0  0  0
  1  2  1  0  0  0  0
  1  3  2  0  0  0  0
  2  4  2  0  0  0  0
  3 10  1  0  0  0  0
  4 11  1  0  0  0  0
  5  6  2  0  0  0  0
  5 12  1  0  0  0  0
  6 15  1  0  0  0  0
  7 13  1  0  0  0  0
  7 15  2  0  0  0  0
  8 10  2  0  0  0  0
  8 27  1  0  0  0  0
  9 14  1  0  0  0  0
  9 27  2  0  0  0  0
 10 11  1  0  0  0  0
 11 14  2  0  0  0  0
 12 13  2  0  0  0  0
 12 16  1  0  0  0  0
 13 24  1  0  0  0  0
 14 28  1  0  0  0  0
 15 35  1  0  0  0  0
 16 29  1  0  0  0  0
 16 31  2  0  0  0  0
 17 24  1  0  0  0  0
 17 28  1  0  0  0  0
 17 32  2  0  0  0  0
 18 25  1  0  0  0  0
 18 30  1  0  0  0  0
 18 33  2  0  0  0  0
 19 20  1  0  0  0  0
 19 24  1  0  0  0  0
 20 28  1  0  0  0  0
 21 24  1  0  0  0  0
 21 29  1  0  0  0  0
 22 25  1  0  0  0  0
 22 34  1  0  0  0  0
 23 25  1  0  0  0  0
 23 34  1  0  0  0  0
 25 29  1  0  0  0  0
 26 30  1  0  0  0  0
  1 36  1  0  0  0  0
  2 37  1  0  0  0  0
  3 38  1  0  0  0  0
  4 39  1  0  0  0  0
  5 40  1  0  0  0  0
  6 41  1  0  0  0  0
  7 42  1  0  0  0  0
  8 43  1  0  0  0  0
  9 44  1  0  0  0  0
 19 45  1  0  0  0  0
 19 46  1  0  0  0  0
 20 47  1  0  0  0  0
 20 48  1  0  0  0  0
 21 49  1  0  0  0  0
 21 50  1  0  0  0  0
 22 51  1  0  0  0  0
 22 52  1  0  0  0  0
 23 53  1  0  0  0  0
 23 54  1  0  0  0  0
 26 55  1  0  0  0  0
 26 56  1  0  0  0  0
 26 57  1  0  0  0  0
 30 58  1  0  0  0  0
M  END
> <compound>
EDJ-MED-98c0a822-4

> <compound_smiles>
CNC(=O)C1(COC1)N2CC3(CCN(C3=O)c4cncc5c4cccc5)c6cc(ccc6C2=O)Cl

> <enantiomer_smiles>
CNC(=O)C1(COC1)N2CC3(CCN(C3=O)c4cncc5c4cccc5)c6cc(ccc6C2=O)Cl

> <scaffold>
tetrahydroisoquinoline-5spiro-isoquinoline

> <clash_score>
0

> <docking_score>
-8.695188522338867

> <overlap_score>
0.9870033264160156

> <MMFF_internal_energy>
167.28195608328414

> <docked_smiles>
CNC(=O)C1(COC1)N2C[C@]3(CCN(C3=O)c4cncc5c4cccc5)c6cc(ccc6C2=O)Cl

$$$$
PET-UNK-94036022-9_1
  -OEChem-12272114573D

 59 64  0     1  0  0  0  0  0999 V2000
   10.6438    6.1865   24.0328 C   0  0  0  0  0  0  0  0  0  0  0  0
    9.5881    5.6615   24.2579 C   0  0  0  0  0  0  0  0  0  0  0  0
    3.3432    2.6279   20.4411 C   0  0  0  0  0  0  0  0  0  0  0  0
    3.8960    1.9291   21.5050 C   0  0  0  0  0  0  0  0  0  0  0  0
    3.7865    2.4205   19.1660 C   0  0  0  0  0  0  0  0  0  0  0  0
    4.8973    1.0233   21.2988 C   0  0  0  0  0  0  0  0  0  0  0  0
   12.0765    0.0316   24.1541 C   0  0  0  0  0  0  0  0  0  0  0  0
   12.9132   -0.6032   23.2569 C   0  0  0  0  0  0  0  0  0  0  0  0
   10.9991   -1.4331   22.0443 C   0  0  0  0  0  0  0  0  0  0  0  0
    5.3278    1.2339   17.6066 C   0  0  0  0  0  0  0  0  0  0  0  0
    6.8438   -0.2892   18.3752 C   0  0  0  0  0  0  0  0  0  0  0  0
    4.8226    1.4906   18.9054 C   0  0  0  0  0  0  0  0  0  0  0  0
    5.3982    0.7733   19.9948 C   0  0  0  0  0  0  0  0  0  0  0  0
   10.7040   -0.0625   23.9898 C   0  0  0  0  0  0  0  0  0  0  0  0
   10.1406   -0.7765   22.9250 C   0  0  0  0  0  0  0  0  0  0  0  0
    6.4440   -0.1472   19.6979 C   0  0  0  0  0  0  0  0  0  0  0  0
   12.3683   -1.3298   22.2234 C   0  0  0  0  0  0  0  0  0  0  0  0
    8.2490    0.0169   21.4271 C   0  0  0  0  0  0  0  0  0  0  0  0
    9.9479    0.5589   24.9534 C   0  0  0  0  0  0  0  0  0  0  0  0
    7.2213    5.9018   25.0923 C   0  0  0  0  0  0  0  0  0  0  0  0
    7.1474    5.4411   23.6665 C   0  0  0  0  0  0  0  0  0  0  0  0
    8.0140   -2.1541   22.4331 C   0  0  0  0  0  0  0  0  0  0  0  0
    6.9866   -1.9366   21.3580 C   0  0  0  0  0  0  0  0  0  0  0  0
    7.8721   -0.1194   23.8831 C   0  0  0  0  0  0  0  0  0  0  0  0
    8.3214    5.0316   24.5273 C   0  0  0  0  0  0  0  0  0  0  0  0
    8.6238   -0.7606   22.6929 C   0  0  3  0  0  0  0  0  0  0  0  0
    8.3989    3.5932   24.9882 C   0  0  0  0  0  0  0  0  0  0  0  0
    6.3062    0.3769   17.3421 N   0  0  0  0  0  0  0  0  0  0  0  0
    7.2292   -0.6897   20.7790 N   0  0  0  0  0  0  0  0  0  0  0  0
    8.6609    1.0133   24.4995 N   0  0  2  0  0  0  0  0  0  0  0  0
    8.7572    1.0941   21.1350 O   0  0  0  0  0  0  0  0  0  0  0  0
    7.4179    2.5201   22.8172 O   0  0  0  0  0  0  0  0  0  0  0  0
    9.9251    2.7322   23.0499 O   0  0  0  0  0  0  0  0  0  0  0  0
    8.6198    2.4832   23.6217 S   0  0  0  0  0  0  0  0  0  0  0  0
   13.4275   -2.1421   21.1097 Cl  0  0  0  0  0  0  0  0  0  0  0  0
   11.5805    6.6524   23.8334 H   0  0  0  0  0  0  0  0  0  0  0  0
    2.5432    3.3510   20.6369 H   0  0  0  0  0  0  0  0  0  0  0  0
    3.5174    2.1137   22.5168 H   0  0  0  0  0  0  0  0  0  0  0  0
    3.3409    2.9743   18.3364 H   0  0  0  0  0  0  0  0  0  0  0  0
    5.3118    0.4895   22.1572 H   0  0  0  0  0  0  0  0  0  0  0  0
   12.5015    0.5938   24.9776 H   0  0  0  0  0  0  0  0  0  0  0  0
   13.9911   -0.5212   23.3814 H   0  0  0  0  0  0  0  0  0  0  0  0
   10.6037   -2.0228   21.2288 H   0  0  0  0  0  0  0  0  0  0  0  0
    4.9141    1.7511   16.7474 H   0  0  0  0  0  0  0  0  0  0  0  0
    7.6445   -0.9764   18.1043 H   0  0  0  0  0  0  0  0  0  0  0  0
    9.7581   -0.1287   25.8173 H   0  0  0  0  0  0  0  0  0  0  0  0
   10.4931    1.4391   25.3829 H   0  0  0  0  0  0  0  0  0  0  0  0
    7.4214    6.9523   25.2708 H   0  0  0  0  0  0  0  0  0  0  0  0
    6.5254    5.4641   25.7988 H   0  0  0  0  0  0  0  0  0  0  0  0
    6.4012    4.6953   23.4178 H   0  0  0  0  0  0  0  0  0  0  0  0
    7.2972    6.1838   22.8911 H   0  0  0  0  0  0  0  0  0  0  0  0
    7.5801   -2.6060   23.3366 H   0  0  0  0  0  0  0  0  0  0  0  0
    8.7749   -2.8608   22.0657 H   0  0  0  0  0  0  0  0  0  0  0  0
    7.0227   -2.7506   20.5953 H   0  0  0  0  0  0  0  0  0  0  0  0
    5.9554   -1.9484   21.7832 H   0  0  0  0  0  0  0  0  0  0  0  0
    6.8886    0.2769   23.5666 H   0  0  0  0  0  0  0  0  0  0  0  0
    7.6579   -0.8710   24.6633 H   0  0  0  0  0  0  0  0  0  0  0  0
    7.4792    3.2960   25.4995 H   0  0  0  0  0  0  0  0  0  0  0  0
    9.2447    3.4440   25.6648 H   0  0  0  0  0  0  0  0  0  0  0  0
  1  2  3  0  0  0  0
  2 25  1  0  0  0  0
  3  4  1  0  0  0  0
  3  5  2  0  0  0  0
  4  6  2  0  0  0  0
  5 12  1  0  0  0  0
  6 13  1  0  0  0  0
  7  8  2  0  0  0  0
  7 14  1  0  0  0  0
  8 17  1  0  0  0  0
  9 15  1  0  0  0  0
  9 17  2  0  0  0  0
 10 12  2  0  0  0  0
 10 28  1  0  0  0  0
 11 16  1  0  0  0  0
 11 28  2  0  0  0  0
 12 13  1  0  0  0  0
 13 16  2  0  0  0  0
 14 15  2  0  0  0  0
 14 19  1  0  0  0  0
 15 26  1  0  0  0  0
 16 29  1  0  0  0  0
 17 35  1  0  0  0  0
 18 26  1  0  0  0  0
 18 29  1  0  0  0  0
 18 31  2  0  0  0  0
 19 30  1  0  0  0  0
 20 21  1  0  0  0  0
 20 25  1  0  0  0  0
 21 25  1  0  0  0  0
 22 23  1  0  0  0  0
 22 26  1  0  0  0  0
 23 29  1  0  0  0  0
 24 26  1  0  0  0  0
 24 30  1  0  0  0  0
 25 27  1  0  0  0  0
 27 34  1  0  0  0  0
 30 34  1  1  0  0  0
 32 34  2  0  0  0  0
 33 34  2  0  0  0  0
  1 36  1  0  0  0  0
  3 37  1  0  0  0  0
  4 38  1  0  0  0  0
  5 39  1  0  0  0  0
  6 40  1  0  0  0  0
  7 41  1  0  0  0  0
  8 42  1  0  0  0  0
  9 43  1  0  0  0  0
 10 44  1  0  0  0  0
 11 45  1  0  0  0  0
 19 46  1  0  0  0  0
 19 47  1  0  0  0  0
 20 48  1  0  0  0  0
 20 49  1  0  0  0  0
 21 50  1  0  0  0  0
 21 51  1  0  0  0  0
 22 52  1  0  0  0  0
 22 53  1  0  0  0  0
 23 54  1  0  0  0  0
 23 55  1  0  0  0  0
 24 56  1  0  0  0  0
 24 57  1  0  0  0  0
 27 58  1  0  0  0  0
 27 59  1  0  0  0  0
M  END
> <compound>
PET-UNK-94036022-9

> <compound_smiles>
C#CC1(CC1)CS(=O)(=O)N2Cc3ccc(cc3C4(C2)CCN(C4=O)c5cncc6c5cccc6)Cl

> <enantiomer_smiles>
C#CC1(CC1)CS(=O)(=O)[N@@]2Cc3ccc(cc3C4(C2)CCN(C4=O)c5cncc6c5cccc6)Cl

> <scaffold>
tetrahydroisoquinoline-5spiro-isoquinoline

> <clash_score>
0

> <docking_score>
-9.227084159851074

> <overlap_score>
0.9736769199371338

> <MMFF_internal_energy>
132.42354160756528

> <docked_smiles>
C#CC1(CC1)CS(=O)(=O)[N@@]2Cc3ccc(cc3[C@]4(C2)CCN(C4=O)c5cncc6c5cccc6)Cl

$$$$
MAT-POS-69786b79-4_2
  -OEChem-12272114573D

 60 65  0     1  0  0  0  0  0999 V2000
    5.7259    5.3624   24.3447 C   0  0  0  0  0  0  0  0  0  0  0  0
    3.3432    2.6279   20.4411 C   0  0  0  0  0  0  0  0  0  0  0  0
    3.8960    1.9291   21.5050 C   0  0  0  0  0  0  0  0  0  0  0  0
    3.7865    2.4205   19.1660 C   0  0  0  0  0  0  0  0  0  0  0  0
    4.8973    1.0233   21.2988 C   0  0  0  0  0  0  0  0  0  0  0  0
   12.0765    0.0316   24.1541 C   0  0  0  0  0  0  0  0  0  0  0  0
   12.9132   -0.6032   23.2569 C   0  0  0  0  0  0  0  0  0  0  0  0
   10.9991   -1.4331   22.0443 C   0  0  0  0  0  0  0  0  0  0  0  0
    5.3278    1.2339   17.6066 C   0  0  0  0  0  0  0  0  0  0  0  0
    6.8438   -0.2892   18.3752 C   0  0  0  0  0  0  0  0  0  0  0  0
    4.8226    1.4906   18.9054 C   0  0  0  0  0  0  0  0  0  0  0  0
    5.3982    0.7733   19.9948 C   0  0  0  0  0  0  0  0  0  0  0  0
   10.7040   -0.0625   23.9898 C   0  0  0  0  0  0  0  0  0  0  0  0
   10.1406   -0.7765   22.9250 C   0  0  0  0  0  0  0  0  0  0  0  0
    6.4440   -0.1472   19.6979 C   0  0  0  0  0  0  0  0  0  0  0  0
   12.3683   -1.3298   22.2234 C   0  0  0  0  0  0  0  0  0  0  0  0
    8.2490    0.0169   21.4271 C   0  0  0  0  0  0  0  0  0  0  0  0
    6.7919    2.5950   24.9761 C   0  0  0  0  0  0  0  0  0  0  0  0
    9.9479    0.5589   24.9534 C   0  0  0  0  0  0  0  0  0  0  0  0
    7.0364    5.1843   22.1998 C   0  0  0  0  0  0  0  0  0  0  0  0
    5.9216    4.1875   22.1240 C   0  0  0  0  0  0  0  0  0  0  0  0
    8.0140   -2.1541   22.4331 C   0  0  0  0  0  0  0  0  0  0  0  0
    6.9866   -1.9366   21.3580 C   0  0  0  0  0  0  0  0  0  0  0  0
    7.8721   -0.1194   23.8831 C   0  0  0  0  0  0  0  0  0  0  0  0
    6.5186    4.5422   23.4690 C   0  0  0  0  0  0  0  0  0  0  0  0
    8.6238   -0.7606   22.6929 C   0  0  3  0  0  0  0  0  0  0  0  0
    7.8596    1.7144   25.5749 C   0  0  0  0  0  0  0  0  0  0  0  0
    5.0862    6.0241   25.0512 N   0  0  0  0  0  0  0  0  0  0  0  0
    6.3062    0.3769   17.3421 N   0  0  0  0  0  0  0  0  0  0  0  0
    7.2292   -0.6897   20.7790 N   0  0  0  0  0  0  0  0  0  0  0  0
    7.3373    3.5744   24.1596 N   0  0  0  0  0  0  0  0  0  0  0  0
    8.6609    1.0133   24.4995 N   0  3  2  0  0  0  0  0  0  0  0  0
    8.8286    1.0402   21.0803 O   0  0  0  0  0  0  0  0  0  0  0  0
    5.5929    2.4454   25.1962 O   0  0  0  0  0  0  0  0  0  0  0  0
   13.4270   -2.1443   21.1108 Cl  0  0  0  0  0  0  0  0  0  0  0  0
    2.5432    3.3510   20.6369 H   0  0  0  0  0  0  0  0  0  0  0  0
    3.5174    2.1137   22.5168 H   0  0  0  0  0  0  0  0  0  0  0  0
    3.3409    2.9743   18.3364 H   0  0  0  0  0  0  0  0  0  0  0  0
    5.3118    0.4895   22.1572 H   0  0  0  0  0  0  0  0  0  0  0  0
   12.5021    0.5962   24.9756 H   0  0  0  0  0  0  0  0  0  0  0  0
   13.9911   -0.5171   23.3786 H   0  0  0  0  0  0  0  0  0  0  0  0
   10.6045   -2.0170   21.2248 H   0  0  0  0  0  0  0  0  0  0  0  0
    4.9141    1.7511   16.7474 H   0  0  0  0  0  0  0  0  0  0  0  0
    7.6445   -0.9764   18.1043 H   0  0  0  0  0  0  0  0  0  0  0  0
    9.7608   -0.1211   25.8247 H   0  0  0  0  0  0  0  0  0  0  0  0
   10.4565    1.4661   25.3705 H   0  0  0  0  0  0  0  0  0  0  0  0
    8.0080    4.8797   21.8276 H   0  0  0  0  0  0  0  0  0  0  0  0
    6.7968    6.2224   21.9995 H   0  0  0  0  0  0  0  0  0  0  0  0
    4.9337    4.5565   21.8730 H   0  0  0  0  0  0  0  0  0  0  0  0
    6.1461    3.2149   21.7010 H   0  0  0  0  0  0  0  0  0  0  0  0
    7.5144   -2.5472   23.3327 H   0  0  0  0  0  0  0  0  0  0  0  0
    8.7599   -2.9065   22.1418 H   0  0  0  0  0  0  0  0  0  0  0  0
    7.0582   -2.7244   20.5716 H   0  0  0  0  0  0  0  0  0  0  0  0
    5.9516   -1.9958   21.7713 H   0  0  0  0  0  0  0  0  0  0  0  0
    6.8955    0.2929   23.5757 H   0  0  0  0  0  0  0  0  0  0  0  0
    7.6774   -0.8491   24.6905 H   0  0  0  0  0  0  0  0  0  0  0  0
    7.4105    0.9495   26.2145 H   0  0  0  0  0  0  0  0  0  0  0  0
    8.5738    2.3157   26.1441 H   0  0  0  0  0  0  0  0  0  0  0  0
    8.3460    3.6364   24.0553 H   0  0  0  0  0  0  0  0  0  0  0  0
    8.7930    1.7233   23.7554 H   0  0  0  0  0  0  0  0  0  0  0  0
  1 25  1  0  0  0  0
  1 28  3  0  0  0  0
  2  3  1  0  0  0  0
  2  4  2  0  0  0  0
  3  5  2  0  0  0  0
  4 11  1  0  0  0  0
  5 12  1  0  0  0  0
  6  7  1  0  0  0  0
  6 13  2  0  0  0  0
  7 16  2  0  0  0  0
  8 14  2  0  0  0  0
  8 16  1  0  0  0  0
  9 11  2  0  0  0  0
  9 29  1  0  0  0  0
 10 15  1  0  0  0  0
 10 29  2  0  0  0  0
 11 12  1  0  0  0  0
 12 15  2  0  0  0  0
 13 14  1  0  0  0  0
 13 19  1  0  0  0  0
 14 26  1  0  0  0  0
 15 30  1  0  0  0  0
 16 35  1  0  0  0  0
 17 26  1  0  0  0  0
 17 30  1  0  0  0  0
 17 33  2  0  0  0  0
 18 27  1  0  0  0  0
 18 31  1  0  0  0  0
 18 34  2  0  0  0  0
 19 32  1  0  0  0  0
 20 21  1  0  0  0  0
 20 25  1  0  0  0  0
 21 25  1  0  0  0  0
 22 23  1  0  0  0  0
 22 26  1  0  0  0  0
 23 30  1  0  0  0  0
 24 26  1  0  0  0  0
 24 32  1  0  0  0  0
 25 31  1  0  0  0  0
 27 32  1  6  0  0  0
  2 36  1  0  0  0  0
  3 37  1  0  0  0  0
  4 38  1  0  0  0  0
  5 39  1  0  0  0  0
  6 40  1  0  0  0  0
  7 41  1  0  0  0  0
  8 42  1  0  0  0  0
  9 43  1  0  0  0  0
 10 44  1  0  0  0  0
 19 45  1  0  0  0  0
 19 46  1  0  0  0  0
 20 47  1  0  0  0  0
 20 48  1  0  0  0  0
 21 49  1  0  0  0  0
 21 50  1  0  0  0  0
 22 51  1  0  0  0  0
 22 52  1  0  0  0  0
 23 53  1  0  0  0  0
 23 54  1  0  0  0  0
 24 55  1  0  0  0  0
 24 56  1  0  0  0  0
 27 57  1  0  0  0  0
 27 58  1  0  0  0  0
 31 59  1  0  0  0  0
 32 60  1  0  0  0  0
M  CHG  1  32   1
M  END
> <compound>
MAT-POS-69786b79-4

> <compound_smiles>
c1ccc2c(c1)cncc2N3CCC4(C3=O)CN(Cc5c4cc(cc5)Cl)CC(=O)NC6(CC6)C#N

> <enantiomer_smiles>
c1ccc2c(c1)cncc2N3CCC4(C3=O)C[N@](Cc5c4cc(cc5)Cl)CC(=O)NC6(CC6)C#N

> <scaffold>
tetrahydroisoquinoline-5spiro-isoquinoline

> <clash_score>
0

> <docking_score>
-9.181804656982422

> <overlap_score>
0.9704029560089111

> <MMFF_internal_energy>
193.88145925215107

> <docked_smiles>
c1ccc2c(c1)cncc2N3CC[C@@]4(C3=O)C[N@H+](Cc5c4cc(cc5)Cl)CC(=O)NC6(CC6)C#N

$$$$
EDJ-MED-cc48ee33-5_1
  -OEChem-12272114573D

 59 64  0     1  0  0  0  0  0999 V2000
    3.3432    2.6279   20.4411 C   0  0  0  0  0  0  0  0  0  0  0  0
    3.8960    1.9291   21.5050 C   0  0  0  0  0  0  0  0  0  0  0  0
    3.7865    2.4205   19.1660 C   0  0  0  0  0  0  0  0  0  0  0  0
    4.8973    1.0233   21.2988 C   0  0  0  0  0  0  0  0  0  0  0  0
   12.0765    0.0316   24.1541 C   0  0  0  0  0  0  0  0  0  0  0  0
   12.9132   -0.6032   23.2569 C   0  0  0  0  0  0  0  0  0  0  0  0
   10.9991   -1.4331   22.0443 C   0  0  0  0  0  0  0  0  0  0  0  0
    5.8785    1.9776   25.6603 C   0  0  0  0  0  0  0  0  0  0  0  0
    5.3278    1.2339   17.6066 C   0  0  0  0  0  0  0  0  0  0  0  0
    6.8438   -0.2892   18.3752 C   0  0  0  0  0  0  0  0  0  0  0  0
    4.8226    1.4906   18.9054 C   0  0  0  0  0  0  0  0  0  0  0  0
    5.3982    0.7733   19.9948 C   0  0  0  0  0  0  0  0  0  0  0  0
   10.7040   -0.0625   23.9898 C   0  0  0  0  0  0  0  0  0  0  0  0
   10.1406   -0.7765   22.9250 C   0  0  0  0  0  0  0  0  0  0  0  0
    6.4440   -0.1472   19.6979 C   0  0  0  0  0  0  0  0  0  0  0  0
   12.3683   -1.3298   22.2234 C   0  0  0  0  0  0  0  0  0  0  0  0
    6.6879    2.4049   24.6362 C   0  0  0  0  0  0  0  0  0  0  0  0
    4.5817    2.3585   25.2663 C   0  0  0  0  0  0  0  0  0  0  0  0
    8.2490    0.0169   21.4271 C   0  0  0  0  0  0  0  0  0  0  0  0
    8.1467    2.2778   24.5036 C   0  0  0  0  0  0  0  0  0  0  0  0
    9.9479    0.5589   24.9534 C   0  0  0  0  0  0  0  0  0  0  0  0
    8.0140   -2.1541   22.4331 C   0  0  0  0  0  0  0  0  0  0  0  0
    6.9866   -1.9366   21.3580 C   0  0  0  0  0  0  0  0  0  0  0  0
    7.8721   -0.1194   23.8831 C   0  0  0  0  0  0  0  0  0  0  0  0
    8.6238   -0.7606   22.6929 C   0  0  3  0  0  0  0  0  0  0  0  0
    3.3226    2.1441   25.9992 C   0  0  0  0  0  0  0  0  0  0  0  0
    6.2390    3.5990   22.4716 C   0  0  0  0  0  0  0  0  0  0  0  0
    6.3062    0.3769   17.3421 N   0  0  0  0  0  0  0  0  0  0  0  0
    4.5637    2.9799   24.0842 N   0  0  0  0  0  0  0  0  0  0  0  0
    5.8591    2.9930   23.7266 N   0  0  0  0  0  0  0  0  0  0  0  0
    7.2292   -0.6897   20.7790 N   0  0  0  0  0  0  0  0  0  0  0  0
    8.6609    1.0133   24.4995 N   0  0  0  0  0  0  0  0  0  0  0  0
    8.7587    1.0855   21.1267 O   0  0  0  0  0  0  0  0  0  0  0  0
    8.7777    3.3293   24.4043 O   0  0  0  0  0  0  0  0  0  0  0  0
   13.4283   -2.1471   21.1145 Cl  0  0  0  0  0  0  0  0  0  0  0  0
    2.5432    3.3510   20.6369 H   0  0  0  0  0  0  0  0  0  0  0  0
    3.5174    2.1137   22.5168 H   0  0  0  0  0  0  0  0  0  0  0  0
    3.3409    2.9743   18.3364 H   0  0  0  0  0  0  0  0  0  0  0  0
    5.3118    0.4895   22.1572 H   0  0  0  0  0  0  0  0  0  0  0  0
   12.5034    0.5864   24.9813 H   0  0  0  0  0  0  0  0  0  0  0  0
   13.9913   -0.5293   23.3874 H   0  0  0  0  0  0  0  0  0  0  0  0
   10.6139   -2.0336   21.2353 H   0  0  0  0  0  0  0  0  0  0  0  0
    6.1824    1.4647   26.5618 H   0  0  0  0  0  0  0  0  0  0  0  0
    4.9141    1.7511   16.7474 H   0  0  0  0  0  0  0  0  0  0  0  0
    7.6445   -0.9764   18.1043 H   0  0  0  0  0  0  0  0  0  0  0  0
    9.7839   -0.0929   25.8515 H   0  0  0  0  0  0  0  0  0  0  0  0
   10.4577    1.4726   25.3586 H   0  0  0  0  0  0  0  0  0  0  0  0
    7.5121   -2.5701   23.3195 H   0  0  0  0  0  0  0  0  0  0  0  0
    8.7723   -2.8981   22.1401 H   0  0  0  0  0  0  0  0  0  0  0  0
    7.0511   -2.7254   20.5709 H   0  0  0  0  0  0  0  0  0  0  0  0
    5.9516   -1.9941   21.7738 H   0  0  0  0  0  0  0  0  0  0  0  0
    6.9258    0.3345   23.5582 H   0  0  0  0  0  0  0  0  0  0  0  0
    7.6176   -0.8485   24.6565 H   0  0  0  0  0  0  0  0  0  0  0  0
    3.1017    2.9903   26.6723 H   0  0  0  0  0  0  0  0  0  0  0  0
    2.4594    2.0257   25.3201 H   0  0  0  0  0  0  0  0  0  0  0  0
    3.3494    1.2276   26.6156 H   0  0  0  0  0  0  0  0  0  0  0  0
    6.2043    2.8258   21.6995 H   0  0  0  0  0  0  0  0  0  0  0  0
    5.5439    4.4088   22.2331 H   0  0  0  0  0  0  0  0  0  0  0  0
    7.2492    4.0084   22.5592 H   0  0  0  0  0  0  0  0  0  0  0  0
  1  2  1  0  0  0  0
  1  3  2  0  0  0  0
  2  4  2  0  0  0  0
  3 11  1  0  0  0  0
  4 12  1  0  0  0  0
  5  6  2  0  0  0  0
  5 13  1  0  0  0  0
  6 16  1  0  0  0  0
  7 14  1  0  0  0  0
  7 16  2  0  0  0  0
  8 17  2  0  0  0  0
  8 18  1  0  0  0  0
  9 11  2  0  0  0  0
  9 28  1  0  0  0  0
 10 15  1  0  0  0  0
 10 28  2  0  0  0  0
 11 12  1  0  0  0  0
 12 15  2  0  0  0  0
 13 14  2  0  0  0  0
 13 21  1  0  0  0  0
 14 25  1  0  0  0  0
 15 31  1  0  0  0  0
 16 35  1  0  0  0  0
 17 20  1  0  0  0  0
 17 30  1  0  0  0  0
 18 26  1  0  0  0  0
 18 29  2  0  0  0  0
 19 25  1  0  0  0  0
 19 31  1  0  0  0  0
 19 33  2  0  0  0  0
 20 32  1  0  0  0  0
 20 34  2  0  0  0  0
 21 32  1  0  0  0  0
 22 23  1  0  0  0  0
 22 25  1  0  0  0  0
 23 31  1  0  0  0  0
 24 25  1  0  0  0  0
 24 32  1  0  0  0  0
 27 30  1  0  0  0  0
 29 30  1  0  0  0  0
  1 36  1  0  0  0  0
  2 37  1  0  0  0  0
  3 38  1  0  0  0  0
  4 39  1  0  0  0  0
  5 40  1  0  0  0  0
  6 41  1  0  0  0  0
  7 42  1  0  0  0  0
  8 43  1  0  0  0  0
  9 44  1  0  0  0  0
 10 45  1  0  0  0  0
 21 46  1  0  0  0  0
 21 47  1  0  0  0  0
 22 48  1  0  0  0  0
 22 49  1  0  0  0  0
 23 50  1  0  0  0  0
 23 51  1  0  0  0  0
 24 52  1  0  0  0  0
 24 53  1  0  0  0  0
 26 54  1  0  0  0  0
 26 55  1  0  0  0  0
 26 56  1  0  0  0  0
 27 57  1  0  0  0  0
 27 58  1  0  0  0  0
 27 59  1  0  0  0  0
M  END
> <compound>
EDJ-MED-cc48ee33-5

> <compound_smiles>
Cc1cc(n(n1)C)C(=O)N2Cc3ccc(cc3C4(C2)CCN(C4=O)c5cncc6c5cccc6)Cl

> <enantiomer_smiles>
Cc1cc(n(n1)C)C(=O)N2Cc3ccc(cc3C4(C2)CCN(C4=O)c5cncc6c5cccc6)Cl

> <scaffold>
tetrahydroisoquinoline-5spiro-isoquinoline

> <clash_score>
0

> <docking_score>
-8.365358352661133

> <overlap_score>
0.9743021726608276

> <MMFF_internal_energy>
142.7154326608903

> <docked_smiles>
Cc1cc(n(n1)C)C(=O)N2Cc3ccc(cc3[C@]4(C2)CCN(C4=O)c5cncc6c5cccc6)Cl

$$$$
MAT-POS-38eb6498-5_2
  -OEChem-12272114573D

 62 66  0     1  0  0  0  0  0999 V2000
    3.7865    2.4205   19.1660 C   0  0  0  0  0  0  0  0  0  0  0  0
    3.3432    2.6279   20.4411 C   0  0  0  0  0  0  0  0  0  0  0  0
   12.0765    0.0316   24.1541 C   0  0  0  0  0  0  0  0  0  0  0  0
   12.9132   -0.6032   23.2569 C   0  0  0  0  0  0  0  0  0  0  0  0
    4.8973    1.0233   21.2988 C   0  0  0  0  0  0  0  0  0  0  0  0
   10.9991   -1.4331   22.0443 C   0  0  0  0  0  0  0  0  0  0  0  0
    5.3278    1.2339   17.6066 C   0  0  0  0  0  0  0  0  0  0  0  0
    6.8438   -0.2892   18.3752 C   0  0  0  0  0  0  0  0  0  0  0  0
    4.8226    1.4906   18.9054 C   0  0  0  0  0  0  0  0  0  0  0  0
    5.3982    0.7733   19.9948 C   0  0  0  0  0  0  0  0  0  0  0  0
    3.8960    1.9291   21.5050 C   0  0  0  0  0  0  0  0  0  0  0  0
   10.7040   -0.0625   23.9898 C   0  0  0  0  0  0  0  0  0  0  0  0
   10.1406   -0.7765   22.9250 C   0  0  0  0  0  0  0  0  0  0  0  0
    6.4440   -0.1472   19.6979 C   0  0  0  0  0  0  0  0  0  0  0  0
   12.3683   -1.3298   22.2234 C   0  0  0  0  0  0  0  0  0  0  0  0
    8.2490    0.0169   21.4271 C   0  0  0  0  0  0  0  0  0  0  0  0
    3.3923    2.1749   22.8577 C   0  0  0  0  0  0  0  0  0  0  0  0
    6.7919    2.5950   24.9761 C   0  0  0  0  0  0  0  0  0  0  0  0
    9.9479    0.5589   24.9534 C   0  0  0  0  0  0  0  0  0  0  0  0
    8.0140   -2.1541   22.4331 C   0  0  0  0  0  0  0  0  0  0  0  0
    6.9866   -1.9366   21.3580 C   0  0  0  0  0  0  0  0  0  0  0  0
    7.8721   -0.1194   23.8831 C   0  0  0  0  0  0  0  0  0  0  0  0
    8.6238   -0.7606   22.6929 C   0  0  3  0  0  0  0  0  0  0  0  0
    2.3249    3.8469   24.3904 C   0  0  0  0  0  0  0  0  0  0  0  0
    6.5186    4.5422   23.4690 C   0  0  0  0  0  0  0  0  0  0  0  0
    7.8596    1.7144   25.5749 C   0  0  0  0  0  0  0  0  0  0  0  0
    6.3062    0.3769   17.3421 N   0  0  0  0  0  0  0  0  0  0  0  0
    7.2292   -0.6897   20.7790 N   0  0  0  0  0  0  0  0  0  0  0  0
    2.8397    3.4372   23.1036 N   0  0  0  0  0  0  0  0  0  0  0  0
    7.3373    3.5744   24.1596 N   0  0  0  0  0  0  0  0  0  0  0  0
    8.6609    1.0133   24.4995 N   0  3  1  0  0  0  0  0  0  0  0  0
    8.8286    1.0402   21.0803 O   0  0  0  0  0  0  0  0  0  0  0  0
    3.4825    1.3017   23.7386 O   0  0  0  0  0  0  0  0  0  0  0  0
    5.5929    2.4454   25.1962 O   0  0  0  0  0  0  0  0  0  0  0  0
   13.4270   -2.1443   21.1108 Cl  0  0  0  0  0  0  0  0  0  0  0  0
    3.3419    2.9748   18.3365 H   0  0  0  0  0  0  0  0  0  0  0  0
    2.5417    3.3539   20.6249 H   0  0  0  0  0  0  0  0  0  0  0  0
   12.5021    0.5962   24.9756 H   0  0  0  0  0  0  0  0  0  0  0  0
   13.9911   -0.5171   23.3786 H   0  0  0  0  0  0  0  0  0  0  0  0
    5.3193    0.4829   22.1508 H   0  0  0  0  0  0  0  0  0  0  0  0
   10.6045   -2.0170   21.2248 H   0  0  0  0  0  0  0  0  0  0  0  0
    4.9132    1.7508   16.7475 H   0  0  0  0  0  0  0  0  0  0  0  0
    7.6453   -0.9751   18.1044 H   0  0  0  0  0  0  0  0  0  0  0  0
    9.7608   -0.1211   25.8247 H   0  0  0  0  0  0  0  0  0  0  0  0
   10.4565    1.4661   25.3705 H   0  0  0  0  0  0  0  0  0  0  0  0
    7.5144   -2.5472   23.3327 H   0  0  0  0  0  0  0  0  0  0  0  0
    8.7599   -2.9065   22.1418 H   0  0  0  0  0  0  0  0  0  0  0  0
    7.0582   -2.7244   20.5716 H   0  0  0  0  0  0  0  0  0  0  0  0
    5.9516   -1.9958   21.7713 H   0  0  0  0  0  0  0  0  0  0  0  0
    6.8955    0.2929   23.5757 H   0  0  0  0  0  0  0  0  0  0  0  0
    7.6774   -0.8491   24.6905 H   0  0  0  0  0  0  0  0  0  0  0  0
    1.2419    3.6582   24.4296 H   0  0  0  0  0  0  0  0  0  0  0  0
    2.8257    3.2740   25.1848 H   0  0  0  0  0  0  0  0  0  0  0  0
    2.5155    4.9203   24.5366 H   0  0  0  0  0  0  0  0  0  0  0  0
    6.2637    4.1608   22.4692 H   0  0  0  0  0  0  0  0  0  0  0  0
    5.5955    4.7165   24.0413 H   0  0  0  0  0  0  0  0  0  0  0  0
    7.0728    5.4873   23.3704 H   0  0  0  0  0  0  0  0  0  0  0  0
    7.4105    0.9495   26.2145 H   0  0  0  0  0  0  0  0  0  0  0  0
    8.5738    2.3157   26.1441 H   0  0  0  0  0  0  0  0  0  0  0  0
    2.8481    4.1346   22.3665 H   0  0  0  0  0  0  0  0  0  0  0  0
    8.3460    3.6364   24.0553 H   0  0  0  0  0  0  0  0  0  0  0  0
    8.7930    1.7233   23.7554 H   0  0  0  0  0  0  0  0  0  0  0  0
  1  2  2  0  0  0  0
  1  9  1  0  0  0  0
  2 11  1  0  0  0  0
  3  4  2  0  0  0  0
  3 12  1  0  0  0  0
  4 15  1  0  0  0  0
  5 10  1  0  0  0  0
  5 11  2  0  0  0  0
  6 13  1  0  0  0  0
  6 15  2  0  0  0  0
  7  9  2  0  0  0  0
  7 27  1  0  0  0  0
  8 14  1  0  0  0  0
  8 27  2  0  0  0  0
  9 10  1  0  0  0  0
 10 14  2  0  0  0  0
 11 17  1  0  0  0  0
 12 13  2  0  0  0  0
 12 19  1  0  0  0  0
 13 23  1  0  0  0  0
 14 28  1  0  0  0  0
 15 35  1  0  0  0  0
 16 23  1  0  0  0  0
 16 28  1  0  0  0  0
 16 32  2  0  0  0  0
 17 29  1  0  0  0  0
 17 33  2  0  0  0  0
 18 26  1  0  0  0  0
 18 30  1  0  0  0  0
 18 34  2  0  0  0  0
 19 31  1  0  0  0  0
 20 21  1  0  0  0  0
 20 23  1  0  0  0  0
 21 28  1  0  0  0  0
 22 23  1  0  0  0  0
 22 31  1  0  0  0  0
 24 29  1  0  0  0  0
 25 30  1  0  0  0  0
 26 31  1  6  0  0  0
  1 36  1  0  0  0  0
  2 37  1  0  0  0  0
  3 38  1  0  0  0  0
  4 39  1  0  0  0  0
  5 40  1  0  0  0  0
  6 41  1  0  0  0  0
  7 42  1  0  0  0  0
  8 43  1  0  0  0  0
 19 44  1  0  0  0  0
 19 45  1  0  0  0  0
 20 46  1  0  0  0  0
 20 47  1  0  0  0  0
 21 48  1  0  0  0  0
 21 49  1  0  0  0  0
 22 50  1  0  0  0  0
 22 51  1  0  0  0  0
 24 52  1  0  0  0  0
 24 53  1  0  0  0  0
 24 54  1  0  0  0  0
 25 55  1  0  0  0  0
 25 56  1  0  0  0  0
 25 57  1  0  0  0  0
 26 58  1  0  0  0  0
 26 59  1  0  0  0  0
 29 60  1  0  0  0  0
 30 61  1  0  0  0  0
 31 62  1  0  0  0  0
M  CHG  1  31   1
M  END
> <compound>
MAT-POS-38eb6498-5

> <compound_smiles>
CNC(=O)CN1Cc2ccc(cc2C3(C1)CCN(C3=O)c4cncc5c4cc(cc5)C(=O)NC)Cl

> <enantiomer_smiles>
CNC(=O)C[N@]1Cc2ccc(cc2C3(C1)CCN(C3=O)c4cncc5c4cc(cc5)C(=O)NC)Cl

> <scaffold>
tetrahydroisoquinoline-5spiro-isoquinoline

> <clash_score>
0

> <docking_score>
-8.224218368530273

> <overlap_score>
0.9835816025733948

> <MMFF_internal_energy>
149.09766900972062

> <docked_smiles>
CNC(=O)C[N@H+]1Cc2ccc(cc2[C@]3(C1)CCN(C3=O)c4cncc5c4cc(cc5)C(=O)NC)Cl

$$$$
MAT-POS-be048f2c-5_1
  -OEChem-12272114573D

 59 64  0     1  0  0  0  0  0999 V2000
    3.3432    2.6279   20.4411 C   0  0  0  0  0  0  0  0  0  0  0  0
    3.8960    1.9291   21.5050 C   0  0  0  0  0  0  0  0  0  0  0  0
    3.7865    2.4205   19.1660 C   0  0  0  0  0  0  0  0  0  0  0  0
    4.8973    1.0233   21.2988 C   0  0  0  0  0  0  0  0  0  0  0  0
   12.0765    0.0316   24.1541 C   0  0  0  0  0  0  0  0  0  0  0  0
   12.9132   -0.6032   23.2569 C   0  0  0  0  0  0  0  0  0  0  0  0
    5.9574    2.1448   25.7854 C   0  0  0  0  0  0  0  0  0  0  0  0
   10.9991   -1.4331   22.0443 C   0  0  0  0  0  0  0  0  0  0  0  0
    4.7067    2.6950   25.4464 C   0  0  0  0  0  0  0  0  0  0  0  0
    5.3278    1.2339   17.6066 C   0  0  0  0  0  0  0  0  0  0  0  0
    6.8438   -0.2892   18.3752 C   0  0  0  0  0  0  0  0  0  0  0  0
    4.8226    1.4906   18.9054 C   0  0  0  0  0  0  0  0  0  0  0  0
    5.3982    0.7733   19.9948 C   0  0  0  0  0  0  0  0  0  0  0  0
   10.7040   -0.0625   23.9898 C   0  0  0  0  0  0  0  0  0  0  0  0
   10.1406   -0.7765   22.9250 C   0  0  0  0  0  0  0  0  0  0  0  0
    6.4440   -0.1472   19.6979 C   0  0  0  0  0  0  0  0  0  0  0  0
   12.3683   -1.3298   22.2234 C   0  0  0  0  0  0  0  0  0  0  0  0
    6.8028    2.5764   24.7927 C   0  0  0  0  0  0  0  0  0  0  0  0
    8.2490    0.0169   21.4271 C   0  0  0  0  0  0  0  0  0  0  0  0
    8.2375    2.3090   24.6292 C   0  0  0  0  0  0  0  0  0  0  0  0
    9.9479    0.5589   24.9534 C   0  0  0  0  0  0  0  0  0  0  0  0
    8.0140   -2.1541   22.4331 C   0  0  0  0  0  0  0  0  0  0  0  0
    6.9866   -1.9366   21.3580 C   0  0  0  0  0  0  0  0  0  0  0  0
    7.8721   -0.1194   23.8831 C   0  0  0  0  0  0  0  0  0  0  0  0
    8.6238   -0.7606   22.6929 C   0  0  3  0  0  0  0  0  0  0  0  0
    7.2295    5.2875   23.0573 C   0  0  0  0  0  0  0  0  0  0  0  0
    6.4736    4.0056   22.7525 C   0  0  0  0  0  0  0  0  0  0  0  0
    6.3062    0.3769   17.3421 N   0  0  0  0  0  0  0  0  0  0  0  0
    4.7493    3.4209   24.3260 N   0  0  0  0  0  0  0  0  0  0  0  0
    6.0370    3.3299   23.9524 N   0  0  0  0  0  0  0  0  0  0  0  0
    7.2292   -0.6897   20.7790 N   0  0  0  0  0  0  0  0  0  0  0  0
    8.6609    1.0133   24.4995 N   0  0  0  0  0  0  0  0  0  0  0  0
    8.8277    1.0425   21.0805 O   0  0  0  0  0  0  0  0  0  0  0  0
    8.9768    3.2919   24.6275 O   0  0  0  0  0  0  0  0  0  0  0  0
   13.4283   -2.1471   21.1145 Cl  0  0  0  0  0  0  0  0  0  0  0  0
    2.5432    3.3510   20.6369 H   0  0  0  0  0  0  0  0  0  0  0  0
    3.5174    2.1137   22.5168 H   0  0  0  0  0  0  0  0  0  0  0  0
    3.3409    2.9743   18.3364 H   0  0  0  0  0  0  0  0  0  0  0  0
    5.3118    0.4895   22.1572 H   0  0  0  0  0  0  0  0  0  0  0  0
   12.5034    0.5864   24.9813 H   0  0  0  0  0  0  0  0  0  0  0  0
   13.9913   -0.5293   23.3874 H   0  0  0  0  0  0  0  0  0  0  0  0
    6.2053    1.5231   26.6336 H   0  0  0  0  0  0  0  0  0  0  0  0
   10.6139   -2.0336   21.2353 H   0  0  0  0  0  0  0  0  0  0  0  0
    3.7660    2.5978   25.9692 H   0  0  0  0  0  0  0  0  0  0  0  0
    4.9141    1.7511   16.7474 H   0  0  0  0  0  0  0  0  0  0  0  0
    7.6445   -0.9764   18.1043 H   0  0  0  0  0  0  0  0  0  0  0  0
    9.7841   -0.0930   25.8515 H   0  0  0  0  0  0  0  0  0  0  0  0
   10.4579    1.4725   25.3586 H   0  0  0  0  0  0  0  0  0  0  0  0
    7.5120   -2.5701   23.3194 H   0  0  0  0  0  0  0  0  0  0  0  0
    8.7722   -2.8982   22.1400 H   0  0  0  0  0  0  0  0  0  0  0  0
    7.0511   -2.7253   20.5708 H   0  0  0  0  0  0  0  0  0  0  0  0
    5.9515   -1.9941   21.7738 H   0  0  0  0  0  0  0  0  0  0  0  0
    6.9258    0.3344   23.5581 H   0  0  0  0  0  0  0  0  0  0  0  0
    7.6176   -0.8486   24.6565 H   0  0  0  0  0  0  0  0  0  0  0  0
    6.6081    5.9879   23.6253 H   0  0  0  0  0  0  0  0  0  0  0  0
    7.5345    5.7782   22.1279 H   0  0  0  0  0  0  0  0  0  0  0  0
    8.1292    5.0851   23.6479 H   0  0  0  0  0  0  0  0  0  0  0  0
    7.1032    3.3116   22.1844 H   0  0  0  0  0  0  0  0  0  0  0  0
    5.5879    4.2153   22.1421 H   0  0  0  0  0  0  0  0  0  0  0  0
  1  2  1  0  0  0  0
  1  3  2  0  0  0  0
  2  4  2  0  0  0  0
  3 12  1  0  0  0  0
  4 13  1  0  0  0  0
  5  6  2  0  0  0  0
  5 14  1  0  0  0  0
  6 17  1  0  0  0  0
  7  9  1  0  0  0  0
  7 18  2  0  0  0  0
  8 15  1  0  0  0  0
  8 17  2  0  0  0  0
  9 29  2  0  0  0  0
 10 12  2  0  0  0  0
 10 28  1  0  0  0  0
 11 16  1  0  0  0  0
 11 28  2  0  0  0  0
 12 13  1  0  0  0  0
 13 16  2  0  0  0  0
 14 15  2  0  0  0  0
 14 21  1  0  0  0  0
 15 25  1  0  0  0  0
 16 31  1  0  0  0  0
 17 35  1  0  0  0  0
 18 20  1  0  0  0  0
 18 30  1  0  0  0  0
 19 25  1  0  0  0  0
 19 31  1  0  0  0  0
 19 33  2  0  0  0  0
 20 32  1  0  0  0  0
 20 34  2  0  0  0  0
 21 32  1  0  0  0  0
 22 23  1  0  0  0  0
 22 25  1  0  0  0  0
 23 31  1  0  0  0  0
 24 25  1  0  0  0  0
 24 32  1  0  0  0  0
 26 27  1  0  0  0  0
 27 30  1  0  0  0  0
 29 30  1  0  0  0  0
  1 36  1  0  0  0  0
  2 37  1  0  0  0  0
  3 38  1  0  0  0  0
  4 39  1  0  0  0  0
  5 40  1  0  0  0  0
  6 41  1  0  0  0  0
  7 42  1  0  0  0  0
  8 43  1  0  0  0  0
  9 44  1  0  0  0  0
 10 45  1  0  0  0  0
 11 46  1  0  0  0  0
 21 47  1  0  0  0  0
 21 48  1  0  0  0  0
 22 49  1  0  0  0  0
 22 50  1  0  0  0  0
 23 51  1  0  0  0  0
 23 52  1  0  0  0  0
 24 53  1  0  0  0  0
 24 54  1  0  0  0  0
 26 55  1  0  0  0  0
 26 56  1  0  0  0  0
 26 57  1  0  0  0  0
 27 58  1  0  0  0  0
 27 59  1  0  0  0  0
M  END
> <compound>
MAT-POS-be048f2c-5

> <compound_smiles>
CCn1c(ccn1)C(=O)N2Cc3ccc(cc3C4(C2)CCN(C4=O)c5cncc6c5cccc6)Cl

> <enantiomer_smiles>
CCn1c(ccn1)C(=O)N2Cc3ccc(cc3C4(C2)CCN(C4=O)c5cncc6c5cccc6)Cl

> <scaffold>
tetrahydroisoquinoline-5spiro-isoquinoline

> <clash_score>
0

> <docking_score>
-8.262361526489258

> <overlap_score>
0.9726871252059937

> <MMFF_internal_energy>
123.33257426568025

> <docked_smiles>
CCn1c(ccn1)C(=O)N2Cc3ccc(cc3[C@]4(C2)CCN(C4=O)c5cncc6c5cccc6)Cl

$$$$
EDJ-MED-b6c6ee2b-7_1
  -OEChem-12272114573D

 57 62  0     1  0  0  0  0  0999 V2000
    3.7865    2.4205   19.1660 C   0  0  0  0  0  0  0  0  0  0  0  0
   12.0765    0.0316   24.1541 C   0  0  0  0  0  0  0  0  0  0  0  0
    3.3432    2.6279   20.4411 C   0  0  0  0  0  0  0  0  0  0  0  0
   12.9132   -0.6032   23.2569 C   0  0  0  0  0  0  0  0  0  0  0  0
    4.8973    1.0233   21.2988 C   0  0  0  0  0  0  0  0  0  0  0  0
   10.9991   -1.4331   22.0443 C   0  0  0  0  0  0  0  0  0  0  0  0
    5.3278    1.2339   17.6066 C   0  0  0  0  0  0  0  0  0  0  0  0
    6.8438   -0.2892   18.3752 C   0  0  0  0  0  0  0  0  0  0  0  0
    4.8226    1.4906   18.9054 C   0  0  0  0  0  0  0  0  0  0  0  0
    5.3982    0.7733   19.9948 C   0  0  0  0  0  0  0  0  0  0  0  0
   10.7040   -0.0625   23.9898 C   0  0  0  0  0  0  0  0  0  0  0  0
   10.1406   -0.7765   22.9250 C   0  0  0  0  0  0  0  0  0  0  0  0
    6.4440   -0.1472   19.6979 C   0  0  0  0  0  0  0  0  0  0  0  0
    3.8960    1.9291   21.5050 C   0  0  0  0  0  0  0  0  0  0  0  0
   12.3683   -1.3298   22.2234 C   0  0  0  0  0  0  0  0  0  0  0  0
    9.9479    0.5589   24.9534 C   0  0  0  0  0  0  0  0  0  0  0  0
    8.2490    0.0169   21.4271 C   0  0  0  0  0  0  0  0  0  0  0  0
    8.4222    3.2568   23.7645 C   0  0  0  0  0  0  0  0  0  0  0  0
    7.9228    2.6746   26.2005 C   0  0  0  0  0  0  0  0  0  0  0  0
    6.7191    2.2853   25.4011 C   0  0  0  0  0  0  0  0  0  0  0  0
    8.0140   -2.1541   22.4331 C   0  0  0  0  0  0  0  0  0  0  0  0
    6.9866   -1.9366   21.3580 C   0  0  0  0  0  0  0  0  0  0  0  0
    7.8721   -0.1194   23.8831 C   0  0  0  0  0  0  0  0  0  0  0  0
    8.6238   -0.7606   22.6929 C   0  0  3  0  0  0  0  0  0  0  0  0
    8.0922    2.2237   24.7645 C   0  0  0  0  0  0  0  0  0  0  0  0
   10.1192    4.9707   23.1599 C   0  0  0  0  0  0  0  0  0  0  0  0
    6.3062    0.3769   17.3421 N   0  0  0  0  0  0  0  0  0  0  0  0
    7.2292   -0.6897   20.7790 N   0  0  0  0  0  0  0  0  0  0  0  0
    8.6609    1.0133   24.4995 N   0  0  0  0  0  0  0  0  0  0  0  0
    9.6069    3.9231   24.0138 N   0  0  0  0  0  0  0  0  0  0  0  0
   10.3214    0.7303   26.1092 O   0  0  0  0  0  0  0  0  0  0  0  0
    8.8193    1.0411   21.0780 O   0  0  0  0  0  0  0  0  0  0  0  0
    7.6637    3.4490   22.8214 O   0  0  0  0  0  0  0  0  0  0  0  0
    3.4314    2.1555   22.7514 F   0  0  0  0  0  0  0  0  0  0  0  0
   13.4266   -2.1450   21.1115 Cl  0  0  0  0  0  0  0  0  0  0  0  0
    3.3399    2.9734   18.3365 H   0  0  0  0  0  0  0  0  0  0  0  0
   12.5168    0.5969   24.9717 H   0  0  0  0  0  0  0  0  0  0  0  0
    2.5430    3.3508   20.6361 H   0  0  0  0  0  0  0  0  0  0  0  0
   13.9905   -0.5223   23.3823 H   0  0  0  0  0  0  0  0  0  0  0  0
    5.3103    0.4884   22.1571 H   0  0  0  0  0  0  0  0  0  0  0  0
   10.6130   -2.0239   21.2265 H   0  0  0  0  0  0  0  0  0  0  0  0
    4.9138    1.7515   16.7475 H   0  0  0  0  0  0  0  0  0  0  0  0
    7.6445   -0.9762   18.1044 H   0  0  0  0  0  0  0  0  0  0  0  0
    8.0542    3.7249   26.4335 H   0  0  0  0  0  0  0  0  0  0  0  0
    8.2388    2.0049   26.9919 H   0  0  0  0  0  0  0  0  0  0  0  0
    6.2266    1.3540   25.6549 H   0  0  0  0  0  0  0  0  0  0  0  0
    6.0407    3.0736   25.0964 H   0  0  0  0  0  0  0  0  0  0  0  0
    7.5107   -2.5270   23.3391 H   0  0  0  0  0  0  0  0  0  0  0  0
    8.7577   -2.9105   22.1439 H   0  0  0  0  0  0  0  0  0  0  0  0
    7.0584   -2.7260   20.5727 H   0  0  0  0  0  0  0  0  0  0  0  0
    5.9514   -1.9960   21.7715 H   0  0  0  0  0  0  0  0  0  0  0  0
    6.9260    0.3245   23.5638 H   0  0  0  0  0  0  0  0  0  0  0  0
    7.6512   -0.8549   24.6568 H   0  0  0  0  0  0  0  0  0  0  0  0
   10.7641    4.5304   22.3851 H   0  0  0  0  0  0  0  0  0  0  0  0
    9.2800    5.4976   22.6824 H   0  0  0  0  0  0  0  0  0  0  0  0
   10.7034    5.6817   23.7625 H   0  0  0  0  0  0  0  0  0  0  0  0
   10.1432    3.6642   24.8364 H   0  0  0  0  0  0  0  0  0  0  0  0
  1  3  2  0  0  0  0
  1  9  1  0  0  0  0
  2  4  2  0  0  0  0
  2 11  1  0  0  0  0
  3 14  1  0  0  0  0
  4 15  1  0  0  0  0
  5 10  1  0  0  0  0
  5 14  2  0  0  0  0
  6 12  1  0  0  0  0
  6 15  2  0  0  0  0
  7  9  2  0  0  0  0
  7 27  1  0  0  0  0
  8 13  1  0  0  0  0
  8 27  2  0  0  0  0
  9 10  1  0  0  0  0
 10 13  2  0  0  0  0
 11 12  2  0  0  0  0
 11 16  1  0  0  0  0
 12 24  1  0  0  0  0
 13 28  1  0  0  0  0
 14 34  1  0  0  0  0
 15 35  1  0  0  0  0
 16 29  1  0  0  0  0
 16 31  2  0  0  0  0
 17 24  1  0  0  0  0
 17 28  1  0  0  0  0
 17 32  2  0  0  0  0
 18 25  1  0  0  0  0
 18 30  1  0  0  0  0
 18 33  2  0  0  0  0
 19 20  1  0  0  0  0
 19 25  1  0  0  0  0
 20 25  1  0  0  0  0
 21 22  1  0  0  0  0
 21 24  1  0  0  0  0
 22 28  1  0  0  0  0
 23 24  1  0  0  0  0
 23 29  1  0  0  0  0
 25 29  1  0  0  0  0
 26 30  1  0  0  0  0
  1 36  1  0  0  0  0
  2 37  1  0  0  0  0
  3 38  1  0  0  0  0
  4 39  1  0  0  0  0
  5 40  1  0  0  0  0
  6 41  1  0  0  0  0
  7 42  1  0  0  0  0
  8 43  1  0  0  0  0
 19 44  1  0  0  0  0
 19 45  1  0  0  0  0
 20 46  1  0  0  0  0
 20 47  1  0  0  0  0
 21 48  1  0  0  0  0
 21 49  1  0  0  0  0
 22 50  1  0  0  0  0
 22 51  1  0  0  0  0
 23 52  1  0  0  0  0
 23 53  1  0  0  0  0
 26 54  1  0  0  0  0
 26 55  1  0  0  0  0
 26 56  1  0  0  0  0
 30 57  1  0  0  0  0
M  END
> <compound>
EDJ-MED-b6c6ee2b-7

> <compound_smiles>
CNC(=O)C1(CC1)N2CC3(CCN(C3=O)c4cncc5c4cc(cc5)F)c6cc(ccc6C2=O)Cl

> <enantiomer_smiles>
CNC(=O)C1(CC1)N2CC3(CCN(C3=O)c4cncc5c4cc(cc5)F)c6cc(ccc6C2=O)Cl

> <scaffold>
tetrahydroisoquinoline-5spiro-isoquinoline

> <clash_score>
0

> <docking_score>
-9.482757568359375

> <overlap_score>
1.0

> <MMFF_internal_energy>
146.1267346173078

> <docked_smiles>
CNC(=O)C1(CC1)N2C[C@]3(CCN(C3=O)c4cncc5c4cc(cc5)F)c6cc(ccc6C2=O)Cl

$$$$
PET-UNK-94036022-5_1
  -OEChem-12272114573D

 56 61  0     1  0  0  0  0  0999 V2000
    3.3432    2.6279   20.4411 C   0  0  0  0  0  0  0  0  0  0  0  0
    3.8960    1.9291   21.5050 C   0  0  0  0  0  0  0  0  0  0  0  0
    3.7865    2.4205   19.1660 C   0  0  0  0  0  0  0  0  0  0  0  0
    4.8973    1.0233   21.2988 C   0  0  0  0  0  0  0  0  0  0  0  0
   12.0765    0.0316   24.1541 C   0  0  0  0  0  0  0  0  0  0  0  0
   12.9132   -0.6032   23.2569 C   0  0  0  0  0  0  0  0  0  0  0  0
   10.9991   -1.4331   22.0443 C   0  0  0  0  0  0  0  0  0  0  0  0
    5.3278    1.2339   17.6066 C   0  0  0  0  0  0  0  0  0  0  0  0
    6.8438   -0.2892   18.3752 C   0  0  0  0  0  0  0  0  0  0  0  0
    4.8226    1.4906   18.9054 C   0  0  0  0  0  0  0  0  0  0  0  0
    5.3982    0.7733   19.9948 C   0  0  0  0  0  0  0  0  0  0  0  0
   10.7040   -0.0625   23.9898 C   0  0  0  0  0  0  0  0  0  0  0  0
   10.1406   -0.7765   22.9250 C   0  0  0  0  0  0  0  0  0  0  0  0
    6.4440   -0.1472   19.6979 C   0  0  0  0  0  0  0  0  0  0  0  0
   12.3683   -1.3298   22.2234 C   0  0  0  0  0  0  0  0  0  0  0  0
    6.9866   -1.9366   21.3580 C   0  0  0  0  0  0  0  0  0  0  0  0
    8.2490    0.0169   21.4271 C   0  0  0  0  0  0  0  0  0  0  0  0
    9.9479    0.5589   24.9534 C   0  0  0  0  0  0  0  0  0  0  0  0
    8.0140   -2.1541   22.4331 C   0  0  0  0  0  0  0  0  0  0  0  0
    8.6447    5.7527   23.5408 C   0  0  0  0  0  0  0  0  0  0  0  0
    8.5313    6.1995   24.9697 C   0  0  0  0  0  0  0  0  0  0  0  0
    7.8721   -0.1194   23.8831 C   0  0  0  0  0  0  0  0  0  0  0  0
    8.6238   -0.7606   22.6929 C   0  0  1  0  0  0  0  0  0  0  0  0
    7.8469    4.9301   24.5235 C   0  0  0  0  0  0  0  0  0  0  0  0
    8.4002    3.5993   24.9817 C   0  0  0  0  0  0  0  0  0  0  0  0
    6.3062    0.3769   17.3421 N   0  0  0  0  0  0  0  0  0  0  0  0
    7.2292   -0.6897   20.7790 N   0  0  0  0  0  0  0  0  0  0  0  0
    8.6609    1.0133   24.4995 N   0  0  1  0  0  0  0  0  0  0  0  0
    6.1208   -2.7600   21.1047 O   0  0  0  0  0  0  0  0  0  0  0  0
    8.7896    1.0612   21.1027 O   0  0  0  0  0  0  0  0  0  0  0  0
    7.4247    2.5285   22.8071 O   0  0  0  0  0  0  0  0  0  0  0  0
    9.9321    2.7174   23.0574 O   0  0  0  0  0  0  0  0  0  0  0  0
    8.6203    2.4826   23.6205 S   0  0  0  0  0  0  0  0  0  0  0  0
   13.4271   -2.1418   21.1092 Cl  0  0  0  0  0  0  0  0  0  0  0  0
    6.0802    4.9828   24.3668 Cl  0  0  0  0  0  0  0  0  0  0  0  0
    2.5432    3.3510   20.6369 H   0  0  0  0  0  0  0  0  0  0  0  0
    3.5174    2.1137   22.5168 H   0  0  0  0  0  0  0  0  0  0  0  0
    3.3409    2.9743   18.3364 H   0  0  0  0  0  0  0  0  0  0  0  0
    5.3118    0.4895   22.1572 H   0  0  0  0  0  0  0  0  0  0  0  0
   12.5020    0.5927   24.9783 H   0  0  0  0  0  0  0  0  0  0  0  0
   13.9911   -0.5225   23.3825 H   0  0  0  0  0  0  0  0  0  0  0  0
   10.6032   -2.0209   21.2277 H   0  0  0  0  0  0  0  0  0  0  0  0
    4.9141    1.7511   16.7474 H   0  0  0  0  0  0  0  0  0  0  0  0
    7.6445   -0.9764   18.1043 H   0  0  0  0  0  0  0  0  0  0  0  0
    9.7590   -0.1292   25.8175 H   0  0  0  0  0  0  0  0  0  0  0  0
   10.4933    1.4387   25.3838 H   0  0  0  0  0  0  0  0  0  0  0  0
    7.5403   -2.5807   23.3246 H   0  0  0  0  0  0  0  0  0  0  0  0
    8.7445   -2.8785   22.0514 H   0  0  0  0  0  0  0  0  0  0  0  0
    8.1171    6.3305   22.7910 H   0  0  0  0  0  0  0  0  0  0  0  0
    9.6041    5.3747   23.2073 H   0  0  0  0  0  0  0  0  0  0  0  0
    9.4145    6.1199   25.5926 H   0  0  0  0  0  0  0  0  0  0  0  0
    7.9280    7.0759   25.1751 H   0  0  0  0  0  0  0  0  0  0  0  0
    6.8882    0.2774   23.5695 H   0  0  0  0  0  0  0  0  0  0  0  0
    7.6626   -0.8750   24.6620 H   0  0  0  0  0  0  0  0  0  0  0  0
    7.7207    3.1155   25.6888 H   0  0  0  0  0  0  0  0  0  0  0  0
    9.3766    3.7242   25.4575 H   0  0  0  0  0  0  0  0  0  0  0  0
  1  2  1  0  0  0  0
  1  3  2  0  0  0  0
  2  4  2  0  0  0  0
  3 10  1  0  0  0  0
  4 11  1  0  0  0  0
  5  6  1  0  0  0  0
  5 12  2  0  0  0  0
  6 15  2  0  0  0  0
  7 13  2  0  0  0  0
  7 15  1  0  0  0  0
  8 10  2  0  0  0  0
  8 26  1  0  0  0  0
  9 14  1  0  0  0  0
  9 26  2  0  0  0  0
 10 11  1  0  0  0  0
 11 14  2  0  0  0  0
 12 13  1  0  0  0  0
 12 18  1  0  0  0  0
 13 23  1  6  0  0  0
 14 27  1  0  0  0  0
 15 34  1  0  0  0  0
 16 19  1  0  0  0  0
 16 27  1  0  0  0  0
 16 29  2  0  0  0  0
 17 23  1  1  0  0  0
 17 27  1  0  0  0  0
 17 30  2  0  0  0  0
 18 28  1  0  0  0  0
 19 23  1  1  0  0  0
 20 21  1  0  0  0  0
 20 24  1  0  0  0  0
 21 24  1  0  0  0  0
 22 23  1  6  0  0  0
 22 28  1  0  0  0  0
 24 25  1  0  0  0  0
 24 35  1  0  0  0  0
 25 33  1  0  0  0  0
 28 33  1  1  0  0  0
 31 33  2  0  0  0  0
 32 33  2  0  0  0  0
  1 36  1  0  0  0  0
  2 37  1  0  0  0  0
  3 38  1  0  0  0  0
  4 39  1  0  0  0  0
  5 40  1  0  0  0  0
  6 41  1  0  0  0  0
  7 42  1  0  0  0  0
  8 43  1  0  0  0  0
  9 44  1  0  0  0  0
 18 45  1  0  0  0  0
 18 46  1  0  0  0  0
 19 47  1  0  0  0  0
 19 48  1  0  0  0  0
 20 49  1  0  0  0  0
 20 50  1  0  0  0  0
 21 51  1  0  0  0  0
 21 52  1  0  0  0  0
 22 53  1  0  0  0  0
 22 54  1  0  0  0  0
 25 55  1  0  0  0  0
 25 56  1  0  0  0  0
M  END
> <compound>
PET-UNK-94036022-5

> <compound_smiles>
c1ccc2c(c1)cncc2N3C(=O)C[C@@]4(C3=O)CN(Cc5c4cc(cc5)Cl)S(=O)(=O)CC6(CC6)Cl

> <enantiomer_smiles>
c1ccc2c(c1)cncc2N3C(=O)C[C@@]4(C3=O)C[N@@](Cc5c4cc(cc5)Cl)S(=O)(=O)CC6(CC6)Cl

> <scaffold>
tetrahydroisoquinoline-5spiro-isoquinoline

> <clash_score>
0

> <docking_score>
-8.961663246154785

> <overlap_score>
1.0

> <MMFF_internal_energy>
82.6080914546008

> <docked_smiles>
c1ccc2c(c1)cncc2N3C(=O)C[C@@]4(C3=O)C[N@@](Cc5c4cc(cc5)Cl)S(=O)(=O)CC6(CC6)Cl

$$$$
EDJ-MED-976a33d5-3_2
  -OEChem-12272114573D

 58 63  0     1  0  0  0  0  0999 V2000
    3.3432    2.6279   20.4411 C   0  0  0  0  0  0  0  0  0  0  0  0
    3.8960    1.9291   21.5050 C   0  0  0  0  0  0  0  0  0  0  0  0
    3.7865    2.4205   19.1660 C   0  0  0  0  0  0  0  0  0  0  0  0
    4.8973    1.0233   21.2988 C   0  0  0  0  0  0  0  0  0  0  0  0
   12.0765    0.0316   24.1541 C   0  0  0  0  0  0  0  0  0  0  0  0
   12.9132   -0.6032   23.2569 C   0  0  0  0  0  0  0  0  0  0  0  0
   10.9991   -1.4331   22.0443 C   0  0  0  0  0  0  0  0  0  0  0  0
    5.3278    1.2339   17.6066 C   0  0  0  0  0  0  0  0  0  0  0  0
    6.8438   -0.2892   18.3752 C   0  0  0  0  0  0  0  0  0  0  0  0
    4.8226    1.4906   18.9054 C   0  0  0  0  0  0  0  0  0  0  0  0
    5.3982    0.7733   19.9948 C   0  0  0  0  0  0  0  0  0  0  0  0
   10.1406   -0.7765   22.9250 C   0  0  0  0  0  0  0  0  0  0  0  0
    6.4440   -0.1472   19.6979 C   0  0  0  0  0  0  0  0  0  0  0  0
   10.7040   -0.0625   23.9898 C   0  0  0  0  0  0  0  0  0  0  0  0
   12.3683   -1.3298   22.2234 C   0  0  0  0  0  0  0  0  0  0  0  0
    8.2490    0.0169   21.4271 C   0  0  0  0  0  0  0  0  0  0  0  0
    9.9387    2.6842   23.3856 C   0  0  0  0  0  0  0  0  0  0  0  0
    7.4547    3.2456   23.7418 C   0  0  0  0  0  0  0  0  0  0  0  0
    7.5374    2.4142   22.5003 C   0  0  0  0  0  0  0  0  0  0  0  0
    8.0140   -2.1541   22.4331 C   0  0  0  0  0  0  0  0  0  0  0  0
    6.9866   -1.9366   21.3580 C   0  0  0  0  0  0  0  0  0  0  0  0
    7.8721   -0.1194   23.8831 C   0  0  0  0  0  0  0  0  0  0  0  0
    8.6238   -0.7606   22.6929 C   0  0  3  0  0  0  0  0  0  0  0  0
    8.5629    2.2230   23.5985 C   0  0  0  0  0  0  0  0  0  0  0  0
   11.5094    4.5497   23.8707 C   0  0  0  0  0  0  0  0  0  0  0  0
    6.3062    0.3769   17.3421 N   0  0  0  0  0  0  0  0  0  0  0  0
    7.2292   -0.6897   20.7790 N   0  0  0  0  0  0  0  0  0  0  0  0
    8.6609    1.0133   24.4995 N   0  0  1  0  0  0  0  0  0  0  0  0
   10.2157    3.9112   23.9577 N   0  0  0  0  0  0  0  0  0  0  0  0
    8.7573    1.0934   21.1339 O   0  0  0  0  0  0  0  0  0  0  0  0
   10.7178    1.9866   22.7468 O   0  0  0  0  0  0  0  0  0  0  0  0
   10.7545    1.7880   25.5077 O   0  0  0  0  0  0  0  0  0  0  0  0
    9.7113   -0.4237   26.1576 O   0  0  0  0  0  0  0  0  0  0  0  0
    9.9479    0.5589   24.9534 S   0  0  0  0  0  0  0  0  0  0  0  0
   13.4277   -2.1449   21.1118 Cl  0  0  0  0  0  0  0  0  0  0  0  0
    2.5432    3.3510   20.6369 H   0  0  0  0  0  0  0  0  0  0  0  0
    3.5174    2.1137   22.5168 H   0  0  0  0  0  0  0  0  0  0  0  0
    3.3409    2.9743   18.3364 H   0  0  0  0  0  0  0  0  0  0  0  0
    5.3118    0.4895   22.1572 H   0  0  0  0  0  0  0  0  0  0  0  0
   12.5117    0.5977   24.9750 H   0  0  0  0  0  0  0  0  0  0  0  0
   13.9913   -0.5222   23.3828 H   0  0  0  0  0  0  0  0  0  0  0  0
   10.6093   -2.0243   21.2318 H   0  0  0  0  0  0  0  0  0  0  0  0
    4.9141    1.7511   16.7474 H   0  0  0  0  0  0  0  0  0  0  0  0
    7.6445   -0.9764   18.1043 H   0  0  0  0  0  0  0  0  0  0  0  0
    7.7078    4.2962   23.6617 H   0  0  0  0  0  0  0  0  0  0  0  0
    6.6496    3.0351   24.4356 H   0  0  0  0  0  0  0  0  0  0  0  0
    6.7887    1.6436   22.3598 H   0  0  0  0  0  0  0  0  0  0  0  0
    7.8463    2.9050   21.5850 H   0  0  0  0  0  0  0  0  0  0  0  0
    7.5785   -2.6066   23.3352 H   0  0  0  0  0  0  0  0  0  0  0  0
    8.7701   -2.8653   22.0658 H   0  0  0  0  0  0  0  0  0  0  0  0
    7.0230   -2.7498   20.5948 H   0  0  0  0  0  0  0  0  0  0  0  0
    5.9554   -1.9484   21.7828 H   0  0  0  0  0  0  0  0  0  0  0  0
    6.8795    0.2669   23.5767 H   0  0  0  0  0  0  0  0  0  0  0  0
    7.6499   -0.8718   24.6640 H   0  0  0  0  0  0  0  0  0  0  0  0
   12.1308    4.2381   24.7232 H   0  0  0  0  0  0  0  0  0  0  0  0
   12.0010    4.2554   22.9317 H   0  0  0  0  0  0  0  0  0  0  0  0
   11.3811    5.6420   23.8906 H   0  0  0  0  0  0  0  0  0  0  0  0
    9.4747    4.3870   24.4636 H   0  0  0  0  0  0  0  0  0  0  0  0
  1  2  1  0  0  0  0
  1  3  2  0  0  0  0
  2  4  2  0  0  0  0
  3 10  1  0  0  0  0
  4 11  1  0  0  0  0
  5  6  2  0  0  0  0
  5 14  1  0  0  0  0
  6 15  1  0  0  0  0
  7 12  1  0  0  0  0
  7 15  2  0  0  0  0
  8 10  2  0  0  0  0
  8 26  1  0  0  0  0
  9 13  1  0  0  0  0
  9 26  2  0  0  0  0
 10 11  1  0  0  0  0
 11 13  2  0  0  0  0
 12 14  2  0  0  0  0
 12 23  1  0  0  0  0
 13 27  1  0  0  0  0
 14 34  1  0  0  0  0
 15 35  1  0  0  0  0
 16 23  1  0  0  0  0
 16 27  1  0  0  0  0
 16 30  2  0  0  0  0
 17 24  1  0  0  0  0
 17 29  1  0  0  0  0
 17 31  2  0  0  0  0
 18 19  1  0  0  0  0
 18 24  1  0  0  0  0
 19 24  1  0  0  0  0
 20 21  1  0  0  0  0
 20 23  1  0  0  0  0
 21 27  1  0  0  0  0
 22 23  1  0  0  0  0
 22 28  1  0  0  0  0
 24 28  1  6  0  0  0
 25 29  1  0  0  0  0
 28 34  1  0  0  0  0
 32 34  2  0  0  0  0
 33 34  2  0  0  0  0
  1 36  1  0  0  0  0
  2 37  1  0  0  0  0
  3 38  1  0  0  0  0
  4 39  1  0  0  0  0
  5 40  1  0  0  0  0
  6 41  1  0  0  0  0
  7 42  1  0  0  0  0
  8 43  1  0  0  0  0
  9 44  1  0  0  0  0
 18 45  1  0  0  0  0
 18 46  1  0  0  0  0
 19 47  1  0  0  0  0
 19 48  1  0  0  0  0
 20 49  1  0  0  0  0
 20 50  1  0  0  0  0
 21 51  1  0  0  0  0
 21 52  1  0  0  0  0
 22 53  1  0  0  0  0
 22 54  1  0  0  0  0
 25 55  1  0  0  0  0
 25 56  1  0  0  0  0
 25 57  1  0  0  0  0
 29 58  1  0  0  0  0
M  END
> <compound>
EDJ-MED-976a33d5-3

> <compound_smiles>
CNC(=O)C1(CC1)N2CC3(CCN(C3=O)c4cncc5c4cccc5)c6cc(ccc6S2(=O)=O)Cl

> <enantiomer_smiles>
CNC(=O)C1(CC1)[N@]2CC3(CCN(C3=O)c4cncc5c4cccc5)c6cc(ccc6S2(=O)=O)Cl

> <scaffold>
tetralinlike-5spiro-isoquinoline

> <clash_score>
0.7190746227789593

> <docking_score>
-7.3928937911987305

> <overlap_score>
1.0

> <MMFF_internal_energy>
308.81647868717147

> <docked_smiles>
CNC(=O)C1(CC1)[N@]2C[C@]3(CCN(C3=O)c4cncc5c4cccc5)c6cc(ccc6S2(=O)=O)Cl

$$$$
PET-UNK-94036022-5_2
  -OEChem-12272114573D

 56 61  0     1  0  0  0  0  0999 V2000
    3.3432    2.6279   20.4411 C   0  0  0  0  0  0  0  0  0  0  0  0
    3.8960    1.9291   21.5050 C   0  0  0  0  0  0  0  0  0  0  0  0
    3.7865    2.4205   19.1660 C   0  0  0  0  0  0  0  0  0  0  0  0
    4.8973    1.0233   21.2988 C   0  0  0  0  0  0  0  0  0  0  0  0
   12.0765    0.0316   24.1541 C   0  0  0  0  0  0  0  0  0  0  0  0
   12.9132   -0.6032   23.2569 C   0  0  0  0  0  0  0  0  0  0  0  0
   10.9991   -1.4331   22.0443 C   0  0  0  0  0  0  0  0  0  0  0  0
    5.3278    1.2339   17.6066 C   0  0  0  0  0  0  0  0  0  0  0  0
    6.8438   -0.2892   18.3752 C   0  0  0  0  0  0  0  0  0  0  0  0
    4.8226    1.4906   18.9054 C   0  0  0  0  0  0  0  0  0  0  0  0
    5.3982    0.7733   19.9948 C   0  0  0  0  0  0  0  0  0  0  0  0
   10.7040   -0.0625   23.9898 C   0  0  0  0  0  0  0  0  0  0  0  0
   10.1406   -0.7765   22.9250 C   0  0  0  0  0  0  0  0  0  0  0  0
    6.4440   -0.1472   19.6979 C   0  0  0  0  0  0  0  0  0  0  0  0
   12.3683   -1.3298   22.2234 C   0  0  0  0  0  0  0  0  0  0  0  0
    6.9866   -1.9366   21.3580 C   0  0  0  0  0  0  0  0  0  0  0  0
    8.2490    0.0169   21.4271 C   0  0  0  0  0  0  0  0  0  0  0  0
    9.9479    0.5589   24.9534 C   0  0  0  0  0  0  0  0  0  0  0  0
    8.0140   -2.1541   22.4331 C   0  0  0  0  0  0  0  0  0  0  0  0
    9.7363    3.1058   22.9050 C   0  0  0  0  0  0  0  0  0  0  0  0
    9.5616    4.5959   22.9666 C   0  0  0  0  0  0  0  0  0  0  0  0
    7.8721   -0.1194   23.8831 C   0  0  0  0  0  0  0  0  0  0  0  0
    8.6238   -0.7606   22.6929 C   0  0  1  0  0  0  0  0  0  0  0  0
    8.5038    3.6912   23.5510 C   0  0  0  0  0  0  0  0  0  0  0  0
    8.3575    3.6102   25.0540 C   0  0  0  0  0  0  0  0  0  0  0  0
    6.3062    0.3769   17.3421 N   0  0  0  0  0  0  0  0  0  0  0  0
    7.2292   -0.6897   20.7790 N   0  0  0  0  0  0  0  0  0  0  0  0
    8.6609    1.0133   24.4995 N   0  0  2  0  0  0  0  0  0  0  0  0
    6.1313   -2.7665   21.0946 O   0  0  0  0  0  0  0  0  0  0  0  0
    8.7792    1.0647   21.1044 O   0  0  0  0  0  0  0  0  0  0  0  0
    8.2397    1.7786   26.9137 O   0  0  0  0  0  0  0  0  0  0  0  0
    6.3694    1.9228   25.2205 O   0  0  0  0  0  0  0  0  0  0  0  0
    7.7712    2.0157   25.5657 S   0  0  0  0  0  0  0  0  0  0  0  0
   13.4280   -2.1405   21.1093 Cl  0  0  0  0  0  0  0  0  0  0  0  0
    6.9813    3.5499   22.6505 Cl  0  0  0  0  0  0  0  0  0  0  0  0
    2.5432    3.3510   20.6369 H   0  0  0  0  0  0  0  0  0  0  0  0
    3.5174    2.1137   22.5168 H   0  0  0  0  0  0  0  0  0  0  0  0
    3.3409    2.9743   18.3364 H   0  0  0  0  0  0  0  0  0  0  0  0
    5.3118    0.4895   22.1572 H   0  0  0  0  0  0  0  0  0  0  0  0
   12.5030    0.5986   24.9733 H   0  0  0  0  0  0  0  0  0  0  0  0
   13.9915   -0.5171   23.3790 H   0  0  0  0  0  0  0  0  0  0  0  0
   10.6134   -2.0183   21.2242 H   0  0  0  0  0  0  0  0  0  0  0  0
    4.9141    1.7511   16.7474 H   0  0  0  0  0  0  0  0  0  0  0  0
    7.6445   -0.9764   18.1043 H   0  0  0  0  0  0  0  0  0  0  0  0
    9.7877   -0.1156   25.8356 H   0  0  0  0  0  0  0  0  0  0  0  0
   10.4797    1.4586   25.3596 H   0  0  0  0  0  0  0  0  0  0  0  0
    7.4819   -2.5429   23.3081 H   0  0  0  0  0  0  0  0  0  0  0  0
    8.7486   -2.8980   22.1150 H   0  0  0  0  0  0  0  0  0  0  0  0
    9.6442    2.6295   21.9361 H   0  0  0  0  0  0  0  0  0  0  0  0
   10.4934    2.6622   23.5409 H   0  0  0  0  0  0  0  0  0  0  0  0
   10.2013    5.1492   23.6441 H   0  0  0  0  0  0  0  0  0  0  0  0
    9.3528    5.1154   22.0389 H   0  0  0  0  0  0  0  0  0  0  0  0
    6.9015    0.2780   23.5471 H   0  0  0  0  0  0  0  0  0  0  0  0
    7.6689   -0.8632   24.6705 H   0  0  0  0  0  0  0  0  0  0  0  0
    7.6389    4.3499   25.4177 H   0  0  0  0  0  0  0  0  0  0  0  0
    9.3178    3.7752   25.5502 H   0  0  0  0  0  0  0  0  0  0  0  0
  1  2  1  0  0  0  0
  1  3  2  0  0  0  0
  2  4  2  0  0  0  0
  3 10  1  0  0  0  0
  4 11  1  0  0  0  0
  5  6  1  0  0  0  0
  5 12  2  0  0  0  0
  6 15  2  0  0  0  0
  7 13  2  0  0  0  0
  7 15  1  0  0  0  0
  8 10  2  0  0  0  0
  8 26  1  0  0  0  0
  9 14  1  0  0  0  0
  9 26  2  0  0  0  0
 10 11  1  0  0  0  0
 11 14  2  0  0  0  0
 12 13  1  0  0  0  0
 12 18  1  0  0  0  0
 13 23  1  6  0  0  0
 14 27  1  0  0  0  0
 15 34  1  0  0  0  0
 16 19  1  0  0  0  0
 16 27  1  0  0  0  0
 16 29  2  0  0  0  0
 17 23  1  1  0  0  0
 17 27  1  0  0  0  0
 17 30  2  0  0  0  0
 18 28  1  0  0  0  0
 19 23  1  1  0  0  0
 20 21  1  0  0  0  0
 20 24  1  0  0  0  0
 21 24  1  0  0  0  0
 22 23  1  6  0  0  0
 22 28  1  0  0  0  0
 24 25  1  0  0  0  0
 24 35  1  0  0  0  0
 25 33  1  0  0  0  0
 28 33  1  6  0  0  0
 31 33  2  0  0  0  0
 32 33  2  0  0  0  0
  1 36  1  0  0  0  0
  2 37  1  0  0  0  0
  3 38  1  0  0  0  0
  4 39  1  0  0  0  0
  5 40  1  0  0  0  0
  6 41  1  0  0  0  0
  7 42  1  0  0  0  0
  8 43  1  0  0  0  0
  9 44  1  0  0  0  0
 18 45  1  0  0  0  0
 18 46  1  0  0  0  0
 19 47  1  0  0  0  0
 19 48  1  0  0  0  0
 20 49  1  0  0  0  0
 20 50  1  0  0  0  0
 21 51  1  0  0  0  0
 21 52  1  0  0  0  0
 22 53  1  0  0  0  0
 22 54  1  0  0  0  0
 25 55  1  0  0  0  0
 25 56  1  0  0  0  0
M  END
> <compound>
PET-UNK-94036022-5

> <compound_smiles>
c1ccc2c(c1)cncc2N3C(=O)C[C@@]4(C3=O)CN(Cc5c4cc(cc5)Cl)S(=O)(=O)CC6(CC6)Cl

> <enantiomer_smiles>
c1ccc2c(c1)cncc2N3C(=O)C[C@@]4(C3=O)C[N@](Cc5c4cc(cc5)Cl)S(=O)(=O)CC6(CC6)Cl

> <scaffold>
tetrahydroisoquinoline-5spiro-isoquinoline

> <clash_score>
0

> <docking_score>
-8.915607452392578

> <overlap_score>
1.0

> <MMFF_internal_energy>
79.30801502890921

> <docked_smiles>
c1ccc2c(c1)cncc2N3C(=O)C[C@@]4(C3=O)C[N@](Cc5c4cc(cc5)Cl)S(=O)(=O)CC6(CC6)Cl

$$$$
PET-UNK-94036022-2_2
  -OEChem-12272114573D

 59 64  0     1  0  0  0  0  0999 V2000
   10.7120    2.5515   22.5735 C   0  0  0  0  0  0  0  0  0  0  0  0
    9.7159    3.0542   23.0165 C   0  0  0  0  0  0  0  0  0  0  0  0
    3.3432    2.6279   20.4411 C   0  0  0  0  0  0  0  0  0  0  0  0
    3.8960    1.9291   21.5050 C   0  0  0  0  0  0  0  0  0  0  0  0
    3.7865    2.4205   19.1660 C   0  0  0  0  0  0  0  0  0  0  0  0
    4.8973    1.0233   21.2988 C   0  0  0  0  0  0  0  0  0  0  0  0
   12.0765    0.0316   24.1541 C   0  0  0  0  0  0  0  0  0  0  0  0
   12.9132   -0.6032   23.2569 C   0  0  0  0  0  0  0  0  0  0  0  0
   10.9991   -1.4331   22.0443 C   0  0  0  0  0  0  0  0  0  0  0  0
    5.3278    1.2339   17.6066 C   0  0  0  0  0  0  0  0  0  0  0  0
    6.8438   -0.2892   18.3752 C   0  0  0  0  0  0  0  0  0  0  0  0
    4.8226    1.4906   18.9054 C   0  0  0  0  0  0  0  0  0  0  0  0
    5.3982    0.7733   19.9948 C   0  0  0  0  0  0  0  0  0  0  0  0
   10.7040   -0.0625   23.9898 C   0  0  0  0  0  0  0  0  0  0  0  0
   10.1406   -0.7765   22.9250 C   0  0  0  0  0  0  0  0  0  0  0  0
    6.4440   -0.1472   19.6979 C   0  0  0  0  0  0  0  0  0  0  0  0
   12.3683   -1.3298   22.2234 C   0  0  0  0  0  0  0  0  0  0  0  0
    8.2490    0.0169   21.4271 C   0  0  0  0  0  0  0  0  0  0  0  0
    9.9479    0.5589   24.9534 C   0  0  0  0  0  0  0  0  0  0  0  0
    7.9847    4.8778   22.8347 C   0  0  0  0  0  0  0  0  0  0  0  0
    7.2671    3.5667   22.7066 C   0  0  0  0  0  0  0  0  0  0  0  0
    8.0140   -2.1541   22.4331 C   0  0  0  0  0  0  0  0  0  0  0  0
    6.9866   -1.9366   21.3580 C   0  0  0  0  0  0  0  0  0  0  0  0
    7.8721   -0.1194   23.8831 C   0  0  0  0  0  0  0  0  0  0  0  0
    8.5207    3.6567   23.5478 C   0  0  0  0  0  0  0  0  0  0  0  0
    8.6238   -0.7606   22.6929 C   0  0  2  0  0  0  0  0  0  0  0  0
    8.3755    3.5895   25.0516 C   0  0  0  0  0  0  0  0  0  0  0  0
    6.3062    0.3769   17.3421 N   0  0  0  0  0  0  0  0  0  0  0  0
    7.2292   -0.6897   20.7790 N   0  0  0  0  0  0  0  0  0  0  0  0
    8.6609    1.0133   24.4995 N   0  0  1  0  0  0  0  0  0  0  0  0
    8.7588    1.0926   21.1315 O   0  0  0  0  0  0  0  0  0  0  0  0
    8.2494    1.7666   26.9193 O   0  0  0  0  0  0  0  0  0  0  0  0
    6.3609    1.9371   25.2489 O   0  0  0  0  0  0  0  0  0  0  0  0
    7.7681    2.0072   25.5765 S   0  0  0  0  0  0  0  0  0  0  0  0
   13.4284   -2.1375   21.1073 Cl  0  0  0  0  0  0  0  0  0  0  0  0
   11.5957    2.1058   22.1805 H   0  0  0  0  0  0  0  0  0  0  0  0
    2.5432    3.3510   20.6369 H   0  0  0  0  0  0  0  0  0  0  0  0
    3.5174    2.1137   22.5168 H   0  0  0  0  0  0  0  0  0  0  0  0
    3.3409    2.9743   18.3364 H   0  0  0  0  0  0  0  0  0  0  0  0
    5.3118    0.4895   22.1572 H   0  0  0  0  0  0  0  0  0  0  0  0
   12.5035    0.6053   24.9687 H   0  0  0  0  0  0  0  0  0  0  0  0
   13.9915   -0.5091   23.3734 H   0  0  0  0  0  0  0  0  0  0  0  0
   10.6130   -2.0083   21.2173 H   0  0  0  0  0  0  0  0  0  0  0  0
    4.9141    1.7511   16.7474 H   0  0  0  0  0  0  0  0  0  0  0  0
    7.6445   -0.9764   18.1043 H   0  0  0  0  0  0  0  0  0  0  0  0
    9.7904   -0.1142   25.8401 H   0  0  0  0  0  0  0  0  0  0  0  0
   10.4809    1.4598   25.3620 H   0  0  0  0  0  0  0  0  0  0  0  0
    8.5101    5.2499   21.9623 H   0  0  0  0  0  0  0  0  0  0  0  0
    7.5107    5.6551   23.4229 H   0  0  0  0  0  0  0  0  0  0  0  0
    6.3116    3.4661   23.2085 H   0  0  0  0  0  0  0  0  0  0  0  0
    7.3117    3.0621   21.7482 H   0  0  0  0  0  0  0  0  0  0  0  0
    7.5755   -2.6005   23.3392 H   0  0  0  0  0  0  0  0  0  0  0  0
    8.7528   -2.8828   22.0695 H   0  0  0  0  0  0  0  0  0  0  0  0
    7.0226   -2.7507   20.5946 H   0  0  0  0  0  0  0  0  0  0  0  0
    5.9544   -1.9486   21.7821 H   0  0  0  0  0  0  0  0  0  0  0  0
    6.8938    0.2792   23.5661 H   0  0  0  0  0  0  0  0  0  0  0  0
    7.6737   -0.8615   24.6765 H   0  0  0  0  0  0  0  0  0  0  0  0
    7.6675    4.3417   25.4104 H   0  0  0  0  0  0  0  0  0  0  0  0
    9.3385    3.7452   25.5452 H   0  0  0  0  0  0  0  0  0  0  0  0
  1  2  3  0  0  0  0
  2 25  1  0  0  0  0
  3  4  1  0  0  0  0
  3  5  2  0  0  0  0
  4  6  2  0  0  0  0
  5 12  1  0  0  0  0
  6 13  1  0  0  0  0
  7  8  2  0  0  0  0
  7 14  1  0  0  0  0
  8 17  1  0  0  0  0
  9 15  1  0  0  0  0
  9 17  2  0  0  0  0
 10 12  2  0  0  0  0
 10 28  1  0  0  0  0
 11 16  1  0  0  0  0
 11 28  2  0  0  0  0
 12 13  1  0  0  0  0
 13 16  2  0  0  0  0
 14 15  2  0  0  0  0
 14 19  1  0  0  0  0
 15 26  1  6  0  0  0
 16 29  1  0  0  0  0
 17 35  1  0  0  0  0
 18 26  1  1  0  0  0
 18 29  1  0  0  0  0
 18 31  2  0  0  0  0
 19 30  1  0  0  0  0
 20 21  1  0  0  0  0
 20 25  1  0  0  0  0
 21 25  1  0  0  0  0
 22 23  1  0  0  0  0
 22 26  1  1  0  0  0
 23 29  1  0  0  0  0
 24 26  1  6  0  0  0
 24 30  1  0  0  0  0
 25 27  1  0  0  0  0
 27 34  1  0  0  0  0
 30 34  1  6  0  0  0
 32 34  2  0  0  0  0
 33 34  2  0  0  0  0
  1 36  1  0  0  0  0
  3 37  1  0  0  0  0
  4 38  1  0  0  0  0
  5 39  1  0  0  0  0
  6 40  1  0  0  0  0
  7 41  1  0  0  0  0
  8 42  1  0  0  0  0
  9 43  1  0  0  0  0
 10 44  1  0  0  0  0
 11 45  1  0  0  0  0
 19 46  1  0  0  0  0
 19 47  1  0  0  0  0
 20 48  1  0  0  0  0
 20 49  1  0  0  0  0
 21 50  1  0  0  0  0
 21 51  1  0  0  0  0
 22 52  1  0  0  0  0
 22 53  1  0  0  0  0
 23 54  1  0  0  0  0
 23 55  1  0  0  0  0
 24 56  1  0  0  0  0
 24 57  1  0  0  0  0
 27 58  1  0  0  0  0
 27 59  1  0  0  0  0
M  END
> <compound>
PET-UNK-94036022-2

> <compound_smiles>
C#CC1(CC1)CS(=O)(=O)N2Cc3ccc(cc3[C@]4(C2)CCN(C4=O)c5cncc6c5cccc6)Cl

> <enantiomer_smiles>
C#CC1(CC1)CS(=O)(=O)[N@]2Cc3ccc(cc3[C@]4(C2)CCN(C4=O)c5cncc6c5cccc6)Cl

> <scaffold>
tetrahydroisoquinoline-5spiro-isoquinoline

> <clash_score>
0

> <docking_score>
-9.165800094604492

> <overlap_score>
0.9746453762054443

> <MMFF_internal_energy>
128.54170680296696

> <docked_smiles>
C#CC1(CC1)CS(=O)(=O)[N@]2Cc3ccc(cc3[C@]4(C2)CCN(C4=O)c5cncc6c5cccc6)Cl

$$$$
PET-UNK-94036022-2_1
  -OEChem-12272114573D

 59 64  0     1  0  0  0  0  0999 V2000
   10.6409    6.1878   24.0377 C   0  0  0  0  0  0  0  0  0  0  0  0
    9.5854    5.6620   24.2622 C   0  0  0  0  0  0  0  0  0  0  0  0
    3.3432    2.6279   20.4411 C   0  0  0  0  0  0  0  0  0  0  0  0
    3.8960    1.9291   21.5050 C   0  0  0  0  0  0  0  0  0  0  0  0
    3.7865    2.4205   19.1660 C   0  0  0  0  0  0  0  0  0  0  0  0
    4.8973    1.0233   21.2988 C   0  0  0  0  0  0  0  0  0  0  0  0
   12.0765    0.0316   24.1541 C   0  0  0  0  0  0  0  0  0  0  0  0
   12.9132   -0.6032   23.2569 C   0  0  0  0  0  0  0  0  0  0  0  0
   10.9991   -1.4331   22.0443 C   0  0  0  0  0  0  0  0  0  0  0  0
    5.3278    1.2339   17.6066 C   0  0  0  0  0  0  0  0  0  0  0  0
    6.8438   -0.2892   18.3752 C   0  0  0  0  0  0  0  0  0  0  0  0
    4.8226    1.4906   18.9054 C   0  0  0  0  0  0  0  0  0  0  0  0
    5.3982    0.7733   19.9948 C   0  0  0  0  0  0  0  0  0  0  0  0
   10.7040   -0.0625   23.9898 C   0  0  0  0  0  0  0  0  0  0  0  0
   10.1406   -0.7765   22.9250 C   0  0  0  0  0  0  0  0  0  0  0  0
    6.4440   -0.1472   19.6979 C   0  0  0  0  0  0  0  0  0  0  0  0
   12.3683   -1.3298   22.2234 C   0  0  0  0  0  0  0  0  0  0  0  0
    8.2490    0.0169   21.4271 C   0  0  0  0  0  0  0  0  0  0  0  0
    9.9479    0.5589   24.9534 C   0  0  0  0  0  0  0  0  0  0  0  0
    7.2183    5.9001   25.0964 C   0  0  0  0  0  0  0  0  0  0  0  0
    7.1449    5.4406   23.6702 C   0  0  0  0  0  0  0  0  0  0  0  0
    8.0140   -2.1541   22.4331 C   0  0  0  0  0  0  0  0  0  0  0  0
    6.9866   -1.9366   21.3580 C   0  0  0  0  0  0  0  0  0  0  0  0
    7.8721   -0.1194   23.8831 C   0  0  0  0  0  0  0  0  0  0  0  0
    8.3190    5.0310   24.5309 C   0  0  0  0  0  0  0  0  0  0  0  0
    8.6238   -0.7606   22.6929 C   0  0  2  0  0  0  0  0  0  0  0  0
    8.3973    3.5924   24.9905 C   0  0  0  0  0  0  0  0  0  0  0  0
    6.3062    0.3769   17.3421 N   0  0  0  0  0  0  0  0  0  0  0  0
    7.2292   -0.6897   20.7790 N   0  0  0  0  0  0  0  0  0  0  0  0
    8.6609    1.0133   24.4995 N   0  0  2  0  0  0  0  0  0  0  0  0
    8.7576    1.0939   21.1347 O   0  0  0  0  0  0  0  0  0  0  0  0
    7.4170    2.5201   22.8188 O   0  0  0  0  0  0  0  0  0  0  0  0
    9.9241    2.7343   23.0514 O   0  0  0  0  0  0  0  0  0  0  0  0
    8.6190    2.4836   23.6231 S   0  0  0  0  0  0  0  0  0  0  0  0
   13.4269   -2.1431   21.1100 Cl  0  0  0  0  0  0  0  0  0  0  0  0
   11.5773    6.6543   23.8389 H   0  0  0  0  0  0  0  0  0  0  0  0
    2.5432    3.3510   20.6369 H   0  0  0  0  0  0  0  0  0  0  0  0
    3.5174    2.1137   22.5168 H   0  0  0  0  0  0  0  0  0  0  0  0
    3.3409    2.9743   18.3364 H   0  0  0  0  0  0  0  0  0  0  0  0
    5.3118    0.4895   22.1572 H   0  0  0  0  0  0  0  0  0  0  0  0
   12.5021    0.5936   24.9776 H   0  0  0  0  0  0  0  0  0  0  0  0
   13.9910   -0.5222   23.3823 H   0  0  0  0  0  0  0  0  0  0  0  0
   10.6038   -2.0223   21.2285 H   0  0  0  0  0  0  0  0  0  0  0  0
    4.9141    1.7511   16.7474 H   0  0  0  0  0  0  0  0  0  0  0  0
    7.6445   -0.9764   18.1043 H   0  0  0  0  0  0  0  0  0  0  0  0
    9.7593   -0.1283   25.8177 H   0  0  0  0  0  0  0  0  0  0  0  0
   10.4932    1.4394   25.3816 H   0  0  0  0  0  0  0  0  0  0  0  0
    7.4178    6.9506   25.2758 H   0  0  0  0  0  0  0  0  0  0  0  0
    6.5226    5.4615   25.8024 H   0  0  0  0  0  0  0  0  0  0  0  0
    6.3991    4.6946   23.4207 H   0  0  0  0  0  0  0  0  0  0  0  0
    7.2944    6.1840   22.8954 H   0  0  0  0  0  0  0  0  0  0  0  0
    7.5800   -2.6065   23.3362 H   0  0  0  0  0  0  0  0  0  0  0  0
    8.7751   -2.8606   22.0656 H   0  0  0  0  0  0  0  0  0  0  0  0
    7.0225   -2.7506   20.5953 H   0  0  0  0  0  0  0  0  0  0  0  0
    5.9555   -1.9476   21.7836 H   0  0  0  0  0  0  0  0  0  0  0  0
    6.8885    0.2772   23.5674 H   0  0  0  0  0  0  0  0  0  0  0  0
    7.6586   -0.8709   24.6639 H   0  0  0  0  0  0  0  0  0  0  0  0
    7.4776    3.2942   25.5015 H   0  0  0  0  0  0  0  0  0  0  0  0
    9.2431    3.4431   25.6672 H   0  0  0  0  0  0  0  0  0  0  0  0
  1  2  3  0  0  0  0
  2 25  1  0  0  0  0
  3  4  1  0  0  0  0
  3  5  2  0  0  0  0
  4  6  2  0  0  0  0
  5 12  1  0  0  0  0
  6 13  1  0  0  0  0
  7  8  2  0  0  0  0
  7 14  1  0  0  0  0
  8 17  1  0  0  0  0
  9 15  1  0  0  0  0
  9 17  2  0  0  0  0
 10 12  2  0  0  0  0
 10 28  1  0  0  0  0
 11 16  1  0  0  0  0
 11 28  2  0  0  0  0
 12 13  1  0  0  0  0
 13 16  2  0  0  0  0
 14 15  2  0  0  0  0
 14 19  1  0  0  0  0
 15 26  1  6  0  0  0
 16 29  1  0  0  0  0
 17 35  1  0  0  0  0
 18 26  1  1  0  0  0
 18 29  1  0  0  0  0
 18 31  2  0  0  0  0
 19 30  1  0  0  0  0
 20 21  1  0  0  0  0
 20 25  1  0  0  0  0
 21 25  1  0  0  0  0
 22 23  1  0  0  0  0
 22 26  1  1  0  0  0
 23 29  1  0  0  0  0
 24 26  1  6  0  0  0
 24 30  1  0  0  0  0
 25 27  1  0  0  0  0
 27 34  1  0  0  0  0
 30 34  1  1  0  0  0
 32 34  2  0  0  0  0
 33 34  2  0  0  0  0
  1 36  1  0  0  0  0
  3 37  1  0  0  0  0
  4 38  1  0  0  0  0
  5 39  1  0  0  0  0
  6 40  1  0  0  0  0
  7 41  1  0  0  0  0
  8 42  1  0  0  0  0
  9 43  1  0  0  0  0
 10 44  1  0  0  0  0
 11 45  1  0  0  0  0
 19 46  1  0  0  0  0
 19 47  1  0  0  0  0
 20 48  1  0  0  0  0
 20 49  1  0  0  0  0
 21 50  1  0  0  0  0
 21 51  1  0  0  0  0
 22 52  1  0  0  0  0
 22 53  1  0  0  0  0
 23 54  1  0  0  0  0
 23 55  1  0  0  0  0
 24 56  1  0  0  0  0
 24 57  1  0  0  0  0
 27 58  1  0  0  0  0
 27 59  1  0  0  0  0
M  END
> <compound>
PET-UNK-94036022-2

> <compound_smiles>
C#CC1(CC1)CS(=O)(=O)N2Cc3ccc(cc3[C@]4(C2)CCN(C4=O)c5cncc6c5cccc6)Cl

> <enantiomer_smiles>
C#CC1(CC1)CS(=O)(=O)[N@@]2Cc3ccc(cc3[C@]4(C2)CCN(C4=O)c5cncc6c5cccc6)Cl

> <scaffold>
tetrahydroisoquinoline-5spiro-isoquinoline

> <clash_score>
0

> <docking_score>
-9.224247932434082

> <overlap_score>
0.9736696481704712

> <MMFF_internal_energy>
132.34521085806554

> <docked_smiles>
C#CC1(CC1)CS(=O)(=O)[N@@]2Cc3ccc(cc3[C@]4(C2)CCN(C4=O)c5cncc6c5cccc6)Cl

$$$$
PET-UNK-94036022-9_2
  -OEChem-12272114573D

 59 64  0     1  0  0  0  0  0999 V2000
   10.7180    2.4987   22.5521 C   0  0  0  0  0  0  0  0  0  0  0  0
    9.7248    3.0135   22.9874 C   0  0  0  0  0  0  0  0  0  0  0  0
    3.3432    2.6279   20.4411 C   0  0  0  0  0  0  0  0  0  0  0  0
    3.8960    1.9291   21.5050 C   0  0  0  0  0  0  0  0  0  0  0  0
    3.7865    2.4205   19.1660 C   0  0  0  0  0  0  0  0  0  0  0  0
    4.8973    1.0233   21.2988 C   0  0  0  0  0  0  0  0  0  0  0  0
   12.0765    0.0316   24.1541 C   0  0  0  0  0  0  0  0  0  0  0  0
   12.9132   -0.6032   23.2569 C   0  0  0  0  0  0  0  0  0  0  0  0
   10.9991   -1.4331   22.0443 C   0  0  0  0  0  0  0  0  0  0  0  0
    5.3278    1.2339   17.6066 C   0  0  0  0  0  0  0  0  0  0  0  0
    6.8438   -0.2892   18.3752 C   0  0  0  0  0  0  0  0  0  0  0  0
    4.8226    1.4906   18.9054 C   0  0  0  0  0  0  0  0  0  0  0  0
    5.3982    0.7733   19.9948 C   0  0  0  0  0  0  0  0  0  0  0  0
   10.7040   -0.0625   23.9898 C   0  0  0  0  0  0  0  0  0  0  0  0
   10.1406   -0.7765   22.9250 C   0  0  0  0  0  0  0  0  0  0  0  0
    6.4440   -0.1472   19.6979 C   0  0  0  0  0  0  0  0  0  0  0  0
   12.3683   -1.3298   22.2234 C   0  0  0  0  0  0  0  0  0  0  0  0
    8.2490    0.0169   21.4271 C   0  0  0  0  0  0  0  0  0  0  0  0
    9.9479    0.5589   24.9534 C   0  0  0  0  0  0  0  0  0  0  0  0
    8.0042    4.8441   22.7770 C   0  0  0  0  0  0  0  0  0  0  0  0
    7.2790    3.5353   22.6693 C   0  0  0  0  0  0  0  0  0  0  0  0
    8.0140   -2.1541   22.4331 C   0  0  0  0  0  0  0  0  0  0  0  0
    6.9866   -1.9366   21.3580 C   0  0  0  0  0  0  0  0  0  0  0  0
    7.8721   -0.1194   23.8831 C   0  0  0  0  0  0  0  0  0  0  0  0
    8.5331    3.6312   23.5091 C   0  0  0  0  0  0  0  0  0  0  0  0
    8.6238   -0.7606   22.6929 C   0  0  3  0  0  0  0  0  0  0  0  0
    8.3874    3.5882   25.0137 C   0  0  0  0  0  0  0  0  0  0  0  0
    6.3062    0.3769   17.3421 N   0  0  0  0  0  0  0  0  0  0  0  0
    7.2292   -0.6897   20.7790 N   0  0  0  0  0  0  0  0  0  0  0  0
    8.6609    1.0133   24.4995 N   0  0  1  0  0  0  0  0  0  0  0  0
    8.8299    1.0397   21.0799 O   0  0  0  0  0  0  0  0  0  0  0  0
    8.2407    1.8013   26.9144 O   0  0  0  0  0  0  0  0  0  0  0  0
    6.3653    1.9471   25.2271 O   0  0  0  0  0  0  0  0  0  0  0  0
    7.7708    2.0177   25.5632 S   0  0  0  0  0  0  0  0  0  0  0  0
   13.4272   -2.1411   21.1086 Cl  0  0  0  0  0  0  0  0  0  0  0  0
   11.5993    2.0420   22.1661 H   0  0  0  0  0  0  0  0  0  0  0  0
    2.5432    3.3510   20.6369 H   0  0  0  0  0  0  0  0  0  0  0  0
    3.5174    2.1137   22.5168 H   0  0  0  0  0  0  0  0  0  0  0  0
    3.3409    2.9743   18.3364 H   0  0  0  0  0  0  0  0  0  0  0  0
    5.3118    0.4895   22.1572 H   0  0  0  0  0  0  0  0  0  0  0  0
   12.5024    0.5995   24.9735 H   0  0  0  0  0  0  0  0  0  0  0  0
   13.9910   -0.5177   23.3793 H   0  0  0  0  0  0  0  0  0  0  0  0
   10.6036   -2.0162   21.2241 H   0  0  0  0  0  0  0  0  0  0  0  0
    4.9141    1.7511   16.7474 H   0  0  0  0  0  0  0  0  0  0  0  0
    7.6445   -0.9764   18.1043 H   0  0  0  0  0  0  0  0  0  0  0  0
    9.7849   -0.1194   25.8306 H   0  0  0  0  0  0  0  0  0  0  0  0
   10.4793    1.4568   25.3613 H   0  0  0  0  0  0  0  0  0  0  0  0
    8.5318    5.1995   21.8990 H   0  0  0  0  0  0  0  0  0  0  0  0
    7.5346    5.6332   23.3529 H   0  0  0  0  0  0  0  0  0  0  0  0
    6.3229    3.4480   23.1725 H   0  0  0  0  0  0  0  0  0  0  0  0
    7.3207    3.0156   21.7188 H   0  0  0  0  0  0  0  0  0  0  0  0
    7.5152   -2.5456   23.3338 H   0  0  0  0  0  0  0  0  0  0  0  0
    8.7649   -2.9030   22.1434 H   0  0  0  0  0  0  0  0  0  0  0  0
    7.0587   -2.7248   20.5721 H   0  0  0  0  0  0  0  0  0  0  0  0
    5.9518   -1.9952   21.7720 H   0  0  0  0  0  0  0  0  0  0  0  0
    6.8867    0.2641   23.5642 H   0  0  0  0  0  0  0  0  0  0  0  0
    7.6652   -0.8660   24.6733 H   0  0  0  0  0  0  0  0  0  0  0  0
    7.6838    4.3500   25.3607 H   0  0  0  0  0  0  0  0  0  0  0  0
    9.3513    3.7460   25.5050 H   0  0  0  0  0  0  0  0  0  0  0  0
  1  2  3  0  0  0  0
  2 25  1  0  0  0  0
  3  4  1  0  0  0  0
  3  5  2  0  0  0  0
  4  6  2  0  0  0  0
  5 12  1  0  0  0  0
  6 13  1  0  0  0  0
  7  8  2  0  0  0  0
  7 14  1  0  0  0  0
  8 17  1  0  0  0  0
  9 15  1  0  0  0  0
  9 17  2  0  0  0  0
 10 12  2  0  0  0  0
 10 28  1  0  0  0  0
 11 16  1  0  0  0  0
 11 28  2  0  0  0  0
 12 13  1  0  0  0  0
 13 16  2  0  0  0  0
 14 15  2  0  0  0  0
 14 19  1  0  0  0  0
 15 26  1  0  0  0  0
 16 29  1  0  0  0  0
 17 35  1  0  0  0  0
 18 26  1  0  0  0  0
 18 29  1  0  0  0  0
 18 31  2  0  0  0  0
 19 30  1  0  0  0  0
 20 21  1  0  0  0  0
 20 25  1  0  0  0  0
 21 25  1  0  0  0  0
 22 23  1  0  0  0  0
 22 26  1  0  0  0  0
 23 29  1  0  0  0  0
 24 26  1  0  0  0  0
 24 30  1  0  0  0  0
 25 27  1  0  0  0  0
 27 34  1  0  0  0  0
 30 34  1  6  0  0  0
 32 34  2  0  0  0  0
 33 34  2  0  0  0  0
  1 36  1  0  0  0  0
  3 37  1  0  0  0  0
  4 38  1  0  0  0  0
  5 39  1  0  0  0  0
  6 40  1  0  0  0  0
  7 41  1  0  0  0  0
  8 42  1  0  0  0  0
  9 43  1  0  0  0  0
 10 44  1  0  0  0  0
 11 45  1  0  0  0  0
 19 46  1  0  0  0  0
 19 47  1  0  0  0  0
 20 48  1  0  0  0  0
 20 49  1  0  0  0  0
 21 50  1  0  0  0  0
 21 51  1  0  0  0  0
 22 52  1  0  0  0  0
 22 53  1  0  0  0  0
 23 54  1  0  0  0  0
 23 55  1  0  0  0  0
 24 56  1  0  0  0  0
 24 57  1  0  0  0  0
 27 58  1  0  0  0  0
 27 59  1  0  0  0  0
M  END
> <compound>
PET-UNK-94036022-9

> <compound_smiles>
C#CC1(CC1)CS(=O)(=O)N2Cc3ccc(cc3C4(C2)CCN(C4=O)c5cncc6c5cccc6)Cl

> <enantiomer_smiles>
C#CC1(CC1)CS(=O)(=O)[N@]2Cc3ccc(cc3C4(C2)CCN(C4=O)c5cncc6c5cccc6)Cl

> <scaffold>
tetrahydroisoquinoline-5spiro-isoquinoline

> <clash_score>
0

> <docking_score>
-9.118097305297852

> <overlap_score>
0.9749819040298462

> <MMFF_internal_energy>
130.5073131307945

> <docked_smiles>
C#CC1(CC1)CS(=O)(=O)[N@]2Cc3ccc(cc3[C@]4(C2)CCN(C4=O)c5cncc6c5cccc6)Cl

$$$$
EDJ-MED-fd8ed875-6_1
  -OEChem-12272114573D

 55 60  0     1  0  0  0  0  0999 V2000
    3.3432    2.6279   20.4411 C   0  0  0  0  0  0  0  0  0  0  0  0
    3.8960    1.9291   21.5050 C   0  0  0  0  0  0  0  0  0  0  0  0
    3.7865    2.4205   19.1660 C   0  0  0  0  0  0  0  0  0  0  0  0
    4.8973    1.0233   21.2988 C   0  0  0  0  0  0  0  0  0  0  0  0
   12.0765    0.0316   24.1541 C   0  0  0  0  0  0  0  0  0  0  0  0
   12.9132   -0.6032   23.2569 C   0  0  0  0  0  0  0  0  0  0  0  0
   10.9991   -1.4331   22.0443 C   0  0  0  0  0  0  0  0  0  0  0  0
    5.3278    1.2339   17.6066 C   0  0  0  0  0  0  0  0  0  0  0  0
    6.8438   -0.2892   18.3752 C   0  0  0  0  0  0  0  0  0  0  0  0
    4.8226    1.4906   18.9054 C   0  0  0  0  0  0  0  0  0  0  0  0
    5.3982    0.7733   19.9948 C   0  0  0  0  0  0  0  0  0  0  0  0
   10.7040   -0.0625   23.9898 C   0  0  0  0  0  0  0  0  0  0  0  0
   10.1406   -0.7765   22.9250 C   0  0  0  0  0  0  0  0  0  0  0  0
    6.4440   -0.1472   19.6979 C   0  0  0  0  0  0  0  0  0  0  0  0
   12.3683   -1.3298   22.2234 C   0  0  0  0  0  0  0  0  0  0  0  0
    6.9866   -1.9366   21.3580 C   0  0  0  0  0  0  0  0  0  0  0  0
    9.9479    0.5589   24.9534 C   0  0  0  0  0  0  0  0  0  0  0  0
    8.0140   -2.1541   22.4331 C   0  0  0  0  0  0  0  0  0  0  0  0
    8.2490    0.0169   21.4271 C   0  0  0  0  0  0  0  0  0  0  0  0
    8.4303    3.2687   23.8132 C   0  0  0  0  0  0  0  0  0  0  0  0
    7.9320    2.6307   26.2354 C   0  0  0  0  0  0  0  0  0  0  0  0
    6.7249    2.2671   25.4291 C   0  0  0  0  0  0  0  0  0  0  0  0
    7.8721   -0.1194   23.8831 C   0  0  0  0  0  0  0  0  0  0  0  0
    8.6238   -0.7606   22.6929 C   0  0  3  0  0  0  0  0  0  0  0  0
    8.0965    2.2136   24.7886 C   0  0  0  0  0  0  0  0  0  0  0  0
   10.1353    4.9876   23.2469 C   0  0  0  0  0  0  0  0  0  0  0  0
    6.3062    0.3769   17.3421 N   0  0  0  0  0  0  0  0  0  0  0  0
    7.2292   -0.6897   20.7790 N   0  0  0  0  0  0  0  0  0  0  0  0
    8.6609    1.0133   24.4995 N   0  0  0  0  0  0  0  0  0  0  0  0
    9.6189    3.9225   24.0762 N   0  0  0  0  0  0  0  0  0  0  0  0
   10.3208    0.7409   26.1081 O   0  0  0  0  0  0  0  0  0  0  0  0
    8.8033    1.0688   21.1132 O   0  0  0  0  0  0  0  0  0  0  0  0
    7.6712    3.4875   22.8764 O   0  0  0  0  0  0  0  0  0  0  0  0
    8.2596   -3.2651   22.9524 F   0  0  0  0  0  0  0  0  0  0  0  0
   13.4276   -2.1350   21.1050 Cl  0  0  0  0  0  0  0  0  0  0  0  0
    2.5432    3.3510   20.6369 H   0  0  0  0  0  0  0  0  0  0  0  0
    3.5174    2.1137   22.5168 H   0  0  0  0  0  0  0  0  0  0  0  0
    3.3409    2.9743   18.3364 H   0  0  0  0  0  0  0  0  0  0  0  0
    5.3118    0.4895   22.1572 H   0  0  0  0  0  0  0  0  0  0  0  0
   12.5170    0.5957   24.9722 H   0  0  0  0  0  0  0  0  0  0  0  0
   13.9904   -0.5120   23.3754 H   0  0  0  0  0  0  0  0  0  0  0  0
   10.6082   -2.0165   21.2219 H   0  0  0  0  0  0  0  0  0  0  0  0
    4.9141    1.7511   16.7474 H   0  0  0  0  0  0  0  0  0  0  0  0
    7.6445   -0.9764   18.1043 H   0  0  0  0  0  0  0  0  0  0  0  0
    6.2496   -2.5943   21.1072 H   0  0  0  0  0  0  0  0  0  0  0  0
    8.0694    3.6743   26.4934 H   0  0  0  0  0  0  0  0  0  0  0  0
    8.2459    1.9404   27.0098 H   0  0  0  0  0  0  0  0  0  0  0  0
    6.2279    1.3324   25.6613 H   0  0  0  0  0  0  0  0  0  0  0  0
    6.0502    3.0660   25.1448 H   0  0  0  0  0  0  0  0  0  0  0  0
    6.8948    0.2579   23.5837 H   0  0  0  0  0  0  0  0  0  0  0  0
    7.7239   -0.8404   24.6893 H   0  0  0  0  0  0  0  0  0  0  0  0
   10.7765    4.5627   22.4605 H   0  0  0  0  0  0  0  0  0  0  0  0
    9.2980    5.5303   22.7837 H   0  0  0  0  0  0  0  0  0  0  0  0
   10.7243    5.6809   23.8652 H   0  0  0  0  0  0  0  0  0  0  0  0
   10.1553    3.6411   24.8914 H   0  0  0  0  0  0  0  0  0  0  0  0
  1  2  1  0  0  0  0
  1  3  2  0  0  0  0
  2  4  2  0  0  0  0
  3 10  1  0  0  0  0
  4 11  1  0  0  0  0
  5  6  2  0  0  0  0
  5 12  1  0  0  0  0
  6 15  1  0  0  0  0
  7 13  1  0  0  0  0
  7 15  2  0  0  0  0
  8 10  2  0  0  0  0
  8 27  1  0  0  0  0
  9 14  1  0  0  0  0
  9 27  2  0  0  0  0
 10 11  1  0  0  0  0
 11 14  2  0  0  0  0
 12 13  2  0  0  0  0
 12 17  1  0  0  0  0
 13 24  1  0  0  0  0
 14 28  1  0  0  0  0
 15 35  1  0  0  0  0
 16 18  2  0  0  0  0
 16 28  1  0  0  0  0
 17 29  1  0  0  0  0
 17 31  2  0  0  0  0
 18 24  1  0  0  0  0
 18 34  1  0  0  0  0
 19 24  1  0  0  0  0
 19 28  1  0  0  0  0
 19 32  2  0  0  0  0
 20 25  1  0  0  0  0
 20 30  1  0  0  0  0
 20 33  2  0  0  0  0
 21 22  1  0  0  0  0
 21 25  1  0  0  0  0
 22 25  1  0  0  0  0
 23 24  1  0  0  0  0
 23 29  1  0  0  0  0
 25 29  1  0  0  0  0
 26 30  1  0  0  0  0
  1 36  1  0  0  0  0
  2 37  1  0  0  0  0
  3 38  1  0  0  0  0
  4 39  1  0  0  0  0
  5 40  1  0  0  0  0
  6 41  1  0  0  0  0
  7 42  1  0  0  0  0
  8 43  1  0  0  0  0
  9 44  1  0  0  0  0
 16 45  1  0  0  0  0
 21 46  1  0  0  0  0
 21 47  1  0  0  0  0
 22 48  1  0  0  0  0
 22 49  1  0  0  0  0
 23 50  1  0  0  0  0
 23 51  1  0  0  0  0
 26 52  1  0  0  0  0
 26 53  1  0  0  0  0
 26 54  1  0  0  0  0
 30 55  1  0  0  0  0
M  END
> <compound>
EDJ-MED-fd8ed875-6

> <compound_smiles>
CNC(=O)C1(CC1)N2CC3(c4cc(ccc4C2=O)Cl)C(=CN(C3=O)c5cncc6c5cccc6)F

> <enantiomer_smiles>
CNC(=O)C1(CC1)N2CC3(c4cc(ccc4C2=O)Cl)C(=CN(C3=O)c5cncc6c5cccc6)F

> <scaffold>
tetrahydroisoquinoline-5spiro-isoquinoline

> <clash_score>
0

> <docking_score>
-9.457526206970215

> <overlap_score>
1.0

> <MMFF_internal_energy>
199.06496349509658

> <docked_smiles>
CNC(=O)C1(CC1)N2C[C@@]3(c4cc(ccc4C2=O)Cl)C(=CN(C3=O)c5cncc6c5cccc6)F

$$$$
MAT-POS-1bed62cf-1_2
  -OEChem-12272114573D

 57 62  0     1  0  0  0  0  0999 V2000
    7.3157    3.4170   22.7749 C   0  0  0  0  0  0  0  0  0  0  0  0
    3.3432    2.6279   20.4411 C   0  0  0  0  0  0  0  0  0  0  0  0
    3.8960    1.9291   21.5050 C   0  0  0  0  0  0  0  0  0  0  0  0
    3.7865    2.4205   19.1660 C   0  0  0  0  0  0  0  0  0  0  0  0
    4.8973    1.0233   21.2988 C   0  0  0  0  0  0  0  0  0  0  0  0
   12.0765    0.0316   24.1541 C   0  0  0  0  0  0  0  0  0  0  0  0
   12.9132   -0.6032   23.2569 C   0  0  0  0  0  0  0  0  0  0  0  0
   10.9991   -1.4331   22.0443 C   0  0  0  0  0  0  0  0  0  0  0  0
    5.3278    1.2339   17.6066 C   0  0  0  0  0  0  0  0  0  0  0  0
    6.8438   -0.2892   18.3752 C   0  0  0  0  0  0  0  0  0  0  0  0
    4.8226    1.4906   18.9054 C   0  0  0  0  0  0  0  0  0  0  0  0
    5.3982    0.7733   19.9948 C   0  0  0  0  0  0  0  0  0  0  0  0
   10.7040   -0.0625   23.9898 C   0  0  0  0  0  0  0  0  0  0  0  0
   10.1406   -0.7765   22.9250 C   0  0  0  0  0  0  0  0  0  0  0  0
    6.4440   -0.1472   19.6979 C   0  0  0  0  0  0  0  0  0  0  0  0
   12.3683   -1.3298   22.2234 C   0  0  0  0  0  0  0  0  0  0  0  0
    6.9866   -1.9366   21.3580 C   0  0  0  0  0  0  0  0  0  0  0  0
    8.2490    0.0169   21.4271 C   0  0  0  0  0  0  0  0  0  0  0  0
    9.9479    0.5589   24.9534 C   0  0  0  0  0  0  0  0  0  0  0  0
    8.0140   -2.1541   22.4331 C   0  0  0  0  0  0  0  0  0  0  0  0
    9.8179    3.1415   22.9123 C   0  0  0  0  0  0  0  0  0  0  0  0
    9.5290    4.6134   22.9346 C   0  0  0  0  0  0  0  0  0  0  0  0
    7.8721   -0.1194   23.8831 C   0  0  0  0  0  0  0  0  0  0  0  0
    8.5272    3.6433   23.5198 C   0  0  0  0  0  0  0  0  0  0  0  0
    8.6238   -0.7606   22.6929 C   0  0  3  0  0  0  0  0  0  0  0  0
    8.3812    3.5917   25.0242 C   0  0  0  0  0  0  0  0  0  0  0  0
    6.3397    3.2346   22.1747 N   0  0  0  0  0  0  0  0  0  0  0  0
    6.3062    0.3769   17.3421 N   0  0  0  0  0  0  0  0  0  0  0  0
    7.2292   -0.6897   20.7790 N   0  0  0  0  0  0  0  0  0  0  0  0
    8.6609    1.0133   24.4995 N   0  0  2  0  0  0  0  0  0  0  0  0
    6.1264   -2.7640   21.0985 O   0  0  0  0  0  0  0  0  0  0  0  0
    8.7869    1.0633   21.1047 O   0  0  0  0  0  0  0  0  0  0  0  0
    8.2211    1.8042   26.9232 O   0  0  0  0  0  0  0  0  0  0  0  0
    6.3712    1.9321   25.2066 O   0  0  0  0  0  0  0  0  0  0  0  0
    7.7703    2.0160   25.5650 S   0  0  0  0  0  0  0  0  0  0  0  0
   13.4271   -2.1409   21.1085 Cl  0  0  0  0  0  0  0  0  0  0  0  0
    2.5432    3.3510   20.6369 H   0  0  0  0  0  0  0  0  0  0  0  0
    3.5174    2.1137   22.5168 H   0  0  0  0  0  0  0  0  0  0  0  0
    3.3409    2.9743   18.3364 H   0  0  0  0  0  0  0  0  0  0  0  0
    5.3118    0.4895   22.1572 H   0  0  0  0  0  0  0  0  0  0  0  0
   12.5021    0.5988   24.9738 H   0  0  0  0  0  0  0  0  0  0  0  0
   13.9910   -0.5161   23.3782 H   0  0  0  0  0  0  0  0  0  0  0  0
   10.6033   -2.0172   21.2250 H   0  0  0  0  0  0  0  0  0  0  0  0
    4.9141    1.7511   16.7474 H   0  0  0  0  0  0  0  0  0  0  0  0
    7.6445   -0.9764   18.1043 H   0  0  0  0  0  0  0  0  0  0  0  0
    9.7850   -0.1186   25.8318 H   0  0  0  0  0  0  0  0  0  0  0  0
   10.4800    1.4566   25.3616 H   0  0  0  0  0  0  0  0  0  0  0  0
    7.4956   -2.5668   23.3079 H   0  0  0  0  0  0  0  0  0  0  0  0
    8.7587   -2.8850   22.0979 H   0  0  0  0  0  0  0  0  0  0  0  0
    9.7862    2.6381   21.9525 H   0  0  0  0  0  0  0  0  0  0  0  0
   10.5926    2.7710   23.5737 H   0  0  0  0  0  0  0  0  0  0  0  0
   10.1110    5.2292   23.6106 H   0  0  0  0  0  0  0  0  0  0  0  0
    9.3049    5.0948   21.9894 H   0  0  0  0  0  0  0  0  0  0  0  0
    6.8890    0.2655   23.5579 H   0  0  0  0  0  0  0  0  0  0  0  0
    7.6635   -0.8640   24.6742 H   0  0  0  0  0  0  0  0  0  0  0  0
    7.6747    4.3490   25.3750 H   0  0  0  0  0  0  0  0  0  0  0  0
    9.3444    3.7504   25.5166 H   0  0  0  0  0  0  0  0  0  0  0  0
  1 24  1  0  0  0  0
  1 27  3  0  0  0  0
  2  3  1  0  0  0  0
  2  4  2  0  0  0  0
  3  5  2  0  0  0  0
  4 11  1  0  0  0  0
  5 12  1  0  0  0  0
  6  7  1  0  0  0  0
  6 13  2  0  0  0  0
  7 16  2  0  0  0  0
  8 14  2  0  0  0  0
  8 16  1  0  0  0  0
  9 11  2  0  0  0  0
  9 28  1  0  0  0  0
 10 15  1  0  0  0  0
 10 28  2  0  0  0  0
 11 12  1  0  0  0  0
 12 15  2  0  0  0  0
 13 14  1  0  0  0  0
 13 19  1  0  0  0  0
 14 25  1  0  0  0  0
 15 29  1  0  0  0  0
 16 36  1  0  0  0  0
 17 20  1  0  0  0  0
 17 29  1  0  0  0  0
 17 31  2  0  0  0  0
 18 25  1  0  0  0  0
 18 29  1  0  0  0  0
 18 32  2  0  0  0  0
 19 30  1  0  0  0  0
 20 25  1  0  0  0  0
 21 22  1  0  0  0  0
 21 24  1  0  0  0  0
 22 24  1  0  0  0  0
 23 25  1  0  0  0  0
 23 30  1  0  0  0  0
 24 26  1  0  0  0  0
 26 35  1  0  0  0  0
 30 35  1  6  0  0  0
 33 35  2  0  0  0  0
 34 35  2  0  0  0  0
  2 37  1  0  0  0  0
  3 38  1  0  0  0  0
  4 39  1  0  0  0  0
  5 40  1  0  0  0  0
  6 41  1  0  0  0  0
  7 42  1  0  0  0  0
  8 43  1  0  0  0  0
  9 44  1  0  0  0  0
 10 45  1  0  0  0  0
 19 46  1  0  0  0  0
 19 47  1  0  0  0  0
 20 48  1  0  0  0  0
 20 49  1  0  0  0  0
 21 50  1  0  0  0  0
 21 51  1  0  0  0  0
 22 52  1  0  0  0  0
 22 53  1  0  0  0  0
 23 54  1  0  0  0  0
 23 55  1  0  0  0  0
 26 56  1  0  0  0  0
 26 57  1  0  0  0  0
M  END
> <compound>
MAT-POS-1bed62cf-1

> <compound_smiles>
c1ccc2c(c1)cncc2N3C(=O)CC4(C3=O)CN(Cc5c4cc(cc5)Cl)S(=O)(=O)CC6(CC6)C#N

> <enantiomer_smiles>
c1ccc2c(c1)cncc2N3C(=O)CC4(C3=O)C[N@](Cc5c4cc(cc5)Cl)S(=O)(=O)CC6(CC6)C#N

> <scaffold>
tetrahydroisoquinoline-5spiro-isoquinoline

> <clash_score>
0

> <docking_score>
-8.769057273864746

> <overlap_score>
1.0

> <MMFF_internal_energy>
85.63129523122626

> <docked_smiles>
c1ccc2c(c1)cncc2N3C(=O)C[C@@]4(C3=O)C[N@](Cc5c4cc(cc5)Cl)S(=O)(=O)CC6(CC6)C#N

$$$$
PET-UNK-94036022-12_1
  -OEChem-12272114573D

 56 61  0     1  0  0  0  0  0999 V2000
    3.3432    2.6279   20.4411 C   0  0  0  0  0  0  0  0  0  0  0  0
    3.8960    1.9291   21.5050 C   0  0  0  0  0  0  0  0  0  0  0  0
    3.7865    2.4205   19.1660 C   0  0  0  0  0  0  0  0  0  0  0  0
    4.8973    1.0233   21.2988 C   0  0  0  0  0  0  0  0  0  0  0  0
   12.0765    0.0316   24.1541 C   0  0  0  0  0  0  0  0  0  0  0  0
   12.9132   -0.6032   23.2569 C   0  0  0  0  0  0  0  0  0  0  0  0
   10.9991   -1.4331   22.0443 C   0  0  0  0  0  0  0  0  0  0  0  0
    5.3278    1.2339   17.6066 C   0  0  0  0  0  0  0  0  0  0  0  0
    6.8438   -0.2892   18.3752 C   0  0  0  0  0  0  0  0  0  0  0  0
    4.8226    1.4906   18.9054 C   0  0  0  0  0  0  0  0  0  0  0  0
    5.3982    0.7733   19.9948 C   0  0  0  0  0  0  0  0  0  0  0  0
   10.7040   -0.0625   23.9898 C   0  0  0  0  0  0  0  0  0  0  0  0
   10.1406   -0.7765   22.9250 C   0  0  0  0  0  0  0  0  0  0  0  0
    6.4440   -0.1472   19.6979 C   0  0  0  0  0  0  0  0  0  0  0  0
   12.3683   -1.3298   22.2234 C   0  0  0  0  0  0  0  0  0  0  0  0
    6.9866   -1.9366   21.3580 C   0  0  0  0  0  0  0  0  0  0  0  0
    8.2490    0.0169   21.4271 C   0  0  0  0  0  0  0  0  0  0  0  0
    9.9479    0.5589   24.9534 C   0  0  0  0  0  0  0  0  0  0  0  0
    8.0140   -2.1541   22.4331 C   0  0  0  0  0  0  0  0  0  0  0  0
    8.6454    5.7525   23.5413 C   0  0  0  0  0  0  0  0  0  0  0  0
    8.5321    6.1990   24.9704 C   0  0  0  0  0  0  0  0  0  0  0  0
    7.8721   -0.1194   23.8831 C   0  0  0  0  0  0  0  0  0  0  0  0
    8.6238   -0.7606   22.6929 C   0  0  3  0  0  0  0  0  0  0  0  0
    7.8476    4.9298   24.5239 C   0  0  0  0  0  0  0  0  0  0  0  0
    8.4006    3.5988   24.9818 C   0  0  0  0  0  0  0  0  0  0  0  0
    6.3062    0.3769   17.3421 N   0  0  0  0  0  0  0  0  0  0  0  0
    7.2292   -0.6897   20.7790 N   0  0  0  0  0  0  0  0  0  0  0  0
    8.6609    1.0133   24.4995 N   0  0  1  0  0  0  0  0  0  0  0  0
    6.1206   -2.7598   21.1048 O   0  0  0  0  0  0  0  0  0  0  0  0
    8.7896    1.0612   21.1026 O   0  0  0  0  0  0  0  0  0  0  0  0
    7.4249    2.5281   22.8073 O   0  0  0  0  0  0  0  0  0  0  0  0
    9.9323    2.7171   23.0572 O   0  0  0  0  0  0  0  0  0  0  0  0
    8.6206    2.4824   23.6204 S   0  0  0  0  0  0  0  0  0  0  0  0
   13.4272   -2.1441   21.1108 Cl  0  0  0  0  0  0  0  0  0  0  0  0
    6.0808    4.9827   24.3672 Cl  0  0  0  0  0  0  0  0  0  0  0  0
    2.5432    3.3510   20.6369 H   0  0  0  0  0  0  0  0  0  0  0  0
    3.5174    2.1137   22.5168 H   0  0  0  0  0  0  0  0  0  0  0  0
    3.3409    2.9743   18.3364 H   0  0  0  0  0  0  0  0  0  0  0  0
    5.3118    0.4895   22.1572 H   0  0  0  0  0  0  0  0  0  0  0  0
   12.5015    0.5923   24.9788 H   0  0  0  0  0  0  0  0  0  0  0  0
   13.9910   -0.5224   23.3824 H   0  0  0  0  0  0  0  0  0  0  0  0
   10.6030   -2.0207   21.2274 H   0  0  0  0  0  0  0  0  0  0  0  0
    4.9141    1.7511   16.7474 H   0  0  0  0  0  0  0  0  0  0  0  0
    7.6445   -0.9764   18.1043 H   0  0  0  0  0  0  0  0  0  0  0  0
    9.7589   -0.1285   25.8179 H   0  0  0  0  0  0  0  0  0  0  0  0
   10.4934    1.4393   25.3829 H   0  0  0  0  0  0  0  0  0  0  0  0
    7.5396   -2.5802   23.3244 H   0  0  0  0  0  0  0  0  0  0  0  0
    8.7446   -2.8786   22.0515 H   0  0  0  0  0  0  0  0  0  0  0  0
    8.1180    6.3305   22.7917 H   0  0  0  0  0  0  0  0  0  0  0  0
    9.6048    5.3744   23.2078 H   0  0  0  0  0  0  0  0  0  0  0  0
    9.4153    6.1191   25.5933 H   0  0  0  0  0  0  0  0  0  0  0  0
    7.9289    7.0754   25.1760 H   0  0  0  0  0  0  0  0  0  0  0  0
    6.8881    0.2767   23.5693 H   0  0  0  0  0  0  0  0  0  0  0  0
    7.6631   -0.8748   24.6619 H   0  0  0  0  0  0  0  0  0  0  0  0
    7.7210    3.1149   25.6888 H   0  0  0  0  0  0  0  0  0  0  0  0
    9.3771    3.7235   25.4576 H   0  0  0  0  0  0  0  0  0  0  0  0
  1  2  1  0  0  0  0
  1  3  2  0  0  0  0
  2  4  2  0  0  0  0
  3 10  1  0  0  0  0
  4 11  1  0  0  0  0
  5  6  1  0  0  0  0
  5 12  2  0  0  0  0
  6 15  2  0  0  0  0
  7 13  2  0  0  0  0
  7 15  1  0  0  0  0
  8 10  2  0  0  0  0
  8 26  1  0  0  0  0
  9 14  1  0  0  0  0
  9 26  2  0  0  0  0
 10 11  1  0  0  0  0
 11 14  2  0  0  0  0
 12 13  1  0  0  0  0
 12 18  1  0  0  0  0
 13 23  1  0  0  0  0
 14 27  1  0  0  0  0
 15 34  1  0  0  0  0
 16 19  1  0  0  0  0
 16 27  1  0  0  0  0
 16 29  2  0  0  0  0
 17 23  1  0  0  0  0
 17 27  1  0  0  0  0
 17 30  2  0  0  0  0
 18 28  1  0  0  0  0
 19 23  1  0  0  0  0
 20 21  1  0  0  0  0
 20 24  1  0  0  0  0
 21 24  1  0  0  0  0
 22 23  1  0  0  0  0
 22 28  1  0  0  0  0
 24 25  1  0  0  0  0
 24 35  1  0  0  0  0
 25 33  1  0  0  0  0
 28 33  1  1  0  0  0
 31 33  2  0  0  0  0
 32 33  2  0  0  0  0
  1 36  1  0  0  0  0
  2 37  1  0  0  0  0
  3 38  1  0  0  0  0
  4 39  1  0  0  0  0
  5 40  1  0  0  0  0
  6 41  1  0  0  0  0
  7 42  1  0  0  0  0
  8 43  1  0  0  0  0
  9 44  1  0  0  0  0
 18 45  1  0  0  0  0
 18 46  1  0  0  0  0
 19 47  1  0  0  0  0
 19 48  1  0  0  0  0
 20 49  1  0  0  0  0
 20 50  1  0  0  0  0
 21 51  1  0  0  0  0
 21 52  1  0  0  0  0
 22 53  1  0  0  0  0
 22 54  1  0  0  0  0
 25 55  1  0  0  0  0
 25 56  1  0  0  0  0
M  END
> <compound>
PET-UNK-94036022-12

> <compound_smiles>
c1ccc2c(c1)cncc2N3C(=O)CC4(C3=O)CN(Cc5c4cc(cc5)Cl)S(=O)(=O)CC6(CC6)Cl

> <enantiomer_smiles>
c1ccc2c(c1)cncc2N3C(=O)CC4(C3=O)C[N@@](Cc5c4cc(cc5)Cl)S(=O)(=O)CC6(CC6)Cl

> <scaffold>
tetrahydroisoquinoline-5spiro-isoquinoline

> <clash_score>
0

> <docking_score>
-8.96055793762207

> <overlap_score>
1.0

> <MMFF_internal_energy>
82.60733595990374

> <docked_smiles>
c1ccc2c(c1)cncc2N3C(=O)C[C@@]4(C3=O)C[N@@](Cc5c4cc(cc5)Cl)S(=O)(=O)CC6(CC6)Cl

$$$$
EDJ-MED-ede5c6cb-2_1
  -OEChem-12272114573D

 57 62  0     1  0  0  0  0  0999 V2000
    4.8973    1.0233   21.2988 C   0  0  0  0  0  0  0  0  0  0  0  0
    3.8960    1.9291   21.5050 C   0  0  0  0  0  0  0  0  0  0  0  0
   12.0765    0.0316   24.1541 C   0  0  0  0  0  0  0  0  0  0  0  0
   12.9132   -0.6032   23.2569 C   0  0  0  0  0  0  0  0  0  0  0  0
    3.7865    2.4205   19.1660 C   0  0  0  0  0  0  0  0  0  0  0  0
   10.9991   -1.4331   22.0443 C   0  0  0  0  0  0  0  0  0  0  0  0
    5.3278    1.2339   17.6066 C   0  0  0  0  0  0  0  0  0  0  0  0
    6.8438   -0.2892   18.3752 C   0  0  0  0  0  0  0  0  0  0  0  0
    5.3982    0.7733   19.9948 C   0  0  0  0  0  0  0  0  0  0  0  0
    4.8226    1.4906   18.9054 C   0  0  0  0  0  0  0  0  0  0  0  0
   10.1406   -0.7765   22.9250 C   0  0  0  0  0  0  0  0  0  0  0  0
    6.4440   -0.1472   19.6979 C   0  0  0  0  0  0  0  0  0  0  0  0
    3.3432    2.6279   20.4411 C   0  0  0  0  0  0  0  0  0  0  0  0
   10.7040   -0.0625   23.9898 C   0  0  0  0  0  0  0  0  0  0  0  0
   12.3683   -1.3298   22.2234 C   0  0  0  0  0  0  0  0  0  0  0  0
    8.2490    0.0169   21.4271 C   0  0  0  0  0  0  0  0  0  0  0  0
    0.1154    2.6027   23.0071 C   0  0  0  0  0  0  0  0  0  0  0  0
    0.8875    3.8926   22.9819 C   0  0  0  0  0  0  0  0  0  0  0  0
    8.0140   -2.1541   22.4331 C   0  0  0  0  0  0  0  0  0  0  0  0
    7.8721   -0.1194   23.8831 C   0  0  0  0  0  0  0  0  0  0  0  0
    6.9866   -1.9366   21.3580 C   0  0  0  0  0  0  0  0  0  0  0  0
    8.6609    1.0133   24.4995 C   0  0  0  0  0  0  0  0  0  0  0  0
   -0.1059    3.5898   21.9018 C   0  0  0  0  0  0  0  0  0  0  0  0
    8.6238   -0.7606   22.6929 C   0  0  3  0  0  0  0  0  0  0  0  0
    6.3062    0.3769   17.3421 N   0  0  0  0  0  0  0  0  0  0  0  0
    7.2292   -0.6897   20.7790 N   0  0  0  0  0  0  0  0  0  0  0  0
    2.2936    3.5769   20.6955 N   0  0  0  0  0  0  0  0  0  0  0  0
    8.7559    1.0937   21.1315 O   0  0  0  0  0  0  0  0  0  0  0  0
   10.7450    1.7883   25.4928 O   0  0  0  0  0  0  0  0  0  0  0  0
    9.7102   -0.4301   26.1384 O   0  0  0  0  0  0  0  0  0  0  0  0
    0.1336    3.9486   19.3364 O   0  0  0  0  0  0  0  0  0  0  0  0
    0.5690    1.6528   20.2769 O   0  0  0  0  0  0  0  0  0  0  0  0
    9.9479    0.5589   24.9534 S   0  0  0  0  0  0  0  0  0  0  0  0
    0.6706    3.0950   20.3797 S   0  0  0  0  0  0  0  0  0  0  0  0
   13.4291   -2.1444   21.1126 Cl  0  0  0  0  0  0  0  0  0  0  0  0
    5.3115    0.4893   22.1569 H   0  0  0  0  0  0  0  0  0  0  0  0
    3.5248    2.1066   22.5217 H   0  0  0  0  0  0  0  0  0  0  0  0
   12.5120    0.5953   24.9760 H   0  0  0  0  0  0  0  0  0  0  0  0
   13.9915   -0.5226   23.3833 H   0  0  0  0  0  0  0  0  0  0  0  0
    3.3477    2.9700   18.3285 H   0  0  0  0  0  0  0  0  0  0  0  0
   10.6108   -2.0222   21.2304 H   0  0  0  0  0  0  0  0  0  0  0  0
    4.9135    1.7517   16.7479 H   0  0  0  0  0  0  0  0  0  0  0  0
    7.6449   -0.9757   18.1043 H   0  0  0  0  0  0  0  0  0  0  0  0
    0.6571    1.6867   22.8062 H   0  0  0  0  0  0  0  0  0  0  0  0
   -0.6641    2.4995   23.7527 H   0  0  0  0  0  0  0  0  0  0  0  0
    0.6229    4.6496   23.7107 H   0  0  0  0  0  0  0  0  0  0  0  0
    1.9471    3.8420   22.7642 H   0  0  0  0  0  0  0  0  0  0  0  0
    7.5775   -2.6140   23.3286 H   0  0  0  0  0  0  0  0  0  0  0  0
    8.7708   -2.8631   22.0636 H   0  0  0  0  0  0  0  0  0  0  0  0
    7.6611   -0.8658   24.6526 H   0  0  0  0  0  0  0  0  0  0  0  0
    6.9006    0.2556   23.5459 H   0  0  0  0  0  0  0  0  0  0  0  0
    7.0227   -2.7503   20.5949 H   0  0  0  0  0  0  0  0  0  0  0  0
    5.9552   -1.9482   21.7828 H   0  0  0  0  0  0  0  0  0  0  0  0
    8.7031    1.8245   23.7055 H   0  0  0  0  0  0  0  0  0  0  0  0
    7.9987    1.4859   25.2931 H   0  0  0  0  0  0  0  0  0  0  0  0
   -1.0327    4.1439   21.8684 H   0  0  0  0  0  0  0  0  0  0  0  0
    2.5190    4.5435   20.4075 H   0  0  0  0  0  0  0  0  0  0  0  0
  1  2  1  0  0  0  0
  1  9  2  0  0  0  0
  2 13  2  0  0  0  0
  3  4  1  0  0  0  0
  3 14  2  0  0  0  0
  4 15  2  0  0  0  0
  5 10  2  0  0  0  0
  5 13  1  0  0  0  0
  6 11  2  0  0  0  0
  6 15  1  0  0  0  0
  7 10  1  0  0  0  0
  7 25  2  0  0  0  0
  8 12  2  0  0  0  0
  8 25  1  0  0  0  0
  9 10  1  0  0  0  0
  9 12  1  0  0  0  0
 11 14  1  0  0  0  0
 11 24  1  0  0  0  0
 12 26  1  0  0  0  0
 13 27  1  0  0  0  0
 14 33  1  0  0  0  0
 15 35  1  0  0  0  0
 16 24  1  0  0  0  0
 16 26  1  0  0  0  0
 16 28  2  0  0  0  0
 17 18  1  0  0  0  0
 17 23  1  0  0  0  0
 18 23  1  0  0  0  0
 19 21  1  0  0  0  0
 19 24  1  0  0  0  0
 20 22  1  0  0  0  0
 20 24  1  0  0  0  0
 21 26  1  0  0  0  0
 22 33  1  0  0  0  0
 23 34  1  0  0  0  0
 27 34  1  0  0  0  0
 29 33  2  0  0  0  0
 30 33  2  0  0  0  0
 31 34  2  0  0  0  0
 32 34  2  0  0  0  0
  1 36  1  0  0  0  0
  2 37  1  0  0  0  0
  3 38  1  0  0  0  0
  4 39  1  0  0  0  0
  5 40  1  0  0  0  0
  6 41  1  0  0  0  0
  7 42  1  0  0  0  0
  8 43  1  0  0  0  0
 17 44  1  0  0  0  0
 17 45  1  0  0  0  0
 18 46  1  0  0  0  0
 18 47  1  0  0  0  0
 19 48  1  0  0  0  0
 19 49  1  0  0  0  0
 20 50  1  0  0  0  0
 20 51  1  0  0  0  0
 21 52  1  0  0  0  0
 21 53  1  0  0  0  0
 22 54  1  0  0  0  0
 22 55  1  0  0  0  0
 23 56  1  0  0  0  0
 27 57  1  0  0  0  0
M  END
> <compound>
EDJ-MED-ede5c6cb-2

> <compound_smiles>
c1cc2c(cc1NS(=O)(=O)C3CC3)cncc2N4CCC5(C4=O)CCS(=O)(=O)c6c5cc(cc6)Cl

> <enantiomer_smiles>
c1cc2c(cc1NS(=O)(=O)C3CC3)cncc2N4CCC5(C4=O)CCS(=O)(=O)c6c5cc(cc6)Cl

> <scaffold>
tetralinlike-5spiro-isoquinoline

> <clash_score>
0.7168170439667734

> <docking_score>
-8.19124984741211

> <overlap_score>
0.9901328086853027

> <MMFF_internal_energy>
278.7255936903079

> <docked_smiles>
c1cc2c(cc1NS(=O)(=O)C3CC3)cncc2N4CC[C@@]5(C4=O)CCS(=O)(=O)c6c5cc(cc6)Cl

$$$$
PET-UNK-94036022-12_2
  -OEChem-12272114573D

 56 61  0     1  0  0  0  0  0999 V2000
    3.3432    2.6279   20.4411 C   0  0  0  0  0  0  0  0  0  0  0  0
    3.8960    1.9291   21.5050 C   0  0  0  0  0  0  0  0  0  0  0  0
    3.7865    2.4205   19.1660 C   0  0  0  0  0  0  0  0  0  0  0  0
    4.8973    1.0233   21.2988 C   0  0  0  0  0  0  0  0  0  0  0  0
   12.0765    0.0316   24.1541 C   0  0  0  0  0  0  0  0  0  0  0  0
   12.9132   -0.6032   23.2569 C   0  0  0  0  0  0  0  0  0  0  0  0
   10.9991   -1.4331   22.0443 C   0  0  0  0  0  0  0  0  0  0  0  0
    5.3278    1.2339   17.6066 C   0  0  0  0  0  0  0  0  0  0  0  0
    6.8438   -0.2892   18.3752 C   0  0  0  0  0  0  0  0  0  0  0  0
    4.8226    1.4906   18.9054 C   0  0  0  0  0  0  0  0  0  0  0  0
    5.3982    0.7733   19.9948 C   0  0  0  0  0  0  0  0  0  0  0  0
   10.7040   -0.0625   23.9898 C   0  0  0  0  0  0  0  0  0  0  0  0
   10.1406   -0.7765   22.9250 C   0  0  0  0  0  0  0  0  0  0  0  0
    6.4440   -0.1472   19.6979 C   0  0  0  0  0  0  0  0  0  0  0  0
   12.3683   -1.3298   22.2234 C   0  0  0  0  0  0  0  0  0  0  0  0
    6.9866   -1.9366   21.3580 C   0  0  0  0  0  0  0  0  0  0  0  0
    8.2490    0.0169   21.4271 C   0  0  0  0  0  0  0  0  0  0  0  0
    9.9479    0.5589   24.9534 C   0  0  0  0  0  0  0  0  0  0  0  0
    8.0140   -2.1541   22.4331 C   0  0  0  0  0  0  0  0  0  0  0  0
    9.7497    3.0271   22.8837 C   0  0  0  0  0  0  0  0  0  0  0  0
    9.5986    4.5205   22.9185 C   0  0  0  0  0  0  0  0  0  0  0  0
    7.8721   -0.1194   23.8831 C   0  0  0  0  0  0  0  0  0  0  0  0
    8.6238   -0.7606   22.6929 C   0  0  3  0  0  0  0  0  0  0  0  0
    8.5272    3.6433   23.5198 C   0  0  0  0  0  0  0  0  0  0  0  0
    8.3812    3.5917   25.0242 C   0  0  0  0  0  0  0  0  0  0  0  0
    6.3062    0.3769   17.3421 N   0  0  0  0  0  0  0  0  0  0  0  0
    7.2292   -0.6897   20.7790 N   0  0  0  0  0  0  0  0  0  0  0  0
    8.6609    1.0133   24.4995 N   0  0  2  0  0  0  0  0  0  0  0  0
    6.1264   -2.7640   21.0985 O   0  0  0  0  0  0  0  0  0  0  0  0
    8.7869    1.0633   21.1047 O   0  0  0  0  0  0  0  0  0  0  0  0
    8.2211    1.8042   26.9232 O   0  0  0  0  0  0  0  0  0  0  0  0
    6.3712    1.9321   25.2066 O   0  0  0  0  0  0  0  0  0  0  0  0
    7.7703    2.0160   25.5650 S   0  0  0  0  0  0  0  0  0  0  0  0
   13.4271   -2.1409   21.1085 Cl  0  0  0  0  0  0  0  0  0  0  0  0
    7.0018    3.5098   22.6231 Cl  0  0  0  0  0  0  0  0  0  0  0  0
    2.5432    3.3510   20.6369 H   0  0  0  0  0  0  0  0  0  0  0  0
    3.5174    2.1137   22.5168 H   0  0  0  0  0  0  0  0  0  0  0  0
    3.3409    2.9743   18.3364 H   0  0  0  0  0  0  0  0  0  0  0  0
    5.3118    0.4895   22.1572 H   0  0  0  0  0  0  0  0  0  0  0  0
   12.5021    0.5988   24.9738 H   0  0  0  0  0  0  0  0  0  0  0  0
   13.9910   -0.5161   23.3782 H   0  0  0  0  0  0  0  0  0  0  0  0
   10.6033   -2.0172   21.2250 H   0  0  0  0  0  0  0  0  0  0  0  0
    4.9141    1.7511   16.7474 H   0  0  0  0  0  0  0  0  0  0  0  0
    7.6445   -0.9764   18.1043 H   0  0  0  0  0  0  0  0  0  0  0  0
    9.7850   -0.1186   25.8318 H   0  0  0  0  0  0  0  0  0  0  0  0
   10.4800    1.4566   25.3616 H   0  0  0  0  0  0  0  0  0  0  0  0
    7.4956   -2.5668   23.3079 H   0  0  0  0  0  0  0  0  0  0  0  0
    8.7587   -2.8850   22.0979 H   0  0  0  0  0  0  0  0  0  0  0  0
    9.6493    2.5349   21.9235 H   0  0  0  0  0  0  0  0  0  0  0  0
   10.5004    2.5831   23.5269 H   0  0  0  0  0  0  0  0  0  0  0  0
   10.2475    5.0758   23.5855 H   0  0  0  0  0  0  0  0  0  0  0  0
    9.3971    5.0265   21.9817 H   0  0  0  0  0  0  0  0  0  0  0  0
    6.8890    0.2655   23.5579 H   0  0  0  0  0  0  0  0  0  0  0  0
    7.6635   -0.8640   24.6742 H   0  0  0  0  0  0  0  0  0  0  0  0
    7.6747    4.3490   25.3750 H   0  0  0  0  0  0  0  0  0  0  0  0
    9.3444    3.7504   25.5166 H   0  0  0  0  0  0  0  0  0  0  0  0
  1  2  1  0  0  0  0
  1  3  2  0  0  0  0
  2  4  2  0  0  0  0
  3 10  1  0  0  0  0
  4 11  1  0  0  0  0
  5  6  1  0  0  0  0
  5 12  2  0  0  0  0
  6 15  2  0  0  0  0
  7 13  2  0  0  0  0
  7 15  1  0  0  0  0
  8 10  2  0  0  0  0
  8 26  1  0  0  0  0
  9 14  1  0  0  0  0
  9 26  2  0  0  0  0
 10 11  1  0  0  0  0
 11 14  2  0  0  0  0
 12 13  1  0  0  0  0
 12 18  1  0  0  0  0
 13 23  1  0  0  0  0
 14 27  1  0  0  0  0
 15 34  1  0  0  0  0
 16 19  1  0  0  0  0
 16 27  1  0  0  0  0
 16 29  2  0  0  0  0
 17 23  1  0  0  0  0
 17 27  1  0  0  0  0
 17 30  2  0  0  0  0
 18 28  1  0  0  0  0
 19 23  1  0  0  0  0
 20 21  1  0  0  0  0
 20 24  1  0  0  0  0
 21 24  1  0  0  0  0
 22 23  1  0  0  0  0
 22 28  1  0  0  0  0
 24 25  1  0  0  0  0
 24 35  1  0  0  0  0
 25 33  1  0  0  0  0
 28 33  1  6  0  0  0
 31 33  2  0  0  0  0
 32 33  2  0  0  0  0
  1 36  1  0  0  0  0
  2 37  1  0  0  0  0
  3 38  1  0  0  0  0
  4 39  1  0  0  0  0
  5 40  1  0  0  0  0
  6 41  1  0  0  0  0
  7 42  1  0  0  0  0
  8 43  1  0  0  0  0
  9 44  1  0  0  0  0
 18 45  1  0  0  0  0
 18 46  1  0  0  0  0
 19 47  1  0  0  0  0
 19 48  1  0  0  0  0
 20 49  1  0  0  0  0
 20 50  1  0  0  0  0
 21 51  1  0  0  0  0
 21 52  1  0  0  0  0
 22 53  1  0  0  0  0
 22 54  1  0  0  0  0
 25 55  1  0  0  0  0
 25 56  1  0  0  0  0
M  END
> <compound>
PET-UNK-94036022-12

> <compound_smiles>
c1ccc2c(c1)cncc2N3C(=O)CC4(C3=O)CN(Cc5c4cc(cc5)Cl)S(=O)(=O)CC6(CC6)Cl

> <enantiomer_smiles>
c1ccc2c(c1)cncc2N3C(=O)CC4(C3=O)C[N@](Cc5c4cc(cc5)Cl)S(=O)(=O)CC6(CC6)Cl

> <scaffold>
tetrahydroisoquinoline-5spiro-isoquinoline

> <clash_score>
0

> <docking_score>
-8.882823944091797

> <overlap_score>
1.0

> <MMFF_internal_energy>
83.34405999581965

> <docked_smiles>
c1ccc2c(c1)cncc2N3C(=O)C[C@@]4(C3=O)C[N@](Cc5c4cc(cc5)Cl)S(=O)(=O)CC6(CC6)Cl

$$$$
MAT-POS-1bed62cf-1_1
  -OEChem-12272114573D

 57 62  0     1  0  0  0  0  0999 V2000
    9.4916    5.5215   23.8250 C   0  0  0  0  0  0  0  0  0  0  0  0
    3.3432    2.6279   20.4411 C   0  0  0  0  0  0  0  0  0  0  0  0
    3.8960    1.9291   21.5050 C   0  0  0  0  0  0  0  0  0  0  0  0
    3.7865    2.4205   19.1660 C   0  0  0  0  0  0  0  0  0  0  0  0
    4.8973    1.0233   21.2988 C   0  0  0  0  0  0  0  0  0  0  0  0
   12.0765    0.0316   24.1541 C   0  0  0  0  0  0  0  0  0  0  0  0
   12.9132   -0.6032   23.2569 C   0  0  0  0  0  0  0  0  0  0  0  0
   10.9991   -1.4331   22.0443 C   0  0  0  0  0  0  0  0  0  0  0  0
    5.3278    1.2339   17.6066 C   0  0  0  0  0  0  0  0  0  0  0  0
    6.8438   -0.2892   18.3752 C   0  0  0  0  0  0  0  0  0  0  0  0
    4.8226    1.4906   18.9054 C   0  0  0  0  0  0  0  0  0  0  0  0
    5.3982    0.7733   19.9948 C   0  0  0  0  0  0  0  0  0  0  0  0
   10.7040   -0.0625   23.9898 C   0  0  0  0  0  0  0  0  0  0  0  0
   10.1406   -0.7765   22.9250 C   0  0  0  0  0  0  0  0  0  0  0  0
    6.4440   -0.1472   19.6979 C   0  0  0  0  0  0  0  0  0  0  0  0
   12.3683   -1.3298   22.2234 C   0  0  0  0  0  0  0  0  0  0  0  0
    6.9866   -1.9366   21.3580 C   0  0  0  0  0  0  0  0  0  0  0  0
    8.2490    0.0169   21.4271 C   0  0  0  0  0  0  0  0  0  0  0  0
    9.9479    0.5589   24.9534 C   0  0  0  0  0  0  0  0  0  0  0  0
    8.0140   -2.1541   22.4331 C   0  0  0  0  0  0  0  0  0  0  0  0
    7.5639    6.0228   25.3705 C   0  0  0  0  0  0  0  0  0  0  0  0
    6.9824    5.5674   24.0647 C   0  0  0  0  0  0  0  0  0  0  0  0
    7.8721   -0.1194   23.8831 C   0  0  0  0  0  0  0  0  0  0  0  0
    8.3246    5.0351   24.5146 C   0  0  0  0  0  0  0  0  0  0  0  0
    8.6238   -0.7606   22.6929 C   0  0  3  0  0  0  0  0  0  0  0  0
    8.4006    3.5988   24.9818 C   0  0  0  0  0  0  0  0  0  0  0  0
   10.4318    5.9133   23.2696 N   0  0  0  0  0  0  0  0  0  0  0  0
    6.3062    0.3769   17.3421 N   0  0  0  0  0  0  0  0  0  0  0  0
    7.2292   -0.6897   20.7790 N   0  0  0  0  0  0  0  0  0  0  0  0
    8.6609    1.0133   24.4995 N   0  0  1  0  0  0  0  0  0  0  0  0
    6.1206   -2.7598   21.1048 O   0  0  0  0  0  0  0  0  0  0  0  0
    8.7896    1.0612   21.1026 O   0  0  0  0  0  0  0  0  0  0  0  0
    7.4249    2.5281   22.8073 O   0  0  0  0  0  0  0  0  0  0  0  0
    9.9323    2.7171   23.0572 O   0  0  0  0  0  0  0  0  0  0  0  0
    8.6206    2.4824   23.6204 S   0  0  0  0  0  0  0  0  0  0  0  0
   13.4272   -2.1441   21.1108 Cl  0  0  0  0  0  0  0  0  0  0  0  0
    2.5432    3.3510   20.6369 H   0  0  0  0  0  0  0  0  0  0  0  0
    3.5174    2.1137   22.5168 H   0  0  0  0  0  0  0  0  0  0  0  0
    3.3409    2.9743   18.3364 H   0  0  0  0  0  0  0  0  0  0  0  0
    5.3118    0.4895   22.1572 H   0  0  0  0  0  0  0  0  0  0  0  0
   12.5015    0.5923   24.9788 H   0  0  0  0  0  0  0  0  0  0  0  0
   13.9910   -0.5224   23.3824 H   0  0  0  0  0  0  0  0  0  0  0  0
   10.6030   -2.0207   21.2274 H   0  0  0  0  0  0  0  0  0  0  0  0
    4.9141    1.7511   16.7474 H   0  0  0  0  0  0  0  0  0  0  0  0
    7.6445   -0.9764   18.1043 H   0  0  0  0  0  0  0  0  0  0  0  0
    9.7589   -0.1285   25.8179 H   0  0  0  0  0  0  0  0  0  0  0  0
   10.4934    1.4393   25.3829 H   0  0  0  0  0  0  0  0  0  0  0  0
    7.5396   -2.5802   23.3244 H   0  0  0  0  0  0  0  0  0  0  0  0
    8.7446   -2.8786   22.0515 H   0  0  0  0  0  0  0  0  0  0  0  0
    7.9176    7.0458   25.4330 H   0  0  0  0  0  0  0  0  0  0  0  0
    7.0956    5.6668   26.2809 H   0  0  0  0  0  0  0  0  0  0  0  0
    6.1238    4.9068   24.1006 H   0  0  0  0  0  0  0  0  0  0  0  0
    6.9463    6.2861   23.2539 H   0  0  0  0  0  0  0  0  0  0  0  0
    6.8881    0.2767   23.5693 H   0  0  0  0  0  0  0  0  0  0  0  0
    7.6631   -0.8748   24.6619 H   0  0  0  0  0  0  0  0  0  0  0  0
    7.4805    3.3047   25.4944 H   0  0  0  0  0  0  0  0  0  0  0  0
    9.2461    3.4518   25.6593 H   0  0  0  0  0  0  0  0  0  0  0  0
  1 24  1  0  0  0  0
  1 27  3  0  0  0  0
  2  3  1  0  0  0  0
  2  4  2  0  0  0  0
  3  5  2  0  0  0  0
  4 11  1  0  0  0  0
  5 12  1  0  0  0  0
  6  7  1  0  0  0  0
  6 13  2  0  0  0  0
  7 16  2  0  0  0  0
  8 14  2  0  0  0  0
  8 16  1  0  0  0  0
  9 11  2  0  0  0  0
  9 28  1  0  0  0  0
 10 15  1  0  0  0  0
 10 28  2  0  0  0  0
 11 12  1  0  0  0  0
 12 15  2  0  0  0  0
 13 14  1  0  0  0  0
 13 19  1  0  0  0  0
 14 25  1  0  0  0  0
 15 29  1  0  0  0  0
 16 36  1  0  0  0  0
 17 20  1  0  0  0  0
 17 29  1  0  0  0  0
 17 31  2  0  0  0  0
 18 25  1  0  0  0  0
 18 29  1  0  0  0  0
 18 32  2  0  0  0  0
 19 30  1  0  0  0  0
 20 25  1  0  0  0  0
 21 22  1  0  0  0  0
 21 24  1  0  0  0  0
 22 24  1  0  0  0  0
 23 25  1  0  0  0  0
 23 30  1  0  0  0  0
 24 26  1  0  0  0  0
 26 35  1  0  0  0  0
 30 35  1  1  0  0  0
 33 35  2  0  0  0  0
 34 35  2  0  0  0  0
  2 37  1  0  0  0  0
  3 38  1  0  0  0  0
  4 39  1  0  0  0  0
  5 40  1  0  0  0  0
  6 41  1  0  0  0  0
  7 42  1  0  0  0  0
  8 43  1  0  0  0  0
  9 44  1  0  0  0  0
 10 45  1  0  0  0  0
 19 46  1  0  0  0  0
 19 47  1  0  0  0  0
 20 48  1  0  0  0  0
 20 49  1  0  0  0  0
 21 50  1  0  0  0  0
 21 51  1  0  0  0  0
 22 52  1  0  0  0  0
 22 53  1  0  0  0  0
 23 54  1  0  0  0  0
 23 55  1  0  0  0  0
 26 56  1  0  0  0  0
 26 57  1  0  0  0  0
M  END
> <compound>
MAT-POS-1bed62cf-1

> <compound_smiles>
c1ccc2c(c1)cncc2N3C(=O)CC4(C3=O)CN(Cc5c4cc(cc5)Cl)S(=O)(=O)CC6(CC6)C#N

> <enantiomer_smiles>
c1ccc2c(c1)cncc2N3C(=O)CC4(C3=O)C[N@@](Cc5c4cc(cc5)Cl)S(=O)(=O)CC6(CC6)C#N

> <scaffold>
tetrahydroisoquinoline-5spiro-isoquinoline

> <clash_score>
0

> <docking_score>
-8.976414680480957

> <overlap_score>
1.0

> <MMFF_internal_energy>
86.81240588528327

> <docked_smiles>
c1ccc2c(c1)cncc2N3C(=O)C[C@@]4(C3=O)C[N@@](Cc5c4cc(cc5)Cl)S(=O)(=O)CC6(CC6)C#N

$$$$
MAT-POS-b4d6b7fc-7_1
  -OEChem-12272114573D

 63 67  0     1  0  0  0  0  0999 V2000
    4.8973    1.0233   21.2988 C   0  0  0  0  0  0  0  0  0  0  0  0
   12.0765    0.0316   24.1541 C   0  0  0  0  0  0  0  0  0  0  0  0
    3.8960    1.9291   21.5050 C   0  0  0  0  0  0  0  0  0  0  0  0
   12.9132   -0.6032   23.2569 C   0  0  0  0  0  0  0  0  0  0  0  0
    3.7865    2.4205   19.1660 C   0  0  0  0  0  0  0  0  0  0  0  0
   10.9991   -1.4331   22.0443 C   0  0  0  0  0  0  0  0  0  0  0  0
    5.3278    1.2339   17.6066 C   0  0  0  0  0  0  0  0  0  0  0  0
    6.8438   -0.2892   18.3752 C   0  0  0  0  0  0  0  0  0  0  0  0
    5.3982    0.7733   19.9948 C   0  0  0  0  0  0  0  0  0  0  0  0
    4.8226    1.4906   18.9054 C   0  0  0  0  0  0  0  0  0  0  0  0
   10.7040   -0.0625   23.9898 C   0  0  0  0  0  0  0  0  0  0  0  0
   10.1406   -0.7765   22.9250 C   0  0  0  0  0  0  0  0  0  0  0  0
    6.4440   -0.1472   19.6979 C   0  0  0  0  0  0  0  0  0  0  0  0
    3.3432    2.6279   20.4411 C   0  0  0  0  0  0  0  0  0  0  0  0
   12.3683   -1.3298   22.2234 C   0  0  0  0  0  0  0  0  0  0  0  0
    8.2490    0.0169   21.4271 C   0  0  0  0  0  0  0  0  0  0  0  0
    7.3800    2.6707   23.1135 C   0  0  0  0  0  0  0  0  0  0  0  0
    9.9479    0.5589   24.9534 C   0  0  0  0  0  0  0  0  0  0  0  0
    8.0140   -2.1541   22.4331 C   0  0  0  0  0  0  0  0  0  0  0  0
    6.9866   -1.9366   21.3580 C   0  0  0  0  0  0  0  0  0  0  0  0
    7.8721   -0.1194   23.8831 C   0  0  0  0  0  0  0  0  0  0  0  0
    8.6238   -0.7606   22.6929 C   0  0  3  0  0  0  0  0  0  0  0  0
    6.3064    4.4181   21.7238 C   0  0  0  0  0  0  0  0  0  0  0  0
   -0.3742    3.5200   20.9993 C   0  0  0  0  0  0  0  0  0  0  0  0
    8.7403    2.1972   23.5605 C   0  0  0  0  0  0  0  0  0  0  0  0
    6.3062    0.3769   17.3421 N   0  0  0  0  0  0  0  0  0  0  0  0
    7.2292   -0.6897   20.7790 N   0  0  0  0  0  0  0  0  0  0  0  0
    2.2936    3.5769   20.6955 N   0  0  0  0  0  0  0  0  0  0  0  0
    7.4727    3.7787   22.2847 N   0  0  0  0  0  0  0  0  0  0  0  0
    8.6609    1.0133   24.4995 N   0  3  2  0  0  0  0  0  0  0  0  0
    8.7573    1.0936   21.1337 O   0  0  0  0  0  0  0  0  0  0  0  0
    6.3322    2.1271   23.4522 O   0  0  0  0  0  0  0  0  0  0  0  0
    0.7438    4.7186   18.9792 O   0  0  0  0  0  0  0  0  0  0  0  0
    0.7840    2.2012   19.0583 O   0  0  0  0  0  0  0  0  0  0  0  0
    0.8710    3.4831   19.7294 S   0  0  0  0  0  0  0  0  0  0  0  0
   13.4273   -2.1424   21.1098 Cl  0  0  0  0  0  0  0  0  0  0  0  0
    5.3115    0.4893   22.1569 H   0  0  0  0  0  0  0  0  0  0  0  0
   12.5019    0.5946   24.9768 H   0  0  0  0  0  0  0  0  0  0  0  0
    3.5248    2.1066   22.5217 H   0  0  0  0  0  0  0  0  0  0  0  0
   13.9911   -0.5203   23.3811 H   0  0  0  0  0  0  0  0  0  0  0  0
    3.3477    2.9700   18.3285 H   0  0  0  0  0  0  0  0  0  0  0  0
   10.6042   -2.0222   21.2286 H   0  0  0  0  0  0  0  0  0  0  0  0
    4.9135    1.7517   16.7479 H   0  0  0  0  0  0  0  0  0  0  0  0
    7.6449   -0.9757   18.1043 H   0  0  0  0  0  0  0  0  0  0  0  0
    9.7388   -0.1131   25.8254 H   0  0  0  0  0  0  0  0  0  0  0  0
   10.4771    1.4544   25.3711 H   0  0  0  0  0  0  0  0  0  0  0  0
    7.5768   -2.6110   23.3318 H   0  0  0  0  0  0  0  0  0  0  0  0
    8.7734   -2.8622   22.0653 H   0  0  0  0  0  0  0  0  0  0  0  0
    7.0225   -2.7503   20.5949 H   0  0  0  0  0  0  0  0  0  0  0  0
    5.9552   -1.9477   21.7830 H   0  0  0  0  0  0  0  0  0  0  0  0
    6.8958    0.3004   23.5785 H   0  0  0  0  0  0  0  0  0  0  0  0
    7.6733   -0.8520   24.6844 H   0  0  0  0  0  0  0  0  0  0  0  0
    6.0820    3.9763   20.7417 H   0  0  0  0  0  0  0  0  0  0  0  0
    5.4486    4.2710   22.3965 H   0  0  0  0  0  0  0  0  0  0  0  0
    6.4995    5.4946   21.6059 H   0  0  0  0  0  0  0  0  0  0  0  0
   -1.3541    3.4660   20.5224 H   0  0  0  0  0  0  0  0  0  0  0  0
   -0.2211    2.6628   21.6567 H   0  0  0  0  0  0  0  0  0  0  0  0
   -0.2707    4.4526   21.5559 H   0  0  0  0  0  0  0  0  0  0  0  0
    9.2580    2.9867   24.1123 H   0  0  0  0  0  0  0  0  0  0  0  0
    9.3353    1.8814   22.6991 H   0  0  0  0  0  0  0  0  0  0  0  0
    2.6228    4.5383   20.8840 H   0  0  0  0  0  0  0  0  0  0  0  0
    8.3848    4.1756   22.0775 H   0  0  0  0  0  0  0  0  0  0  0  0
    8.1123    1.3501   25.3127 H   0  0  0  0  0  0  0  0  0  0  0  0
  1  3  2  0  0  0  0
  1  9  1  0  0  0  0
  2  4  2  0  0  0  0
  2 11  1  0  0  0  0
  3 14  1  0  0  0  0
  4 15  1  0  0  0  0
  5 10  1  0  0  0  0
  5 14  2  0  0  0  0
  6 12  1  0  0  0  0
  6 15  2  0  0  0  0
  7 10  2  0  0  0  0
  7 26  1  0  0  0  0
  8 13  1  0  0  0  0
  8 26  2  0  0  0  0
  9 10  1  0  0  0  0
  9 13  2  0  0  0  0
 11 12  2  0  0  0  0
 11 18  1  0  0  0  0
 12 22  1  0  0  0  0
 13 27  1  0  0  0  0
 14 28  1  0  0  0  0
 15 36  1  0  0  0  0
 16 22  1  0  0  0  0
 16 27  1  0  0  0  0
 16 31  2  0  0  0  0
 17 25  1  0  0  0  0
 17 29  1  0  0  0  0
 17 32  2  0  0  0  0
 18 30  1  0  0  0  0
 19 20  1  0  0  0  0
 19 22  1  0  0  0  0
 20 27  1  0  0  0  0
 21 22  1  0  0  0  0
 21 30  1  0  0  0  0
 23 29  1  0  0  0  0
 24 35  1  0  0  0  0
 25 30  1  1  0  0  0
 28 35  1  0  0  0  0
 33 35  2  0  0  0  0
 34 35  2  0  0  0  0
  1 37  1  0  0  0  0
  2 38  1  0  0  0  0
  3 39  1  0  0  0  0
  4 40  1  0  0  0  0
  5 41  1  0  0  0  0
  6 42  1  0  0  0  0
  7 43  1  0  0  0  0
  8 44  1  0  0  0  0
 18 45  1  0  0  0  0
 18 46  1  0  0  0  0
 19 47  1  0  0  0  0
 19 48  1  0  0  0  0
 20 49  1  0  0  0  0
 20 50  1  0  0  0  0
 21 51  1  0  0  0  0
 21 52  1  0  0  0  0
 23 53  1  0  0  0  0
 23 54  1  0  0  0  0
 23 55  1  0  0  0  0
 24 56  1  0  0  0  0
 24 57  1  0  0  0  0
 24 58  1  0  0  0  0
 25 59  1  0  0  0  0
 25 60  1  0  0  0  0
 28 61  1  0  0  0  0
 29 62  1  0  0  0  0
 30 63  1  0  0  0  0
M  CHG  1  30   1
M  END
> <compound>
MAT-POS-b4d6b7fc-7

> <compound_smiles>
CNC(=O)CN1Cc2ccc(cc2C3(C1)CCN(C3=O)c4cncc5c4ccc(c5)NS(=O)(=O)C)Cl

> <enantiomer_smiles>
CNC(=O)C[N@@]1Cc2ccc(cc2C3(C1)CCN(C3=O)c4cncc5c4ccc(c5)NS(=O)(=O)C)Cl

> <scaffold>
tetrahydroisoquinoline-5spiro-isoquinoline

> <clash_score>
0

> <docking_score>
-9.391925811767578

> <overlap_score>
0.9856383800506592

> <MMFF_internal_energy>
117.78773823590853

> <docked_smiles>
CNC(=O)C[N@@H+]1Cc2ccc(cc2[C@]3(C1)CCN(C3=O)c4cncc5c4ccc(c5)NS(=O)(=O)C)Cl

$$$$
LUO-POS-868e8996-9_2
  -OEChem-12272114573D

 57 62  0     1  0  0  0  0  0999 V2000
    7.2965    3.4593   22.8009 C   0  0  0  0  0  0  0  0  0  0  0  0
    3.3432    2.6279   20.4411 C   0  0  0  0  0  0  0  0  0  0  0  0
    3.8960    1.9291   21.5050 C   0  0  0  0  0  0  0  0  0  0  0  0
    3.7865    2.4205   19.1660 C   0  0  0  0  0  0  0  0  0  0  0  0
    4.8973    1.0233   21.2988 C   0  0  0  0  0  0  0  0  0  0  0  0
   12.0765    0.0316   24.1541 C   0  0  0  0  0  0  0  0  0  0  0  0
   12.9132   -0.6032   23.2569 C   0  0  0  0  0  0  0  0  0  0  0  0
   10.9991   -1.4331   22.0443 C   0  0  0  0  0  0  0  0  0  0  0  0
    5.3278    1.2339   17.6066 C   0  0  0  0  0  0  0  0  0  0  0  0
    6.8438   -0.2892   18.3752 C   0  0  0  0  0  0  0  0  0  0  0  0
    4.8226    1.4906   18.9054 C   0  0  0  0  0  0  0  0  0  0  0  0
    5.3982    0.7733   19.9948 C   0  0  0  0  0  0  0  0  0  0  0  0
   10.7040   -0.0625   23.9898 C   0  0  0  0  0  0  0  0  0  0  0  0
   10.1406   -0.7765   22.9250 C   0  0  0  0  0  0  0  0  0  0  0  0
    6.4440   -0.1472   19.6979 C   0  0  0  0  0  0  0  0  0  0  0  0
   12.3683   -1.3298   22.2234 C   0  0  0  0  0  0  0  0  0  0  0  0
    6.9866   -1.9366   21.3580 C   0  0  0  0  0  0  0  0  0  0  0  0
    8.2490    0.0169   21.4271 C   0  0  0  0  0  0  0  0  0  0  0  0
    9.9479    0.5589   24.9534 C   0  0  0  0  0  0  0  0  0  0  0  0
    8.0140   -2.1541   22.4331 C   0  0  0  0  0  0  0  0  0  0  0  0
    9.8026    3.2208   22.9357 C   0  0  0  0  0  0  0  0  0  0  0  0
    9.4906    4.6873   22.9842 C   0  0  0  0  0  0  0  0  0  0  0  0
    7.8721   -0.1194   23.8831 C   0  0  0  0  0  0  0  0  0  0  0  0
    8.5038    3.6912   23.5510 C   0  0  0  0  0  0  0  0  0  0  0  0
    8.6238   -0.7606   22.6929 C   0  0  1  0  0  0  0  0  0  0  0  0
    8.3575    3.6102   25.0540 C   0  0  0  0  0  0  0  0  0  0  0  0
    6.3238    3.2726   22.1966 N   0  0  0  0  0  0  0  0  0  0  0  0
    6.3062    0.3769   17.3421 N   0  0  0  0  0  0  0  0  0  0  0  0
    7.2292   -0.6897   20.7790 N   0  0  0  0  0  0  0  0  0  0  0  0
    8.6609    1.0133   24.4995 N   0  0  2  0  0  0  0  0  0  0  0  0
    6.1313   -2.7665   21.0946 O   0  0  0  0  0  0  0  0  0  0  0  0
    8.7792    1.0647   21.1044 O   0  0  0  0  0  0  0  0  0  0  0  0
    8.2397    1.7786   26.9137 O   0  0  0  0  0  0  0  0  0  0  0  0
    6.3694    1.9228   25.2205 O   0  0  0  0  0  0  0  0  0  0  0  0
    7.7712    2.0157   25.5657 S   0  0  0  0  0  0  0  0  0  0  0  0
   13.4280   -2.1405   21.1093 Cl  0  0  0  0  0  0  0  0  0  0  0  0
    2.5432    3.3510   20.6369 H   0  0  0  0  0  0  0  0  0  0  0  0
    3.5174    2.1137   22.5168 H   0  0  0  0  0  0  0  0  0  0  0  0
    3.3409    2.9743   18.3364 H   0  0  0  0  0  0  0  0  0  0  0  0
    5.3118    0.4895   22.1572 H   0  0  0  0  0  0  0  0  0  0  0  0
   12.5030    0.5986   24.9733 H   0  0  0  0  0  0  0  0  0  0  0  0
   13.9915   -0.5171   23.3790 H   0  0  0  0  0  0  0  0  0  0  0  0
   10.6134   -2.0183   21.2242 H   0  0  0  0  0  0  0  0  0  0  0  0
    4.9141    1.7511   16.7474 H   0  0  0  0  0  0  0  0  0  0  0  0
    7.6445   -0.9764   18.1043 H   0  0  0  0  0  0  0  0  0  0  0  0
    9.7877   -0.1156   25.8356 H   0  0  0  0  0  0  0  0  0  0  0  0
   10.4797    1.4586   25.3596 H   0  0  0  0  0  0  0  0  0  0  0  0
    7.4819   -2.5429   23.3081 H   0  0  0  0  0  0  0  0  0  0  0  0
    8.7486   -2.8980   22.1150 H   0  0  0  0  0  0  0  0  0  0  0  0
    9.7796    2.7343   21.9671 H   0  0  0  0  0  0  0  0  0  0  0  0
   10.5825    2.8507   23.5912 H   0  0  0  0  0  0  0  0  0  0  0  0
   10.0623    5.2999   23.6718 H   0  0  0  0  0  0  0  0  0  0  0  0
    9.2596    5.1821   22.0477 H   0  0  0  0  0  0  0  0  0  0  0  0
    6.9015    0.2780   23.5471 H   0  0  0  0  0  0  0  0  0  0  0  0
    7.6689   -0.8632   24.6705 H   0  0  0  0  0  0  0  0  0  0  0  0
    7.6389    4.3499   25.4177 H   0  0  0  0  0  0  0  0  0  0  0  0
    9.3178    3.7752   25.5502 H   0  0  0  0  0  0  0  0  0  0  0  0
  1 24  1  0  0  0  0
  1 27  3  0  0  0  0
  2  3  1  0  0  0  0
  2  4  2  0  0  0  0
  3  5  2  0  0  0  0
  4 11  1  0  0  0  0
  5 12  1  0  0  0  0
  6  7  1  0  0  0  0
  6 13  2  0  0  0  0
  7 16  2  0  0  0  0
  8 14  2  0  0  0  0
  8 16  1  0  0  0  0
  9 11  2  0  0  0  0
  9 28  1  0  0  0  0
 10 15  1  0  0  0  0
 10 28  2  0  0  0  0
 11 12  1  0  0  0  0
 12 15  2  0  0  0  0
 13 14  1  0  0  0  0
 13 19  1  0  0  0  0
 14 25  1  6  0  0  0
 15 29  1  0  0  0  0
 16 36  1  0  0  0  0
 17 20  1  0  0  0  0
 17 29  1  0  0  0  0
 17 31  2  0  0  0  0
 18 25  1  1  0  0  0
 18 29  1  0  0  0  0
 18 32  2  0  0  0  0
 19 30  1  0  0  0  0
 20 25  1  1  0  0  0
 21 22  1  0  0  0  0
 21 24  1  0  0  0  0
 22 24  1  0  0  0  0
 23 25  1  6  0  0  0
 23 30  1  0  0  0  0
 24 26  1  0  0  0  0
 26 35  1  0  0  0  0
 30 35  1  6  0  0  0
 33 35  2  0  0  0  0
 34 35  2  0  0  0  0
  2 37  1  0  0  0  0
  3 38  1  0  0  0  0
  4 39  1  0  0  0  0
  5 40  1  0  0  0  0
  6 41  1  0  0  0  0
  7 42  1  0  0  0  0
  8 43  1  0  0  0  0
  9 44  1  0  0  0  0
 10 45  1  0  0  0  0
 19 46  1  0  0  0  0
 19 47  1  0  0  0  0
 20 48  1  0  0  0  0
 20 49  1  0  0  0  0
 21 50  1  0  0  0  0
 21 51  1  0  0  0  0
 22 52  1  0  0  0  0
 22 53  1  0  0  0  0
 23 54  1  0  0  0  0
 23 55  1  0  0  0  0
 26 56  1  0  0  0  0
 26 57  1  0  0  0  0
M  END
> <compound>
LUO-POS-868e8996-9

> <compound_smiles>
c1ccc2c(c1)cncc2N3C(=O)C[C@@]4(C3=O)CN(Cc5c4cc(cc5)Cl)S(=O)(=O)CC6(CC6)C#N

> <enantiomer_smiles>
c1ccc2c(c1)cncc2N3C(=O)C[C@@]4(C3=O)C[N@](Cc5c4cc(cc5)Cl)S(=O)(=O)CC6(CC6)C#N

> <scaffold>
tetrahydroisoquinoline-5spiro-isoquinoline

> <clash_score>
0

> <docking_score>
-8.803916931152344

> <overlap_score>
1.0

> <MMFF_internal_energy>
82.72925706190298

> <docked_smiles>
c1ccc2c(c1)cncc2N3C(=O)C[C@@]4(C3=O)C[N@](Cc5c4cc(cc5)Cl)S(=O)(=O)CC6(CC6)C#N

$$$$
EDJ-MED-9f4ac58c-2_1
  -OEChem-12272114573D

 57 62  0     1  0  0  0  0  0999 V2000
    7.6188    5.2281   23.1262 C   0  0  0  0  0  0  0  0  0  0  0  0
    3.3432    2.6279   20.4411 C   0  0  0  0  0  0  0  0  0  0  0  0
    3.8960    1.9291   21.5050 C   0  0  0  0  0  0  0  0  0  0  0  0
    3.7865    2.4205   19.1660 C   0  0  0  0  0  0  0  0  0  0  0  0
    4.8973    1.0233   21.2988 C   0  0  0  0  0  0  0  0  0  0  0  0
   12.0765    0.0316   24.1541 C   0  0  0  0  0  0  0  0  0  0  0  0
   12.9132   -0.6032   23.2569 C   0  0  0  0  0  0  0  0  0  0  0  0
   10.9991   -1.4331   22.0443 C   0  0  0  0  0  0  0  0  0  0  0  0
    5.3278    1.2339   17.6066 C   0  0  0  0  0  0  0  0  0  0  0  0
    6.8438   -0.2892   18.3752 C   0  0  0  0  0  0  0  0  0  0  0  0
    4.8226    1.4906   18.9054 C   0  0  0  0  0  0  0  0  0  0  0  0
    5.3982    0.7733   19.9948 C   0  0  0  0  0  0  0  0  0  0  0  0
   10.7040   -0.0625   23.9898 C   0  0  0  0  0  0  0  0  0  0  0  0
   10.1406   -0.7765   22.9250 C   0  0  0  0  0  0  0  0  0  0  0  0
    6.4440   -0.1472   19.6979 C   0  0  0  0  0  0  0  0  0  0  0  0
   12.3683   -1.3298   22.2234 C   0  0  0  0  0  0  0  0  0  0  0  0
    9.9479    0.5589   24.9534 C   0  0  0  0  0  0  0  0  0  0  0  0
    8.2490    0.0169   21.4271 C   0  0  0  0  0  0  0  0  0  0  0  0
    9.9922    5.8998   23.6472 C   0  0  0  0  0  0  0  0  0  0  0  0
    9.2734    5.7498   24.9553 C   0  0  0  0  0  0  0  0  0  0  0  0
    8.0140   -2.1541   22.4331 C   0  0  0  0  0  0  0  0  0  0  0  0
    6.9866   -1.9366   21.3580 C   0  0  0  0  0  0  0  0  0  0  0  0
    7.8721   -0.1194   23.8831 C   0  0  0  0  0  0  0  0  0  0  0  0
    8.8635    4.9012   23.7725 C   0  0  0  0  0  0  0  0  0  0  0  0
    8.6238   -0.7606   22.6929 C   0  0  3  0  0  0  0  0  0  0  0  0
    9.2137    3.4302   23.7961 C   0  0  0  0  0  0  0  0  0  0  0  0
    6.6159    5.4914   22.6056 N   0  0  0  0  0  0  0  0  0  0  0  0
    6.3062    0.3769   17.3421 N   0  0  0  0  0  0  0  0  0  0  0  0
    7.2292   -0.6897   20.7790 N   0  0  0  0  0  0  0  0  0  0  0  0
    8.6609    1.0133   24.4995 N   0  0  0  0  0  0  0  0  0  0  0  0
   10.3149    0.7350   26.1235 O   0  0  0  0  0  0  0  0  0  0  0  0
    8.8183    1.0411   21.0761 O   0  0  0  0  0  0  0  0  0  0  0  0
    8.0349    2.8632   26.0580 O   0  0  0  0  0  0  0  0  0  0  0  0
    6.7654    2.5231   23.8997 O   0  0  0  0  0  0  0  0  0  0  0  0
    7.9905    2.4844   24.6644 S   0  0  0  0  0  0  0  0  0  0  0  0
   13.4278   -2.1472   21.1141 Cl  0  0  0  0  0  0  0  0  0  0  0  0
    2.5432    3.3510   20.6369 H   0  0  0  0  0  0  0  0  0  0  0  0
    3.5174    2.1137   22.5168 H   0  0  0  0  0  0  0  0  0  0  0  0
    3.3409    2.9743   18.3364 H   0  0  0  0  0  0  0  0  0  0  0  0
    5.3118    0.4895   22.1572 H   0  0  0  0  0  0  0  0  0  0  0  0
   12.5173    0.5967   24.9711 H   0  0  0  0  0  0  0  0  0  0  0  0
   13.9906   -0.5212   23.3817 H   0  0  0  0  0  0  0  0  0  0  0  0
   10.6155   -2.0259   21.2280 H   0  0  0  0  0  0  0  0  0  0  0  0
    4.9141    1.7511   16.7474 H   0  0  0  0  0  0  0  0  0  0  0  0
    7.6445   -0.9764   18.1043 H   0  0  0  0  0  0  0  0  0  0  0  0
    9.8269    6.8121   23.0852 H   0  0  0  0  0  0  0  0  0  0  0  0
   11.0086    5.5282   23.5865 H   0  0  0  0  0  0  0  0  0  0  0  0
    9.8088    5.2784   25.7714 H   0  0  0  0  0  0  0  0  0  0  0  0
    8.6278    6.5623   25.2689 H   0  0  0  0  0  0  0  0  0  0  0  0
    7.5103   -2.5286   23.3380 H   0  0  0  0  0  0  0  0  0  0  0  0
    8.7576   -2.9098   22.1428 H   0  0  0  0  0  0  0  0  0  0  0  0
    7.0600   -2.7254   20.5723 H   0  0  0  0  0  0  0  0  0  0  0  0
    5.9510   -1.9973   21.7704 H   0  0  0  0  0  0  0  0  0  0  0  0
    6.8972    0.2928   23.5636 H   0  0  0  0  0  0  0  0  0  0  0  0
    7.6441   -0.8835   24.6470 H   0  0  0  0  0  0  0  0  0  0  0  0
   10.1689    3.2634   24.3017 H   0  0  0  0  0  0  0  0  0  0  0  0
    9.2740    3.0259   22.7821 H   0  0  0  0  0  0  0  0  0  0  0  0
  1 24  1  0  0  0  0
  1 27  3  0  0  0  0
  2  3  1  0  0  0  0
  2  4  2  0  0  0  0
  3  5  2  0  0  0  0
  4 11  1  0  0  0  0
  5 12  1  0  0  0  0
  6  7  1  0  0  0  0
  6 13  2  0  0  0  0
  7 16  2  0  0  0  0
  8 14  2  0  0  0  0
  8 16  1  0  0  0  0
  9 11  2  0  0  0  0
  9 28  1  0  0  0  0
 10 15  1  0  0  0  0
 10 28  2  0  0  0  0
 11 12  1  0  0  0  0
 12 15  2  0  0  0  0
 13 14  1  0  0  0  0
 13 17  1  0  0  0  0
 14 25  1  0  0  0  0
 15 29  1  0  0  0  0
 16 36  1  0  0  0  0
 17 30  1  0  0  0  0
 17 31  2  0  0  0  0
 18 25  1  0  0  0  0
 18 29  1  0  0  0  0
 18 32  2  0  0  0  0
 19 20  1  0  0  0  0
 19 24  1  0  0  0  0
 20 24  1  0  0  0  0
 21 22  1  0  0  0  0
 21 25  1  0  0  0  0
 22 29  1  0  0  0  0
 23 25  1  0  0  0  0
 23 30  1  0  0  0  0
 24 26  1  0  0  0  0
 26 35  1  0  0  0  0
 30 35  1  0  0  0  0
 33 35  2  0  0  0  0
 34 35  2  0  0  0  0
  2 37  1  0  0  0  0
  3 38  1  0  0  0  0
  4 39  1  0  0  0  0
  5 40  1  0  0  0  0
  6 41  1  0  0  0  0
  7 42  1  0  0  0  0
  8 43  1  0  0  0  0
  9 44  1  0  0  0  0
 10 45  1  0  0  0  0
 19 46  1  0  0  0  0
 19 47  1  0  0  0  0
 20 48  1  0  0  0  0
 20 49  1  0  0  0  0
 21 50  1  0  0  0  0
 21 51  1  0  0  0  0
 22 52  1  0  0  0  0
 22 53  1  0  0  0  0
 23 54  1  0  0  0  0
 23 55  1  0  0  0  0
 26 56  1  0  0  0  0
 26 57  1  0  0  0  0
M  END
> <compound>
EDJ-MED-9f4ac58c-2

> <compound_smiles>
c1ccc2c(c1)cncc2N3CCC4(C3=O)CN(C(=O)c5c4cc(cc5)Cl)S(=O)(=O)CC6(CC6)C#N

> <enantiomer_smiles>
c1ccc2c(c1)cncc2N3CCC4(C3=O)CN(C(=O)c5c4cc(cc5)Cl)S(=O)(=O)CC6(CC6)C#N

> <scaffold>
tetrahydroisoquinoline-5spiro-isoquinoline

> <clash_score>
0

> <docking_score>
-8.314640998840332

> <overlap_score>
0.9818660020828247

> <MMFF_internal_energy>
97.52523412695597

> <docked_smiles>
c1ccc2c(c1)cncc2N3CC[C@@]4(C3=O)CN(C(=O)c5c4cc(cc5)Cl)S(=O)(=O)CC6(CC6)C#N

$$$$
LUO-POS-868e8996-9_1
  -OEChem-12272114573D

 57 62  0     1  0  0  0  0  0999 V2000
    9.4909    5.5218   23.8245 C   0  0  0  0  0  0  0  0  0  0  0  0
    3.3432    2.6279   20.4411 C   0  0  0  0  0  0  0  0  0  0  0  0
    3.8960    1.9291   21.5050 C   0  0  0  0  0  0  0  0  0  0  0  0
    3.7865    2.4205   19.1660 C   0  0  0  0  0  0  0  0  0  0  0  0
    4.8973    1.0233   21.2988 C   0  0  0  0  0  0  0  0  0  0  0  0
   12.0765    0.0316   24.1541 C   0  0  0  0  0  0  0  0  0  0  0  0
   12.9132   -0.6032   23.2569 C   0  0  0  0  0  0  0  0  0  0  0  0
   10.9991   -1.4331   22.0443 C   0  0  0  0  0  0  0  0  0  0  0  0
    5.3278    1.2339   17.6066 C   0  0  0  0  0  0  0  0  0  0  0  0
    6.8438   -0.2892   18.3752 C   0  0  0  0  0  0  0  0  0  0  0  0
    4.8226    1.4906   18.9054 C   0  0  0  0  0  0  0  0  0  0  0  0
    5.3982    0.7733   19.9948 C   0  0  0  0  0  0  0  0  0  0  0  0
   10.7040   -0.0625   23.9898 C   0  0  0  0  0  0  0  0  0  0  0  0
   10.1406   -0.7765   22.9250 C   0  0  0  0  0  0  0  0  0  0  0  0
    6.4440   -0.1472   19.6979 C   0  0  0  0  0  0  0  0  0  0  0  0
   12.3683   -1.3298   22.2234 C   0  0  0  0  0  0  0  0  0  0  0  0
    6.9866   -1.9366   21.3580 C   0  0  0  0  0  0  0  0  0  0  0  0
    8.2490    0.0169   21.4271 C   0  0  0  0  0  0  0  0  0  0  0  0
    9.9479    0.5589   24.9534 C   0  0  0  0  0  0  0  0  0  0  0  0
    8.0140   -2.1541   22.4331 C   0  0  0  0  0  0  0  0  0  0  0  0
    7.5631    6.0233   25.3699 C   0  0  0  0  0  0  0  0  0  0  0  0
    6.9817    5.5675   24.0642 C   0  0  0  0  0  0  0  0  0  0  0  0
    7.8721   -0.1194   23.8831 C   0  0  0  0  0  0  0  0  0  0  0  0
    8.3240    5.0355   24.5142 C   0  0  0  0  0  0  0  0  0  0  0  0
    8.6238   -0.7606   22.6929 C   0  0  1  0  0  0  0  0  0  0  0  0
    8.4002    3.5993   24.9817 C   0  0  0  0  0  0  0  0  0  0  0  0
   10.4310    5.9137   23.2690 N   0  0  0  0  0  0  0  0  0  0  0  0
    6.3062    0.3769   17.3421 N   0  0  0  0  0  0  0  0  0  0  0  0
    7.2292   -0.6897   20.7790 N   0  0  0  0  0  0  0  0  0  0  0  0
    8.6609    1.0133   24.4995 N   0  0  1  0  0  0  0  0  0  0  0  0
    6.1208   -2.7600   21.1047 O   0  0  0  0  0  0  0  0  0  0  0  0
    8.7896    1.0612   21.1027 O   0  0  0  0  0  0  0  0  0  0  0  0
    7.4247    2.5285   22.8071 O   0  0  0  0  0  0  0  0  0  0  0  0
    9.9321    2.7174   23.0574 O   0  0  0  0  0  0  0  0  0  0  0  0
    8.6203    2.4826   23.6205 S   0  0  0  0  0  0  0  0  0  0  0  0
   13.4271   -2.1418   21.1092 Cl  0  0  0  0  0  0  0  0  0  0  0  0
    2.5432    3.3510   20.6369 H   0  0  0  0  0  0  0  0  0  0  0  0
    3.5174    2.1137   22.5168 H   0  0  0  0  0  0  0  0  0  0  0  0
    3.3409    2.9743   18.3364 H   0  0  0  0  0  0  0  0  0  0  0  0
    5.3118    0.4895   22.1572 H   0  0  0  0  0  0  0  0  0  0  0  0
   12.5020    0.5927   24.9783 H   0  0  0  0  0  0  0  0  0  0  0  0
   13.9911   -0.5225   23.3825 H   0  0  0  0  0  0  0  0  0  0  0  0
   10.6032   -2.0209   21.2277 H   0  0  0  0  0  0  0  0  0  0  0  0
    4.9141    1.7511   16.7474 H   0  0  0  0  0  0  0  0  0  0  0  0
    7.6445   -0.9764   18.1043 H   0  0  0  0  0  0  0  0  0  0  0  0
    9.7590   -0.1292   25.8175 H   0  0  0  0  0  0  0  0  0  0  0  0
   10.4933    1.4387   25.3838 H   0  0  0  0  0  0  0  0  0  0  0  0
    7.5403   -2.5807   23.3246 H   0  0  0  0  0  0  0  0  0  0  0  0
    8.7445   -2.8785   22.0514 H   0  0  0  0  0  0  0  0  0  0  0  0
    7.9167    7.0463   25.4322 H   0  0  0  0  0  0  0  0  0  0  0  0
    7.0948    5.6674   26.2803 H   0  0  0  0  0  0  0  0  0  0  0  0
    6.1231    4.9068   24.1002 H   0  0  0  0  0  0  0  0  0  0  0  0
    6.9455    6.2861   23.2533 H   0  0  0  0  0  0  0  0  0  0  0  0
    6.8882    0.2774   23.5695 H   0  0  0  0  0  0  0  0  0  0  0  0
    7.6626   -0.8750   24.6620 H   0  0  0  0  0  0  0  0  0  0  0  0
    7.4801    3.3052   25.4943 H   0  0  0  0  0  0  0  0  0  0  0  0
    9.2457    3.4525   25.6592 H   0  0  0  0  0  0  0  0  0  0  0  0
  1 24  1  0  0  0  0
  1 27  3  0  0  0  0
  2  3  1  0  0  0  0
  2  4  2  0  0  0  0
  3  5  2  0  0  0  0
  4 11  1  0  0  0  0
  5 12  1  0  0  0  0
  6  7  1  0  0  0  0
  6 13  2  0  0  0  0
  7 16  2  0  0  0  0
  8 14  2  0  0  0  0
  8 16  1  0  0  0  0
  9 11  2  0  0  0  0
  9 28  1  0  0  0  0
 10 15  1  0  0  0  0
 10 28  2  0  0  0  0
 11 12  1  0  0  0  0
 12 15  2  0  0  0  0
 13 14  1  0  0  0  0
 13 19  1  0  0  0  0
 14 25  1  6  0  0  0
 15 29  1  0  0  0  0
 16 36  1  0  0  0  0
 17 20  1  0  0  0  0
 17 29  1  0  0  0  0
 17 31  2  0  0  0  0
 18 25  1  1  0  0  0
 18 29  1  0  0  0  0
 18 32  2  0  0  0  0
 19 30  1  0  0  0  0
 20 25  1  1  0  0  0
 21 22  1  0  0  0  0
 21 24  1  0  0  0  0
 22 24  1  0  0  0  0
 23 25  1  6  0  0  0
 23 30  1  0  0  0  0
 24 26  1  0  0  0  0
 26 35  1  0  0  0  0
 30 35  1  1  0  0  0
 33 35  2  0  0  0  0
 34 35  2  0  0  0  0
  2 37  1  0  0  0  0
  3 38  1  0  0  0  0
  4 39  1  0  0  0  0
  5 40  1  0  0  0  0
  6 41  1  0  0  0  0
  7 42  1  0  0  0  0
  8 43  1  0  0  0  0
  9 44  1  0  0  0  0
 10 45  1  0  0  0  0
 19 46  1  0  0  0  0
 19 47  1  0  0  0  0
 20 48  1  0  0  0  0
 20 49  1  0  0  0  0
 21 50  1  0  0  0  0
 21 51  1  0  0  0  0
 22 52  1  0  0  0  0
 22 53  1  0  0  0  0
 23 54  1  0  0  0  0
 23 55  1  0  0  0  0
 26 56  1  0  0  0  0
 26 57  1  0  0  0  0
M  END
> <compound>
LUO-POS-868e8996-9

> <compound_smiles>
c1ccc2c(c1)cncc2N3C(=O)C[C@@]4(C3=O)CN(Cc5c4cc(cc5)Cl)S(=O)(=O)CC6(CC6)C#N

> <enantiomer_smiles>
c1ccc2c(c1)cncc2N3C(=O)C[C@@]4(C3=O)C[N@@](Cc5c4cc(cc5)Cl)S(=O)(=O)CC6(CC6)C#N

> <scaffold>
tetrahydroisoquinoline-5spiro-isoquinoline

> <clash_score>
0

> <docking_score>
-8.977222442626953

> <overlap_score>
1.0

> <MMFF_internal_energy>
86.81235950360626

> <docked_smiles>
c1ccc2c(c1)cncc2N3C(=O)C[C@@]4(C3=O)C[N@@](Cc5c4cc(cc5)Cl)S(=O)(=O)CC6(CC6)C#N

$$$$
LUO-POS-868e8996-10_1
  -OEChem-12272114573D

 57 62  0     1  0  0  0  0  0999 V2000
    9.9952    5.1197   23.8174 C   0  0  0  0  0  0  0  0  0  0  0  0
    3.3432    2.6279   20.4411 C   0  0  0  0  0  0  0  0  0  0  0  0
    3.8960    1.9291   21.5050 C   0  0  0  0  0  0  0  0  0  0  0  0
    3.7865    2.4205   19.1660 C   0  0  0  0  0  0  0  0  0  0  0  0
    4.8973    1.0233   21.2988 C   0  0  0  0  0  0  0  0  0  0  0  0
   12.0765    0.0316   24.1541 C   0  0  0  0  0  0  0  0  0  0  0  0
   12.9132   -0.6032   23.2569 C   0  0  0  0  0  0  0  0  0  0  0  0
   10.9991   -1.4331   22.0443 C   0  0  0  0  0  0  0  0  0  0  0  0
    5.3278    1.2339   17.6066 C   0  0  0  0  0  0  0  0  0  0  0  0
    6.8438   -0.2892   18.3752 C   0  0  0  0  0  0  0  0  0  0  0  0
    4.8226    1.4906   18.9054 C   0  0  0  0  0  0  0  0  0  0  0  0
    5.3982    0.7733   19.9948 C   0  0  0  0  0  0  0  0  0  0  0  0
   10.7040   -0.0625   23.9898 C   0  0  0  0  0  0  0  0  0  0  0  0
   10.1406   -0.7765   22.9250 C   0  0  0  0  0  0  0  0  0  0  0  0
    6.4440   -0.1472   19.6979 C   0  0  0  0  0  0  0  0  0  0  0  0
   12.3683   -1.3298   22.2234 C   0  0  0  0  0  0  0  0  0  0  0  0
    6.9866   -1.9366   21.3580 C   0  0  0  0  0  0  0  0  0  0  0  0
    8.2490    0.0169   21.4271 C   0  0  0  0  0  0  0  0  0  0  0  0
    9.9479    0.5589   24.9534 C   0  0  0  0  0  0  0  0  0  0  0  0
    8.0140   -2.1541   22.4331 C   0  0  0  0  0  0  0  0  0  0  0  0
    8.5389    6.1046   25.6243 C   0  0  0  0  0  0  0  0  0  0  0  0
    7.7079    6.0194   24.3782 C   0  0  0  0  0  0  0  0  0  0  0  0
    7.8721   -0.1194   23.8831 C   0  0  0  0  0  0  0  0  0  0  0  0
    8.8046    5.0062   24.6194 C   0  0  0  0  0  0  0  0  0  0  0  0
    8.6238   -0.7606   22.6929 C   0  0  2  0  0  0  0  0  0  0  0  0
    8.4022    3.5949   24.9845 C   0  0  0  0  0  0  0  0  0  0  0  0
   10.9545    5.2112   23.1713 N   0  0  0  0  0  0  0  0  0  0  0  0
    6.3062    0.3769   17.3421 N   0  0  0  0  0  0  0  0  0  0  0  0
    7.2292   -0.6897   20.7790 N   0  0  0  0  0  0  0  0  0  0  0  0
    8.6609    1.0133   24.4995 N   0  0  1  0  0  0  0  0  0  0  0  0
    6.1173   -2.7567   21.1099 O   0  0  0  0  0  0  0  0  0  0  0  0
    8.7891    1.0574   21.0969 O   0  0  0  0  0  0  0  0  0  0  0  0
    7.4198    2.5188   22.8156 O   0  0  0  0  0  0  0  0  0  0  0  0
    9.9273    2.7283   23.0478 O   0  0  0  0  0  0  0  0  0  0  0  0
    8.6216    2.4822   23.6199 S   0  0  0  0  0  0  0  0  0  0  0  0
   13.4280   -2.1424   21.1106 Cl  0  0  0  0  0  0  0  0  0  0  0  0
    2.5432    3.3510   20.6369 H   0  0  0  0  0  0  0  0  0  0  0  0
    3.5174    2.1137   22.5168 H   0  0  0  0  0  0  0  0  0  0  0  0
    3.3409    2.9743   18.3364 H   0  0  0  0  0  0  0  0  0  0  0  0
    5.3118    0.4895   22.1572 H   0  0  0  0  0  0  0  0  0  0  0  0
   12.5025    0.5905   24.9791 H   0  0  0  0  0  0  0  0  0  0  0  0
   13.9915   -0.5237   23.3834 H   0  0  0  0  0  0  0  0  0  0  0  0
   10.6128   -2.0226   21.2275 H   0  0  0  0  0  0  0  0  0  0  0  0
    4.9141    1.7511   16.7474 H   0  0  0  0  0  0  0  0  0  0  0  0
    7.6445   -0.9764   18.1043 H   0  0  0  0  0  0  0  0  0  0  0  0
    9.7575   -0.1297   25.8179 H   0  0  0  0  0  0  0  0  0  0  0  0
   10.4935    1.4381   25.3869 H   0  0  0  0  0  0  0  0  0  0  0  0
    7.5529   -2.5988   23.3184 H   0  0  0  0  0  0  0  0  0  0  0  0
    8.7496   -2.8597   22.0321 H   0  0  0  0  0  0  0  0  0  0  0  0
    9.2423    6.9259   25.7035 H   0  0  0  0  0  0  0  0  0  0  0  0
    8.0648    5.8443   26.5636 H   0  0  0  0  0  0  0  0  0  0  0  0
    6.6766    5.7026   24.4830 H   0  0  0  0  0  0  0  0  0  0  0  0
    7.8549    6.7843   23.6241 H   0  0  0  0  0  0  0  0  0  0  0  0
    6.8946    0.2787   23.5657 H   0  0  0  0  0  0  0  0  0  0  0  0
    7.6835   -0.8741   24.6624 H   0  0  0  0  0  0  0  0  0  0  0  0
    7.3477    3.5501   25.2705 H   0  0  0  0  0  0  0  0  0  0  0  0
    9.0099    3.2158   25.8106 H   0  0  0  0  0  0  0  0  0  0  0  0
  1 24  1  0  0  0  0
  1 27  3  0  0  0  0
  2  3  1  0  0  0  0
  2  4  2  0  0  0  0
  3  5  2  0  0  0  0
  4 11  1  0  0  0  0
  5 12  1  0  0  0  0
  6  7  1  0  0  0  0
  6 13  2  0  0  0  0
  7 16  2  0  0  0  0
  8 14  2  0  0  0  0
  8 16  1  0  0  0  0
  9 11  2  0  0  0  0
  9 28  1  0  0  0  0
 10 15  1  0  0  0  0
 10 28  2  0  0  0  0
 11 12  1  0  0  0  0
 12 15  2  0  0  0  0
 13 14  1  0  0  0  0
 13 19  1  0  0  0  0
 14 25  1  1  0  0  0
 15 29  1  0  0  0  0
 16 36  1  0  0  0  0
 17 20  1  0  0  0  0
 17 29  1  0  0  0  0
 17 31  2  0  0  0  0
 18 25  1  6  0  0  0
 18 29  1  0  0  0  0
 18 32  2  0  0  0  0
 19 30  1  0  0  0  0
 20 25  1  6  0  0  0
 21 22  1  0  0  0  0
 21 24  1  0  0  0  0
 22 24  1  0  0  0  0
 23 25  1  1  0  0  0
 23 30  1  0  0  0  0
 24 26  1  0  0  0  0
 26 35  1  0  0  0  0
 30 35  1  1  0  0  0
 33 35  2  0  0  0  0
 34 35  2  0  0  0  0
  2 37  1  0  0  0  0
  3 38  1  0  0  0  0
  4 39  1  0  0  0  0
  5 40  1  0  0  0  0
  6 41  1  0  0  0  0
  7 42  1  0  0  0  0
  8 43  1  0  0  0  0
  9 44  1  0  0  0  0
 10 45  1  0  0  0  0
 19 46  1  0  0  0  0
 19 47  1  0  0  0  0
 20 48  1  0  0  0  0
 20 49  1  0  0  0  0
 21 50  1  0  0  0  0
 21 51  1  0  0  0  0
 22 52  1  0  0  0  0
 22 53  1  0  0  0  0
 23 54  1  0  0  0  0
 23 55  1  0  0  0  0
 26 56  1  0  0  0  0
 26 57  1  0  0  0  0
M  END
> <compound>
LUO-POS-868e8996-10

> <compound_smiles>
c1ccc2c(c1)cncc2N3C(=O)C[C@]4(C3=O)CN(Cc5c4cc(cc5)Cl)S(=O)(=O)CC6(CC6)C#N

> <enantiomer_smiles>
c1ccc2c(c1)cncc2N3C(=O)C[C@]4(C3=O)C[N@@](Cc5c4cc(cc5)Cl)S(=O)(=O)CC6(CC6)C#N

> <scaffold>
tetrahydroisoquinoline-5spiro-isoquinoline

> <clash_score>
0

> <docking_score>
-9.226963996887207

> <overlap_score>
1.0

> <MMFF_internal_energy>
96.59294404122309

> <docked_smiles>
c1ccc2c(c1)cncc2N3C(=O)C[C@@]4(C3=O)C[N@@](Cc5c4cc(cc5)Cl)S(=O)(=O)CC6(CC6)C#N

$$$$
LUO-POS-868e8996-10_2
  -OEChem-12272114573D

 57 62  0     1  0  0  0  0  0999 V2000
    7.3163    3.4149   22.7715 C   0  0  0  0  0  0  0  0  0  0  0  0
    3.3432    2.6279   20.4411 C   0  0  0  0  0  0  0  0  0  0  0  0
    3.8960    1.9291   21.5050 C   0  0  0  0  0  0  0  0  0  0  0  0
    3.7865    2.4205   19.1660 C   0  0  0  0  0  0  0  0  0  0  0  0
    4.8973    1.0233   21.2988 C   0  0  0  0  0  0  0  0  0  0  0  0
   12.0765    0.0316   24.1541 C   0  0  0  0  0  0  0  0  0  0  0  0
   12.9132   -0.6032   23.2569 C   0  0  0  0  0  0  0  0  0  0  0  0
   10.9991   -1.4331   22.0443 C   0  0  0  0  0  0  0  0  0  0  0  0
    5.3278    1.2339   17.6066 C   0  0  0  0  0  0  0  0  0  0  0  0
    6.8438   -0.2892   18.3752 C   0  0  0  0  0  0  0  0  0  0  0  0
    4.8226    1.4906   18.9054 C   0  0  0  0  0  0  0  0  0  0  0  0
    5.3982    0.7733   19.9948 C   0  0  0  0  0  0  0  0  0  0  0  0
   10.7040   -0.0625   23.9898 C   0  0  0  0  0  0  0  0  0  0  0  0
   10.1406   -0.7765   22.9250 C   0  0  0  0  0  0  0  0  0  0  0  0
    6.4440   -0.1472   19.6979 C   0  0  0  0  0  0  0  0  0  0  0  0
   12.3683   -1.3298   22.2234 C   0  0  0  0  0  0  0  0  0  0  0  0
    6.9866   -1.9366   21.3580 C   0  0  0  0  0  0  0  0  0  0  0  0
    8.2490    0.0169   21.4271 C   0  0  0  0  0  0  0  0  0  0  0  0
    9.9479    0.5589   24.9534 C   0  0  0  0  0  0  0  0  0  0  0  0
    8.0140   -2.1541   22.4331 C   0  0  0  0  0  0  0  0  0  0  0  0
    9.8185    3.1394   22.9096 C   0  0  0  0  0  0  0  0  0  0  0  0
    9.5297    4.6113   22.9300 C   0  0  0  0  0  0  0  0  0  0  0  0
    7.8721   -0.1194   23.8831 C   0  0  0  0  0  0  0  0  0  0  0  0
    8.5277    3.6420   23.5163 C   0  0  0  0  0  0  0  0  0  0  0  0
    8.6238   -0.7606   22.6929 C   0  0  2  0  0  0  0  0  0  0  0  0
    8.3815    3.5923   25.0207 C   0  0  0  0  0  0  0  0  0  0  0  0
    6.3404    3.2319   22.1714 N   0  0  0  0  0  0  0  0  0  0  0  0
    6.3062    0.3769   17.3421 N   0  0  0  0  0  0  0  0  0  0  0  0
    7.2292   -0.6897   20.7790 N   0  0  0  0  0  0  0  0  0  0  0  0
    8.6609    1.0133   24.4995 N   0  0  2  0  0  0  0  0  0  0  0  0
    6.1264   -2.7640   21.0983 O   0  0  0  0  0  0  0  0  0  0  0  0
    8.7862    1.0637   21.1050 O   0  0  0  0  0  0  0  0  0  0  0  0
    8.2210    1.8072   26.9220 O   0  0  0  0  0  0  0  0  0  0  0  0
    6.3713    1.9331   25.2050 O   0  0  0  0  0  0  0  0  0  0  0  0
    7.7704    2.0173   25.5634 S   0  0  0  0  0  0  0  0  0  0  0  0
   13.4268   -2.1415   21.1086 Cl  0  0  0  0  0  0  0  0  0  0  0  0
    2.5432    3.3510   20.6369 H   0  0  0  0  0  0  0  0  0  0  0  0
    3.5174    2.1137   22.5168 H   0  0  0  0  0  0  0  0  0  0  0  0
    3.3409    2.9743   18.3364 H   0  0  0  0  0  0  0  0  0  0  0  0
    5.3118    0.4895   22.1572 H   0  0  0  0  0  0  0  0  0  0  0  0
   12.5016    0.5990   24.9741 H   0  0  0  0  0  0  0  0  0  0  0  0
   13.9911   -0.5163   23.3783 H   0  0  0  0  0  0  0  0  0  0  0  0
   10.6033   -2.0169   21.2247 H   0  0  0  0  0  0  0  0  0  0  0  0
    4.9141    1.7511   16.7474 H   0  0  0  0  0  0  0  0  0  0  0  0
    7.6445   -0.9764   18.1043 H   0  0  0  0  0  0  0  0  0  0  0  0
    9.7852   -0.1183   25.8319 H   0  0  0  0  0  0  0  0  0  0  0  0
   10.4802    1.4567   25.3609 H   0  0  0  0  0  0  0  0  0  0  0  0
    7.4955   -2.5659   23.3081 H   0  0  0  0  0  0  0  0  0  0  0  0
    8.7588   -2.8852   22.0981 H   0  0  0  0  0  0  0  0  0  0  0  0
    9.7869    2.6348   21.9505 H   0  0  0  0  0  0  0  0  0  0  0  0
   10.5930    2.7697   23.5716 H   0  0  0  0  0  0  0  0  0  0  0  0
   10.1116    5.2279   23.6054 H   0  0  0  0  0  0  0  0  0  0  0  0
    9.3058    5.0917   21.9843 H   0  0  0  0  0  0  0  0  0  0  0  0
    6.8886    0.2649   23.5583 H   0  0  0  0  0  0  0  0  0  0  0  0
    7.6635   -0.8635   24.6746 H   0  0  0  0  0  0  0  0  0  0  0  0
    7.6750    4.3500   25.3706 H   0  0  0  0  0  0  0  0  0  0  0  0
    9.3446    3.7515   25.5131 H   0  0  0  0  0  0  0  0  0  0  0  0
  1 24  1  0  0  0  0
  1 27  3  0  0  0  0
  2  3  1  0  0  0  0
  2  4  2  0  0  0  0
  3  5  2  0  0  0  0
  4 11  1  0  0  0  0
  5 12  1  0  0  0  0
  6  7  1  0  0  0  0
  6 13  2  0  0  0  0
  7 16  2  0  0  0  0
  8 14  2  0  0  0  0
  8 16  1  0  0  0  0
  9 11  2  0  0  0  0
  9 28  1  0  0  0  0
 10 15  1  0  0  0  0
 10 28  2  0  0  0  0
 11 12  1  0  0  0  0
 12 15  2  0  0  0  0
 13 14  1  0  0  0  0
 13 19  1  0  0  0  0
 14 25  1  1  0  0  0
 15 29  1  0  0  0  0
 16 36  1  0  0  0  0
 17 20  1  0  0  0  0
 17 29  1  0  0  0  0
 17 31  2  0  0  0  0
 18 25  1  6  0  0  0
 18 29  1  0  0  0  0
 18 32  2  0  0  0  0
 19 30  1  0  0  0  0
 20 25  1  6  0  0  0
 21 22  1  0  0  0  0
 21 24  1  0  0  0  0
 22 24  1  0  0  0  0
 23 25  1  1  0  0  0
 23 30  1  0  0  0  0
 24 26  1  0  0  0  0
 26 35  1  0  0  0  0
 30 35  1  6  0  0  0
 33 35  2  0  0  0  0
 34 35  2  0  0  0  0
  2 37  1  0  0  0  0
  3 38  1  0  0  0  0
  4 39  1  0  0  0  0
  5 40  1  0  0  0  0
  6 41  1  0  0  0  0
  7 42  1  0  0  0  0
  8 43  1  0  0  0  0
  9 44  1  0  0  0  0
 10 45  1  0  0  0  0
 19 46  1  0  0  0  0
 19 47  1  0  0  0  0
 20 48  1  0  0  0  0
 20 49  1  0  0  0  0
 21 50  1  0  0  0  0
 21 51  1  0  0  0  0
 22 52  1  0  0  0  0
 22 53  1  0  0  0  0
 23 54  1  0  0  0  0
 23 55  1  0  0  0  0
 26 56  1  0  0  0  0
 26 57  1  0  0  0  0
M  END
> <compound>
LUO-POS-868e8996-10

> <compound_smiles>
c1ccc2c(c1)cncc2N3C(=O)C[C@]4(C3=O)CN(Cc5c4cc(cc5)Cl)S(=O)(=O)CC6(CC6)C#N

> <enantiomer_smiles>
c1ccc2c(c1)cncc2N3C(=O)C[C@]4(C3=O)C[N@](Cc5c4cc(cc5)Cl)S(=O)(=O)CC6(CC6)C#N

> <scaffold>
tetrahydroisoquinoline-5spiro-isoquinoline

> <clash_score>
0

> <docking_score>
-8.766507148742676

> <overlap_score>
1.0

> <MMFF_internal_energy>
85.74044691633166

> <docked_smiles>
c1ccc2c(c1)cncc2N3C(=O)C[C@@]4(C3=O)C[N@](Cc5c4cc(cc5)Cl)S(=O)(=O)CC6(CC6)C#N

$$$$
EDJ-MED-9f4ac58c-6_1
  -OEChem-12272114573D

 60 65  0     1  0  0  0  0  0999 V2000
    3.3432    2.6279   20.4411 C   0  0  0  0  0  0  0  0  0  0  0  0
    3.8960    1.9291   21.5050 C   0  0  0  0  0  0  0  0  0  0  0  0
    3.7865    2.4205   19.1660 C   0  0  0  0  0  0  0  0  0  0  0  0
    4.8973    1.0233   21.2988 C   0  0  0  0  0  0  0  0  0  0  0  0
   12.0765    0.0316   24.1541 C   0  0  0  0  0  0  0  0  0  0  0  0
   12.9132   -0.6032   23.2569 C   0  0  0  0  0  0  0  0  0  0  0  0
   10.9991   -1.4331   22.0443 C   0  0  0  0  0  0  0  0  0  0  0  0
    5.3278    1.2339   17.6066 C   0  0  0  0  0  0  0  0  0  0  0  0
    6.8438   -0.2892   18.3752 C   0  0  0  0  0  0  0  0  0  0  0  0
    4.8226    1.4906   18.9054 C   0  0  0  0  0  0  0  0  0  0  0  0
    5.3982    0.7733   19.9948 C   0  0  0  0  0  0  0  0  0  0  0  0
   10.7040   -0.0625   23.9898 C   0  0  0  0  0  0  0  0  0  0  0  0
   10.1406   -0.7765   22.9250 C   0  0  0  0  0  0  0  0  0  0  0  0
    6.4440   -0.1472   19.6979 C   0  0  0  0  0  0  0  0  0  0  0  0
   12.3683   -1.3298   22.2234 C   0  0  0  0  0  0  0  0  0  0  0  0
    9.9479    0.5589   24.9534 C   0  0  0  0  0  0  0  0  0  0  0  0
    8.2490    0.0169   21.4271 C   0  0  0  0  0  0  0  0  0  0  0  0
    7.8661    5.4226   22.7736 C   0  0  0  0  0  0  0  0  0  0  0  0
    7.5079    5.3647   24.2327 C   0  0  0  0  0  0  0  0  0  0  0  0
    8.0140   -2.1541   22.4331 C   0  0  0  0  0  0  0  0  0  0  0  0
    6.9866   -1.9366   21.3580 C   0  0  0  0  0  0  0  0  0  0  0  0
    7.8721   -0.1194   23.8831 C   0  0  0  0  0  0  0  0  0  0  0  0
    8.6238   -0.7606   22.6929 C   0  0  3  0  0  0  0  0  0  0  0  0
    8.8635    4.9012   23.7725 C   0  0  0  0  0  0  0  0  0  0  0  0
   10.9592    5.6953   23.0651 C   0  0  0  0  0  0  0  0  0  0  0  0
    9.2137    3.4302   23.7961 C   0  0  0  0  0  0  0  0  0  0  0  0
    6.3062    0.3769   17.3421 N   0  0  0  0  0  0  0  0  0  0  0  0
    7.2292   -0.6897   20.7790 N   0  0  0  0  0  0  0  0  0  0  0  0
    8.6609    1.0133   24.4995 N   0  0  0  0  0  0  0  0  0  0  0  0
   10.3149    0.7350   26.1235 O   0  0  0  0  0  0  0  0  0  0  0  0
    8.8183    1.0411   21.0761 O   0  0  0  0  0  0  0  0  0  0  0  0
    8.0349    2.8632   26.0580 O   0  0  0  0  0  0  0  0  0  0  0  0
    6.7654    2.5231   23.8997 O   0  0  0  0  0  0  0  0  0  0  0  0
    9.9675    5.7713   24.0722 O   0  0  0  0  0  0  0  0  0  0  0  0
    7.9905    2.4844   24.6644 S   0  0  0  0  0  0  0  0  0  0  0  0
   13.4278   -2.1472   21.1141 Cl  0  0  0  0  0  0  0  0  0  0  0  0
    2.5432    3.3510   20.6369 H   0  0  0  0  0  0  0  0  0  0  0  0
    3.5174    2.1137   22.5168 H   0  0  0  0  0  0  0  0  0  0  0  0
    3.3409    2.9743   18.3364 H   0  0  0  0  0  0  0  0  0  0  0  0
    5.3118    0.4895   22.1572 H   0  0  0  0  0  0  0  0  0  0  0  0
   12.5173    0.5967   24.9711 H   0  0  0  0  0  0  0  0  0  0  0  0
   13.9906   -0.5212   23.3817 H   0  0  0  0  0  0  0  0  0  0  0  0
   10.6155   -2.0259   21.2280 H   0  0  0  0  0  0  0  0  0  0  0  0
    4.9141    1.7511   16.7474 H   0  0  0  0  0  0  0  0  0  0  0  0
    7.6445   -0.9764   18.1043 H   0  0  0  0  0  0  0  0  0  0  0  0
    7.3811    4.7175   22.1094 H   0  0  0  0  0  0  0  0  0  0  0  0
    8.0405    6.3984   22.3366 H   0  0  0  0  0  0  0  0  0  0  0  0
    7.4421    6.3019   24.7725 H   0  0  0  0  0  0  0  0  0  0  0  0
    6.7842    4.6207   24.5428 H   0  0  0  0  0  0  0  0  0  0  0  0
    7.5103   -2.5286   23.3380 H   0  0  0  0  0  0  0  0  0  0  0  0
    8.7576   -2.9098   22.1428 H   0  0  0  0  0  0  0  0  0  0  0  0
    7.0600   -2.7254   20.5723 H   0  0  0  0  0  0  0  0  0  0  0  0
    5.9510   -1.9973   21.7704 H   0  0  0  0  0  0  0  0  0  0  0  0
    6.8972    0.2928   23.5636 H   0  0  0  0  0  0  0  0  0  0  0  0
    7.6441   -0.8835   24.6470 H   0  0  0  0  0  0  0  0  0  0  0  0
   11.7860    6.3644   23.3157 H   0  0  0  0  0  0  0  0  0  0  0  0
   10.5253    5.9794   22.1031 H   0  0  0  0  0  0  0  0  0  0  0  0
   11.3289    4.6688   23.0070 H   0  0  0  0  0  0  0  0  0  0  0  0
   10.1689    3.2634   24.3017 H   0  0  0  0  0  0  0  0  0  0  0  0
    9.2740    3.0259   22.7821 H   0  0  0  0  0  0  0  0  0  0  0  0
  1  2  1  0  0  0  0
  1  3  2  0  0  0  0
  2  4  2  0  0  0  0
  3 10  1  0  0  0  0
  4 11  1  0  0  0  0
  5  6  2  0  0  0  0
  5 12  1  0  0  0  0
  6 15  1  0  0  0  0
  7 13  1  0  0  0  0
  7 15  2  0  0  0  0
  8 10  2  0  0  0  0
  8 27  1  0  0  0  0
  9 14  1  0  0  0  0
  9 27  2  0  0  0  0
 10 11  1  0  0  0  0
 11 14  2  0  0  0  0
 12 13  2  0  0  0  0
 12 16  1  0  0  0  0
 13 23  1  0  0  0  0
 14 28  1  0  0  0  0
 15 36  1  0  0  0  0
 16 29  1  0  0  0  0
 16 30  2  0  0  0  0
 17 23  1  0  0  0  0
 17 28  1  0  0  0  0
 17 31  2  0  0  0  0
 18 19  1  0  0  0  0
 18 24  1  0  0  0  0
 19 24  1  0  0  0  0
 20 21  1  0  0  0  0
 20 23  1  0  0  0  0
 21 28  1  0  0  0  0
 22 23  1  0  0  0  0
 22 29  1  0  0  0  0
 24 26  1  0  0  0  0
 24 34  1  0  0  0  0
 25 34  1  0  0  0  0
 26 35  1  0  0  0  0
 29 35  1  0  0  0  0
 32 35  2  0  0  0  0
 33 35  2  0  0  0  0
  1 37  1  0  0  0  0
  2 38  1  0  0  0  0
  3 39  1  0  0  0  0
  4 40  1  0  0  0  0
  5 41  1  0  0  0  0
  6 42  1  0  0  0  0
  7 43  1  0  0  0  0
  8 44  1  0  0  0  0
  9 45  1  0  0  0  0
 18 46  1  0  0  0  0
 18 47  1  0  0  0  0
 19 48  1  0  0  0  0
 19 49  1  0  0  0  0
 20 50  1  0  0  0  0
 20 51  1  0  0  0  0
 21 52  1  0  0  0  0
 21 53  1  0  0  0  0
 22 54  1  0  0  0  0
 22 55  1  0  0  0  0
 25 56  1  0  0  0  0
 25 57  1  0  0  0  0
 25 58  1  0  0  0  0
 26 59  1  0  0  0  0
 26 60  1  0  0  0  0
M  END
> <compound>
EDJ-MED-9f4ac58c-6

> <compound_smiles>
COC1(CC1)CS(=O)(=O)N2CC3(CCN(C3=O)c4cncc5c4cccc5)c6cc(ccc6C2=O)Cl

> <enantiomer_smiles>
COC1(CC1)CS(=O)(=O)N2CC3(CCN(C3=O)c4cncc5c4cccc5)c6cc(ccc6C2=O)Cl

> <scaffold>
tetrahydroisoquinoline-5spiro-isoquinoline

> <clash_score>
0

> <docking_score>
-8.468377113342285

> <overlap_score>
0.9819110631942749

> <MMFF_internal_energy>
117.68117988377794

> <docked_smiles>
COC1(CC1)CS(=O)(=O)N2C[C@]3(CCN(C3=O)c4cncc5c4cccc5)c6cc(ccc6C2=O)Cl

$$$$
MAT-POS-853c0ffa-5_1
  -OEChem-12272114573D

 58 63  0     1  0  0  0  0  0999 V2000
    9.9899    5.1222   23.8236 C   0  0  0  0  0  0  0  0  0  0  0  0
    3.3432    2.6279   20.4411 C   0  0  0  0  0  0  0  0  0  0  0  0
    3.7865    2.4205   19.1660 C   0  0  0  0  0  0  0  0  0  0  0  0
   12.0765    0.0316   24.1541 C   0  0  0  0  0  0  0  0  0  0  0  0
    3.8960    1.9291   21.5050 C   0  0  0  0  0  0  0  0  0  0  0  0
   12.9132   -0.6032   23.2569 C   0  0  0  0  0  0  0  0  0  0  0  0
   10.9991   -1.4331   22.0443 C   0  0  0  0  0  0  0  0  0  0  0  0
    5.3278    1.2339   17.6066 C   0  0  0  0  0  0  0  0  0  0  0  0
    6.8438   -0.2892   18.3752 C   0  0  0  0  0  0  0  0  0  0  0  0
    4.8226    1.4906   18.9054 C   0  0  0  0  0  0  0  0  0  0  0  0
    5.3982    0.7733   19.9948 C   0  0  0  0  0  0  0  0  0  0  0  0
   10.7040   -0.0625   23.9898 C   0  0  0  0  0  0  0  0  0  0  0  0
   10.1406   -0.7765   22.9250 C   0  0  0  0  0  0  0  0  0  0  0  0
    6.4440   -0.1472   19.6979 C   0  0  0  0  0  0  0  0  0  0  0  0
   12.3683   -1.3298   22.2234 C   0  0  0  0  0  0  0  0  0  0  0  0
    4.8973    1.0233   21.2988 C   0  0  0  0  0  0  0  0  0  0  0  0
    8.2490    0.0169   21.4271 C   0  0  0  0  0  0  0  0  0  0  0  0
    9.9479    0.5589   24.9534 C   0  0  0  0  0  0  0  0  0  0  0  0
    8.5324    6.1021   25.6323 C   0  0  0  0  0  0  0  0  0  0  0  0
    7.7014    6.0179   24.3861 C   0  0  0  0  0  0  0  0  0  0  0  0
    8.0140   -2.1541   22.4331 C   0  0  0  0  0  0  0  0  0  0  0  0
    6.9866   -1.9366   21.3580 C   0  0  0  0  0  0  0  0  0  0  0  0
    7.8721   -0.1194   23.8831 C   0  0  0  0  0  0  0  0  0  0  0  0
    8.7994    5.0058   24.6255 C   0  0  0  0  0  0  0  0  0  0  0  0
    8.6238   -0.7606   22.6929 C   0  0  3  0  0  0  0  0  0  0  0  0
    8.3989    3.5932   24.9882 C   0  0  0  0  0  0  0  0  0  0  0  0
   10.9490    5.2161   23.1776 N   0  0  0  0  0  0  0  0  0  0  0  0
    6.3062    0.3769   17.3421 N   0  0  0  0  0  0  0  0  0  0  0  0
    7.2292   -0.6897   20.7790 N   0  0  0  0  0  0  0  0  0  0  0  0
    8.6609    1.0133   24.4995 N   0  0  1  0  0  0  0  0  0  0  0  0
    8.7572    1.0941   21.1350 O   0  0  0  0  0  0  0  0  0  0  0  0
    7.4179    2.5201   22.8172 O   0  0  0  0  0  0  0  0  0  0  0  0
    9.9251    2.7322   23.0499 O   0  0  0  0  0  0  0  0  0  0  0  0
    8.6198    2.4832   23.6217 S   0  0  0  0  0  0  0  0  0  0  0  0
   13.4275   -2.1421   21.1097 Cl  0  0  0  0  0  0  0  0  0  0  0  0
    5.4623    0.2453   22.7515 Cl  0  0  0  0  0  0  0  0  0  0  0  0
    2.5425    3.3507   20.6372 H   0  0  0  0  0  0  0  0  0  0  0  0
    3.3401    2.9737   18.3362 H   0  0  0  0  0  0  0  0  0  0  0  0
   12.5015    0.5938   24.9776 H   0  0  0  0  0  0  0  0  0  0  0  0
    3.4992    2.1328   22.5080 H   0  0  0  0  0  0  0  0  0  0  0  0
   13.9911   -0.5212   23.3814 H   0  0  0  0  0  0  0  0  0  0  0  0
   10.6037   -2.0228   21.2288 H   0  0  0  0  0  0  0  0  0  0  0  0
    4.9135    1.7511   16.7477 H   0  0  0  0  0  0  0  0  0  0  0  0
    7.6449   -0.9747   18.1006 H   0  0  0  0  0  0  0  0  0  0  0  0
    9.7581   -0.1287   25.8173 H   0  0  0  0  0  0  0  0  0  0  0  0
   10.4931    1.4391   25.3829 H   0  0  0  0  0  0  0  0  0  0  0  0
    9.2347    6.9241   25.7129 H   0  0  0  0  0  0  0  0  0  0  0  0
    8.0587    5.8395   26.5712 H   0  0  0  0  0  0  0  0  0  0  0  0
    6.6706    5.6996   24.4905 H   0  0  0  0  0  0  0  0  0  0  0  0
    7.8473    6.7843   23.6333 H   0  0  0  0  0  0  0  0  0  0  0  0
    7.5801   -2.6060   23.3366 H   0  0  0  0  0  0  0  0  0  0  0  0
    8.7749   -2.8608   22.0657 H   0  0  0  0  0  0  0  0  0  0  0  0
    7.0227   -2.7506   20.5953 H   0  0  0  0  0  0  0  0  0  0  0  0
    5.9554   -1.9484   21.7832 H   0  0  0  0  0  0  0  0  0  0  0  0
    6.8886    0.2769   23.5666 H   0  0  0  0  0  0  0  0  0  0  0  0
    7.6579   -0.8710   24.6633 H   0  0  0  0  0  0  0  0  0  0  0  0
    7.3445    3.5466   25.2742 H   0  0  0  0  0  0  0  0  0  0  0  0
    9.0072    3.2136   25.8136 H   0  0  0  0  0  0  0  0  0  0  0  0
  1 24  1  0  0  0  0
  1 27  3  0  0  0  0
  2  3  1  0  0  0  0
  2  5  2  0  0  0  0
  3 10  2  0  0  0  0
  4  6  1  0  0  0  0
  4 12  2  0  0  0  0
  5 16  1  0  0  0  0
  6 15  2  0  0  0  0
  7 13  2  0  0  0  0
  7 15  1  0  0  0  0
  8 10  1  0  0  0  0
  8 28  2  0  0  0  0
  9 14  2  0  0  0  0
  9 28  1  0  0  0  0
 10 11  1  0  0  0  0
 11 14  1  0  0  0  0
 11 16  2  0  0  0  0
 12 13  1  0  0  0  0
 12 18  1  0  0  0  0
 13 25  1  0  0  0  0
 14 29  1  0  0  0  0
 15 35  1  0  0  0  0
 16 36  1  0  0  0  0
 17 25  1  0  0  0  0
 17 29  1  0  0  0  0
 17 31  2  0  0  0  0
 18 30  1  0  0  0  0
 19 20  1  0  0  0  0
 19 24  1  0  0  0  0
 20 24  1  0  0  0  0
 21 22  1  0  0  0  0
 21 25  1  0  0  0  0
 22 29  1  0  0  0  0
 23 25  1  0  0  0  0
 23 30  1  0  0  0  0
 24 26  1  0  0  0  0
 26 34  1  0  0  0  0
 30 34  1  1  0  0  0
 32 34  2  0  0  0  0
 33 34  2  0  0  0  0
  2 37  1  0  0  0  0
  3 38  1  0  0  0  0
  4 39  1  0  0  0  0
  5 40  1  0  0  0  0
  6 41  1  0  0  0  0
  7 42  1  0  0  0  0
  8 43  1  0  0  0  0
  9 44  1  0  0  0  0
 18 45  1  0  0  0  0
 18 46  1  0  0  0  0
 19 47  1  0  0  0  0
 19 48  1  0  0  0  0
 20 49  1  0  0  0  0
 20 50  1  0  0  0  0
 21 51  1  0  0  0  0
 21 52  1  0  0  0  0
 22 53  1  0  0  0  0
 22 54  1  0  0  0  0
 23 55  1  0  0  0  0
 23 56  1  0  0  0  0
 26 57  1  0  0  0  0
 26 58  1  0  0  0  0
M  END
> <compound>
MAT-POS-853c0ffa-5

> <compound_smiles>
c1cc2cncc(c2c(c1)Cl)N3CCC4(C3=O)CN(Cc5c4cc(cc5)Cl)S(=O)(=O)CC6(CC6)C#N

> <enantiomer_smiles>
c1cc2cncc(c2c(c1)Cl)N3CCC4(C3=O)C[N@@](Cc5c4cc(cc5)Cl)S(=O)(=O)CC6(CC6)C#N

> <scaffold>
tetrahydroisoquinoline-5spiro-isoquinoline

> <clash_score>
0

> <docking_score>
-9.438352584838867

> <overlap_score>
0.9807805418968201

> <MMFF_internal_energy>
214.8685440019758

> <docked_smiles>
c1cc2cncc(c2c(c1)Cl)N3CC[C@@]4(C3=O)C[N@@](Cc5c4cc(cc5)Cl)S(=O)(=O)CC6(CC6)C#N

$$$$
MAT-POS-853c0ffa-5_2
  -OEChem-12272114573D

 58 63  0     1  0  0  0  0  0999 V2000
    7.3205    3.4054   22.7658 C   0  0  0  0  0  0  0  0  0  0  0  0
    3.3432    2.6279   20.4411 C   0  0  0  0  0  0  0  0  0  0  0  0
    3.7865    2.4205   19.1660 C   0  0  0  0  0  0  0  0  0  0  0  0
   12.0765    0.0316   24.1541 C   0  0  0  0  0  0  0  0  0  0  0  0
    3.8960    1.9291   21.5050 C   0  0  0  0  0  0  0  0  0  0  0  0
   12.9132   -0.6032   23.2569 C   0  0  0  0  0  0  0  0  0  0  0  0
   10.9991   -1.4331   22.0443 C   0  0  0  0  0  0  0  0  0  0  0  0
    5.3278    1.2339   17.6066 C   0  0  0  0  0  0  0  0  0  0  0  0
    6.8438   -0.2892   18.3752 C   0  0  0  0  0  0  0  0  0  0  0  0
    4.8226    1.4906   18.9054 C   0  0  0  0  0  0  0  0  0  0  0  0
    5.3982    0.7733   19.9948 C   0  0  0  0  0  0  0  0  0  0  0  0
   10.7040   -0.0625   23.9898 C   0  0  0  0  0  0  0  0  0  0  0  0
   10.1406   -0.7765   22.9250 C   0  0  0  0  0  0  0  0  0  0  0  0
    6.4440   -0.1472   19.6979 C   0  0  0  0  0  0  0  0  0  0  0  0
   12.3683   -1.3298   22.2234 C   0  0  0  0  0  0  0  0  0  0  0  0
    4.8973    1.0233   21.2988 C   0  0  0  0  0  0  0  0  0  0  0  0
    8.2490    0.0169   21.4271 C   0  0  0  0  0  0  0  0  0  0  0  0
    9.9479    0.5589   24.9534 C   0  0  0  0  0  0  0  0  0  0  0  0
    9.8217    3.1213   22.9038 C   0  0  0  0  0  0  0  0  0  0  0  0
    9.5383    4.5944   22.9183 C   0  0  0  0  0  0  0  0  0  0  0  0
    8.0140   -2.1541   22.4331 C   0  0  0  0  0  0  0  0  0  0  0  0
    6.9866   -1.9366   21.3580 C   0  0  0  0  0  0  0  0  0  0  0  0
    7.8721   -0.1194   23.8831 C   0  0  0  0  0  0  0  0  0  0  0  0
    8.5331    3.6312   23.5091 C   0  0  0  0  0  0  0  0  0  0  0  0
    8.6238   -0.7606   22.6929 C   0  0  3  0  0  0  0  0  0  0  0  0
    8.3874    3.5882   25.0137 C   0  0  0  0  0  0  0  0  0  0  0  0
    6.3436    3.2234   22.1669 N   0  0  0  0  0  0  0  0  0  0  0  0
    6.3062    0.3769   17.3421 N   0  0  0  0  0  0  0  0  0  0  0  0
    7.2292   -0.6897   20.7790 N   0  0  0  0  0  0  0  0  0  0  0  0
    8.6609    1.0133   24.4995 N   0  0  2  0  0  0  0  0  0  0  0  0
    8.8299    1.0397   21.0799 O   0  0  0  0  0  0  0  0  0  0  0  0
    8.2407    1.8013   26.9144 O   0  0  0  0  0  0  0  0  0  0  0  0
    6.3653    1.9471   25.2271 O   0  0  0  0  0  0  0  0  0  0  0  0
    7.7708    2.0177   25.5632 S   0  0  0  0  0  0  0  0  0  0  0  0
   13.4272   -2.1411   21.1086 Cl  0  0  0  0  0  0  0  0  0  0  0  0
    5.4623    0.2453   22.7515 Cl  0  0  0  0  0  0  0  0  0  0  0  0
    2.5425    3.3507   20.6372 H   0  0  0  0  0  0  0  0  0  0  0  0
    3.3401    2.9737   18.3362 H   0  0  0  0  0  0  0  0  0  0  0  0
   12.5024    0.5995   24.9735 H   0  0  0  0  0  0  0  0  0  0  0  0
    3.4992    2.1328   22.5080 H   0  0  0  0  0  0  0  0  0  0  0  0
   13.9910   -0.5177   23.3793 H   0  0  0  0  0  0  0  0  0  0  0  0
   10.6036   -2.0162   21.2241 H   0  0  0  0  0  0  0  0  0  0  0  0
    4.9135    1.7511   16.7477 H   0  0  0  0  0  0  0  0  0  0  0  0
    7.6449   -0.9747   18.1006 H   0  0  0  0  0  0  0  0  0  0  0  0
    9.7849   -0.1194   25.8306 H   0  0  0  0  0  0  0  0  0  0  0  0
   10.4793    1.4568   25.3613 H   0  0  0  0  0  0  0  0  0  0  0  0
    9.7878    2.6129   21.9468 H   0  0  0  0  0  0  0  0  0  0  0  0
   10.5952    2.7515   23.5670 H   0  0  0  0  0  0  0  0  0  0  0  0
   10.1228    5.2116   23.5908 H   0  0  0  0  0  0  0  0  0  0  0  0
    9.3157    5.0716   21.9707 H   0  0  0  0  0  0  0  0  0  0  0  0
    7.5152   -2.5456   23.3338 H   0  0  0  0  0  0  0  0  0  0  0  0
    8.7649   -2.9030   22.1434 H   0  0  0  0  0  0  0  0  0  0  0  0
    7.0587   -2.7248   20.5721 H   0  0  0  0  0  0  0  0  0  0  0  0
    5.9518   -1.9952   21.7720 H   0  0  0  0  0  0  0  0  0  0  0  0
    6.8867    0.2641   23.5642 H   0  0  0  0  0  0  0  0  0  0  0  0
    7.6652   -0.8660   24.6733 H   0  0  0  0  0  0  0  0  0  0  0  0
    7.6838    4.3500   25.3607 H   0  0  0  0  0  0  0  0  0  0  0  0
    9.3513    3.7460   25.5050 H   0  0  0  0  0  0  0  0  0  0  0  0
  1 24  1  0  0  0  0
  1 27  3  0  0  0  0
  2  3  1  0  0  0  0
  2  5  2  0  0  0  0
  3 10  2  0  0  0  0
  4  6  1  0  0  0  0
  4 12  2  0  0  0  0
  5 16  1  0  0  0  0
  6 15  2  0  0  0  0
  7 13  2  0  0  0  0
  7 15  1  0  0  0  0
  8 10  1  0  0  0  0
  8 28  2  0  0  0  0
  9 14  2  0  0  0  0
  9 28  1  0  0  0  0
 10 11  1  0  0  0  0
 11 14  1  0  0  0  0
 11 16  2  0  0  0  0
 12 13  1  0  0  0  0
 12 18  1  0  0  0  0
 13 25  1  0  0  0  0
 14 29  1  0  0  0  0
 15 35  1  0  0  0  0
 16 36  1  0  0  0  0
 17 25  1  0  0  0  0
 17 29  1  0  0  0  0
 17 31  2  0  0  0  0
 18 30  1  0  0  0  0
 19 20  1  0  0  0  0
 19 24  1  0  0  0  0
 20 24  1  0  0  0  0
 21 22  1  0  0  0  0
 21 25  1  0  0  0  0
 22 29  1  0  0  0  0
 23 25  1  0  0  0  0
 23 30  1  0  0  0  0
 24 26  1  0  0  0  0
 26 34  1  0  0  0  0
 30 34  1  6  0  0  0
 32 34  2  0  0  0  0
 33 34  2  0  0  0  0
  2 37  1  0  0  0  0
  3 38  1  0  0  0  0
  4 39  1  0  0  0  0
  5 40  1  0  0  0  0
  6 41  1  0  0  0  0
  7 42  1  0  0  0  0
  8 43  1  0  0  0  0
  9 44  1  0  0  0  0
 18 45  1  0  0  0  0
 18 46  1  0  0  0  0
 19 47  1  0  0  0  0
 19 48  1  0  0  0  0
 20 49  1  0  0  0  0
 20 50  1  0  0  0  0
 21 51  1  0  0  0  0
 21 52  1  0  0  0  0
 22 53  1  0  0  0  0
 22 54  1  0  0  0  0
 23 55  1  0  0  0  0
 23 56  1  0  0  0  0
 26 57  1  0  0  0  0
 26 58  1  0  0  0  0
M  END
> <compound>
MAT-POS-853c0ffa-5

> <compound_smiles>
c1cc2cncc(c2c(c1)Cl)N3CCC4(C3=O)CN(Cc5c4cc(cc5)Cl)S(=O)(=O)CC6(CC6)C#N

> <enantiomer_smiles>
c1cc2cncc(c2c(c1)Cl)N3CCC4(C3=O)C[N@](Cc5c4cc(cc5)Cl)S(=O)(=O)CC6(CC6)C#N

> <scaffold>
tetrahydroisoquinoline-5spiro-isoquinoline

> <clash_score>
0

> <docking_score>
-8.942920684814453

> <overlap_score>
0.9816679954528809

> <MMFF_internal_energy>
202.43564941171445

> <docked_smiles>
c1cc2cncc(c2c(c1)Cl)N3CC[C@@]4(C3=O)C[N@](Cc5c4cc(cc5)Cl)S(=O)(=O)CC6(CC6)C#N

$$$$
MAT-POS-853c0ffa-7_1
  -OEChem-12272114573D

 61 66  0     1  0  0  0  0  0999 V2000
    3.3432    2.6279   20.4411 C   0  0  0  0  0  0  0  0  0  0  0  0
    3.7865    2.4205   19.1660 C   0  0  0  0  0  0  0  0  0  0  0  0
   12.0765    0.0316   24.1541 C   0  0  0  0  0  0  0  0  0  0  0  0
    3.8960    1.9291   21.5050 C   0  0  0  0  0  0  0  0  0  0  0  0
   12.9132   -0.6032   23.2569 C   0  0  0  0  0  0  0  0  0  0  0  0
   10.9991   -1.4331   22.0443 C   0  0  0  0  0  0  0  0  0  0  0  0
    5.3278    1.2339   17.6066 C   0  0  0  0  0  0  0  0  0  0  0  0
    6.8438   -0.2892   18.3752 C   0  0  0  0  0  0  0  0  0  0  0  0
    4.8226    1.4906   18.9054 C   0  0  0  0  0  0  0  0  0  0  0  0
    5.3982    0.7733   19.9948 C   0  0  0  0  0  0  0  0  0  0  0  0
   10.7040   -0.0625   23.9898 C   0  0  0  0  0  0  0  0  0  0  0  0
   10.1406   -0.7765   22.9250 C   0  0  0  0  0  0  0  0  0  0  0  0
    6.4440   -0.1472   19.6979 C   0  0  0  0  0  0  0  0  0  0  0  0
   12.3683   -1.3298   22.2234 C   0  0  0  0  0  0  0  0  0  0  0  0
    4.8973    1.0233   21.2988 C   0  0  0  0  0  0  0  0  0  0  0  0
    8.2490    0.0169   21.4271 C   0  0  0  0  0  0  0  0  0  0  0  0
    9.9479    0.5589   24.9534 C   0  0  0  0  0  0  0  0  0  0  0  0
    7.5775    5.3800   23.2665 C   0  0  0  0  0  0  0  0  0  0  0  0
    7.0196    5.7824   24.6035 C   0  0  0  0  0  0  0  0  0  0  0  0
    8.0140   -2.1541   22.4331 C   0  0  0  0  0  0  0  0  0  0  0  0
    6.9866   -1.9366   21.3580 C   0  0  0  0  0  0  0  0  0  0  0  0
    7.8721   -0.1194   23.8831 C   0  0  0  0  0  0  0  0  0  0  0  0
    8.6238   -0.7606   22.6929 C   0  0  3  0  0  0  0  0  0  0  0  0
    8.3214    5.0316   24.5273 C   0  0  0  0  0  0  0  0  0  0  0  0
   10.4527    5.6360   23.7430 C   0  0  0  0  0  0  0  0  0  0  0  0
    8.3989    3.5932   24.9882 C   0  0  0  0  0  0  0  0  0  0  0  0
    6.3062    0.3769   17.3421 N   0  0  0  0  0  0  0  0  0  0  0  0
    7.2292   -0.6897   20.7790 N   0  0  0  0  0  0  0  0  0  0  0  0
    8.6609    1.0133   24.4995 N   0  0  2  0  0  0  0  0  0  0  0  0
    8.7572    1.0941   21.1350 O   0  0  0  0  0  0  0  0  0  0  0  0
    7.4179    2.5201   22.8172 O   0  0  0  0  0  0  0  0  0  0  0  0
    9.9251    2.7322   23.0499 O   0  0  0  0  0  0  0  0  0  0  0  0
    9.5109    5.7951   24.7876 O   0  0  0  0  0  0  0  0  0  0  0  0
    8.6198    2.4832   23.6217 S   0  0  0  0  0  0  0  0  0  0  0  0
   13.4275   -2.1421   21.1097 Cl  0  0  0  0  0  0  0  0  0  0  0  0
    5.4623    0.2453   22.7515 Cl  0  0  0  0  0  0  0  0  0  0  0  0
    2.5425    3.3507   20.6372 H   0  0  0  0  0  0  0  0  0  0  0  0
    3.3401    2.9737   18.3362 H   0  0  0  0  0  0  0  0  0  0  0  0
   12.5015    0.5938   24.9776 H   0  0  0  0  0  0  0  0  0  0  0  0
    3.4992    2.1328   22.5080 H   0  0  0  0  0  0  0  0  0  0  0  0
   13.9911   -0.5212   23.3814 H   0  0  0  0  0  0  0  0  0  0  0  0
   10.6037   -2.0228   21.2288 H   0  0  0  0  0  0  0  0  0  0  0  0
    4.9135    1.7511   16.7477 H   0  0  0  0  0  0  0  0  0  0  0  0
    7.6449   -0.9747   18.1006 H   0  0  0  0  0  0  0  0  0  0  0  0
    9.7581   -0.1287   25.8173 H   0  0  0  0  0  0  0  0  0  0  0  0
   10.4931    1.4391   25.3829 H   0  0  0  0  0  0  0  0  0  0  0  0
    7.0702    4.5882   22.7287 H   0  0  0  0  0  0  0  0  0  0  0  0
    7.9799    6.1615   22.6333 H   0  0  0  0  0  0  0  0  0  0  0  0
    7.0481    6.8334   24.8653 H   0  0  0  0  0  0  0  0  0  0  0  0
    6.1401    5.2589   24.9585 H   0  0  0  0  0  0  0  0  0  0  0  0
    7.5801   -2.6060   23.3366 H   0  0  0  0  0  0  0  0  0  0  0  0
    8.7749   -2.8608   22.0657 H   0  0  0  0  0  0  0  0  0  0  0  0
    7.0227   -2.7506   20.5953 H   0  0  0  0  0  0  0  0  0  0  0  0
    5.9554   -1.9484   21.7832 H   0  0  0  0  0  0  0  0  0  0  0  0
    6.8886    0.2769   23.5666 H   0  0  0  0  0  0  0  0  0  0  0  0
    7.6579   -0.8710   24.6633 H   0  0  0  0  0  0  0  0  0  0  0  0
   11.3461    6.2251   23.9641 H   0  0  0  0  0  0  0  0  0  0  0  0
   10.0105    5.9651   22.7993 H   0  0  0  0  0  0  0  0  0  0  0  0
   10.7246    4.5805   23.6672 H   0  0  0  0  0  0  0  0  0  0  0  0
    7.4792    3.2960   25.4995 H   0  0  0  0  0  0  0  0  0  0  0  0
    9.2447    3.4440   25.6648 H   0  0  0  0  0  0  0  0  0  0  0  0
  1  2  2  0  0  0  0
  1  4  1  0  0  0  0
  2  9  1  0  0  0  0
  3  5  2  0  0  0  0
  3 11  1  0  0  0  0
  4 15  2  0  0  0  0
  5 14  1  0  0  0  0
  6 12  1  0  0  0  0
  6 14  2  0  0  0  0
  7  9  2  0  0  0  0
  7 27  1  0  0  0  0
  8 13  1  0  0  0  0
  8 27  2  0  0  0  0
  9 10  1  0  0  0  0
 10 13  2  0  0  0  0
 10 15  1  0  0  0  0
 11 12  2  0  0  0  0
 11 17  1  0  0  0  0
 12 23  1  0  0  0  0
 13 28  1  0  0  0  0
 14 35  1  0  0  0  0
 15 36  1  0  0  0  0
 16 23  1  0  0  0  0
 16 28  1  0  0  0  0
 16 30  2  0  0  0  0
 17 29  1  0  0  0  0
 18 19  1  0  0  0  0
 18 24  1  0  0  0  0
 19 24  1  0  0  0  0
 20 21  1  0  0  0  0
 20 23  1  0  0  0  0
 21 28  1  0  0  0  0
 22 23  1  0  0  0  0
 22 29  1  0  0  0  0
 24 26  1  0  0  0  0
 24 33  1  0  0  0  0
 25 33  1  0  0  0  0
 26 34  1  0  0  0  0
 29 34  1  1  0  0  0
 31 34  2  0  0  0  0
 32 34  2  0  0  0  0
  1 37  1  0  0  0  0
  2 38  1  0  0  0  0
  3 39  1  0  0  0  0
  4 40  1  0  0  0  0
  5 41  1  0  0  0  0
  6 42  1  0  0  0  0
  7 43  1  0  0  0  0
  8 44  1  0  0  0  0
 17 45  1  0  0  0  0
 17 46  1  0  0  0  0
 18 47  1  0  0  0  0
 18 48  1  0  0  0  0
 19 49  1  0  0  0  0
 19 50  1  0  0  0  0
 20 51  1  0  0  0  0
 20 52  1  0  0  0  0
 21 53  1  0  0  0  0
 21 54  1  0  0  0  0
 22 55  1  0  0  0  0
 22 56  1  0  0  0  0
 25 57  1  0  0  0  0
 25 58  1  0  0  0  0
 25 59  1  0  0  0  0
 26 60  1  0  0  0  0
 26 61  1  0  0  0  0
M  END
> <compound>
MAT-POS-853c0ffa-7

> <compound_smiles>
COC1(CC1)CS(=O)(=O)N2Cc3ccc(cc3C4(C2)CCN(C4=O)c5cncc6c5c(ccc6)Cl)Cl

> <enantiomer_smiles>
COC1(CC1)CS(=O)(=O)[N@@]2Cc3ccc(cc3C4(C2)CCN(C4=O)c5cncc6c5c(ccc6)Cl)Cl

> <scaffold>
tetrahydroisoquinoline-5spiro-isoquinoline

> <clash_score>
0

> <docking_score>
-9.768040657043457

> <overlap_score>
0.9809429049491882

> <MMFF_internal_energy>
223.30283958459418

> <docked_smiles>
COC1(CC1)CS(=O)(=O)[N@@]2Cc3ccc(cc3[C@]4(C2)CCN(C4=O)c5cncc6c5c(ccc6)Cl)Cl

$$$$
MAT-POS-853c0ffa-7_2
  -OEChem-12272114573D

 61 66  0     1  0  0  0  0  0999 V2000
    3.3432    2.6279   20.4411 C   0  0  0  0  0  0  0  0  0  0  0  0
    3.7865    2.4205   19.1660 C   0  0  0  0  0  0  0  0  0  0  0  0
   12.0765    0.0316   24.1541 C   0  0  0  0  0  0  0  0  0  0  0  0
    3.8960    1.9291   21.5050 C   0  0  0  0  0  0  0  0  0  0  0  0
   12.9132   -0.6032   23.2569 C   0  0  0  0  0  0  0  0  0  0  0  0
   10.9991   -1.4331   22.0443 C   0  0  0  0  0  0  0  0  0  0  0  0
    5.3278    1.2339   17.6066 C   0  0  0  0  0  0  0  0  0  0  0  0
    6.8438   -0.2892   18.3752 C   0  0  0  0  0  0  0  0  0  0  0  0
    4.8226    1.4906   18.9054 C   0  0  0  0  0  0  0  0  0  0  0  0
    5.3982    0.7733   19.9948 C   0  0  0  0  0  0  0  0  0  0  0  0
   10.7040   -0.0625   23.9898 C   0  0  0  0  0  0  0  0  0  0  0  0
   10.1406   -0.7765   22.9250 C   0  0  0  0  0  0  0  0  0  0  0  0
    6.4440   -0.1472   19.6979 C   0  0  0  0  0  0  0  0  0  0  0  0
   12.3683   -1.3298   22.2234 C   0  0  0  0  0  0  0  0  0  0  0  0
    4.8973    1.0233   21.2988 C   0  0  0  0  0  0  0  0  0  0  0  0
    8.2490    0.0169   21.4271 C   0  0  0  0  0  0  0  0  0  0  0  0
    9.9479    0.5589   24.9534 C   0  0  0  0  0  0  0  0  0  0  0  0
    6.3968    5.2306   25.4276 C   0  0  0  0  0  0  0  0  0  0  0  0
    6.6062    4.4762   26.7113 C   0  0  0  0  0  0  0  0  0  0  0  0
    8.0140   -2.1541   22.4331 C   0  0  0  0  0  0  0  0  0  0  0  0
    6.9866   -1.9366   21.3580 C   0  0  0  0  0  0  0  0  0  0  0  0
    7.8721   -0.1194   23.8831 C   0  0  0  0  0  0  0  0  0  0  0  0
    8.6238   -0.7606   22.6929 C   0  0  3  0  0  0  0  0  0  0  0  0
    7.7686    4.7292   25.7898 C   0  0  0  0  0  0  0  0  0  0  0  0
    9.2684    6.4037   25.1046 C   0  0  0  0  0  0  0  0  0  0  0  0
    8.3874    3.5882   25.0137 C   0  0  0  0  0  0  0  0  0  0  0  0
    6.3062    0.3769   17.3421 N   0  0  0  0  0  0  0  0  0  0  0  0
    7.2292   -0.6897   20.7790 N   0  0  0  0  0  0  0  0  0  0  0  0
    8.6609    1.0133   24.4995 N   0  0  1  0  0  0  0  0  0  0  0  0
    8.8299    1.0397   21.0799 O   0  0  0  0  0  0  0  0  0  0  0  0
    8.2407    1.8013   26.9144 O   0  0  0  0  0  0  0  0  0  0  0  0
    6.3653    1.9471   25.2271 O   0  0  0  0  0  0  0  0  0  0  0  0
    8.7111    5.7271   26.2159 O   0  0  0  0  0  0  0  0  0  0  0  0
    7.7708    2.0177   25.5632 S   0  0  0  0  0  0  0  0  0  0  0  0
   13.4272   -2.1411   21.1086 Cl  0  0  0  0  0  0  0  0  0  0  0  0
    5.4623    0.2453   22.7515 Cl  0  0  0  0  0  0  0  0  0  0  0  0
    2.5425    3.3507   20.6372 H   0  0  0  0  0  0  0  0  0  0  0  0
    3.3401    2.9737   18.3362 H   0  0  0  0  0  0  0  0  0  0  0  0
   12.5024    0.5995   24.9735 H   0  0  0  0  0  0  0  0  0  0  0  0
    3.4992    2.1328   22.5080 H   0  0  0  0  0  0  0  0  0  0  0  0
   13.9910   -0.5177   23.3793 H   0  0  0  0  0  0  0  0  0  0  0  0
   10.6036   -2.0162   21.2241 H   0  0  0  0  0  0  0  0  0  0  0  0
    4.9135    1.7511   16.7477 H   0  0  0  0  0  0  0  0  0  0  0  0
    7.6449   -0.9747   18.1006 H   0  0  0  0  0  0  0  0  0  0  0  0
    9.7849   -0.1194   25.8306 H   0  0  0  0  0  0  0  0  0  0  0  0
   10.4793    1.4568   25.3613 H   0  0  0  0  0  0  0  0  0  0  0  0
    5.8551    4.7302   24.6340 H   0  0  0  0  0  0  0  0  0  0  0  0
    6.2057    6.2948   25.4948 H   0  0  0  0  0  0  0  0  0  0  0  0
    6.5550    5.0353   27.6379 H   0  0  0  0  0  0  0  0  0  0  0  0
    6.2048    3.4720   26.7745 H   0  0  0  0  0  0  0  0  0  0  0  0
    7.5152   -2.5456   23.3338 H   0  0  0  0  0  0  0  0  0  0  0  0
    8.7649   -2.9030   22.1434 H   0  0  0  0  0  0  0  0  0  0  0  0
    7.0587   -2.7248   20.5721 H   0  0  0  0  0  0  0  0  0  0  0  0
    5.9518   -1.9952   21.7720 H   0  0  0  0  0  0  0  0  0  0  0  0
    6.8867    0.2641   23.5642 H   0  0  0  0  0  0  0  0  0  0  0  0
    7.6652   -0.8660   24.6733 H   0  0  0  0  0  0  0  0  0  0  0  0
    9.9802    7.1555   25.4542 H   0  0  0  0  0  0  0  0  0  0  0  0
    8.4706    6.8812   24.5300 H   0  0  0  0  0  0  0  0  0  0  0  0
    9.7876    5.6802   24.4717 H   0  0  0  0  0  0  0  0  0  0  0  0
    9.4732    3.5710   25.1421 H   0  0  0  0  0  0  0  0  0  0  0  0
    8.1577    3.6698   23.9479 H   0  0  0  0  0  0  0  0  0  0  0  0
  1  2  2  0  0  0  0
  1  4  1  0  0  0  0
  2  9  1  0  0  0  0
  3  5  2  0  0  0  0
  3 11  1  0  0  0  0
  4 15  2  0  0  0  0
  5 14  1  0  0  0  0
  6 12  1  0  0  0  0
  6 14  2  0  0  0  0
  7  9  2  0  0  0  0
  7 27  1  0  0  0  0
  8 13  1  0  0  0  0
  8 27  2  0  0  0  0
  9 10  1  0  0  0  0
 10 13  2  0  0  0  0
 10 15  1  0  0  0  0
 11 12  2  0  0  0  0
 11 17  1  0  0  0  0
 12 23  1  0  0  0  0
 13 28  1  0  0  0  0
 14 35  1  0  0  0  0
 15 36  1  0  0  0  0
 16 23  1  0  0  0  0
 16 28  1  0  0  0  0
 16 30  2  0  0  0  0
 17 29  1  0  0  0  0
 18 19  1  0  0  0  0
 18 24  1  0  0  0  0
 19 24  1  0  0  0  0
 20 21  1  0  0  0  0
 20 23  1  0  0  0  0
 21 28  1  0  0  0  0
 22 23  1  0  0  0  0
 22 29  1  0  0  0  0
 24 26  1  0  0  0  0
 24 33  1  0  0  0  0
 25 33  1  0  0  0  0
 26 34  1  0  0  0  0
 29 34  1  6  0  0  0
 31 34  2  0  0  0  0
 32 34  2  0  0  0  0
  1 37  1  0  0  0  0
  2 38  1  0  0  0  0
  3 39  1  0  0  0  0
  4 40  1  0  0  0  0
  5 41  1  0  0  0  0
  6 42  1  0  0  0  0
  7 43  1  0  0  0  0
  8 44  1  0  0  0  0
 17 45  1  0  0  0  0
 17 46  1  0  0  0  0
 18 47  1  0  0  0  0
 18 48  1  0  0  0  0
 19 49  1  0  0  0  0
 19 50  1  0  0  0  0
 20 51  1  0  0  0  0
 20 52  1  0  0  0  0
 21 53  1  0  0  0  0
 21 54  1  0  0  0  0
 22 55  1  0  0  0  0
 22 56  1  0  0  0  0
 25 57  1  0  0  0  0
 25 58  1  0  0  0  0
 25 59  1  0  0  0  0
 26 60  1  0  0  0  0
 26 61  1  0  0  0  0
M  END
> <compound>
MAT-POS-853c0ffa-7

> <compound_smiles>
COC1(CC1)CS(=O)(=O)N2Cc3ccc(cc3C4(C2)CCN(C4=O)c5cncc6c5c(ccc6)Cl)Cl

> <enantiomer_smiles>
COC1(CC1)CS(=O)(=O)[N@]2Cc3ccc(cc3C4(C2)CCN(C4=O)c5cncc6c5c(ccc6)Cl)Cl

> <scaffold>
tetrahydroisoquinoline-5spiro-isoquinoline

> <clash_score>
0

> <docking_score>
-8.908108711242676

> <overlap_score>
0.9774558544158936

> <MMFF_internal_energy>
210.25241404503336

> <docked_smiles>
COC1(CC1)CS(=O)(=O)[N@]2Cc3ccc(cc3[C@]4(C2)CCN(C4=O)c5cncc6c5c(ccc6)Cl)Cl

$$$$
MAT-POS-853c0ffa-13_2
  -OEChem-12272114573D

 58 63  0     1  0  0  0  0  0999 V2000
    7.3205    3.4054   22.7658 C   0  0  0  0  0  0  0  0  0  0  0  0
    3.7865    2.4205   19.1660 C   0  0  0  0  0  0  0  0  0  0  0  0
   12.0765    0.0316   24.1541 C   0  0  0  0  0  0  0  0  0  0  0  0
    3.3432    2.6279   20.4411 C   0  0  0  0  0  0  0  0  0  0  0  0
   12.9132   -0.6032   23.2569 C   0  0  0  0  0  0  0  0  0  0  0  0
    4.8973    1.0233   21.2988 C   0  0  0  0  0  0  0  0  0  0  0  0
   10.9991   -1.4331   22.0443 C   0  0  0  0  0  0  0  0  0  0  0  0
    5.3278    1.2339   17.6066 C   0  0  0  0  0  0  0  0  0  0  0  0
    6.8438   -0.2892   18.3752 C   0  0  0  0  0  0  0  0  0  0  0  0
    4.8226    1.4906   18.9054 C   0  0  0  0  0  0  0  0  0  0  0  0
    5.3982    0.7733   19.9948 C   0  0  0  0  0  0  0  0  0  0  0  0
   10.7040   -0.0625   23.9898 C   0  0  0  0  0  0  0  0  0  0  0  0
   10.1406   -0.7765   22.9250 C   0  0  0  0  0  0  0  0  0  0  0  0
    6.4440   -0.1472   19.6979 C   0  0  0  0  0  0  0  0  0  0  0  0
    3.8960    1.9291   21.5050 C   0  0  0  0  0  0  0  0  0  0  0  0
   12.3683   -1.3298   22.2234 C   0  0  0  0  0  0  0  0  0  0  0  0
    8.2490    0.0169   21.4271 C   0  0  0  0  0  0  0  0  0  0  0  0
    9.9479    0.5589   24.9534 C   0  0  0  0  0  0  0  0  0  0  0  0
    9.8217    3.1213   22.9038 C   0  0  0  0  0  0  0  0  0  0  0  0
    9.5383    4.5944   22.9183 C   0  0  0  0  0  0  0  0  0  0  0  0
    8.0140   -2.1541   22.4331 C   0  0  0  0  0  0  0  0  0  0  0  0
    6.9866   -1.9366   21.3580 C   0  0  0  0  0  0  0  0  0  0  0  0
    7.8721   -0.1194   23.8831 C   0  0  0  0  0  0  0  0  0  0  0  0
    8.5331    3.6312   23.5091 C   0  0  0  0  0  0  0  0  0  0  0  0
    8.6238   -0.7606   22.6929 C   0  0  3  0  0  0  0  0  0  0  0  0
    8.3874    3.5882   25.0137 C   0  0  0  0  0  0  0  0  0  0  0  0
    6.3436    3.2234   22.1669 N   0  0  0  0  0  0  0  0  0  0  0  0
    6.3062    0.3769   17.3421 N   0  0  0  0  0  0  0  0  0  0  0  0
    7.2292   -0.6897   20.7790 N   0  0  0  0  0  0  0  0  0  0  0  0
    8.6609    1.0133   24.4995 N   0  0  2  0  0  0  0  0  0  0  0  0
    8.8299    1.0397   21.0799 O   0  0  0  0  0  0  0  0  0  0  0  0
    8.2407    1.8013   26.9144 O   0  0  0  0  0  0  0  0  0  0  0  0
    6.3653    1.9471   25.2271 O   0  0  0  0  0  0  0  0  0  0  0  0
    3.4314    2.1555   22.7514 F   0  0  0  0  0  0  0  0  0  0  0  0
    7.7708    2.0177   25.5632 S   0  0  0  0  0  0  0  0  0  0  0  0
   13.4272   -2.1411   21.1086 Cl  0  0  0  0  0  0  0  0  0  0  0  0
    3.3399    2.9734   18.3365 H   0  0  0  0  0  0  0  0  0  0  0  0
   12.5024    0.5995   24.9735 H   0  0  0  0  0  0  0  0  0  0  0  0
    2.5430    3.3508   20.6361 H   0  0  0  0  0  0  0  0  0  0  0  0
   13.9910   -0.5177   23.3793 H   0  0  0  0  0  0  0  0  0  0  0  0
    5.3103    0.4884   22.1571 H   0  0  0  0  0  0  0  0  0  0  0  0
   10.6036   -2.0162   21.2241 H   0  0  0  0  0  0  0  0  0  0  0  0
    4.9138    1.7515   16.7475 H   0  0  0  0  0  0  0  0  0  0  0  0
    7.6445   -0.9762   18.1044 H   0  0  0  0  0  0  0  0  0  0  0  0
    9.7849   -0.1194   25.8306 H   0  0  0  0  0  0  0  0  0  0  0  0
   10.4793    1.4568   25.3613 H   0  0  0  0  0  0  0  0  0  0  0  0
    9.7878    2.6129   21.9468 H   0  0  0  0  0  0  0  0  0  0  0  0
   10.5952    2.7515   23.5670 H   0  0  0  0  0  0  0  0  0  0  0  0
   10.1228    5.2116   23.5908 H   0  0  0  0  0  0  0  0  0  0  0  0
    9.3157    5.0716   21.9707 H   0  0  0  0  0  0  0  0  0  0  0  0
    7.5152   -2.5456   23.3338 H   0  0  0  0  0  0  0  0  0  0  0  0
    8.7649   -2.9030   22.1434 H   0  0  0  0  0  0  0  0  0  0  0  0
    7.0587   -2.7248   20.5721 H   0  0  0  0  0  0  0  0  0  0  0  0
    5.9518   -1.9952   21.7720 H   0  0  0  0  0  0  0  0  0  0  0  0
    6.8867    0.2641   23.5642 H   0  0  0  0  0  0  0  0  0  0  0  0
    7.6652   -0.8660   24.6733 H   0  0  0  0  0  0  0  0  0  0  0  0
    7.6838    4.3500   25.3607 H   0  0  0  0  0  0  0  0  0  0  0  0
    9.3513    3.7460   25.5050 H   0  0  0  0  0  0  0  0  0  0  0  0
  1 24  1  0  0  0  0
  1 27  3  0  0  0  0
  2  4  1  0  0  0  0
  2 10  2  0  0  0  0
  3  5  1  0  0  0  0
  3 12  2  0  0  0  0
  4 15  2  0  0  0  0
  5 16  2  0  0  0  0
  6 11  2  0  0  0  0
  6 15  1  0  0  0  0
  7 13  2  0  0  0  0
  7 16  1  0  0  0  0
  8 10  1  0  0  0  0
  8 28  2  0  0  0  0
  9 14  2  0  0  0  0
  9 28  1  0  0  0  0
 10 11  1  0  0  0  0
 11 14  1  0  0  0  0
 12 13  1  0  0  0  0
 12 18  1  0  0  0  0
 13 25  1  0  0  0  0
 14 29  1  0  0  0  0
 15 34  1  0  0  0  0
 16 36  1  0  0  0  0
 17 25  1  0  0  0  0
 17 29  1  0  0  0  0
 17 31  2  0  0  0  0
 18 30  1  0  0  0  0
 19 20  1  0  0  0  0
 19 24  1  0  0  0  0
 20 24  1  0  0  0  0
 21 22  1  0  0  0  0
 21 25  1  0  0  0  0
 22 29  1  0  0  0  0
 23 25  1  0  0  0  0
 23 30  1  0  0  0  0
 24 26  1  0  0  0  0
 26 35  1  0  0  0  0
 30 35  1  6  0  0  0
 32 35  2  0  0  0  0
 33 35  2  0  0  0  0
  2 37  1  0  0  0  0
  3 38  1  0  0  0  0
  4 39  1  0  0  0  0
  5 40  1  0  0  0  0
  6 41  1  0  0  0  0
  7 42  1  0  0  0  0
  8 43  1  0  0  0  0
  9 44  1  0  0  0  0
 18 45  1  0  0  0  0
 18 46  1  0  0  0  0
 19 47  1  0  0  0  0
 19 48  1  0  0  0  0
 20 49  1  0  0  0  0
 20 50  1  0  0  0  0
 21 51  1  0  0  0  0
 21 52  1  0  0  0  0
 22 53  1  0  0  0  0
 22 54  1  0  0  0  0
 23 55  1  0  0  0  0
 23 56  1  0  0  0  0
 26 57  1  0  0  0  0
 26 58  1  0  0  0  0
M  END
> <compound>
MAT-POS-853c0ffa-13

> <compound_smiles>
c1cc2cncc(c2cc1F)N3CCC4(C3=O)CN(Cc5c4cc(cc5)Cl)S(=O)(=O)CC6(CC6)C#N

> <enantiomer_smiles>
c1cc2cncc(c2cc1F)N3CCC4(C3=O)C[N@](Cc5c4cc(cc5)Cl)S(=O)(=O)CC6(CC6)C#N

> <scaffold>
tetrahydroisoquinoline-5spiro-isoquinoline

> <clash_score>
0

> <docking_score>
-8.603729248046875

> <overlap_score>
0.9832144975662231

> <MMFF_internal_energy>
114.86844332457478

> <docked_smiles>
c1cc2cncc(c2cc1F)N3CC[C@@]4(C3=O)C[N@](Cc5c4cc(cc5)Cl)S(=O)(=O)CC6(CC6)C#N

$$$$
MAT-POS-853c0ffa-13_1
  -OEChem-12272114573D

 58 63  0     1  0  0  0  0  0999 V2000
    9.9899    5.1222   23.8236 C   0  0  0  0  0  0  0  0  0  0  0  0
    3.7865    2.4205   19.1660 C   0  0  0  0  0  0  0  0  0  0  0  0
   12.0765    0.0316   24.1541 C   0  0  0  0  0  0  0  0  0  0  0  0
    3.3432    2.6279   20.4411 C   0  0  0  0  0  0  0  0  0  0  0  0
   12.9132   -0.6032   23.2569 C   0  0  0  0  0  0  0  0  0  0  0  0
    4.8973    1.0233   21.2988 C   0  0  0  0  0  0  0  0  0  0  0  0
   10.9991   -1.4331   22.0443 C   0  0  0  0  0  0  0  0  0  0  0  0
    5.3278    1.2339   17.6066 C   0  0  0  0  0  0  0  0  0  0  0  0
    6.8438   -0.2892   18.3752 C   0  0  0  0  0  0  0  0  0  0  0  0
    4.8226    1.4906   18.9054 C   0  0  0  0  0  0  0  0  0  0  0  0
    5.3982    0.7733   19.9948 C   0  0  0  0  0  0  0  0  0  0  0  0
   10.7040   -0.0625   23.9898 C   0  0  0  0  0  0  0  0  0  0  0  0
   10.1406   -0.7765   22.9250 C   0  0  0  0  0  0  0  0  0  0  0  0
    6.4440   -0.1472   19.6979 C   0  0  0  0  0  0  0  0  0  0  0  0
    3.8960    1.9291   21.5050 C   0  0  0  0  0  0  0  0  0  0  0  0
   12.3683   -1.3298   22.2234 C   0  0  0  0  0  0  0  0  0  0  0  0
    8.2490    0.0169   21.4271 C   0  0  0  0  0  0  0  0  0  0  0  0
    9.9479    0.5589   24.9534 C   0  0  0  0  0  0  0  0  0  0  0  0
    8.5324    6.1021   25.6323 C   0  0  0  0  0  0  0  0  0  0  0  0
    7.7014    6.0179   24.3861 C   0  0  0  0  0  0  0  0  0  0  0  0
    8.0140   -2.1541   22.4331 C   0  0  0  0  0  0  0  0  0  0  0  0
    6.9866   -1.9366   21.3580 C   0  0  0  0  0  0  0  0  0  0  0  0
    7.8721   -0.1194   23.8831 C   0  0  0  0  0  0  0  0  0  0  0  0
    8.7994    5.0058   24.6255 C   0  0  0  0  0  0  0  0  0  0  0  0
    8.6238   -0.7606   22.6929 C   0  0  3  0  0  0  0  0  0  0  0  0
    8.3989    3.5932   24.9882 C   0  0  0  0  0  0  0  0  0  0  0  0
   10.9490    5.2161   23.1776 N   0  0  0  0  0  0  0  0  0  0  0  0
    6.3062    0.3769   17.3421 N   0  0  0  0  0  0  0  0  0  0  0  0
    7.2292   -0.6897   20.7790 N   0  0  0  0  0  0  0  0  0  0  0  0
    8.6609    1.0133   24.4995 N   0  0  1  0  0  0  0  0  0  0  0  0
    8.7572    1.0941   21.1350 O   0  0  0  0  0  0  0  0  0  0  0  0
    7.4179    2.5201   22.8172 O   0  0  0  0  0  0  0  0  0  0  0  0
    9.9251    2.7322   23.0499 O   0  0  0  0  0  0  0  0  0  0  0  0
    3.4314    2.1555   22.7514 F   0  0  0  0  0  0  0  0  0  0  0  0
    8.6198    2.4832   23.6217 S   0  0  0  0  0  0  0  0  0  0  0  0
   13.4275   -2.1421   21.1097 Cl  0  0  0  0  0  0  0  0  0  0  0  0
    3.3399    2.9734   18.3365 H   0  0  0  0  0  0  0  0  0  0  0  0
   12.5015    0.5938   24.9776 H   0  0  0  0  0  0  0  0  0  0  0  0
    2.5430    3.3508   20.6361 H   0  0  0  0  0  0  0  0  0  0  0  0
   13.9911   -0.5212   23.3814 H   0  0  0  0  0  0  0  0  0  0  0  0
    5.3103    0.4884   22.1571 H   0  0  0  0  0  0  0  0  0  0  0  0
   10.6037   -2.0228   21.2288 H   0  0  0  0  0  0  0  0  0  0  0  0
    4.9138    1.7515   16.7475 H   0  0  0  0  0  0  0  0  0  0  0  0
    7.6445   -0.9762   18.1044 H   0  0  0  0  0  0  0  0  0  0  0  0
    9.7581   -0.1287   25.8173 H   0  0  0  0  0  0  0  0  0  0  0  0
   10.4931    1.4391   25.3829 H   0  0  0  0  0  0  0  0  0  0  0  0
    9.2347    6.9241   25.7129 H   0  0  0  0  0  0  0  0  0  0  0  0
    8.0587    5.8395   26.5712 H   0  0  0  0  0  0  0  0  0  0  0  0
    6.6706    5.6996   24.4905 H   0  0  0  0  0  0  0  0  0  0  0  0
    7.8473    6.7843   23.6333 H   0  0  0  0  0  0  0  0  0  0  0  0
    7.5801   -2.6060   23.3366 H   0  0  0  0  0  0  0  0  0  0  0  0
    8.7749   -2.8608   22.0657 H   0  0  0  0  0  0  0  0  0  0  0  0
    7.0227   -2.7506   20.5953 H   0  0  0  0  0  0  0  0  0  0  0  0
    5.9554   -1.9484   21.7832 H   0  0  0  0  0  0  0  0  0  0  0  0
    6.8886    0.2769   23.5666 H   0  0  0  0  0  0  0  0  0  0  0  0
    7.6579   -0.8710   24.6633 H   0  0  0  0  0  0  0  0  0  0  0  0
    7.3445    3.5466   25.2742 H   0  0  0  0  0  0  0  0  0  0  0  0
    9.0072    3.2136   25.8136 H   0  0  0  0  0  0  0  0  0  0  0  0
  1 24  1  0  0  0  0
  1 27  3  0  0  0  0
  2  4  1  0  0  0  0
  2 10  2  0  0  0  0
  3  5  1  0  0  0  0
  3 12  2  0  0  0  0
  4 15  2  0  0  0  0
  5 16  2  0  0  0  0
  6 11  2  0  0  0  0
  6 15  1  0  0  0  0
  7 13  2  0  0  0  0
  7 16  1  0  0  0  0
  8 10  1  0  0  0  0
  8 28  2  0  0  0  0
  9 14  2  0  0  0  0
  9 28  1  0  0  0  0
 10 11  1  0  0  0  0
 11 14  1  0  0  0  0
 12 13  1  0  0  0  0
 12 18  1  0  0  0  0
 13 25  1  0  0  0  0
 14 29  1  0  0  0  0
 15 34  1  0  0  0  0
 16 36  1  0  0  0  0
 17 25  1  0  0  0  0
 17 29  1  0  0  0  0
 17 31  2  0  0  0  0
 18 30  1  0  0  0  0
 19 20  1  0  0  0  0
 19 24  1  0  0  0  0
 20 24  1  0  0  0  0
 21 22  1  0  0  0  0
 21 25  1  0  0  0  0
 22 29  1  0  0  0  0
 23 25  1  0  0  0  0
 23 30  1  0  0  0  0
 24 26  1  0  0  0  0
 26 35  1  0  0  0  0
 30 35  1  1  0  0  0
 32 35  2  0  0  0  0
 33 35  2  0  0  0  0
  2 37  1  0  0  0  0
  3 38  1  0  0  0  0
  4 39  1  0  0  0  0
  5 40  1  0  0  0  0
  6 41  1  0  0  0  0
  7 42  1  0  0  0  0
  8 43  1  0  0  0  0
  9 44  1  0  0  0  0
 18 45  1  0  0  0  0
 18 46  1  0  0  0  0
 19 47  1  0  0  0  0
 19 48  1  0  0  0  0
 20 49  1  0  0  0  0
 20 50  1  0  0  0  0
 21 51  1  0  0  0  0
 21 52  1  0  0  0  0
 22 53  1  0  0  0  0
 22 54  1  0  0  0  0
 23 55  1  0  0  0  0
 23 56  1  0  0  0  0
 26 57  1  0  0  0  0
 26 58  1  0  0  0  0
M  END
> <compound>
MAT-POS-853c0ffa-13

> <compound_smiles>
c1cc2cncc(c2cc1F)N3CCC4(C3=O)CN(Cc5c4cc(cc5)Cl)S(=O)(=O)CC6(CC6)C#N

> <enantiomer_smiles>
c1cc2cncc(c2cc1F)N3CCC4(C3=O)C[N@@](Cc5c4cc(cc5)Cl)S(=O)(=O)CC6(CC6)C#N

> <scaffold>
tetrahydroisoquinoline-5spiro-isoquinoline

> <clash_score>
0

> <docking_score>
-9.099159240722656

> <overlap_score>
0.9823365211486816

> <MMFF_internal_energy>
126.44120835890378

> <docked_smiles>
c1cc2cncc(c2cc1F)N3CC[C@@]4(C3=O)C[N@@](Cc5c4cc(cc5)Cl)S(=O)(=O)CC6(CC6)C#N

$$$$
ALP-POS-ecbed2ba-8_2
  -OEChem-12272114573D

 61 66  0     1  0  0  0  0  0999 V2000
    9.7656    2.9829   23.0846 C   0  0  0  0  0  0  0  0  0  0  0  0
    3.3432    2.6279   20.4411 C   0  0  0  0  0  0  0  0  0  0  0  0
    3.8960    1.9291   21.5050 C   0  0  0  0  0  0  0  0  0  0  0  0
    3.7865    2.4205   19.1660 C   0  0  0  0  0  0  0  0  0  0  0  0
    4.8973    1.0233   21.2988 C   0  0  0  0  0  0  0  0  0  0  0  0
   12.0765    0.0316   24.1541 C   0  0  0  0  0  0  0  0  0  0  0  0
   12.9132   -0.6032   23.2569 C   0  0  0  0  0  0  0  0  0  0  0  0
   10.9991   -1.4331   22.0443 C   0  0  0  0  0  0  0  0  0  0  0  0
    5.3278    1.2339   17.6066 C   0  0  0  0  0  0  0  0  0  0  0  0
    6.8438   -0.2892   18.3752 C   0  0  0  0  0  0  0  0  0  0  0  0
    4.8226    1.4906   18.9054 C   0  0  0  0  0  0  0  0  0  0  0  0
    5.3982    0.7733   19.9948 C   0  0  0  0  0  0  0  0  0  0  0  0
   10.7040   -0.0625   23.9898 C   0  0  0  0  0  0  0  0  0  0  0  0
   10.1406   -0.7765   22.9250 C   0  0  0  0  0  0  0  0  0  0  0  0
    6.4440   -0.1472   19.6979 C   0  0  0  0  0  0  0  0  0  0  0  0
   12.3683   -1.3298   22.2234 C   0  0  0  0  0  0  0  0  0  0  0  0
    8.2490    0.0169   21.4271 C   0  0  0  0  0  0  0  0  0  0  0  0
    9.9479    0.5589   24.9534 C   0  0  0  0  0  0  0  0  0  0  0  0
    7.4766    4.3595   21.7705 C   0  0  0  0  0  0  0  0  0  0  0  0
    7.2643    3.1712   22.7286 C   0  0  0  0  0  0  0  0  0  0  0  0
    8.2998    5.0392   22.8821 C   0  0  0  0  0  0  0  0  0  0  0  0
    8.0140   -2.1541   22.4331 C   0  0  0  0  0  0  0  0  0  0  0  0
    6.9866   -1.9366   21.3580 C   0  0  0  0  0  0  0  0  0  0  0  0
    7.8721   -0.1194   23.8831 C   0  0  0  0  0  0  0  0  0  0  0  0
    8.5331    3.6312   23.5091 C   0  0  0  0  0  0  0  0  0  0  0  0
    8.6238   -0.7606   22.6929 C   0  0  3  0  0  0  0  0  0  0  0  0
    8.3874    3.5882   25.0137 C   0  0  0  0  0  0  0  0  0  0  0  0
   10.7479    2.4663   22.7463 N   0  0  0  0  0  0  0  0  0  0  0  0
    6.3062    0.3769   17.3421 N   0  0  0  0  0  0  0  0  0  0  0  0
    7.2292   -0.6897   20.7790 N   0  0  0  0  0  0  0  0  0  0  0  0
    8.6609    1.0133   24.4995 N   0  0  2  0  0  0  0  0  0  0  0  0
    8.8299    1.0397   21.0799 O   0  0  0  0  0  0  0  0  0  0  0  0
    8.2407    1.8013   26.9144 O   0  0  0  0  0  0  0  0  0  0  0  0
    6.3653    1.9471   25.2271 O   0  0  0  0  0  0  0  0  0  0  0  0
    7.7708    2.0177   25.5632 S   0  0  0  0  0  0  0  0  0  0  0  0
   13.4272   -2.1411   21.1086 Cl  0  0  0  0  0  0  0  0  0  0  0  0
    2.5432    3.3510   20.6369 H   0  0  0  0  0  0  0  0  0  0  0  0
    3.5174    2.1137   22.5168 H   0  0  0  0  0  0  0  0  0  0  0  0
    3.3409    2.9743   18.3364 H   0  0  0  0  0  0  0  0  0  0  0  0
    5.3118    0.4895   22.1572 H   0  0  0  0  0  0  0  0  0  0  0  0
   12.5024    0.5995   24.9735 H   0  0  0  0  0  0  0  0  0  0  0  0
   13.9910   -0.5177   23.3793 H   0  0  0  0  0  0  0  0  0  0  0  0
   10.6036   -2.0162   21.2241 H   0  0  0  0  0  0  0  0  0  0  0  0
    4.9141    1.7511   16.7474 H   0  0  0  0  0  0  0  0  0  0  0  0
    7.6445   -0.9764   18.1043 H   0  0  0  0  0  0  0  0  0  0  0  0
    9.7849   -0.1194   25.8306 H   0  0  0  0  0  0  0  0  0  0  0  0
   10.4793    1.4568   25.3613 H   0  0  0  0  0  0  0  0  0  0  0  0
    8.0617    4.1086   20.8784 H   0  0  0  0  0  0  0  0  0  0  0  0
    6.5702    4.8873   21.4628 H   0  0  0  0  0  0  0  0  0  0  0  0
    6.3304    3.2405   23.3003 H   0  0  0  0  0  0  0  0  0  0  0  0
    7.3047    2.1828   22.2604 H   0  0  0  0  0  0  0  0  0  0  0  0
    9.1876    5.5797   22.5396 H   0  0  0  0  0  0  0  0  0  0  0  0
    7.7046    5.7195   23.5040 H   0  0  0  0  0  0  0  0  0  0  0  0
    7.5152   -2.5456   23.3338 H   0  0  0  0  0  0  0  0  0  0  0  0
    8.7649   -2.9030   22.1434 H   0  0  0  0  0  0  0  0  0  0  0  0
    7.0587   -2.7248   20.5721 H   0  0  0  0  0  0  0  0  0  0  0  0
    5.9518   -1.9952   21.7720 H   0  0  0  0  0  0  0  0  0  0  0  0
    6.8867    0.2641   23.5642 H   0  0  0  0  0  0  0  0  0  0  0  0
    7.6652   -0.8660   24.6733 H   0  0  0  0  0  0  0  0  0  0  0  0
    7.6838    4.3500   25.3607 H   0  0  0  0  0  0  0  0  0  0  0  0
    9.3513    3.7460   25.5050 H   0  0  0  0  0  0  0  0  0  0  0  0
  1 25  1  0  0  0  0
  1 28  3  0  0  0  0
  2  3  1  0  0  0  0
  2  4  2  0  0  0  0
  3  5  2  0  0  0  0
  4 11  1  0  0  0  0
  5 12  1  0  0  0  0
  6  7  1  0  0  0  0
  6 13  2  0  0  0  0
  7 16  2  0  0  0  0
  8 14  2  0  0  0  0
  8 16  1  0  0  0  0
  9 11  2  0  0  0  0
  9 29  1  0  0  0  0
 10 15  1  0  0  0  0
 10 29  2  0  0  0  0
 11 12  1  0  0  0  0
 12 15  2  0  0  0  0
 13 14  1  0  0  0  0
 13 18  1  0  0  0  0
 14 26  1  0  0  0  0
 15 30  1  0  0  0  0
 16 36  1  0  0  0  0
 17 26  1  0  0  0  0
 17 30  1  0  0  0  0
 17 32  2  0  0  0  0
 18 31  1  0  0  0  0
 19 20  1  0  0  0  0
 19 21  1  0  0  0  0
 20 25  1  0  0  0  0
 21 25  1  0  0  0  0
 22 23  1  0  0  0  0
 22 26  1  0  0  0  0
 23 30  1  0  0  0  0
 24 26  1  0  0  0  0
 24 31  1  0  0  0  0
 25 27  1  0  0  0  0
 27 35  1  0  0  0  0
 31 35  1  6  0  0  0
 33 35  2  0  0  0  0
 34 35  2  0  0  0  0
  2 37  1  0  0  0  0
  3 38  1  0  0  0  0
  4 39  1  0  0  0  0
  5 40  1  0  0  0  0
  6 41  1  0  0  0  0
  7 42  1  0  0  0  0
  8 43  1  0  0  0  0
  9 44  1  0  0  0  0
 10 45  1  0  0  0  0
 18 46  1  0  0  0  0
 18 47  1  0  0  0  0
 19 48  1  0  0  0  0
 19 49  1  0  0  0  0
 20 50  1  0  0  0  0
 20 51  1  0  0  0  0
 21 52  1  0  0  0  0
 21 53  1  0  0  0  0
 22 54  1  0  0  0  0
 22 55  1  0  0  0  0
 23 56  1  0  0  0  0
 23 57  1  0  0  0  0
 24 58  1  0  0  0  0
 24 59  1  0  0  0  0
 27 60  1  0  0  0  0
 27 61  1  0  0  0  0
M  END
> <compound>
ALP-POS-ecbed2ba-8

> <compound_smiles>
c1ccc2c(c1)cncc2N3CCC4(C3=O)CN(Cc5c4cc(cc5)Cl)S(=O)(=O)CC6(CCC6)C#N

> <enantiomer_smiles>
c1ccc2c(c1)cncc2N3CCC4(C3=O)C[N@](Cc5c4cc(cc5)Cl)S(=O)(=O)CC6(CCC6)C#N

> <scaffold>
tetrahydroisoquinoline-5spiro-isoquinoline

> <clash_score>
0

> <docking_score>
-8.532068252563477

> <overlap_score>
0.9741745591163635

> <MMFF_internal_energy>
82.87483546689019

> <docked_smiles>
c1ccc2c(c1)cncc2N3CC[C@@]4(C3=O)C[N@](Cc5c4cc(cc5)Cl)S(=O)(=O)CC6(CCC6)C#N

$$$$
MAT-POS-853c0ffa-18_2
  -OEChem-12272114573D

 60 65  0     1  0  0  0  0  0999 V2000
   12.0765    0.0316   24.1541 C   0  0  0  0  0  0  0  0  0  0  0  0
   12.9132   -0.6032   23.2569 C   0  0  0  0  0  0  0  0  0  0  0  0
    3.7865    2.4205   19.1660 C   0  0  0  0  0  0  0  0  0  0  0  0
   10.9991   -1.4331   22.0443 C   0  0  0  0  0  0  0  0  0  0  0  0
    3.8960    1.9291   21.5050 C   0  0  0  0  0  0  0  0  0  0  0  0
    5.3278    1.2339   17.6066 C   0  0  0  0  0  0  0  0  0  0  0  0
    6.8438   -0.2892   18.3752 C   0  0  0  0  0  0  0  0  0  0  0  0
    4.8226    1.4906   18.9054 C   0  0  0  0  0  0  0  0  0  0  0  0
    5.3982    0.7733   19.9948 C   0  0  0  0  0  0  0  0  0  0  0  0
   10.7040   -0.0625   23.9898 C   0  0  0  0  0  0  0  0  0  0  0  0
   10.1406   -0.7765   22.9250 C   0  0  0  0  0  0  0  0  0  0  0  0
    6.4440   -0.1472   19.6979 C   0  0  0  0  0  0  0  0  0  0  0  0
    3.3432    2.6279   20.4411 C   0  0  0  0  0  0  0  0  0  0  0  0
   12.3683   -1.3298   22.2234 C   0  0  0  0  0  0  0  0  0  0  0  0
    4.8973    1.0233   21.2988 C   0  0  0  0  0  0  0  0  0  0  0  0
    8.2490    0.0169   21.4271 C   0  0  0  0  0  0  0  0  0  0  0  0
    9.9479    0.5589   24.9534 C   0  0  0  0  0  0  0  0  0  0  0  0
    9.7623    3.0001   22.8980 C   0  0  0  0  0  0  0  0  0  0  0  0
    9.6273    4.4957   22.9278 C   0  0  0  0  0  0  0  0  0  0  0  0
    8.0140   -2.1541   22.4331 C   0  0  0  0  0  0  0  0  0  0  0  0
    6.9866   -1.9366   21.3580 C   0  0  0  0  0  0  0  0  0  0  0  0
    7.8721   -0.1194   23.8831 C   0  0  0  0  0  0  0  0  0  0  0  0
    8.6238   -0.7606   22.6929 C   0  0  3  0  0  0  0  0  0  0  0  0
    8.5331    3.6312   23.5091 C   0  0  0  0  0  0  0  0  0  0  0  0
    7.2376    3.5293   22.7519 C   0  0  0  0  0  0  0  0  0  0  0  0
    8.3874    3.5882   25.0137 C   0  0  0  0  0  0  0  0  0  0  0  0
    6.3062    0.3769   17.3421 N   0  0  0  0  0  0  0  0  0  0  0  0
    7.2292   -0.6897   20.7790 N   0  0  0  0  0  0  0  0  0  0  0  0
    8.6609    1.0133   24.4995 N   0  0  1  0  0  0  0  0  0  0  0  0
    8.8299    1.0397   21.0799 O   0  0  0  0  0  0  0  0  0  0  0  0
    8.2407    1.8013   26.9144 O   0  0  0  0  0  0  0  0  0  0  0  0
    6.3653    1.9471   25.2271 O   0  0  0  0  0  0  0  0  0  0  0  0
    2.3578    3.5185   20.6801 F   0  0  0  0  0  0  0  0  0  0  0  0
    7.7708    2.0177   25.5632 S   0  0  0  0  0  0  0  0  0  0  0  0
   13.4272   -2.1411   21.1086 Cl  0  0  0  0  0  0  0  0  0  0  0  0
    5.4641    0.2478   22.7523 Cl  0  0  0  0  0  0  0  0  0  0  0  0
   12.5024    0.5995   24.9735 H   0  0  0  0  0  0  0  0  0  0  0  0
   13.9910   -0.5177   23.3793 H   0  0  0  0  0  0  0  0  0  0  0  0
    3.3399    2.9748   18.3374 H   0  0  0  0  0  0  0  0  0  0  0  0
   10.6036   -2.0162   21.2241 H   0  0  0  0  0  0  0  0  0  0  0  0
    3.4981    2.1315   22.5077 H   0  0  0  0  0  0  0  0  0  0  0  0
    4.9136    1.7513   16.7477 H   0  0  0  0  0  0  0  0  0  0  0  0
    7.6458   -0.9737   18.1006 H   0  0  0  0  0  0  0  0  0  0  0  0
    9.7849   -0.1194   25.8306 H   0  0  0  0  0  0  0  0  0  0  0  0
   10.4793    1.4568   25.3613 H   0  0  0  0  0  0  0  0  0  0  0  0
    9.6694    2.5059   21.9381 H   0  0  0  0  0  0  0  0  0  0  0  0
   10.4953    2.5480   23.5555 H   0  0  0  0  0  0  0  0  0  0  0  0
   10.2701    5.0451   23.6055 H   0  0  0  0  0  0  0  0  0  0  0  0
    9.4442    5.0031   21.9880 H   0  0  0  0  0  0  0  0  0  0  0  0
    7.5152   -2.5456   23.3338 H   0  0  0  0  0  0  0  0  0  0  0  0
    8.7649   -2.9030   22.1434 H   0  0  0  0  0  0  0  0  0  0  0  0
    7.0587   -2.7248   20.5721 H   0  0  0  0  0  0  0  0  0  0  0  0
    5.9518   -1.9952   21.7720 H   0  0  0  0  0  0  0  0  0  0  0  0
    6.8867    0.2641   23.5642 H   0  0  0  0  0  0  0  0  0  0  0  0
    7.6652   -0.8660   24.6733 H   0  0  0  0  0  0  0  0  0  0  0  0
    6.4245    4.0240   23.2971 H   0  0  0  0  0  0  0  0  0  0  0  0
    6.9534    2.4809   22.5997 H   0  0  0  0  0  0  0  0  0  0  0  0
    7.3209    4.0034   21.7662 H   0  0  0  0  0  0  0  0  0  0  0  0
    7.6838    4.3500   25.3607 H   0  0  0  0  0  0  0  0  0  0  0  0
    9.3513    3.7460   25.5050 H   0  0  0  0  0  0  0  0  0  0  0  0
  1  2  2  0  0  0  0
  1 10  1  0  0  0  0
  2 14  1  0  0  0  0
  3  8  1  0  0  0  0
  3 13  2  0  0  0  0
  4 11  1  0  0  0  0
  4 14  2  0  0  0  0
  5 13  1  0  0  0  0
  5 15  2  0  0  0  0
  6  8  2  0  0  0  0
  6 27  1  0  0  0  0
  7 12  1  0  0  0  0
  7 27  2  0  0  0  0
  8  9  1  0  0  0  0
  9 12  2  0  0  0  0
  9 15  1  0  0  0  0
 10 11  2  0  0  0  0
 10 17  1  0  0  0  0
 11 23  1  0  0  0  0
 12 28  1  0  0  0  0
 13 33  1  0  0  0  0
 14 35  1  0  0  0  0
 15 36  1  0  0  0  0
 16 23  1  0  0  0  0
 16 28  1  0  0  0  0
 16 30  2  0  0  0  0
 17 29  1  0  0  0  0
 18 19  1  0  0  0  0
 18 24  1  0  0  0  0
 19 24  1  0  0  0  0
 20 21  1  0  0  0  0
 20 23  1  0  0  0  0
 21 28  1  0  0  0  0
 22 23  1  0  0  0  0
 22 29  1  0  0  0  0
 24 25  1  0  0  0  0
 24 26  1  0  0  0  0
 26 34  1  0  0  0  0
 29 34  1  6  0  0  0
 31 34  2  0  0  0  0
 32 34  2  0  0  0  0
  1 37  1  0  0  0  0
  2 38  1  0  0  0  0
  3 39  1  0  0  0  0
  4 40  1  0  0  0  0
  5 41  1  0  0  0  0
  6 42  1  0  0  0  0
  7 43  1  0  0  0  0
 17 44  1  0  0  0  0
 17 45  1  0  0  0  0
 18 46  1  0  0  0  0
 18 47  1  0  0  0  0
 19 48  1  0  0  0  0
 19 49  1  0  0  0  0
 20 50  1  0  0  0  0
 20 51  1  0  0  0  0
 21 52  1  0  0  0  0
 21 53  1  0  0  0  0
 22 54  1  0  0  0  0
 22 55  1  0  0  0  0
 25 56  1  0  0  0  0
 25 57  1  0  0  0  0
 25 58  1  0  0  0  0
 26 59  1  0  0  0  0
 26 60  1  0  0  0  0
M  END
> <compound>
MAT-POS-853c0ffa-18

> <compound_smiles>
CC1(CC1)CS(=O)(=O)N2Cc3ccc(cc3C4(C2)CCN(C4=O)c5cncc6c5c(cc(c6)F)Cl)Cl

> <enantiomer_smiles>
CC1(CC1)CS(=O)(=O)[N@]2Cc3ccc(cc3C4(C2)CCN(C4=O)c5cncc6c5c(cc(c6)F)Cl)Cl

> <scaffold>
tetrahydroisoquinoline-5spiro-isoquinoline

> <clash_score>
0

> <docking_score>
-8.8466796875

> <overlap_score>
1.0

> <MMFF_internal_energy>
220.77620186145106

> <docked_smiles>
CC1(CC1)CS(=O)(=O)[N@]2Cc3ccc(cc3[C@]4(C2)CCN(C4=O)c5cncc6c5c(cc(c6)F)Cl)Cl

$$$$
MAT-POS-853c0ffa-14_1
  -OEChem-12272114573D

 61 66  0     1  0  0  0  0  0999 V2000
    3.7865    2.4205   19.1660 C   0  0  0  0  0  0  0  0  0  0  0  0
   12.0765    0.0316   24.1541 C   0  0  0  0  0  0  0  0  0  0  0  0
    3.3432    2.6279   20.4411 C   0  0  0  0  0  0  0  0  0  0  0  0
   12.9132   -0.6032   23.2569 C   0  0  0  0  0  0  0  0  0  0  0  0
    4.8973    1.0233   21.2988 C   0  0  0  0  0  0  0  0  0  0  0  0
   10.9991   -1.4331   22.0443 C   0  0  0  0  0  0  0  0  0  0  0  0
    5.3278    1.2339   17.6066 C   0  0  0  0  0  0  0  0  0  0  0  0
    6.8438   -0.2892   18.3752 C   0  0  0  0  0  0  0  0  0  0  0  0
    4.8226    1.4906   18.9054 C   0  0  0  0  0  0  0  0  0  0  0  0
    5.3982    0.7733   19.9948 C   0  0  0  0  0  0  0  0  0  0  0  0
   10.7040   -0.0625   23.9898 C   0  0  0  0  0  0  0  0  0  0  0  0
   10.1406   -0.7765   22.9250 C   0  0  0  0  0  0  0  0  0  0  0  0
    6.4440   -0.1472   19.6979 C   0  0  0  0  0  0  0  0  0  0  0  0
    3.8960    1.9291   21.5050 C   0  0  0  0  0  0  0  0  0  0  0  0
   12.3683   -1.3298   22.2234 C   0  0  0  0  0  0  0  0  0  0  0  0
    8.2490    0.0169   21.4271 C   0  0  0  0  0  0  0  0  0  0  0  0
    9.9479    0.5589   24.9534 C   0  0  0  0  0  0  0  0  0  0  0  0
    7.5775    5.3800   23.2665 C   0  0  0  0  0  0  0  0  0  0  0  0
    7.0196    5.7824   24.6035 C   0  0  0  0  0  0  0  0  0  0  0  0
    8.0140   -2.1541   22.4331 C   0  0  0  0  0  0  0  0  0  0  0  0
    6.9866   -1.9366   21.3580 C   0  0  0  0  0  0  0  0  0  0  0  0
    7.8721   -0.1194   23.8831 C   0  0  0  0  0  0  0  0  0  0  0  0
    8.6238   -0.7606   22.6929 C   0  0  3  0  0  0  0  0  0  0  0  0
    8.3214    5.0316   24.5273 C   0  0  0  0  0  0  0  0  0  0  0  0
   10.4527    5.6360   23.7430 C   0  0  0  0  0  0  0  0  0  0  0  0
    8.3989    3.5932   24.9882 C   0  0  0  0  0  0  0  0  0  0  0  0
    6.3062    0.3769   17.3421 N   0  0  0  0  0  0  0  0  0  0  0  0
    7.2292   -0.6897   20.7790 N   0  0  0  0  0  0  0  0  0  0  0  0
    8.6609    1.0133   24.4995 N   0  0  2  0  0  0  0  0  0  0  0  0
    8.7572    1.0941   21.1350 O   0  0  0  0  0  0  0  0  0  0  0  0
    7.4179    2.5201   22.8172 O   0  0  0  0  0  0  0  0  0  0  0  0
    9.9251    2.7322   23.0499 O   0  0  0  0  0  0  0  0  0  0  0  0
    9.5109    5.7951   24.7876 O   0  0  0  0  0  0  0  0  0  0  0  0
    3.4314    2.1555   22.7514 F   0  0  0  0  0  0  0  0  0  0  0  0
    8.6198    2.4832   23.6217 S   0  0  0  0  0  0  0  0  0  0  0  0
   13.4275   -2.1421   21.1097 Cl  0  0  0  0  0  0  0  0  0  0  0  0
    3.3399    2.9734   18.3365 H   0  0  0  0  0  0  0  0  0  0  0  0
   12.5015    0.5938   24.9776 H   0  0  0  0  0  0  0  0  0  0  0  0
    2.5430    3.3508   20.6361 H   0  0  0  0  0  0  0  0  0  0  0  0
   13.9911   -0.5212   23.3814 H   0  0  0  0  0  0  0  0  0  0  0  0
    5.3103    0.4884   22.1571 H   0  0  0  0  0  0  0  0  0  0  0  0
   10.6037   -2.0228   21.2288 H   0  0  0  0  0  0  0  0  0  0  0  0
    4.9138    1.7515   16.7475 H   0  0  0  0  0  0  0  0  0  0  0  0
    7.6445   -0.9762   18.1044 H   0  0  0  0  0  0  0  0  0  0  0  0
    9.7581   -0.1287   25.8173 H   0  0  0  0  0  0  0  0  0  0  0  0
   10.4931    1.4391   25.3829 H   0  0  0  0  0  0  0  0  0  0  0  0
    7.0702    4.5882   22.7287 H   0  0  0  0  0  0  0  0  0  0  0  0
    7.9799    6.1615   22.6333 H   0  0  0  0  0  0  0  0  0  0  0  0
    7.0481    6.8334   24.8653 H   0  0  0  0  0  0  0  0  0  0  0  0
    6.1401    5.2589   24.9585 H   0  0  0  0  0  0  0  0  0  0  0  0
    7.5801   -2.6060   23.3366 H   0  0  0  0  0  0  0  0  0  0  0  0
    8.7749   -2.8608   22.0657 H   0  0  0  0  0  0  0  0  0  0  0  0
    7.0227   -2.7506   20.5953 H   0  0  0  0  0  0  0  0  0  0  0  0
    5.9554   -1.9484   21.7832 H   0  0  0  0  0  0  0  0  0  0  0  0
    6.8886    0.2769   23.5666 H   0  0  0  0  0  0  0  0  0  0  0  0
    7.6579   -0.8710   24.6633 H   0  0  0  0  0  0  0  0  0  0  0  0
   11.3461    6.2251   23.9641 H   0  0  0  0  0  0  0  0  0  0  0  0
   10.0105    5.9651   22.7993 H   0  0  0  0  0  0  0  0  0  0  0  0
   10.7246    4.5805   23.6672 H   0  0  0  0  0  0  0  0  0  0  0  0
    7.4792    3.2960   25.4995 H   0  0  0  0  0  0  0  0  0  0  0  0
    9.2447    3.4440   25.6648 H   0  0  0  0  0  0  0  0  0  0  0  0
  1  3  2  0  0  0  0
  1  9  1  0  0  0  0
  2  4  2  0  0  0  0
  2 11  1  0  0  0  0
  3 14  1  0  0  0  0
  4 15  1  0  0  0  0
  5 10  1  0  0  0  0
  5 14  2  0  0  0  0
  6 12  1  0  0  0  0
  6 15  2  0  0  0  0
  7  9  2  0  0  0  0
  7 27  1  0  0  0  0
  8 13  1  0  0  0  0
  8 27  2  0  0  0  0
  9 10  1  0  0  0  0
 10 13  2  0  0  0  0
 11 12  2  0  0  0  0
 11 17  1  0  0  0  0
 12 23  1  0  0  0  0
 13 28  1  0  0  0  0
 14 34  1  0  0  0  0
 15 36  1  0  0  0  0
 16 23  1  0  0  0  0
 16 28  1  0  0  0  0
 16 30  2  0  0  0  0
 17 29  1  0  0  0  0
 18 19  1  0  0  0  0
 18 24  1  0  0  0  0
 19 24  1  0  0  0  0
 20 21  1  0  0  0  0
 20 23  1  0  0  0  0
 21 28  1  0  0  0  0
 22 23  1  0  0  0  0
 22 29  1  0  0  0  0
 24 26  1  0  0  0  0
 24 33  1  0  0  0  0
 25 33  1  0  0  0  0
 26 35  1  0  0  0  0
 29 35  1  1  0  0  0
 31 35  2  0  0  0  0
 32 35  2  0  0  0  0
  1 37  1  0  0  0  0
  2 38  1  0  0  0  0
  3 39  1  0  0  0  0
  4 40  1  0  0  0  0
  5 41  1  0  0  0  0
  6 42  1  0  0  0  0
  7 43  1  0  0  0  0
  8 44  1  0  0  0  0
 17 45  1  0  0  0  0
 17 46  1  0  0  0  0
 18 47  1  0  0  0  0
 18 48  1  0  0  0  0
 19 49  1  0  0  0  0
 19 50  1  0  0  0  0
 20 51  1  0  0  0  0
 20 52  1  0  0  0  0
 21 53  1  0  0  0  0
 21 54  1  0  0  0  0
 22 55  1  0  0  0  0
 22 56  1  0  0  0  0
 25 57  1  0  0  0  0
 25 58  1  0  0  0  0
 25 59  1  0  0  0  0
 26 60  1  0  0  0  0
 26 61  1  0  0  0  0
M  END
> <compound>
MAT-POS-853c0ffa-14

> <compound_smiles>
COC1(CC1)CS(=O)(=O)N2Cc3ccc(cc3C4(C2)CCN(C4=O)c5cncc6c5cc(cc6)F)Cl

> <enantiomer_smiles>
COC1(CC1)CS(=O)(=O)[N@@]2Cc3ccc(cc3C4(C2)CCN(C4=O)c5cncc6c5cc(cc6)F)Cl

> <scaffold>
tetrahydroisoquinoline-5spiro-isoquinoline

> <clash_score>
0

> <docking_score>
-9.428847312927246

> <overlap_score>
0.9824991226196289

> <MMFF_internal_energy>
135.023730711385

> <docked_smiles>
COC1(CC1)CS(=O)(=O)[N@@]2Cc3ccc(cc3[C@]4(C2)CCN(C4=O)c5cncc6c5cc(cc6)F)Cl

$$$$
ALP-POS-ecbed2ba-5_1
  -OEChem-12272114573D

 60 65  0     1  0  0  0  0  0999 V2000
    3.3432    2.6279   20.4411 C   0  0  0  0  0  0  0  0  0  0  0  0
    3.8960    1.9291   21.5050 C   0  0  0  0  0  0  0  0  0  0  0  0
    3.7865    2.4205   19.1660 C   0  0  0  0  0  0  0  0  0  0  0  0
    4.8973    1.0233   21.2988 C   0  0  0  0  0  0  0  0  0  0  0  0
   12.0765    0.0316   24.1541 C   0  0  0  0  0  0  0  0  0  0  0  0
   12.9132   -0.6032   23.2569 C   0  0  0  0  0  0  0  0  0  0  0  0
   10.9991   -1.4331   22.0443 C   0  0  0  0  0  0  0  0  0  0  0  0
    5.3278    1.2339   17.6066 C   0  0  0  0  0  0  0  0  0  0  0  0
    6.8438   -0.2892   18.3752 C   0  0  0  0  0  0  0  0  0  0  0  0
    4.8226    1.4906   18.9054 C   0  0  0  0  0  0  0  0  0  0  0  0
    5.3982    0.7733   19.9948 C   0  0  0  0  0  0  0  0  0  0  0  0
   10.7040   -0.0625   23.9898 C   0  0  0  0  0  0  0  0  0  0  0  0
   10.1406   -0.7765   22.9250 C   0  0  0  0  0  0  0  0  0  0  0  0
    6.4440   -0.1472   19.6979 C   0  0  0  0  0  0  0  0  0  0  0  0
   12.3683   -1.3298   22.2234 C   0  0  0  0  0  0  0  0  0  0  0  0
    8.2490    0.0169   21.4271 C   0  0  0  0  0  0  0  0  0  0  0  0
    9.9479    0.5589   24.9534 C   0  0  0  0  0  0  0  0  0  0  0  0
    8.0140   -2.1541   22.4331 C   0  0  0  0  0  0  0  0  0  0  0  0
    6.9866   -1.9366   21.3580 C   0  0  0  0  0  0  0  0  0  0  0  0
    7.8721   -0.1194   23.8831 C   0  0  0  0  0  0  0  0  0  0  0  0
    8.1125    6.0908   25.6450 C   0  0  0  0  0  0  0  0  0  0  0  0
    9.6691    5.6831   24.1096 C   0  0  0  0  0  0  0  0  0  0  0  0
    8.3212    5.0360   24.5259 C   0  0  0  0  0  0  0  0  0  0  0  0
    8.6238   -0.7606   22.6929 C   0  0  3  0  0  0  0  0  0  0  0  0
    8.3989    3.5932   24.9882 C   0  0  0  0  0  0  0  0  0  0  0  0
    6.3062    0.3769   17.3421 N   0  0  0  0  0  0  0  0  0  0  0  0
    7.2292   -0.6897   20.7790 N   0  0  0  0  0  0  0  0  0  0  0  0
    8.6609    1.0133   24.4995 N   0  0  1  0  0  0  0  0  0  0  0  0
    8.7572    1.0941   21.1350 O   0  0  0  0  0  0  0  0  0  0  0  0
    8.3223    7.9616   23.7501 O   0  0  0  0  0  0  0  0  0  0  0  0
   10.0973    7.8729   25.5734 O   0  0  0  0  0  0  0  0  0  0  0  0
    7.4179    2.5201   22.8172 O   0  0  0  0  0  0  0  0  0  0  0  0
    9.9251    2.7322   23.0499 O   0  0  0  0  0  0  0  0  0  0  0  0
    9.1032    7.2410   24.7331 S   0  0  0  0  0  0  0  0  0  0  0  0
    8.6198    2.4832   23.6217 S   0  0  0  0  0  0  0  0  0  0  0  0
   13.4275   -2.1421   21.1097 Cl  0  0  0  0  0  0  0  0  0  0  0  0
    2.5432    3.3510   20.6369 H   0  0  0  0  0  0  0  0  0  0  0  0
    3.5174    2.1137   22.5168 H   0  0  0  0  0  0  0  0  0  0  0  0
    3.3409    2.9743   18.3364 H   0  0  0  0  0  0  0  0  0  0  0  0
    5.3118    0.4895   22.1572 H   0  0  0  0  0  0  0  0  0  0  0  0
   12.5015    0.5938   24.9776 H   0  0  0  0  0  0  0  0  0  0  0  0
   13.9911   -0.5212   23.3814 H   0  0  0  0  0  0  0  0  0  0  0  0
   10.6037   -2.0228   21.2288 H   0  0  0  0  0  0  0  0  0  0  0  0
    4.9141    1.7511   16.7474 H   0  0  0  0  0  0  0  0  0  0  0  0
    7.6445   -0.9764   18.1043 H   0  0  0  0  0  0  0  0  0  0  0  0
    9.7581   -0.1287   25.8173 H   0  0  0  0  0  0  0  0  0  0  0  0
   10.4931    1.4391   25.3829 H   0  0  0  0  0  0  0  0  0  0  0  0
    7.5801   -2.6060   23.3366 H   0  0  0  0  0  0  0  0  0  0  0  0
    8.7749   -2.8608   22.0657 H   0  0  0  0  0  0  0  0  0  0  0  0
    7.0227   -2.7506   20.5953 H   0  0  0  0  0  0  0  0  0  0  0  0
    5.9554   -1.9484   21.7832 H   0  0  0  0  0  0  0  0  0  0  0  0
    6.8886    0.2769   23.5666 H   0  0  0  0  0  0  0  0  0  0  0  0
    7.6579   -0.8710   24.6633 H   0  0  0  0  0  0  0  0  0  0  0  0
    7.0795    6.4164   25.7912 H   0  0  0  0  0  0  0  0  0  0  0  0
    8.5584    5.8429   26.6138 H   0  0  0  0  0  0  0  0  0  0  0  0
   10.5507    5.3211   24.6485 H   0  0  0  0  0  0  0  0  0  0  0  0
    9.8728    5.6847   23.0358 H   0  0  0  0  0  0  0  0  0  0  0  0
    7.5641    5.1288   23.7336 H   0  0  0  0  0  0  0  0  0  0  0  0
    7.4792    3.2960   25.4995 H   0  0  0  0  0  0  0  0  0  0  0  0
    9.2447    3.4440   25.6648 H   0  0  0  0  0  0  0  0  0  0  0  0
  1  2  1  0  0  0  0
  1  3  2  0  0  0  0
  2  4  2  0  0  0  0
  3 10  1  0  0  0  0
  4 11  1  0  0  0  0
  5  6  1  0  0  0  0
  5 12  2  0  0  0  0
  6 15  2  0  0  0  0
  7 13  2  0  0  0  0
  7 15  1  0  0  0  0
  8 10  2  0  0  0  0
  8 26  1  0  0  0  0
  9 14  1  0  0  0  0
  9 26  2  0  0  0  0
 10 11  1  0  0  0  0
 11 14  2  0  0  0  0
 12 13  1  0  0  0  0
 12 17  1  0  0  0  0
 13 24  1  0  0  0  0
 14 27  1  0  0  0  0
 15 36  1  0  0  0  0
 16 24  1  0  0  0  0
 16 27  1  0  0  0  0
 16 29  2  0  0  0  0
 17 28  1  0  0  0  0
 18 19  1  0  0  0  0
 18 24  1  0  0  0  0
 19 27  1  0  0  0  0
 20 24  1  0  0  0  0
 20 28  1  0  0  0  0
 21 23  1  0  0  0  0
 21 34  1  0  0  0  0
 22 23  1  0  0  0  0
 22 34  1  0  0  0  0
 23 25  1  0  0  0  0
 25 35  1  0  0  0  0
 28 35  1  1  0  0  0
 30 34  2  0  0  0  0
 31 34  2  0  0  0  0
 32 35  2  0  0  0  0
 33 35  2  0  0  0  0
  1 37  1  0  0  0  0
  2 38  1  0  0  0  0
  3 39  1  0  0  0  0
  4 40  1  0  0  0  0
  5 41  1  0  0  0  0
  6 42  1  0  0  0  0
  7 43  1  0  0  0  0
  8 44  1  0  0  0  0
  9 45  1  0  0  0  0
 17 46  1  0  0  0  0
 17 47  1  0  0  0  0
 18 48  1  0  0  0  0
 18 49  1  0  0  0  0
 19 50  1  0  0  0  0
 19 51  1  0  0  0  0
 20 52  1  0  0  0  0
 20 53  1  0  0  0  0
 21 54  1  0  0  0  0
 21 55  1  0  0  0  0
 22 56  1  0  0  0  0
 22 57  1  0  0  0  0
 23 58  1  0  0  0  0
 25 59  1  0  0  0  0
 25 60  1  0  0  0  0
M  END
> <compound>
ALP-POS-ecbed2ba-5

> <compound_smiles>
c1ccc2c(c1)cncc2N3CCC4(C3=O)CN(Cc5c4cc(cc5)Cl)S(=O)(=O)CC6CS(=O)(=O)C6

> <enantiomer_smiles>
c1ccc2c(c1)cncc2N3CCC4(C3=O)C[N@@](Cc5c4cc(cc5)Cl)S(=O)(=O)CC6CS(=O)(=O)C6

> <scaffold>
tetrahydroisoquinoline-5spiro-isoquinoline

> <clash_score>
0

> <docking_score>
-9.275891304016113

> <overlap_score>
0.9726298451423645

> <MMFF_internal_energy>
96.42030829169701

> <docked_smiles>
c1ccc2c(c1)cncc2N3CC[C@@]4(C3=O)C[N@@](Cc5c4cc(cc5)Cl)S(=O)(=O)CC6CS(=O)(=O)C6

$$$$
MAT-POS-853c0ffa-14_2
  -OEChem-12272114573D

 61 66  0     1  0  0  0  0  0999 V2000
    3.7865    2.4205   19.1660 C   0  0  0  0  0  0  0  0  0  0  0  0
   12.0765    0.0316   24.1541 C   0  0  0  0  0  0  0  0  0  0  0  0
    3.3432    2.6279   20.4411 C   0  0  0  0  0  0  0  0  0  0  0  0
   12.9132   -0.6032   23.2569 C   0  0  0  0  0  0  0  0  0  0  0  0
    4.8973    1.0233   21.2988 C   0  0  0  0  0  0  0  0  0  0  0  0
   10.9991   -1.4331   22.0443 C   0  0  0  0  0  0  0  0  0  0  0  0
    5.3278    1.2339   17.6066 C   0  0  0  0  0  0  0  0  0  0  0  0
    6.8438   -0.2892   18.3752 C   0  0  0  0  0  0  0  0  0  0  0  0
    4.8226    1.4906   18.9054 C   0  0  0  0  0  0  0  0  0  0  0  0
    5.3982    0.7733   19.9948 C   0  0  0  0  0  0  0  0  0  0  0  0
   10.7040   -0.0625   23.9898 C   0  0  0  0  0  0  0  0  0  0  0  0
   10.1406   -0.7765   22.9250 C   0  0  0  0  0  0  0  0  0  0  0  0
    6.4440   -0.1472   19.6979 C   0  0  0  0  0  0  0  0  0  0  0  0
    3.8960    1.9291   21.5050 C   0  0  0  0  0  0  0  0  0  0  0  0
   12.3683   -1.3298   22.2234 C   0  0  0  0  0  0  0  0  0  0  0  0
    8.2490    0.0169   21.4271 C   0  0  0  0  0  0  0  0  0  0  0  0
    9.9479    0.5589   24.9534 C   0  0  0  0  0  0  0  0  0  0  0  0
    6.3968    5.2306   25.4276 C   0  0  0  0  0  0  0  0  0  0  0  0
    6.6062    4.4762   26.7113 C   0  0  0  0  0  0  0  0  0  0  0  0
    8.0140   -2.1541   22.4331 C   0  0  0  0  0  0  0  0  0  0  0  0
    6.9866   -1.9366   21.3580 C   0  0  0  0  0  0  0  0  0  0  0  0
    7.8721   -0.1194   23.8831 C   0  0  0  0  0  0  0  0  0  0  0  0
    8.6238   -0.7606   22.6929 C   0  0  3  0  0  0  0  0  0  0  0  0
    7.7686    4.7292   25.7898 C   0  0  0  0  0  0  0  0  0  0  0  0
    9.2684    6.4037   25.1046 C   0  0  0  0  0  0  0  0  0  0  0  0
    8.3874    3.5882   25.0137 C   0  0  0  0  0  0  0  0  0  0  0  0
    6.3062    0.3769   17.3421 N   0  0  0  0  0  0  0  0  0  0  0  0
    7.2292   -0.6897   20.7790 N   0  0  0  0  0  0  0  0  0  0  0  0
    8.6609    1.0133   24.4995 N   0  0  1  0  0  0  0  0  0  0  0  0
    8.8299    1.0397   21.0799 O   0  0  0  0  0  0  0  0  0  0  0  0
    8.2407    1.8013   26.9144 O   0  0  0  0  0  0  0  0  0  0  0  0
    6.3653    1.9471   25.2271 O   0  0  0  0  0  0  0  0  0  0  0  0
    8.7111    5.7271   26.2159 O   0  0  0  0  0  0  0  0  0  0  0  0
    3.4314    2.1555   22.7514 F   0  0  0  0  0  0  0  0  0  0  0  0
    7.7708    2.0177   25.5632 S   0  0  0  0  0  0  0  0  0  0  0  0
   13.4272   -2.1411   21.1086 Cl  0  0  0  0  0  0  0  0  0  0  0  0
    3.3399    2.9734   18.3365 H   0  0  0  0  0  0  0  0  0  0  0  0
   12.5024    0.5995   24.9735 H   0  0  0  0  0  0  0  0  0  0  0  0
    2.5430    3.3508   20.6361 H   0  0  0  0  0  0  0  0  0  0  0  0
   13.9910   -0.5177   23.3793 H   0  0  0  0  0  0  0  0  0  0  0  0
    5.3103    0.4884   22.1571 H   0  0  0  0  0  0  0  0  0  0  0  0
   10.6036   -2.0162   21.2241 H   0  0  0  0  0  0  0  0  0  0  0  0
    4.9138    1.7515   16.7475 H   0  0  0  0  0  0  0  0  0  0  0  0
    7.6445   -0.9762   18.1044 H   0  0  0  0  0  0  0  0  0  0  0  0
    9.7849   -0.1194   25.8306 H   0  0  0  0  0  0  0  0  0  0  0  0
   10.4793    1.4568   25.3613 H   0  0  0  0  0  0  0  0  0  0  0  0
    5.8551    4.7302   24.6340 H   0  0  0  0  0  0  0  0  0  0  0  0
    6.2057    6.2948   25.4948 H   0  0  0  0  0  0  0  0  0  0  0  0
    6.5550    5.0353   27.6379 H   0  0  0  0  0  0  0  0  0  0  0  0
    6.2048    3.4720   26.7745 H   0  0  0  0  0  0  0  0  0  0  0  0
    7.5152   -2.5456   23.3338 H   0  0  0  0  0  0  0  0  0  0  0  0
    8.7649   -2.9030   22.1434 H   0  0  0  0  0  0  0  0  0  0  0  0
    7.0587   -2.7248   20.5721 H   0  0  0  0  0  0  0  0  0  0  0  0
    5.9518   -1.9952   21.7720 H   0  0  0  0  0  0  0  0  0  0  0  0
    6.8867    0.2641   23.5642 H   0  0  0  0  0  0  0  0  0  0  0  0
    7.6652   -0.8660   24.6733 H   0  0  0  0  0  0  0  0  0  0  0  0
    9.9802    7.1555   25.4542 H   0  0  0  0  0  0  0  0  0  0  0  0
    8.4706    6.8812   24.5300 H   0  0  0  0  0  0  0  0  0  0  0  0
    9.7876    5.6802   24.4717 H   0  0  0  0  0  0  0  0  0  0  0  0
    9.4732    3.5710   25.1421 H   0  0  0  0  0  0  0  0  0  0  0  0
    8.1577    3.6698   23.9479 H   0  0  0  0  0  0  0  0  0  0  0  0
  1  3  2  0  0  0  0
  1  9  1  0  0  0  0
  2  4  2  0  0  0  0
  2 11  1  0  0  0  0
  3 14  1  0  0  0  0
  4 15  1  0  0  0  0
  5 10  1  0  0  0  0
  5 14  2  0  0  0  0
  6 12  1  0  0  0  0
  6 15  2  0  0  0  0
  7  9  2  0  0  0  0
  7 27  1  0  0  0  0
  8 13  1  0  0  0  0
  8 27  2  0  0  0  0
  9 10  1  0  0  0  0
 10 13  2  0  0  0  0
 11 12  2  0  0  0  0
 11 17  1  0  0  0  0
 12 23  1  0  0  0  0
 13 28  1  0  0  0  0
 14 34  1  0  0  0  0
 15 36  1  0  0  0  0
 16 23  1  0  0  0  0
 16 28  1  0  0  0  0
 16 30  2  0  0  0  0
 17 29  1  0  0  0  0
 18 19  1  0  0  0  0
 18 24  1  0  0  0  0
 19 24  1  0  0  0  0
 20 21  1  0  0  0  0
 20 23  1  0  0  0  0
 21 28  1  0  0  0  0
 22 23  1  0  0  0  0
 22 29  1  0  0  0  0
 24 26  1  0  0  0  0
 24 33  1  0  0  0  0
 25 33  1  0  0  0  0
 26 35  1  0  0  0  0
 29 35  1  6  0  0  0
 31 35  2  0  0  0  0
 32 35  2  0  0  0  0
  1 37  1  0  0  0  0
  2 38  1  0  0  0  0
  3 39  1  0  0  0  0
  4 40  1  0  0  0  0
  5 41  1  0  0  0  0
  6 42  1  0  0  0  0
  7 43  1  0  0  0  0
  8 44  1  0  0  0  0
 17 45  1  0  0  0  0
 17 46  1  0  0  0  0
 18 47  1  0  0  0  0
 18 48  1  0  0  0  0
 19 49  1  0  0  0  0
 19 50  1  0  0  0  0
 20 51  1  0  0  0  0
 20 52  1  0  0  0  0
 21 53  1  0  0  0  0
 21 54  1  0  0  0  0
 22 55  1  0  0  0  0
 22 56  1  0  0  0  0
 25 57  1  0  0  0  0
 25 58  1  0  0  0  0
 25 59  1  0  0  0  0
 26 60  1  0  0  0  0
 26 61  1  0  0  0  0
M  END
> <compound>
MAT-POS-853c0ffa-14

> <compound_smiles>
COC1(CC1)CS(=O)(=O)N2Cc3ccc(cc3C4(C2)CCN(C4=O)c5cncc6c5cc(cc6)F)Cl

> <enantiomer_smiles>
COC1(CC1)CS(=O)(=O)[N@]2Cc3ccc(cc3C4(C2)CCN(C4=O)c5cncc6c5cc(cc6)F)Cl

> <scaffold>
tetrahydroisoquinoline-5spiro-isoquinoline

> <clash_score>
0

> <docking_score>
-8.568914413452148

> <overlap_score>
0.978999137878418

> <MMFF_internal_energy>
122.79515710682053

> <docked_smiles>
COC1(CC1)CS(=O)(=O)[N@]2Cc3ccc(cc3[C@]4(C2)CCN(C4=O)c5cncc6c5cc(cc6)F)Cl

$$$$
MAT-POS-c2d406ed-1_2
  -OEChem-12272114573D

 56 61  0     1  0  0  0  0  0999 V2000
    7.3170    3.4139   22.7731 C   0  0  0  0  0  0  0  0  0  0  0  0
    3.3432    2.6279   20.4411 C   0  0  0  0  0  0  0  0  0  0  0  0
    3.8960    1.9291   21.5050 C   0  0  0  0  0  0  0  0  0  0  0  0
    3.7865    2.4205   19.1660 C   0  0  0  0  0  0  0  0  0  0  0  0
    4.8973    1.0233   21.2988 C   0  0  0  0  0  0  0  0  0  0  0  0
   12.0765    0.0316   24.1541 C   0  0  0  0  0  0  0  0  0  0  0  0
   12.9132   -0.6032   23.2569 C   0  0  0  0  0  0  0  0  0  0  0  0
   10.9991   -1.4331   22.0443 C   0  0  0  0  0  0  0  0  0  0  0  0
    5.3278    1.2339   17.6066 C   0  0  0  0  0  0  0  0  0  0  0  0
    6.8438   -0.2892   18.3752 C   0  0  0  0  0  0  0  0  0  0  0  0
    4.8226    1.4906   18.9054 C   0  0  0  0  0  0  0  0  0  0  0  0
    5.3982    0.7733   19.9948 C   0  0  0  0  0  0  0  0  0  0  0  0
   10.7040   -0.0625   23.9898 C   0  0  0  0  0  0  0  0  0  0  0  0
   10.1406   -0.7765   22.9250 C   0  0  0  0  0  0  0  0  0  0  0  0
    6.4440   -0.1472   19.6979 C   0  0  0  0  0  0  0  0  0  0  0  0
   12.3683   -1.3298   22.2234 C   0  0  0  0  0  0  0  0  0  0  0  0
    8.2490    0.0169   21.4271 C   0  0  0  0  0  0  0  0  0  0  0  0
    6.9866   -1.9366   21.3580 C   0  0  0  0  0  0  0  0  0  0  0  0
    9.9479    0.5589   24.9534 C   0  0  0  0  0  0  0  0  0  0  0  0
    9.8189    3.1357   22.9108 C   0  0  0  0  0  0  0  0  0  0  0  0
    9.5316    4.6080   22.9311 C   0  0  0  0  0  0  0  0  0  0  0  0
    7.8721   -0.1194   23.8831 C   0  0  0  0  0  0  0  0  0  0  0  0
    8.5288    3.6398   23.5177 C   0  0  0  0  0  0  0  0  0  0  0  0
    8.6238   -0.7606   22.6929 C   0  0  3  0  0  0  0  0  0  0  0  0
    8.3827    3.5903   25.0221 C   0  0  0  0  0  0  0  0  0  0  0  0
    6.3407    3.2318   22.1732 N   0  0  0  0  0  0  0  0  0  0  0  0
    6.3062    0.3769   17.3421 N   0  0  0  0  0  0  0  0  0  0  0  0
    8.0140   -2.1541   22.4331 N   0  0  0  0  0  0  0  0  0  0  0  0
    7.2292   -0.6897   20.7790 N   0  0  0  0  0  0  0  0  0  0  0  0
    8.6609    1.0133   24.4995 N   0  0  2  0  0  0  0  0  0  0  0  0
    8.8031    1.0456   21.0955 O   0  0  0  0  0  0  0  0  0  0  0  0
    6.1325   -2.7708   21.1547 O   0  0  0  0  0  0  0  0  0  0  0  0
    8.2474    1.7909   26.9118 O   0  0  0  0  0  0  0  0  0  0  0  0
    6.3636    1.9455   25.2347 O   0  0  0  0  0  0  0  0  0  0  0  0
    7.7701    2.0162   25.5650 S   0  0  0  0  0  0  0  0  0  0  0  0
   13.4275   -2.1410   21.1090 Cl  0  0  0  0  0  0  0  0  0  0  0  0
    2.5432    3.3510   20.6369 H   0  0  0  0  0  0  0  0  0  0  0  0
    3.5174    2.1137   22.5168 H   0  0  0  0  0  0  0  0  0  0  0  0
    3.3409    2.9743   18.3364 H   0  0  0  0  0  0  0  0  0  0  0  0
    5.3118    0.4895   22.1572 H   0  0  0  0  0  0  0  0  0  0  0  0
   12.5024    0.6011   24.9726 H   0  0  0  0  0  0  0  0  0  0  0  0
   13.9911   -0.5171   23.3785 H   0  0  0  0  0  0  0  0  0  0  0  0
   10.6053   -2.0174   21.2237 H   0  0  0  0  0  0  0  0  0  0  0  0
    4.9141    1.7511   16.7474 H   0  0  0  0  0  0  0  0  0  0  0  0
    7.6445   -0.9764   18.1043 H   0  0  0  0  0  0  0  0  0  0  0  0
    9.7866   -0.1181   25.8330 H   0  0  0  0  0  0  0  0  0  0  0  0
   10.4806    1.4570   25.3616 H   0  0  0  0  0  0  0  0  0  0  0  0
    9.7866    2.6311   21.9517 H   0  0  0  0  0  0  0  0  0  0  0  0
   10.5931    2.7653   23.5727 H   0  0  0  0  0  0  0  0  0  0  0  0
   10.1143    5.2240   23.6063 H   0  0  0  0  0  0  0  0  0  0  0  0
    9.3081    5.0884   21.9854 H   0  0  0  0  0  0  0  0  0  0  0  0
    6.8952    0.2746   23.5521 H   0  0  0  0  0  0  0  0  0  0  0  0
    7.6728   -0.8662   24.6729 H   0  0  0  0  0  0  0  0  0  0  0  0
    7.6771    4.3489   25.3720 H   0  0  0  0  0  0  0  0  0  0  0  0
    9.3461    3.7486   25.5143 H   0  0  0  0  0  0  0  0  0  0  0  0
    8.2128   -2.9427   22.8513 H   0  0  0  0  0  0  0  0  0  0  0  0
  1 23  1  0  0  0  0
  1 26  3  0  0  0  0
  2  3  1  0  0  0  0
  2  4  2  0  0  0  0
  3  5  2  0  0  0  0
  4 11  1  0  0  0  0
  5 12  1  0  0  0  0
  6  7  1  0  0  0  0
  6 13  2  0  0  0  0
  7 16  2  0  0  0  0
  8 14  2  0  0  0  0
  8 16  1  0  0  0  0
  9 11  2  0  0  0  0
  9 27  1  0  0  0  0
 10 15  1  0  0  0  0
 10 27  2  0  0  0  0
 11 12  1  0  0  0  0
 12 15  2  0  0  0  0
 13 14  1  0  0  0  0
 13 19  1  0  0  0  0
 14 24  1  0  0  0  0
 15 29  1  0  0  0  0
 16 36  1  0  0  0  0
 17 24  1  0  0  0  0
 17 29  1  0  0  0  0
 17 31  2  0  0  0  0
 18 28  1  0  0  0  0
 18 29  1  0  0  0  0
 18 32  2  0  0  0  0
 19 30  1  0  0  0  0
 20 21  1  0  0  0  0
 20 23  1  0  0  0  0
 21 23  1  0  0  0  0
 22 24  1  0  0  0  0
 22 30  1  0  0  0  0
 23 25  1  0  0  0  0
 24 28  1  0  0  0  0
 25 35  1  0  0  0  0
 30 35  1  6  0  0  0
 33 35  2  0  0  0  0
 34 35  2  0  0  0  0
  2 37  1  0  0  0  0
  3 38  1  0  0  0  0
  4 39  1  0  0  0  0
  5 40  1  0  0  0  0
  6 41  1  0  0  0  0
  7 42  1  0  0  0  0
  8 43  1  0  0  0  0
  9 44  1  0  0  0  0
 10 45  1  0  0  0  0
 19 46  1  0  0  0  0
 19 47  1  0  0  0  0
 20 48  1  0  0  0  0
 20 49  1  0  0  0  0
 21 50  1  0  0  0  0
 21 51  1  0  0  0  0
 22 52  1  0  0  0  0
 22 53  1  0  0  0  0
 25 54  1  0  0  0  0
 25 55  1  0  0  0  0
 28 56  1  0  0  0  0
M  END
> <compound>
MAT-POS-c2d406ed-1

> <compound_smiles>
c1ccc2c(c1)cncc2N3C(=O)C4(CN(Cc5c4cc(cc5)Cl)S(=O)(=O)CC6(CC6)C#N)NC3=O

> <enantiomer_smiles>
c1ccc2c(c1)cncc2N3C(=O)C4(C[N@](Cc5c4cc(cc5)Cl)S(=O)(=O)CC6(CC6)C#N)NC3=O

> <scaffold>
tetrahydroisoquinoline-5spiro-isoquinoline

> <clash_score>
0

> <docking_score>
-7.864187240600586

> <overlap_score>
1.0

> <MMFF_internal_energy>
103.70458899663325

> <docked_smiles>
c1ccc2c(c1)cncc2N3C(=O)[C@@]4(C[N@](Cc5c4cc(cc5)Cl)S(=O)(=O)CC6(CC6)C#N)NC3=O

$$$$
ALP-POS-ecbed2ba-22_2
  -OEChem-12272114573D

 61 66  0     1  0  0  0  0  0999 V2000
    6.3944    4.5935   23.2960 C   0  0  0  0  0  0  0  0  0  0  0  0
    3.3432    2.6279   20.4411 C   0  0  0  0  0  0  0  0  0  0  0  0
    3.8960    1.9291   21.5050 C   0  0  0  0  0  0  0  0  0  0  0  0
    3.7865    2.4205   19.1660 C   0  0  0  0  0  0  0  0  0  0  0  0
    4.8973    1.0233   21.2988 C   0  0  0  0  0  0  0  0  0  0  0  0
   12.0765    0.0316   24.1541 C   0  0  0  0  0  0  0  0  0  0  0  0
   12.9132   -0.6032   23.2569 C   0  0  0  0  0  0  0  0  0  0  0  0
   10.9991   -1.4331   22.0443 C   0  0  0  0  0  0  0  0  0  0  0  0
    5.3278    1.2339   17.6066 C   0  0  0  0  0  0  0  0  0  0  0  0
    6.8438   -0.2892   18.3752 C   0  0  0  0  0  0  0  0  0  0  0  0
    4.8226    1.4906   18.9054 C   0  0  0  0  0  0  0  0  0  0  0  0
    5.3982    0.7733   19.9948 C   0  0  0  0  0  0  0  0  0  0  0  0
   10.7040   -0.0625   23.9898 C   0  0  0  0  0  0  0  0  0  0  0  0
   10.1406   -0.7765   22.9250 C   0  0  0  0  0  0  0  0  0  0  0  0
    6.4440   -0.1472   19.6979 C   0  0  0  0  0  0  0  0  0  0  0  0
   12.3683   -1.3298   22.2234 C   0  0  0  0  0  0  0  0  0  0  0  0
    8.2490    0.0169   21.4271 C   0  0  0  0  0  0  0  0  0  0  0  0
    9.9479    0.5589   24.9534 C   0  0  0  0  0  0  0  0  0  0  0  0
    9.7623    3.0001   22.8980 C   0  0  0  0  0  0  0  0  0  0  0  0
    9.6273    4.4957   22.9278 C   0  0  0  0  0  0  0  0  0  0  0  0
    8.0140   -2.1541   22.4331 C   0  0  0  0  0  0  0  0  0  0  0  0
    6.9866   -1.9366   21.3580 C   0  0  0  0  0  0  0  0  0  0  0  0
    7.8721   -0.1194   23.8831 C   0  0  0  0  0  0  0  0  0  0  0  0
    8.6238   -0.7606   22.6929 C   0  0  3  0  0  0  0  0  0  0  0  0
    8.5331    3.6312   23.5091 C   0  0  0  0  0  0  0  0  0  0  0  0
    7.2376    3.5293   22.7519 C   0  0  0  0  0  0  0  0  0  0  0  0
    8.3874    3.5882   25.0137 C   0  0  0  0  0  0  0  0  0  0  0  0
    5.7144    5.4335   23.7190 N   0  0  0  0  0  0  0  0  0  0  0  0
    6.3062    0.3769   17.3421 N   0  0  0  0  0  0  0  0  0  0  0  0
    7.2292   -0.6897   20.7790 N   0  0  0  0  0  0  0  0  0  0  0  0
    8.6609    1.0133   24.4995 N   0  0  2  0  0  0  0  0  0  0  0  0
    8.8299    1.0397   21.0799 O   0  0  0  0  0  0  0  0  0  0  0  0
    8.2407    1.8013   26.9144 O   0  0  0  0  0  0  0  0  0  0  0  0
    6.3653    1.9471   25.2271 O   0  0  0  0  0  0  0  0  0  0  0  0
    7.7708    2.0177   25.5632 S   0  0  0  0  0  0  0  0  0  0  0  0
   13.4272   -2.1411   21.1086 Cl  0  0  0  0  0  0  0  0  0  0  0  0
    2.5432    3.3510   20.6369 H   0  0  0  0  0  0  0  0  0  0  0  0
    3.5174    2.1137   22.5168 H   0  0  0  0  0  0  0  0  0  0  0  0
    3.3409    2.9743   18.3364 H   0  0  0  0  0  0  0  0  0  0  0  0
    5.3118    0.4895   22.1572 H   0  0  0  0  0  0  0  0  0  0  0  0
   12.5024    0.5995   24.9735 H   0  0  0  0  0  0  0  0  0  0  0  0
   13.9910   -0.5177   23.3793 H   0  0  0  0  0  0  0  0  0  0  0  0
   10.6036   -2.0162   21.2241 H   0  0  0  0  0  0  0  0  0  0  0  0
    4.9141    1.7511   16.7474 H   0  0  0  0  0  0  0  0  0  0  0  0
    7.6445   -0.9764   18.1043 H   0  0  0  0  0  0  0  0  0  0  0  0
    9.7849   -0.1194   25.8306 H   0  0  0  0  0  0  0  0  0  0  0  0
   10.4793    1.4568   25.3613 H   0  0  0  0  0  0  0  0  0  0  0  0
    9.6694    2.5059   21.9381 H   0  0  0  0  0  0  0  0  0  0  0  0
   10.4953    2.5480   23.5555 H   0  0  0  0  0  0  0  0  0  0  0  0
   10.2701    5.0451   23.6055 H   0  0  0  0  0  0  0  0  0  0  0  0
    9.4442    5.0031   21.9880 H   0  0  0  0  0  0  0  0  0  0  0  0
    7.5152   -2.5456   23.3338 H   0  0  0  0  0  0  0  0  0  0  0  0
    8.7649   -2.9030   22.1434 H   0  0  0  0  0  0  0  0  0  0  0  0
    7.0587   -2.7248   20.5721 H   0  0  0  0  0  0  0  0  0  0  0  0
    5.9518   -1.9952   21.7720 H   0  0  0  0  0  0  0  0  0  0  0  0
    6.8867    0.2641   23.5642 H   0  0  0  0  0  0  0  0  0  0  0  0
    7.6652   -0.8660   24.6733 H   0  0  0  0  0  0  0  0  0  0  0  0
    6.7910    2.5466   22.9097 H   0  0  0  0  0  0  0  0  0  0  0  0
    7.4183    3.6696   21.6851 H   0  0  0  0  0  0  0  0  0  0  0  0
    7.6838    4.3500   25.3607 H   0  0  0  0  0  0  0  0  0  0  0  0
    9.3513    3.7460   25.5050 H   0  0  0  0  0  0  0  0  0  0  0  0
  1 26  1  0  0  0  0
  1 28  3  0  0  0  0
  2  3  1  0  0  0  0
  2  4  2  0  0  0  0
  3  5  2  0  0  0  0
  4 11  1  0  0  0  0
  5 12  1  0  0  0  0
  6  7  1  0  0  0  0
  6 13  2  0  0  0  0
  7 16  2  0  0  0  0
  8 14  2  0  0  0  0
  8 16  1  0  0  0  0
  9 11  2  0  0  0  0
  9 29  1  0  0  0  0
 10 15  1  0  0  0  0
 10 29  2  0  0  0  0
 11 12  1  0  0  0  0
 12 15  2  0  0  0  0
 13 14  1  0  0  0  0
 13 18  1  0  0  0  0
 14 24  1  0  0  0  0
 15 30  1  0  0  0  0
 16 36  1  0  0  0  0
 17 24  1  0  0  0  0
 17 30  1  0  0  0  0
 17 32  2  0  0  0  0
 18 31  1  0  0  0  0
 19 20  1  0  0  0  0
 19 25  1  0  0  0  0
 20 25  1  0  0  0  0
 21 22  1  0  0  0  0
 21 24  1  0  0  0  0
 22 30  1  0  0  0  0
 23 24  1  0  0  0  0
 23 31  1  0  0  0  0
 25 26  1  0  0  0  0
 25 27  1  0  0  0  0
 27 35  1  0  0  0  0
 31 35  1  6  0  0  0
 33 35  2  0  0  0  0
 34 35  2  0  0  0  0
  2 37  1  0  0  0  0
  3 38  1  0  0  0  0
  4 39  1  0  0  0  0
  5 40  1  0  0  0  0
  6 41  1  0  0  0  0
  7 42  1  0  0  0  0
  8 43  1  0  0  0  0
  9 44  1  0  0  0  0
 10 45  1  0  0  0  0
 18 46  1  0  0  0  0
 18 47  1  0  0  0  0
 19 48  1  0  0  0  0
 19 49  1  0  0  0  0
 20 50  1  0  0  0  0
 20 51  1  0  0  0  0
 21 52  1  0  0  0  0
 21 53  1  0  0  0  0
 22 54  1  0  0  0  0
 22 55  1  0  0  0  0
 23 56  1  0  0  0  0
 23 57  1  0  0  0  0
 26 58  1  0  0  0  0
 26 59  1  0  0  0  0
 27 60  1  0  0  0  0
 27 61  1  0  0  0  0
M  END
> <compound>
ALP-POS-ecbed2ba-22

> <compound_smiles>
c1ccc2c(c1)cncc2N3CCC4(C3=O)CN(Cc5c4cc(cc5)Cl)S(=O)(=O)CC6(CC6)CC#N

> <enantiomer_smiles>
c1ccc2c(c1)cncc2N3CCC4(C3=O)C[N@](Cc5c4cc(cc5)Cl)S(=O)(=O)CC6(CC6)CC#N

> <scaffold>
tetrahydroisoquinoline-5spiro-isoquinoline

> <clash_score>
0

> <docking_score>
-8.507349014282227

> <overlap_score>
0.9715456366539001

> <MMFF_internal_energy>
160.94497529556335

> <docked_smiles>
c1ccc2c(c1)cncc2N3CC[C@@]4(C3=O)C[N@](Cc5c4cc(cc5)Cl)S(=O)(=O)CC6(CC6)CC#N

$$$$
ALP-POS-ecbed2ba-8_1
  -OEChem-12272114573D

 61 66  0     1  0  0  0  0  0999 V2000
   10.0103    5.0146   23.8173 C   0  0  0  0  0  0  0  0  0  0  0  0
    3.3432    2.6279   20.4411 C   0  0  0  0  0  0  0  0  0  0  0  0
    3.8960    1.9291   21.5050 C   0  0  0  0  0  0  0  0  0  0  0  0
    3.7865    2.4205   19.1660 C   0  0  0  0  0  0  0  0  0  0  0  0
    4.8973    1.0233   21.2988 C   0  0  0  0  0  0  0  0  0  0  0  0
   12.0765    0.0316   24.1541 C   0  0  0  0  0  0  0  0  0  0  0  0
   12.9132   -0.6032   23.2569 C   0  0  0  0  0  0  0  0  0  0  0  0
   10.9991   -1.4331   22.0443 C   0  0  0  0  0  0  0  0  0  0  0  0
    5.3278    1.2339   17.6066 C   0  0  0  0  0  0  0  0  0  0  0  0
    6.8438   -0.2892   18.3752 C   0  0  0  0  0  0  0  0  0  0  0  0
    4.8226    1.4906   18.9054 C   0  0  0  0  0  0  0  0  0  0  0  0
    5.3982    0.7733   19.9948 C   0  0  0  0  0  0  0  0  0  0  0  0
   10.7040   -0.0625   23.9898 C   0  0  0  0  0  0  0  0  0  0  0  0
   10.1406   -0.7765   22.9250 C   0  0  0  0  0  0  0  0  0  0  0  0
    6.4440   -0.1472   19.6979 C   0  0  0  0  0  0  0  0  0  0  0  0
   12.3683   -1.3298   22.2234 C   0  0  0  0  0  0  0  0  0  0  0  0
    8.2490    0.0169   21.4271 C   0  0  0  0  0  0  0  0  0  0  0  0
    9.9479    0.5589   24.9534 C   0  0  0  0  0  0  0  0  0  0  0  0
    8.1335    7.0384   24.9321 C   0  0  0  0  0  0  0  0  0  0  0  0
    7.6386    5.8742   24.0519 C   0  0  0  0  0  0  0  0  0  0  0  0
    8.8250    5.9945   25.8304 C   0  0  0  0  0  0  0  0  0  0  0  0
    8.0140   -2.1541   22.4331 C   0  0  0  0  0  0  0  0  0  0  0  0
    6.9866   -1.9366   21.3580 C   0  0  0  0  0  0  0  0  0  0  0  0
    7.8721   -0.1194   23.8831 C   0  0  0  0  0  0  0  0  0  0  0  0
    8.7994    5.0058   24.6255 C   0  0  0  0  0  0  0  0  0  0  0  0
    8.6238   -0.7606   22.6929 C   0  0  3  0  0  0  0  0  0  0  0  0
    8.3989    3.5932   24.9882 C   0  0  0  0  0  0  0  0  0  0  0  0
   10.9752    5.0215   23.1731 N   0  0  0  0  0  0  0  0  0  0  0  0
    6.3062    0.3769   17.3421 N   0  0  0  0  0  0  0  0  0  0  0  0
    7.2292   -0.6897   20.7790 N   0  0  0  0  0  0  0  0  0  0  0  0
    8.6609    1.0133   24.4995 N   0  0  1  0  0  0  0  0  0  0  0  0
    8.7572    1.0941   21.1350 O   0  0  0  0  0  0  0  0  0  0  0  0
    7.4179    2.5201   22.8172 O   0  0  0  0  0  0  0  0  0  0  0  0
    9.9251    2.7322   23.0499 O   0  0  0  0  0  0  0  0  0  0  0  0
    8.6198    2.4832   23.6217 S   0  0  0  0  0  0  0  0  0  0  0  0
   13.4275   -2.1421   21.1097 Cl  0  0  0  0  0  0  0  0  0  0  0  0
    2.5432    3.3510   20.6369 H   0  0  0  0  0  0  0  0  0  0  0  0
    3.5174    2.1137   22.5168 H   0  0  0  0  0  0  0  0  0  0  0  0
    3.3409    2.9743   18.3364 H   0  0  0  0  0  0  0  0  0  0  0  0
    5.3118    0.4895   22.1572 H   0  0  0  0  0  0  0  0  0  0  0  0
   12.5015    0.5938   24.9776 H   0  0  0  0  0  0  0  0  0  0  0  0
   13.9911   -0.5212   23.3814 H   0  0  0  0  0  0  0  0  0  0  0  0
   10.6037   -2.0228   21.2288 H   0  0  0  0  0  0  0  0  0  0  0  0
    4.9141    1.7511   16.7474 H   0  0  0  0  0  0  0  0  0  0  0  0
    7.6445   -0.9764   18.1043 H   0  0  0  0  0  0  0  0  0  0  0  0
    9.7581   -0.1287   25.8173 H   0  0  0  0  0  0  0  0  0  0  0  0
   10.4931    1.4391   25.3829 H   0  0  0  0  0  0  0  0  0  0  0  0
    8.8304    7.7128   24.4216 H   0  0  0  0  0  0  0  0  0  0  0  0
    7.3526    7.6335   25.4127 H   0  0  0  0  0  0  0  0  0  0  0  0
    6.6345    5.5254   24.3237 H   0  0  0  0  0  0  0  0  0  0  0  0
    7.6525    6.0664   22.9746 H   0  0  0  0  0  0  0  0  0  0  0  0
    9.8099    6.2853   26.2088 H   0  0  0  0  0  0  0  0  0  0  0  0
    8.2089    5.6851   26.6840 H   0  0  0  0  0  0  0  0  0  0  0  0
    7.5801   -2.6060   23.3366 H   0  0  0  0  0  0  0  0  0  0  0  0
    8.7749   -2.8608   22.0657 H   0  0  0  0  0  0  0  0  0  0  0  0
    7.0227   -2.7506   20.5953 H   0  0  0  0  0  0  0  0  0  0  0  0
    5.9554   -1.9484   21.7832 H   0  0  0  0  0  0  0  0  0  0  0  0
    6.8886    0.2769   23.5666 H   0  0  0  0  0  0  0  0  0  0  0  0
    7.6579   -0.8710   24.6633 H   0  0  0  0  0  0  0  0  0  0  0  0
    7.3445    3.5466   25.2742 H   0  0  0  0  0  0  0  0  0  0  0  0
    9.0072    3.2136   25.8136 H   0  0  0  0  0  0  0  0  0  0  0  0
  1 25  1  0  0  0  0
  1 28  3  0  0  0  0
  2  3  1  0  0  0  0
  2  4  2  0  0  0  0
  3  5  2  0  0  0  0
  4 11  1  0  0  0  0
  5 12  1  0  0  0  0
  6  7  1  0  0  0  0
  6 13  2  0  0  0  0
  7 16  2  0  0  0  0
  8 14  2  0  0  0  0
  8 16  1  0  0  0  0
  9 11  2  0  0  0  0
  9 29  1  0  0  0  0
 10 15  1  0  0  0  0
 10 29  2  0  0  0  0
 11 12  1  0  0  0  0
 12 15  2  0  0  0  0
 13 14  1  0  0  0  0
 13 18  1  0  0  0  0
 14 26  1  0  0  0  0
 15 30  1  0  0  0  0
 16 36  1  0  0  0  0
 17 26  1  0  0  0  0
 17 30  1  0  0  0  0
 17 32  2  0  0  0  0
 18 31  1  0  0  0  0
 19 20  1  0  0  0  0
 19 21  1  0  0  0  0
 20 25  1  0  0  0  0
 21 25  1  0  0  0  0
 22 23  1  0  0  0  0
 22 26  1  0  0  0  0
 23 30  1  0  0  0  0
 24 26  1  0  0  0  0
 24 31  1  0  0  0  0
 25 27  1  0  0  0  0
 27 35  1  0  0  0  0
 31 35  1  1  0  0  0
 33 35  2  0  0  0  0
 34 35  2  0  0  0  0
  2 37  1  0  0  0  0
  3 38  1  0  0  0  0
  4 39  1  0  0  0  0
  5 40  1  0  0  0  0
  6 41  1  0  0  0  0
  7 42  1  0  0  0  0
  8 43  1  0  0  0  0
  9 44  1  0  0  0  0
 10 45  1  0  0  0  0
 18 46  1  0  0  0  0
 18 47  1  0  0  0  0
 19 48  1  0  0  0  0
 19 49  1  0  0  0  0
 20 50  1  0  0  0  0
 20 51  1  0  0  0  0
 21 52  1  0  0  0  0
 21 53  1  0  0  0  0
 22 54  1  0  0  0  0
 22 55  1  0  0  0  0
 23 56  1  0  0  0  0
 23 57  1  0  0  0  0
 24 58  1  0  0  0  0
 24 59  1  0  0  0  0
 27 60  1  0  0  0  0
 27 61  1  0  0  0  0
M  END
> <compound>
ALP-POS-ecbed2ba-8

> <compound_smiles>
c1ccc2c(c1)cncc2N3CCC4(C3=O)CN(Cc5c4cc(cc5)Cl)S(=O)(=O)CC6(CCC6)C#N

> <enantiomer_smiles>
c1ccc2c(c1)cncc2N3CCC4(C3=O)C[N@@](Cc5c4cc(cc5)Cl)S(=O)(=O)CC6(CCC6)C#N

> <scaffold>
tetrahydroisoquinoline-5spiro-isoquinoline

> <clash_score>
0

> <docking_score>
-8.91895580291748

> <overlap_score>
0.9716926217079163

> <MMFF_internal_energy>
97.44578421460645

> <docked_smiles>
c1ccc2c(c1)cncc2N3CC[C@@]4(C3=O)C[N@@](Cc5c4cc(cc5)Cl)S(=O)(=O)CC6(CCC6)C#N

$$$$
MAT-POS-853c0ffa-18_1
  -OEChem-12272114573D

 60 65  0     1  0  0  0  0  0999 V2000
   12.0765    0.0316   24.1541 C   0  0  0  0  0  0  0  0  0  0  0  0
   12.9132   -0.6032   23.2569 C   0  0  0  0  0  0  0  0  0  0  0  0
    3.7865    2.4205   19.1660 C   0  0  0  0  0  0  0  0  0  0  0  0
   10.9991   -1.4331   22.0443 C   0  0  0  0  0  0  0  0  0  0  0  0
    3.8960    1.9291   21.5050 C   0  0  0  0  0  0  0  0  0  0  0  0
    5.3278    1.2339   17.6066 C   0  0  0  0  0  0  0  0  0  0  0  0
    6.8438   -0.2892   18.3752 C   0  0  0  0  0  0  0  0  0  0  0  0
    4.8226    1.4906   18.9054 C   0  0  0  0  0  0  0  0  0  0  0  0
    5.3982    0.7733   19.9948 C   0  0  0  0  0  0  0  0  0  0  0  0
   10.7040   -0.0625   23.9898 C   0  0  0  0  0  0  0  0  0  0  0  0
   10.1406   -0.7765   22.9250 C   0  0  0  0  0  0  0  0  0  0  0  0
    6.4440   -0.1472   19.6979 C   0  0  0  0  0  0  0  0  0  0  0  0
    3.3432    2.6279   20.4411 C   0  0  0  0  0  0  0  0  0  0  0  0
   12.3683   -1.3298   22.2234 C   0  0  0  0  0  0  0  0  0  0  0  0
    4.8973    1.0233   21.2988 C   0  0  0  0  0  0  0  0  0  0  0  0
    8.2490    0.0169   21.4271 C   0  0  0  0  0  0  0  0  0  0  0  0
    9.9479    0.5589   24.9534 C   0  0  0  0  0  0  0  0  0  0  0  0
    9.6162    5.7503   24.2277 C   0  0  0  0  0  0  0  0  0  0  0  0
    8.8345    6.1030   25.4609 C   0  0  0  0  0  0  0  0  0  0  0  0
    8.0140   -2.1541   22.4331 C   0  0  0  0  0  0  0  0  0  0  0  0
    6.9866   -1.9366   21.3580 C   0  0  0  0  0  0  0  0  0  0  0  0
    7.8721   -0.1194   23.8831 C   0  0  0  0  0  0  0  0  0  0  0  0
    8.6238   -0.7606   22.6929 C   0  0  3  0  0  0  0  0  0  0  0  0
    8.3214    5.0316   24.5273 C   0  0  0  0  0  0  0  0  0  0  0  0
    7.1236    5.3522   23.6762 C   0  0  0  0  0  0  0  0  0  0  0  0
    8.3989    3.5932   24.9882 C   0  0  0  0  0  0  0  0  0  0  0  0
    6.3062    0.3769   17.3421 N   0  0  0  0  0  0  0  0  0  0  0  0
    7.2292   -0.6897   20.7790 N   0  0  0  0  0  0  0  0  0  0  0  0
    8.6609    1.0133   24.4995 N   0  0  2  0  0  0  0  0  0  0  0  0
    8.7572    1.0941   21.1350 O   0  0  0  0  0  0  0  0  0  0  0  0
    7.4179    2.5201   22.8172 O   0  0  0  0  0  0  0  0  0  0  0  0
    9.9251    2.7322   23.0499 O   0  0  0  0  0  0  0  0  0  0  0  0
    2.3578    3.5185   20.6801 F   0  0  0  0  0  0  0  0  0  0  0  0
    8.6198    2.4832   23.6217 S   0  0  0  0  0  0  0  0  0  0  0  0
   13.4275   -2.1421   21.1097 Cl  0  0  0  0  0  0  0  0  0  0  0  0
    5.4641    0.2478   22.7523 Cl  0  0  0  0  0  0  0  0  0  0  0  0
   12.5015    0.5938   24.9776 H   0  0  0  0  0  0  0  0  0  0  0  0
   13.9911   -0.5212   23.3814 H   0  0  0  0  0  0  0  0  0  0  0  0
    3.3399    2.9748   18.3374 H   0  0  0  0  0  0  0  0  0  0  0  0
   10.6037   -2.0228   21.2288 H   0  0  0  0  0  0  0  0  0  0  0  0
    3.4981    2.1315   22.5077 H   0  0  0  0  0  0  0  0  0  0  0  0
    4.9136    1.7513   16.7477 H   0  0  0  0  0  0  0  0  0  0  0  0
    7.6458   -0.9737   18.1006 H   0  0  0  0  0  0  0  0  0  0  0  0
    9.7581   -0.1287   25.8173 H   0  0  0  0  0  0  0  0  0  0  0  0
   10.4931    1.4391   25.3829 H   0  0  0  0  0  0  0  0  0  0  0  0
    9.6341    6.4725   23.4201 H   0  0  0  0  0  0  0  0  0  0  0  0
   10.5494    5.2157   24.3596 H   0  0  0  0  0  0  0  0  0  0  0  0
    9.2443    5.8046   26.4185 H   0  0  0  0  0  0  0  0  0  0  0  0
    8.3290    7.0613   25.4790 H   0  0  0  0  0  0  0  0  0  0  0  0
    7.5801   -2.6060   23.3366 H   0  0  0  0  0  0  0  0  0  0  0  0
    8.7749   -2.8608   22.0657 H   0  0  0  0  0  0  0  0  0  0  0  0
    7.0227   -2.7506   20.5953 H   0  0  0  0  0  0  0  0  0  0  0  0
    5.9554   -1.9484   21.7832 H   0  0  0  0  0  0  0  0  0  0  0  0
    6.8886    0.2769   23.5666 H   0  0  0  0  0  0  0  0  0  0  0  0
    7.6579   -0.8710   24.6633 H   0  0  0  0  0  0  0  0  0  0  0  0
    6.2503    4.7682   23.9918 H   0  0  0  0  0  0  0  0  0  0  0  0
    7.3194    5.1238   22.6214 H   0  0  0  0  0  0  0  0  0  0  0  0
    6.8636    6.4153   23.7493 H   0  0  0  0  0  0  0  0  0  0  0  0
    7.4792    3.2960   25.4995 H   0  0  0  0  0  0  0  0  0  0  0  0
    9.2447    3.4440   25.6648 H   0  0  0  0  0  0  0  0  0  0  0  0
  1  2  2  0  0  0  0
  1 10  1  0  0  0  0
  2 14  1  0  0  0  0
  3  8  1  0  0  0  0
  3 13  2  0  0  0  0
  4 11  1  0  0  0  0
  4 14  2  0  0  0  0
  5 13  1  0  0  0  0
  5 15  2  0  0  0  0
  6  8  2  0  0  0  0
  6 27  1  0  0  0  0
  7 12  1  0  0  0  0
  7 27  2  0  0  0  0
  8  9  1  0  0  0  0
  9 12  2  0  0  0  0
  9 15  1  0  0  0  0
 10 11  2  0  0  0  0
 10 17  1  0  0  0  0
 11 23  1  0  0  0  0
 12 28  1  0  0  0  0
 13 33  1  0  0  0  0
 14 35  1  0  0  0  0
 15 36  1  0  0  0  0
 16 23  1  0  0  0  0
 16 28  1  0  0  0  0
 16 30  2  0  0  0  0
 17 29  1  0  0  0  0
 18 19  1  0  0  0  0
 18 24  1  0  0  0  0
 19 24  1  0  0  0  0
 20 21  1  0  0  0  0
 20 23  1  0  0  0  0
 21 28  1  0  0  0  0
 22 23  1  0  0  0  0
 22 29  1  0  0  0  0
 24 25  1  0  0  0  0
 24 26  1  0  0  0  0
 26 34  1  0  0  0  0
 29 34  1  1  0  0  0
 31 34  2  0  0  0  0
 32 34  2  0  0  0  0
  1 37  1  0  0  0  0
  2 38  1  0  0  0  0
  3 39  1  0  0  0  0
  4 40  1  0  0  0  0
  5 41  1  0  0  0  0
  6 42  1  0  0  0  0
  7 43  1  0  0  0  0
 17 44  1  0  0  0  0
 17 45  1  0  0  0  0
 18 46  1  0  0  0  0
 18 47  1  0  0  0  0
 19 48  1  0  0  0  0
 19 49  1  0  0  0  0
 20 50  1  0  0  0  0
 20 51  1  0  0  0  0
 21 52  1  0  0  0  0
 21 53  1  0  0  0  0
 22 54  1  0  0  0  0
 22 55  1  0  0  0  0
 25 56  1  0  0  0  0
 25 57  1  0  0  0  0
 25 58  1  0  0  0  0
 26 59  1  0  0  0  0
 26 60  1  0  0  0  0
M  END
> <compound>
MAT-POS-853c0ffa-18

> <compound_smiles>
CC1(CC1)CS(=O)(=O)N2Cc3ccc(cc3C4(C2)CCN(C4=O)c5cncc6c5c(cc(c6)F)Cl)Cl

> <enantiomer_smiles>
CC1(CC1)CS(=O)(=O)[N@@]2Cc3ccc(cc3C4(C2)CCN(C4=O)c5cncc6c5c(cc(c6)F)Cl)Cl

> <scaffold>
tetrahydroisoquinoline-5spiro-isoquinoline

> <clash_score>
0

> <docking_score>
-9.265778541564941

> <overlap_score>
1.0

> <MMFF_internal_energy>
218.55396981978473

> <docked_smiles>
CC1(CC1)CS(=O)(=O)[N@@]2Cc3ccc(cc3[C@]4(C2)CCN(C4=O)c5cncc6c5c(cc(c6)F)Cl)Cl

$$$$
ALP-POS-ecbed2ba-5_2
  -OEChem-12272114573D

 60 65  0     1  0  0  0  0  0999 V2000
    3.3432    2.6279   20.4411 C   0  0  0  0  0  0  0  0  0  0  0  0
    3.8960    1.9291   21.5050 C   0  0  0  0  0  0  0  0  0  0  0  0
    3.7865    2.4205   19.1660 C   0  0  0  0  0  0  0  0  0  0  0  0
    4.8973    1.0233   21.2988 C   0  0  0  0  0  0  0  0  0  0  0  0
   12.0765    0.0316   24.1541 C   0  0  0  0  0  0  0  0  0  0  0  0
   12.9132   -0.6032   23.2569 C   0  0  0  0  0  0  0  0  0  0  0  0
   10.9991   -1.4331   22.0443 C   0  0  0  0  0  0  0  0  0  0  0  0
    5.3278    1.2339   17.6066 C   0  0  0  0  0  0  0  0  0  0  0  0
    6.8438   -0.2892   18.3752 C   0  0  0  0  0  0  0  0  0  0  0  0
    4.8226    1.4906   18.9054 C   0  0  0  0  0  0  0  0  0  0  0  0
    5.3982    0.7733   19.9948 C   0  0  0  0  0  0  0  0  0  0  0  0
   10.7040   -0.0625   23.9898 C   0  0  0  0  0  0  0  0  0  0  0  0
   10.1406   -0.7765   22.9250 C   0  0  0  0  0  0  0  0  0  0  0  0
    6.4440   -0.1472   19.6979 C   0  0  0  0  0  0  0  0  0  0  0  0
   12.3683   -1.3298   22.2234 C   0  0  0  0  0  0  0  0  0  0  0  0
    8.2490    0.0169   21.4271 C   0  0  0  0  0  0  0  0  0  0  0  0
    9.9479    0.5589   24.9534 C   0  0  0  0  0  0  0  0  0  0  0  0
    8.0140   -2.1541   22.4331 C   0  0  0  0  0  0  0  0  0  0  0  0
    6.9866   -1.9366   21.3580 C   0  0  0  0  0  0  0  0  0  0  0  0
    7.8721   -0.1194   23.8831 C   0  0  0  0  0  0  0  0  0  0  0  0
    7.2332    3.3893   22.6917 C   0  0  0  0  0  0  0  0  0  0  0  0
    8.7315    5.0404   22.8838 C   0  0  0  0  0  0  0  0  0  0  0  0
    8.5342    3.6315   23.4977 C   0  0  0  0  0  0  0  0  0  0  0  0
    8.6238   -0.7606   22.6929 C   0  0  3  0  0  0  0  0  0  0  0  0
    8.3874    3.5882   25.0137 C   0  0  0  0  0  0  0  0  0  0  0  0
    6.3062    0.3769   17.3421 N   0  0  0  0  0  0  0  0  0  0  0  0
    7.2292   -0.6897   20.7790 N   0  0  0  0  0  0  0  0  0  0  0  0
    8.6609    1.0133   24.4995 N   0  0  2  0  0  0  0  0  0  0  0  0
    8.8299    1.0397   21.0799 O   0  0  0  0  0  0  0  0  0  0  0  0
    6.8365    5.4558   21.0592 O   0  0  0  0  0  0  0  0  0  0  0  0
    6.2298    5.7210   23.5149 O   0  0  0  0  0  0  0  0  0  0  0  0
    8.2407    1.8013   26.9144 O   0  0  0  0  0  0  0  0  0  0  0  0
    6.3653    1.9471   25.2271 O   0  0  0  0  0  0  0  0  0  0  0  0
    7.0192    5.1274   22.4568 S   0  0  0  0  0  0  0  0  0  0  0  0
    7.7708    2.0177   25.5632 S   0  0  0  0  0  0  0  0  0  0  0  0
   13.4272   -2.1411   21.1086 Cl  0  0  0  0  0  0  0  0  0  0  0  0
    2.5432    3.3510   20.6369 H   0  0  0  0  0  0  0  0  0  0  0  0
    3.5174    2.1137   22.5168 H   0  0  0  0  0  0  0  0  0  0  0  0
    3.3409    2.9743   18.3364 H   0  0  0  0  0  0  0  0  0  0  0  0
    5.3118    0.4895   22.1572 H   0  0  0  0  0  0  0  0  0  0  0  0
   12.5024    0.5995   24.9735 H   0  0  0  0  0  0  0  0  0  0  0  0
   13.9910   -0.5177   23.3793 H   0  0  0  0  0  0  0  0  0  0  0  0
   10.6036   -2.0162   21.2241 H   0  0  0  0  0  0  0  0  0  0  0  0
    4.9141    1.7511   16.7474 H   0  0  0  0  0  0  0  0  0  0  0  0
    7.6445   -0.9764   18.1043 H   0  0  0  0  0  0  0  0  0  0  0  0
    9.7849   -0.1194   25.8306 H   0  0  0  0  0  0  0  0  0  0  0  0
   10.4793    1.4568   25.3613 H   0  0  0  0  0  0  0  0  0  0  0  0
    7.5152   -2.5456   23.3338 H   0  0  0  0  0  0  0  0  0  0  0  0
    8.7649   -2.9030   22.1434 H   0  0  0  0  0  0  0  0  0  0  0  0
    7.0587   -2.7248   20.5721 H   0  0  0  0  0  0  0  0  0  0  0  0
    5.9518   -1.9952   21.7720 H   0  0  0  0  0  0  0  0  0  0  0  0
    6.8867    0.2641   23.5642 H   0  0  0  0  0  0  0  0  0  0  0  0
    7.6652   -0.8660   24.6733 H   0  0  0  0  0  0  0  0  0  0  0  0
    7.3617    2.8263   21.7568 H   0  0  0  0  0  0  0  0  0  0  0  0
    6.4029    2.9432   23.2600 H   0  0  0  0  0  0  0  0  0  0  0  0
    9.0211    5.8283   23.5956 H   0  0  0  0  0  0  0  0  0  0  0  0
    9.4086    5.0817   22.0192 H   0  0  0  0  0  0  0  0  0  0  0  0
    9.3374    2.9380   23.1947 H   0  0  0  0  0  0  0  0  0  0  0  0
    7.6838    4.3500   25.3607 H   0  0  0  0  0  0  0  0  0  0  0  0
    9.3513    3.7460   25.5050 H   0  0  0  0  0  0  0  0  0  0  0  0
  1  2  1  0  0  0  0
  1  3  2  0  0  0  0
  2  4  2  0  0  0  0
  3 10  1  0  0  0  0
  4 11  1  0  0  0  0
  5  6  1  0  0  0  0
  5 12  2  0  0  0  0
  6 15  2  0  0  0  0
  7 13  2  0  0  0  0
  7 15  1  0  0  0  0
  8 10  2  0  0  0  0
  8 26  1  0  0  0  0
  9 14  1  0  0  0  0
  9 26  2  0  0  0  0
 10 11  1  0  0  0  0
 11 14  2  0  0  0  0
 12 13  1  0  0  0  0
 12 17  1  0  0  0  0
 13 24  1  0  0  0  0
 14 27  1  0  0  0  0
 15 36  1  0  0  0  0
 16 24  1  0  0  0  0
 16 27  1  0  0  0  0
 16 29  2  0  0  0  0
 17 28  1  0  0  0  0
 18 19  1  0  0  0  0
 18 24  1  0  0  0  0
 19 27  1  0  0  0  0
 20 24  1  0  0  0  0
 20 28  1  0  0  0  0
 21 23  1  0  0  0  0
 21 34  1  0  0  0  0
 22 23  1  0  0  0  0
 22 34  1  0  0  0  0
 23 25  1  0  0  0  0
 25 35  1  0  0  0  0
 28 35  1  6  0  0  0
 30 34  2  0  0  0  0
 31 34  2  0  0  0  0
 32 35  2  0  0  0  0
 33 35  2  0  0  0  0
  1 37  1  0  0  0  0
  2 38  1  0  0  0  0
  3 39  1  0  0  0  0
  4 40  1  0  0  0  0
  5 41  1  0  0  0  0
  6 42  1  0  0  0  0
  7 43  1  0  0  0  0
  8 44  1  0  0  0  0
  9 45  1  0  0  0  0
 17 46  1  0  0  0  0
 17 47  1  0  0  0  0
 18 48  1  0  0  0  0
 18 49  1  0  0  0  0
 19 50  1  0  0  0  0
 19 51  1  0  0  0  0
 20 52  1  0  0  0  0
 20 53  1  0  0  0  0
 21 54  1  0  0  0  0
 21 55  1  0  0  0  0
 22 56  1  0  0  0  0
 22 57  1  0  0  0  0
 23 58  1  0  0  0  0
 25 59  1  0  0  0  0
 25 60  1  0  0  0  0
M  END
> <compound>
ALP-POS-ecbed2ba-5

> <compound_smiles>
c1ccc2c(c1)cncc2N3CCC4(C3=O)CN(Cc5c4cc(cc5)Cl)S(=O)(=O)CC6CS(=O)(=O)C6

> <enantiomer_smiles>
c1ccc2c(c1)cncc2N3CCC4(C3=O)C[N@](Cc5c4cc(cc5)Cl)S(=O)(=O)CC6CS(=O)(=O)C6

> <scaffold>
tetrahydroisoquinoline-5spiro-isoquinoline

> <clash_score>
0

> <docking_score>
-8.566973686218262

> <overlap_score>
0.9704814553260803

> <MMFF_internal_energy>
84.88127215716409

> <docked_smiles>
c1ccc2c(c1)cncc2N3CC[C@@]4(C3=O)C[N@](Cc5c4cc(cc5)Cl)S(=O)(=O)CC6CS(=O)(=O)C6

$$$$
EDG-MED-b6bce001-2_1
  -OEChem-12272114573D

 59 64  0     1  0  0  0  0  0999 V2000
    9.4865    5.5229   23.8102 C   0  0  0  0  0  0  0  0  0  0  0  0
    3.3432    2.6279   20.4411 C   0  0  0  0  0  0  0  0  0  0  0  0
    3.8960    1.9291   21.5050 C   0  0  0  0  0  0  0  0  0  0  0  0
    3.7865    2.4205   19.1660 C   0  0  0  0  0  0  0  0  0  0  0  0
    4.8973    1.0233   21.2988 C   0  0  0  0  0  0  0  0  0  0  0  0
   12.0765    0.0316   24.1541 C   0  0  0  0  0  0  0  0  0  0  0  0
   12.9132   -0.6032   23.2569 C   0  0  0  0  0  0  0  0  0  0  0  0
   10.9991   -1.4331   22.0443 C   0  0  0  0  0  0  0  0  0  0  0  0
    5.3278    1.2339   17.6066 C   0  0  0  0  0  0  0  0  0  0  0  0
    6.8438   -0.2892   18.3752 C   0  0  0  0  0  0  0  0  0  0  0  0
    4.8226    1.4906   18.9054 C   0  0  0  0  0  0  0  0  0  0  0  0
    5.3982    0.7733   19.9948 C   0  0  0  0  0  0  0  0  0  0  0  0
   10.7040   -0.0625   23.9898 C   0  0  0  0  0  0  0  0  0  0  0  0
   10.1406   -0.7765   22.9250 C   0  0  0  0  0  0  0  0  0  0  0  0
    6.4440   -0.1472   19.6979 C   0  0  0  0  0  0  0  0  0  0  0  0
   12.3683   -1.3298   22.2234 C   0  0  0  0  0  0  0  0  0  0  0  0
    8.2490    0.0169   21.4271 C   0  0  0  0  0  0  0  0  0  0  0  0
    6.9866   -1.9366   21.3580 C   0  0  0  0  0  0  0  0  0  0  0  0
    9.9479    0.5589   24.9534 C   0  0  0  0  0  0  0  0  0  0  0  0
    7.5585    6.0305   25.3533 C   0  0  0  0  0  0  0  0  0  0  0  0
    6.9773    5.5679   24.0499 C   0  0  0  0  0  0  0  0  0  0  0  0
    7.8721   -0.1194   23.8831 C   0  0  0  0  0  0  0  0  0  0  0  0
    8.3200    5.0391   24.5023 C   0  0  0  0  0  0  0  0  0  0  0  0
    8.6238   -0.7606   22.6929 C   0  0  3  0  0  0  0  0  0  0  0  0
    6.0609   -2.9404   21.0868 C   0  0  0  0  0  0  0  0  0  0  0  0
    8.3973    3.6052   24.9769 C   0  0  0  0  0  0  0  0  0  0  0  0
   10.4264    5.9127   23.2527 N   0  0  0  0  0  0  0  0  0  0  0  0
    6.3062    0.3769   17.3421 N   0  0  0  0  0  0  0  0  0  0  0  0
    7.2292   -0.6897   20.7790 N   0  0  0  0  0  0  0  0  0  0  0  0
    8.6609    1.0133   24.4995 N   0  0  1  0  0  0  0  0  0  0  0  0
    8.0140   -2.1541   22.4331 N   0  3  0  0  0  0  0  0  0  0  0  0
    8.7252    1.0938   21.0622 O   0  0  0  0  0  0  0  0  0  0  0  0
    7.4248    2.5274   22.8045 O   0  0  0  0  0  0  0  0  0  0  0  0
    9.9320    2.7110   23.0605 O   0  0  0  0  0  0  0  0  0  0  0  0
    8.6181    2.4821   23.6212 S   0  0  0  0  0  0  0  0  0  0  0  0
   13.4267   -2.1419   21.1090 Cl  0  0  0  0  0  0  0  0  0  0  0  0
    2.5431    3.3512   20.6364 H   0  0  0  0  0  0  0  0  0  0  0  0
    3.5171    2.1134   22.5167 H   0  0  0  0  0  0  0  0  0  0  0  0
    3.3416    2.9753   18.3366 H   0  0  0  0  0  0  0  0  0  0  0  0
    5.3142    0.4868   22.1546 H   0  0  0  0  0  0  0  0  0  0  0  0
   12.5015    0.5931   24.9788 H   0  0  0  0  0  0  0  0  0  0  0  0
   13.9908   -0.5221   23.3826 H   0  0  0  0  0  0  0  0  0  0  0  0
   10.6026   -2.0213   21.2271 H   0  0  0  0  0  0  0  0  0  0  0  0
    4.9137    1.7514   16.7476 H   0  0  0  0  0  0  0  0  0  0  0  0
    7.6454   -0.9762   18.1080 H   0  0  0  0  0  0  0  0  0  0  0  0
    9.7589   -0.1299   25.8164 H   0  0  0  0  0  0  0  0  0  0  0  0
   10.4936    1.4384   25.3836 H   0  0  0  0  0  0  0  0  0  0  0  0
    7.9114    7.0541   25.4105 H   0  0  0  0  0  0  0  0  0  0  0  0
    7.0906    5.6788   26.2655 H   0  0  0  0  0  0  0  0  0  0  0  0
    6.1193    4.9068   24.0892 H   0  0  0  0  0  0  0  0  0  0  0  0
    6.9406    6.2825   23.2354 H   0  0  0  0  0  0  0  0  0  0  0  0
    6.8899    0.2699   23.5598 H   0  0  0  0  0  0  0  0  0  0  0  0
    7.6711   -0.8810   24.6566 H   0  0  0  0  0  0  0  0  0  0  0  0
    6.4452   -3.6541   20.3413 H   0  0  0  0  0  0  0  0  0  0  0  0
    5.1379   -2.4981   20.6795 H   0  0  0  0  0  0  0  0  0  0  0  0
    5.7783   -3.5148   21.9833 H   0  0  0  0  0  0  0  0  0  0  0  0
    7.4775    3.3130   25.4910 H   0  0  0  0  0  0  0  0  0  0  0  0
    9.2430    3.4624   25.6550 H   0  0  0  0  0  0  0  0  0  0  0  0
    8.1670   -2.9985   22.7739 H   0  0  0  0  0  0  0  0  0  0  0  0
  1 23  1  0  0  0  0
  1 27  3  0  0  0  0
  2  3  1  0  0  0  0
  2  4  2  0  0  0  0
  3  5  2  0  0  0  0
  4 11  1  0  0  0  0
  5 12  1  0  0  0  0
  6  7  1  0  0  0  0
  6 13  2  0  0  0  0
  7 16  2  0  0  0  0
  8 14  2  0  0  0  0
  8 16  1  0  0  0  0
  9 11  2  0  0  0  0
  9 28  1  0  0  0  0
 10 15  1  0  0  0  0
 10 28  2  0  0  0  0
 11 12  1  0  0  0  0
 12 15  2  0  0  0  0
 13 14  1  0  0  0  0
 13 19  1  0  0  0  0
 14 24  1  0  0  0  0
 15 29  1  0  0  0  0
 16 36  1  0  0  0  0
 17 24  1  0  0  0  0
 17 29  1  0  0  0  0
 17 32  2  0  0  0  0
 18 25  1  0  0  0  0
 18 29  1  0  0  0  0
 18 31  2  0  0  0  0
 19 30  1  0  0  0  0
 20 21  1  0  0  0  0
 20 23  1  0  0  0  0
 21 23  1  0  0  0  0
 22 24  1  0  0  0  0
 22 30  1  0  0  0  0
 23 26  1  0  0  0  0
 24 31  1  0  0  0  0
 26 35  1  0  0  0  0
 30 35  1  1  0  0  0
 33 35  2  0  0  0  0
 34 35  2  0  0  0  0
  2 37  1  0  0  0  0
  3 38  1  0  0  0  0
  4 39  1  0  0  0  0
  5 40  1  0  0  0  0
  6 41  1  0  0  0  0
  7 42  1  0  0  0  0
  8 43  1  0  0  0  0
  9 44  1  0  0  0  0
 10 45  1  0  0  0  0
 19 46  1  0  0  0  0
 19 47  1  0  0  0  0
 20 48  1  0  0  0  0
 20 49  1  0  0  0  0
 21 50  1  0  0  0  0
 21 51  1  0  0  0  0
 22 52  1  0  0  0  0
 22 53  1  0  0  0  0
 25 54  1  0  0  0  0
 25 55  1  0  0  0  0
 25 56  1  0  0  0  0
 26 57  1  0  0  0  0
 26 58  1  0  0  0  0
 31 59  1  0  0  0  0
M  CHG  1  31   1
M  END
> <compound>
EDG-MED-b6bce001-2

> <compound_smiles>
CC1=NC2(CN(Cc3c2cc(cc3)Cl)S(=O)(=O)CC4(CC4)C#N)C(=O)N1c5cncc6c5cccc6

> <enantiomer_smiles>
CC1=NC2(C[N@@](Cc3c2cc(cc3)Cl)S(=O)(=O)CC4(CC4)C#N)C(=O)N1c5cncc6c5cccc6

> <scaffold>
tetrahydroisoquinoline-5spiro-isoquinoline

> <clash_score>
0

> <docking_score>
-6.967922210693359

> <overlap_score>
1.0

> <MMFF_internal_energy>
189.37555043762777

> <docked_smiles>
CC1=[NH+][C@]2(C[N@@](Cc3c2cc(cc3)Cl)S(=O)(=O)CC4(CC4)C#N)C(=O)N1c5cncc6c5cccc6

$$$$
MAT-POS-1d5ab790-1_1
  -OEChem-12272114573D

 58 63  0     1  0  0  0  0  0999 V2000
    9.9899    5.1222   23.8236 C   0  0  0  0  0  0  0  0  0  0  0  0
    3.3432    2.6279   20.4411 C   0  0  0  0  0  0  0  0  0  0  0  0
    3.7865    2.4205   19.1660 C   0  0  0  0  0  0  0  0  0  0  0  0
   12.0765    0.0316   24.1541 C   0  0  0  0  0  0  0  0  0  0  0  0
    3.8960    1.9291   21.5050 C   0  0  0  0  0  0  0  0  0  0  0  0
   12.9132   -0.6032   23.2569 C   0  0  0  0  0  0  0  0  0  0  0  0
   10.9991   -1.4331   22.0443 C   0  0  0  0  0  0  0  0  0  0  0  0
    5.3278    1.2339   17.6066 C   0  0  0  0  0  0  0  0  0  0  0  0
    6.8438   -0.2892   18.3752 C   0  0  0  0  0  0  0  0  0  0  0  0
    4.8226    1.4906   18.9054 C   0  0  0  0  0  0  0  0  0  0  0  0
    5.3982    0.7733   19.9948 C   0  0  0  0  0  0  0  0  0  0  0  0
   10.7040   -0.0625   23.9898 C   0  0  0  0  0  0  0  0  0  0  0  0
   10.1406   -0.7765   22.9250 C   0  0  0  0  0  0  0  0  0  0  0  0
    6.4440   -0.1472   19.6979 C   0  0  0  0  0  0  0  0  0  0  0  0
   12.3683   -1.3298   22.2234 C   0  0  0  0  0  0  0  0  0  0  0  0
    4.8973    1.0233   21.2988 C   0  0  0  0  0  0  0  0  0  0  0  0
    8.2490    0.0169   21.4271 C   0  0  0  0  0  0  0  0  0  0  0  0
    9.9479    0.5589   24.9534 C   0  0  0  0  0  0  0  0  0  0  0  0
    8.5324    6.1021   25.6323 C   0  0  0  0  0  0  0  0  0  0  0  0
    7.7014    6.0179   24.3861 C   0  0  0  0  0  0  0  0  0  0  0  0
    8.0140   -2.1541   22.4331 C   0  0  0  0  0  0  0  0  0  0  0  0
    6.9866   -1.9366   21.3580 C   0  0  0  0  0  0  0  0  0  0  0  0
    7.8721   -0.1194   23.8831 C   0  0  0  0  0  0  0  0  0  0  0  0
    8.7994    5.0058   24.6255 C   0  0  0  0  0  0  0  0  0  0  0  0
    8.6238   -0.7606   22.6929 C   0  0  3  0  0  0  0  0  0  0  0  0
    8.3989    3.5932   24.9882 C   0  0  0  0  0  0  0  0  0  0  0  0
   10.9490    5.2161   23.1776 N   0  0  0  0  0  0  0  0  0  0  0  0
    6.3062    0.3769   17.3421 N   0  0  0  0  0  0  0  0  0  0  0  0
    7.2292   -0.6897   20.7790 N   0  0  0  0  0  0  0  0  0  0  0  0
    8.6609    1.0133   24.4995 N   0  0  1  0  0  0  0  0  0  0  0  0
    8.7572    1.0941   21.1350 O   0  0  0  0  0  0  0  0  0  0  0  0
    7.4179    2.5201   22.8172 O   0  0  0  0  0  0  0  0  0  0  0  0
    9.9251    2.7322   23.0499 O   0  0  0  0  0  0  0  0  0  0  0  0
    8.6198    2.4832   23.6217 S   0  0  0  0  0  0  0  0  0  0  0  0
   13.4275   -2.1421   21.1097 Cl  0  0  0  0  0  0  0  0  0  0  0  0
    5.4623    0.2453   22.7515 Cl  0  0  0  0  0  0  0  0  0  0  0  0
    2.5425    3.3507   20.6372 H   0  0  0  0  0  0  0  0  0  0  0  0
    3.3401    2.9737   18.3362 H   0  0  0  0  0  0  0  0  0  0  0  0
   12.5015    0.5938   24.9776 H   0  0  0  0  0  0  0  0  0  0  0  0
    3.4992    2.1328   22.5080 H   0  0  0  0  0  0  0  0  0  0  0  0
   13.9911   -0.5212   23.3814 H   0  0  0  0  0  0  0  0  0  0  0  0
   10.6037   -2.0228   21.2288 H   0  0  0  0  0  0  0  0  0  0  0  0
    4.9135    1.7511   16.7477 H   0  0  0  0  0  0  0  0  0  0  0  0
    7.6449   -0.9747   18.1006 H   0  0  0  0  0  0  0  0  0  0  0  0
    9.7581   -0.1287   25.8173 H   0  0  0  0  0  0  0  0  0  0  0  0
   10.4931    1.4391   25.3829 H   0  0  0  0  0  0  0  0  0  0  0  0
    9.2347    6.9241   25.7129 H   0  0  0  0  0  0  0  0  0  0  0  0
    8.0587    5.8395   26.5712 H   0  0  0  0  0  0  0  0  0  0  0  0
    6.6706    5.6996   24.4905 H   0  0  0  0  0  0  0  0  0  0  0  0
    7.8473    6.7843   23.6333 H   0  0  0  0  0  0  0  0  0  0  0  0
    7.5801   -2.6060   23.3366 H   0  0  0  0  0  0  0  0  0  0  0  0
    8.7749   -2.8608   22.0657 H   0  0  0  0  0  0  0  0  0  0  0  0
    7.0227   -2.7506   20.5953 H   0  0  0  0  0  0  0  0  0  0  0  0
    5.9554   -1.9484   21.7832 H   0  0  0  0  0  0  0  0  0  0  0  0
    6.8886    0.2769   23.5666 H   0  0  0  0  0  0  0  0  0  0  0  0
    7.6579   -0.8710   24.6633 H   0  0  0  0  0  0  0  0  0  0  0  0
    7.3445    3.5466   25.2742 H   0  0  0  0  0  0  0  0  0  0  0  0
    9.0072    3.2136   25.8136 H   0  0  0  0  0  0  0  0  0  0  0  0
  1 24  1  0  0  0  0
  1 27  3  0  0  0  0
  2  3  1  0  0  0  0
  2  5  2  0  0  0  0
  3 10  2  0  0  0  0
  4  6  1  0  0  0  0
  4 12  2  0  0  0  0
  5 16  1  0  0  0  0
  6 15  2  0  0  0  0
  7 13  2  0  0  0  0
  7 15  1  0  0  0  0
  8 10  1  0  0  0  0
  8 28  2  0  0  0  0
  9 14  2  0  0  0  0
  9 28  1  0  0  0  0
 10 11  1  0  0  0  0
 11 14  1  0  0  0  0
 11 16  2  0  0  0  0
 12 13  1  0  0  0  0
 12 18  1  0  0  0  0
 13 25  1  0  0  0  0
 14 29  1  0  0  0  0
 15 35  1  0  0  0  0
 16 36  1  0  0  0  0
 17 25  1  0  0  0  0
 17 29  1  0  0  0  0
 17 31  2  0  0  0  0
 18 30  1  0  0  0  0
 19 20  1  0  0  0  0
 19 24  1  0  0  0  0
 20 24  1  0  0  0  0
 21 22  1  0  0  0  0
 21 25  1  0  0  0  0
 22 29  1  0  0  0  0
 23 25  1  0  0  0  0
 23 30  1  0  0  0  0
 24 26  1  0  0  0  0
 26 34  1  0  0  0  0
 30 34  1  1  0  0  0
 32 34  2  0  0  0  0
 33 34  2  0  0  0  0
  2 37  1  0  0  0  0
  3 38  1  0  0  0  0
  4 39  1  0  0  0  0
  5 40  1  0  0  0  0
  6 41  1  0  0  0  0
  7 42  1  0  0  0  0
  8 43  1  0  0  0  0
  9 44  1  0  0  0  0
 18 45  1  0  0  0  0
 18 46  1  0  0  0  0
 19 47  1  0  0  0  0
 19 48  1  0  0  0  0
 20 49  1  0  0  0  0
 20 50  1  0  0  0  0
 21 51  1  0  0  0  0
 21 52  1  0  0  0  0
 22 53  1  0  0  0  0
 22 54  1  0  0  0  0
 23 55  1  0  0  0  0
 23 56  1  0  0  0  0
 26 57  1  0  0  0  0
 26 58  1  0  0  0  0
M  END
> <compound>
MAT-POS-1d5ab790-1

> <compound_smiles>
c1cc2cncc(c2c(c1)Cl)N3CCC4(C3=O)CN(Cc5c4cc(cc5)Cl)S(=O)(=O)CC6(CC6)C#N

> <enantiomer_smiles>
c1cc2cncc(c2c(c1)Cl)N3CCC4(C3=O)C[N@@](Cc5c4cc(cc5)Cl)S(=O)(=O)CC6(CC6)C#N

> <scaffold>
tetrahydroisoquinoline-5spiro-isoquinoline

> <clash_score>
0

> <docking_score>
-9.438352584838867

> <overlap_score>
0.9807805418968201

> <MMFF_internal_energy>
214.8685440019758

> <docked_smiles>
c1cc2cncc(c2c(c1)Cl)N3CC[C@@]4(C3=O)C[N@@](Cc5c4cc(cc5)Cl)S(=O)(=O)CC6(CC6)C#N

$$$$
EDG-MED-b6bce001-2_2
  -OEChem-12272114573D

 59 64  0     1  0  0  0  0  0999 V2000
    7.3003    3.4501   22.7910 C   0  0  0  0  0  0  0  0  0  0  0  0
    3.3432    2.6279   20.4411 C   0  0  0  0  0  0  0  0  0  0  0  0
    3.8960    1.9291   21.5050 C   0  0  0  0  0  0  0  0  0  0  0  0
    3.7865    2.4205   19.1660 C   0  0  0  0  0  0  0  0  0  0  0  0
    4.8973    1.0233   21.2988 C   0  0  0  0  0  0  0  0  0  0  0  0
   12.0765    0.0316   24.1541 C   0  0  0  0  0  0  0  0  0  0  0  0
   12.9132   -0.6032   23.2569 C   0  0  0  0  0  0  0  0  0  0  0  0
   10.9991   -1.4331   22.0443 C   0  0  0  0  0  0  0  0  0  0  0  0
    5.3278    1.2339   17.6066 C   0  0  0  0  0  0  0  0  0  0  0  0
    6.8438   -0.2892   18.3752 C   0  0  0  0  0  0  0  0  0  0  0  0
    4.8226    1.4906   18.9054 C   0  0  0  0  0  0  0  0  0  0  0  0
    5.3982    0.7733   19.9948 C   0  0  0  0  0  0  0  0  0  0  0  0
   10.7040   -0.0625   23.9898 C   0  0  0  0  0  0  0  0  0  0  0  0
   10.1406   -0.7765   22.9250 C   0  0  0  0  0  0  0  0  0  0  0  0
    6.4440   -0.1472   19.6979 C   0  0  0  0  0  0  0  0  0  0  0  0
   12.3683   -1.3298   22.2234 C   0  0  0  0  0  0  0  0  0  0  0  0
    8.2490    0.0169   21.4271 C   0  0  0  0  0  0  0  0  0  0  0  0
    6.9866   -1.9366   21.3580 C   0  0  0  0  0  0  0  0  0  0  0  0
    9.9479    0.5589   24.9534 C   0  0  0  0  0  0  0  0  0  0  0  0
    9.8059    3.2086   22.9298 C   0  0  0  0  0  0  0  0  0  0  0  0
    9.4958    4.6758   22.9720 C   0  0  0  0  0  0  0  0  0  0  0  0
    7.8721   -0.1194   23.8831 C   0  0  0  0  0  0  0  0  0  0  0  0
    8.5069    3.6833   23.5415 C   0  0  0  0  0  0  0  0  0  0  0  0
    8.6238   -0.7606   22.6929 C   0  0  3  0  0  0  0  0  0  0  0  0
    6.0022   -2.8989   21.1514 C   0  0  0  0  0  0  0  0  0  0  0  0
    8.3587    3.6086   25.0447 C   0  0  0  0  0  0  0  0  0  0  0  0
    6.3281    3.2621   22.1862 N   0  0  0  0  0  0  0  0  0  0  0  0
    6.3062    0.3769   17.3421 N   0  0  0  0  0  0  0  0  0  0  0  0
    7.2292   -0.6897   20.7790 N   0  0  0  0  0  0  0  0  0  0  0  0
    8.6609    1.0133   24.4995 N   0  0  2  0  0  0  0  0  0  0  0  0
    8.0140   -2.1541   22.4331 N   0  3  0  0  0  0  0  0  0  0  0  0
    8.7765    1.0553   21.0233 O   0  0  0  0  0  0  0  0  0  0  0  0
    8.2473    1.7788   26.9067 O   0  0  0  0  0  0  0  0  0  0  0  0
    6.3649    1.9297   25.2276 O   0  0  0  0  0  0  0  0  0  0  0  0
    7.7695    2.0169   25.5621 S   0  0  0  0  0  0  0  0  0  0  0  0
   13.4269   -2.1410   21.1086 Cl  0  0  0  0  0  0  0  0  0  0  0  0
    2.5431    3.3512   20.6364 H   0  0  0  0  0  0  0  0  0  0  0  0
    3.5171    2.1134   22.5167 H   0  0  0  0  0  0  0  0  0  0  0  0
    3.3416    2.9753   18.3366 H   0  0  0  0  0  0  0  0  0  0  0  0
    5.3143    0.4868   22.1546 H   0  0  0  0  0  0  0  0  0  0  0  0
   12.5018    0.5986   24.9749 H   0  0  0  0  0  0  0  0  0  0  0  0
   13.9908   -0.5178   23.3795 H   0  0  0  0  0  0  0  0  0  0  0  0
   10.6023   -2.0167   21.2240 H   0  0  0  0  0  0  0  0  0  0  0  0
    4.9137    1.7514   16.7476 H   0  0  0  0  0  0  0  0  0  0  0  0
    7.6454   -0.9762   18.1080 H   0  0  0  0  0  0  0  0  0  0  0  0
    9.7862   -0.1181   25.8321 H   0  0  0  0  0  0  0  0  0  0  0  0
   10.4804    1.4568   25.3604 H   0  0  0  0  0  0  0  0  0  0  0  0
    9.7833    2.7182   21.9631 H   0  0  0  0  0  0  0  0  0  0  0  0
   10.5845    2.8401   23.5877 H   0  0  0  0  0  0  0  0  0  0  0  0
   10.0675    5.2903   23.6578 H   0  0  0  0  0  0  0  0  0  0  0  0
    9.2667    5.1671   22.0332 H   0  0  0  0  0  0  0  0  0  0  0  0
    6.8928    0.2645   23.5477 H   0  0  0  0  0  0  0  0  0  0  0  0
    7.6655   -0.8720   24.6653 H   0  0  0  0  0  0  0  0  0  0  0  0
    6.3033   -3.6168   20.3726 H   0  0  0  0  0  0  0  0  0  0  0  0
    5.0692   -2.4175   20.8180 H   0  0  0  0  0  0  0  0  0  0  0  0
    5.7651   -3.4734   22.0608 H   0  0  0  0  0  0  0  0  0  0  0  0
    7.6407    4.3507   25.4046 H   0  0  0  0  0  0  0  0  0  0  0  0
    9.3186    3.7742   25.5414 H   0  0  0  0  0  0  0  0  0  0  0  0
    8.1462   -2.9933   22.7943 H   0  0  0  0  0  0  0  0  0  0  0  0
  1 23  1  0  0  0  0
  1 27  3  0  0  0  0
  2  3  1  0  0  0  0
  2  4  2  0  0  0  0
  3  5  2  0  0  0  0
  4 11  1  0  0  0  0
  5 12  1  0  0  0  0
  6  7  1  0  0  0  0
  6 13  2  0  0  0  0
  7 16  2  0  0  0  0
  8 14  2  0  0  0  0
  8 16  1  0  0  0  0
  9 11  2  0  0  0  0
  9 28  1  0  0  0  0
 10 15  1  0  0  0  0
 10 28  2  0  0  0  0
 11 12  1  0  0  0  0
 12 15  2  0  0  0  0
 13 14  1  0  0  0  0
 13 19  1  0  0  0  0
 14 24  1  0  0  0  0
 15 29  1  0  0  0  0
 16 36  1  0  0  0  0
 17 24  1  0  0  0  0
 17 29  1  0  0  0  0
 17 32  2  0  0  0  0
 18 25  1  0  0  0  0
 18 29  1  0  0  0  0
 18 31  2  0  0  0  0
 19 30  1  0  0  0  0
 20 21  1  0  0  0  0
 20 23  1  0  0  0  0
 21 23  1  0  0  0  0
 22 24  1  0  0  0  0
 22 30  1  0  0  0  0
 23 26  1  0  0  0  0
 24 31  1  0  0  0  0
 26 35  1  0  0  0  0
 30 35  1  6  0  0  0
 33 35  2  0  0  0  0
 34 35  2  0  0  0  0
  2 37  1  0  0  0  0
  3 38  1  0  0  0  0
  4 39  1  0  0  0  0
  5 40  1  0  0  0  0
  6 41  1  0  0  0  0
  7 42  1  0  0  0  0
  8 43  1  0  0  0  0
  9 44  1  0  0  0  0
 10 45  1  0  0  0  0
 19 46  1  0  0  0  0
 19 47  1  0  0  0  0
 20 48  1  0  0  0  0
 20 49  1  0  0  0  0
 21 50  1  0  0  0  0
 21 51  1  0  0  0  0
 22 52  1  0  0  0  0
 22 53  1  0  0  0  0
 25 54  1  0  0  0  0
 25 55  1  0  0  0  0
 25 56  1  0  0  0  0
 26 57  1  0  0  0  0
 26 58  1  0  0  0  0
 31 59  1  0  0  0  0
M  CHG  1  31   1
M  END
> <compound>
EDG-MED-b6bce001-2

> <compound_smiles>
CC1=NC2(CN(Cc3c2cc(cc3)Cl)S(=O)(=O)CC4(CC4)C#N)C(=O)N1c5cncc6c5cccc6

> <enantiomer_smiles>
CC1=NC2(C[N@](Cc3c2cc(cc3)Cl)S(=O)(=O)CC4(CC4)C#N)C(=O)N1c5cncc6c5cccc6

> <scaffold>
tetrahydroisoquinoline-5spiro-isoquinoline

> <clash_score>
0

> <docking_score>
-6.801991939544678

> <overlap_score>
1.0

> <MMFF_internal_energy>
189.13559474571136

> <docked_smiles>
CC1=[NH+][C@]2(C[N@](Cc3c2cc(cc3)Cl)S(=O)(=O)CC4(CC4)C#N)C(=O)N1c5cncc6c5cccc6

$$$$
ALP-POS-ecbed2ba-22_1
  -OEChem-12272114573D

 61 66  0     1  0  0  0  0  0999 V2000
    9.3415    6.6997   24.1394 C   0  0  0  0  0  0  0  0  0  0  0  0
    3.3432    2.6279   20.4411 C   0  0  0  0  0  0  0  0  0  0  0  0
    3.8960    1.9291   21.5050 C   0  0  0  0  0  0  0  0  0  0  0  0
    3.7865    2.4205   19.1660 C   0  0  0  0  0  0  0  0  0  0  0  0
    4.8973    1.0233   21.2988 C   0  0  0  0  0  0  0  0  0  0  0  0
   12.0765    0.0316   24.1541 C   0  0  0  0  0  0  0  0  0  0  0  0
   12.9132   -0.6032   23.2569 C   0  0  0  0  0  0  0  0  0  0  0  0
   10.9991   -1.4331   22.0443 C   0  0  0  0  0  0  0  0  0  0  0  0
    5.3278    1.2339   17.6066 C   0  0  0  0  0  0  0  0  0  0  0  0
    6.8438   -0.2892   18.3752 C   0  0  0  0  0  0  0  0  0  0  0  0
    4.8226    1.4906   18.9054 C   0  0  0  0  0  0  0  0  0  0  0  0
    5.3982    0.7733   19.9948 C   0  0  0  0  0  0  0  0  0  0  0  0
   10.7040   -0.0625   23.9898 C   0  0  0  0  0  0  0  0  0  0  0  0
   10.1406   -0.7765   22.9250 C   0  0  0  0  0  0  0  0  0  0  0  0
    6.4440   -0.1472   19.6979 C   0  0  0  0  0  0  0  0  0  0  0  0
   12.3683   -1.3298   22.2234 C   0  0  0  0  0  0  0  0  0  0  0  0
    8.2490    0.0169   21.4271 C   0  0  0  0  0  0  0  0  0  0  0  0
    9.9479    0.5589   24.9534 C   0  0  0  0  0  0  0  0  0  0  0  0
    7.1606    5.7945   25.5659 C   0  0  0  0  0  0  0  0  0  0  0  0
    6.3436    5.0980   24.5154 C   0  0  0  0  0  0  0  0  0  0  0  0
    8.0140   -2.1541   22.4331 C   0  0  0  0  0  0  0  0  0  0  0  0
    6.9866   -1.9366   21.3580 C   0  0  0  0  0  0  0  0  0  0  0  0
    7.8721   -0.1194   23.8831 C   0  0  0  0  0  0  0  0  0  0  0  0
    8.6238   -0.7606   22.6929 C   0  0  3  0  0  0  0  0  0  0  0  0
    7.8445    4.9257   24.5362 C   0  0  0  0  0  0  0  0  0  0  0  0
    8.6473    5.6053   23.4613 C   0  0  0  0  0  0  0  0  0  0  0  0
    8.3989    3.5932   24.9882 C   0  0  0  0  0  0  0  0  0  0  0  0
    9.8980    7.5722   24.6646 N   0  0  0  0  0  0  0  0  0  0  0  0
    6.3062    0.3769   17.3421 N   0  0  0  0  0  0  0  0  0  0  0  0
    7.2292   -0.6897   20.7790 N   0  0  0  0  0  0  0  0  0  0  0  0
    8.6609    1.0133   24.4995 N   0  0  1  0  0  0  0  0  0  0  0  0
    8.7572    1.0941   21.1350 O   0  0  0  0  0  0  0  0  0  0  0  0
    7.4179    2.5201   22.8172 O   0  0  0  0  0  0  0  0  0  0  0  0
    9.9251    2.7322   23.0499 O   0  0  0  0  0  0  0  0  0  0  0  0
    8.6198    2.4832   23.6217 S   0  0  0  0  0  0  0  0  0  0  0  0
   13.4275   -2.1421   21.1097 Cl  0  0  0  0  0  0  0  0  0  0  0  0
    2.5432    3.3510   20.6369 H   0  0  0  0  0  0  0  0  0  0  0  0
    3.5174    2.1137   22.5168 H   0  0  0  0  0  0  0  0  0  0  0  0
    3.3409    2.9743   18.3364 H   0  0  0  0  0  0  0  0  0  0  0  0
    5.3118    0.4895   22.1572 H   0  0  0  0  0  0  0  0  0  0  0  0
   12.5015    0.5938   24.9776 H   0  0  0  0  0  0  0  0  0  0  0  0
   13.9911   -0.5212   23.3814 H   0  0  0  0  0  0  0  0  0  0  0  0
   10.6037   -2.0228   21.2288 H   0  0  0  0  0  0  0  0  0  0  0  0
    4.9141    1.7511   16.7474 H   0  0  0  0  0  0  0  0  0  0  0  0
    7.6445   -0.9764   18.1043 H   0  0  0  0  0  0  0  0  0  0  0  0
    9.7581   -0.1287   25.8173 H   0  0  0  0  0  0  0  0  0  0  0  0
   10.4931    1.4391   25.3829 H   0  0  0  0  0  0  0  0  0  0  0  0
    7.2659    6.8703   25.4897 H   0  0  0  0  0  0  0  0  0  0  0  0
    7.0855    5.4317   26.5841 H   0  0  0  0  0  0  0  0  0  0  0  0
    5.7213    4.2687   24.8303 H   0  0  0  0  0  0  0  0  0  0  0  0
    5.9017    5.7073   23.7359 H   0  0  0  0  0  0  0  0  0  0  0  0
    7.5801   -2.6060   23.3366 H   0  0  0  0  0  0  0  0  0  0  0  0
    8.7749   -2.8608   22.0657 H   0  0  0  0  0  0  0  0  0  0  0  0
    7.0227   -2.7506   20.5953 H   0  0  0  0  0  0  0  0  0  0  0  0
    5.9554   -1.9484   21.7832 H   0  0  0  0  0  0  0  0  0  0  0  0
    6.8886    0.2769   23.5666 H   0  0  0  0  0  0  0  0  0  0  0  0
    7.6579   -0.8710   24.6633 H   0  0  0  0  0  0  0  0  0  0  0  0
    7.9828    5.9777   22.6802 H   0  0  0  0  0  0  0  0  0  0  0  0
    9.3518    4.8985   23.0202 H   0  0  0  0  0  0  0  0  0  0  0  0
    7.7199    3.1056   25.6931 H   0  0  0  0  0  0  0  0  0  0  0  0
    9.3754    3.7168   25.4643 H   0  0  0  0  0  0  0  0  0  0  0  0
  1 26  1  0  0  0  0
  1 28  3  0  0  0  0
  2  3  1  0  0  0  0
  2  4  2  0  0  0  0
  3  5  2  0  0  0  0
  4 11  1  0  0  0  0
  5 12  1  0  0  0  0
  6  7  1  0  0  0  0
  6 13  2  0  0  0  0
  7 16  2  0  0  0  0
  8 14  2  0  0  0  0
  8 16  1  0  0  0  0
  9 11  2  0  0  0  0
  9 29  1  0  0  0  0
 10 15  1  0  0  0  0
 10 29  2  0  0  0  0
 11 12  1  0  0  0  0
 12 15  2  0  0  0  0
 13 14  1  0  0  0  0
 13 18  1  0  0  0  0
 14 24  1  0  0  0  0
 15 30  1  0  0  0  0
 16 36  1  0  0  0  0
 17 24  1  0  0  0  0
 17 30  1  0  0  0  0
 17 32  2  0  0  0  0
 18 31  1  0  0  0  0
 19 20  1  0  0  0  0
 19 25  1  0  0  0  0
 20 25  1  0  0  0  0
 21 22  1  0  0  0  0
 21 24  1  0  0  0  0
 22 30  1  0  0  0  0
 23 24  1  0  0  0  0
 23 31  1  0  0  0  0
 25 26  1  0  0  0  0
 25 27  1  0  0  0  0
 27 35  1  0  0  0  0
 31 35  1  1  0  0  0
 33 35  2  0  0  0  0
 34 35  2  0  0  0  0
  2 37  1  0  0  0  0
  3 38  1  0  0  0  0
  4 39  1  0  0  0  0
  5 40  1  0  0  0  0
  6 41  1  0  0  0  0
  7 42  1  0  0  0  0
  8 43  1  0  0  0  0
  9 44  1  0  0  0  0
 10 45  1  0  0  0  0
 18 46  1  0  0  0  0
 18 47  1  0  0  0  0
 19 48  1  0  0  0  0
 19 49  1  0  0  0  0
 20 50  1  0  0  0  0
 20 51  1  0  0  0  0
 21 52  1  0  0  0  0
 21 53  1  0  0  0  0
 22 54  1  0  0  0  0
 22 55  1  0  0  0  0
 23 56  1  0  0  0  0
 23 57  1  0  0  0  0
 26 58  1  0  0  0  0
 26 59  1  0  0  0  0
 27 60  1  0  0  0  0
 27 61  1  0  0  0  0
M  END
> <compound>
ALP-POS-ecbed2ba-22

> <compound_smiles>
c1ccc2c(c1)cncc2N3CCC4(C3=O)CN(Cc5c4cc(cc5)Cl)S(=O)(=O)CC6(CC6)CC#N

> <enantiomer_smiles>
c1ccc2c(c1)cncc2N3CCC4(C3=O)C[N@@](Cc5c4cc(cc5)Cl)S(=O)(=O)CC6(CC6)CC#N

> <scaffold>
tetrahydroisoquinoline-5spiro-isoquinoline

> <clash_score>
0

> <docking_score>
-8.925385475158691

> <overlap_score>
0.9721063375473022

> <MMFF_internal_energy>
168.4157202011154

> <docked_smiles>
c1ccc2c(c1)cncc2N3CC[C@@]4(C3=O)C[N@@](Cc5c4cc(cc5)Cl)S(=O)(=O)CC6(CC6)CC#N

$$$$
MAT-POS-38eb6498-6_1
  -OEChem-12272114573D

 60 64  0     1  0  0  0  0  0999 V2000
    3.7865    2.4205   19.1660 C   0  0  0  0  0  0  0  0  0  0  0  0
   12.0765    0.0316   24.1541 C   0  0  0  0  0  0  0  0  0  0  0  0
    3.3432    2.6279   20.4411 C   0  0  0  0  0  0  0  0  0  0  0  0
   12.9132   -0.6032   23.2569 C   0  0  0  0  0  0  0  0  0  0  0  0
    4.8973    1.0233   21.2988 C   0  0  0  0  0  0  0  0  0  0  0  0
   10.9991   -1.4331   22.0443 C   0  0  0  0  0  0  0  0  0  0  0  0
    5.3278    1.2339   17.6066 C   0  0  0  0  0  0  0  0  0  0  0  0
    6.8438   -0.2892   18.3752 C   0  0  0  0  0  0  0  0  0  0  0  0
    4.8226    1.4906   18.9054 C   0  0  0  0  0  0  0  0  0  0  0  0
    5.3982    0.7733   19.9948 C   0  0  0  0  0  0  0  0  0  0  0  0
   10.7040   -0.0625   23.9898 C   0  0  0  0  0  0  0  0  0  0  0  0
    3.8960    1.9291   21.5050 C   0  0  0  0  0  0  0  0  0  0  0  0
   10.1406   -0.7765   22.9250 C   0  0  0  0  0  0  0  0  0  0  0  0
    6.4440   -0.1472   19.6979 C   0  0  0  0  0  0  0  0  0  0  0  0
   12.3683   -1.3298   22.2234 C   0  0  0  0  0  0  0  0  0  0  0  0
    9.9479    0.5589   24.9534 C   0  0  0  0  0  0  0  0  0  0  0  0
    8.2490    0.0169   21.4271 C   0  0  0  0  0  0  0  0  0  0  0  0
    3.3923    2.1749   22.8577 C   0  0  0  0  0  0  0  0  0  0  0  0
    8.4669    3.2198   23.6970 C   0  0  0  0  0  0  0  0  0  0  0  0
    8.0140   -2.1541   22.4331 C   0  0  0  0  0  0  0  0  0  0  0  0
    6.9866   -1.9366   21.3580 C   0  0  0  0  0  0  0  0  0  0  0  0
    7.8721   -0.1194   23.8831 C   0  0  0  0  0  0  0  0  0  0  0  0
    8.6238   -0.7606   22.6929 C   0  0  3  0  0  0  0  0  0  0  0  0
    1.4286    2.9194   24.2265 C   0  0  0  0  0  0  0  0  0  0  0  0
   10.2286    4.9046   23.1758 C   0  0  0  0  0  0  0  0  0  0  0  0
    8.0922    2.2237   24.7645 C   0  0  0  0  0  0  0  0  0  0  0  0
    6.3062    0.3769   17.3421 N   0  0  0  0  0  0  0  0  0  0  0  0
    7.2292   -0.6897   20.7790 N   0  0  0  0  0  0  0  0  0  0  0  0
    8.6609    1.0133   24.4995 N   0  0  0  0  0  0  0  0  0  0  0  0
    2.0684    2.6159   22.9666 N   0  0  0  0  0  0  0  0  0  0  0  0
    9.6355    3.8939   24.0215 N   0  0  0  0  0  0  0  0  0  0  0  0
   10.3214    0.7303   26.1092 O   0  0  0  0  0  0  0  0  0  0  0  0
    8.8193    1.0411   21.0780 O   0  0  0  0  0  0  0  0  0  0  0  0
    4.1254    2.0096   23.8487 O   0  0  0  0  0  0  0  0  0  0  0  0
    7.8085    3.3951   22.6752 O   0  0  0  0  0  0  0  0  0  0  0  0
   13.4274   -2.1468   21.1136 Cl  0  0  0  0  0  0  0  0  0  0  0  0
    3.3419    2.9748   18.3365 H   0  0  0  0  0  0  0  0  0  0  0  0
   12.5172    0.5967   24.9716 H   0  0  0  0  0  0  0  0  0  0  0  0
    2.5417    3.3539   20.6249 H   0  0  0  0  0  0  0  0  0  0  0  0
   13.9905   -0.5221   23.3825 H   0  0  0  0  0  0  0  0  0  0  0  0
    5.3193    0.4829   22.1508 H   0  0  0  0  0  0  0  0  0  0  0  0
   10.6130   -2.0249   21.2272 H   0  0  0  0  0  0  0  0  0  0  0  0
    4.9132    1.7508   16.7475 H   0  0  0  0  0  0  0  0  0  0  0  0
    7.6453   -0.9751   18.1044 H   0  0  0  0  0  0  0  0  0  0  0  0
    7.5110   -2.5276   23.3390 H   0  0  0  0  0  0  0  0  0  0  0  0
    8.7575   -2.9105   22.1433 H   0  0  0  0  0  0  0  0  0  0  0  0
    7.0587   -2.7258   20.5724 H   0  0  0  0  0  0  0  0  0  0  0  0
    5.9512   -1.9960   21.7712 H   0  0  0  0  0  0  0  0  0  0  0  0
    6.9203    0.3184   23.5736 H   0  0  0  0  0  0  0  0  0  0  0  0
    7.6659   -0.8542   24.6623 H   0  0  0  0  0  0  0  0  0  0  0  0
    0.8836    2.0336   24.5844 H   0  0  0  0  0  0  0  0  0  0  0  0
    2.1918    3.2038   24.9660 H   0  0  0  0  0  0  0  0  0  0  0  0
    0.7237    3.7525   24.0883 H   0  0  0  0  0  0  0  0  0  0  0  0
   10.9348    4.4312   22.4778 H   0  0  0  0  0  0  0  0  0  0  0  0
    9.4384    5.4164   22.6069 H   0  0  0  0  0  0  0  0  0  0  0  0
   10.7641    5.6360   23.7990 H   0  0  0  0  0  0  0  0  0  0  0  0
    8.4448    2.5768   25.7381 H   0  0  0  0  0  0  0  0  0  0  0  0
    7.0053    2.1037   24.7947 H   0  0  0  0  0  0  0  0  0  0  0  0
    1.5341    2.7950   22.1227 H   0  0  0  0  0  0  0  0  0  0  0  0
   10.0971    3.6657   24.8972 H   0  0  0  0  0  0  0  0  0  0  0  0
  1  3  2  0  0  0  0
  1  9  1  0  0  0  0
  2  4  2  0  0  0  0
  2 11  1  0  0  0  0
  3 12  1  0  0  0  0
  4 15  1  0  0  0  0
  5 10  1  0  0  0  0
  5 12  2  0  0  0  0
  6 13  1  0  0  0  0
  6 15  2  0  0  0  0
  7  9  2  0  0  0  0
  7 27  1  0  0  0  0
  8 14  1  0  0  0  0
  8 27  2  0  0  0  0
  9 10  1  0  0  0  0
 10 14  2  0  0  0  0
 11 13  2  0  0  0  0
 11 16  1  0  0  0  0
 12 18  1  0  0  0  0
 13 23  1  0  0  0  0
 14 28  1  0  0  0  0
 15 36  1  0  0  0  0
 16 29  1  0  0  0  0
 16 32  2  0  0  0  0
 17 23  1  0  0  0  0
 17 28  1  0  0  0  0
 17 33  2  0  0  0  0
 18 30  1  0  0  0  0
 18 34  2  0  0  0  0
 19 26  1  0  0  0  0
 19 31  1  0  0  0  0
 19 35  2  0  0  0  0
 20 21  1  0  0  0  0
 20 23  1  0  0  0  0
 21 28  1  0  0  0  0
 22 23  1  0  0  0  0
 22 29  1  0  0  0  0
 24 30  1  0  0  0  0
 25 31  1  0  0  0  0
 26 29  1  0  0  0  0
  1 37  1  0  0  0  0
  2 38  1  0  0  0  0
  3 39  1  0  0  0  0
  4 40  1  0  0  0  0
  5 41  1  0  0  0  0
  6 42  1  0  0  0  0
  7 43  1  0  0  0  0
  8 44  1  0  0  0  0
 20 45  1  0  0  0  0
 20 46  1  0  0  0  0
 21 47  1  0  0  0  0
 21 48  1  0  0  0  0
 22 49  1  0  0  0  0
 22 50  1  0  0  0  0
 24 51  1  0  0  0  0
 24 52  1  0  0  0  0
 24 53  1  0  0  0  0
 25 54  1  0  0  0  0
 25 55  1  0  0  0  0
 25 56  1  0  0  0  0
 26 57  1  0  0  0  0
 26 58  1  0  0  0  0
 30 59  1  0  0  0  0
 31 60  1  0  0  0  0
M  END
> <compound>
MAT-POS-38eb6498-6

> <compound_smiles>
CNC(=O)CN1CC2(CCN(C2=O)c3cncc4c3cc(cc4)C(=O)NC)c5cc(ccc5C1=O)Cl

> <enantiomer_smiles>
CNC(=O)CN1CC2(CCN(C2=O)c3cncc4c3cc(cc4)C(=O)NC)c5cc(ccc5C1=O)Cl

> <scaffold>
tetrahydroisoquinoline-5spiro-isoquinoline

> <clash_score>
0

> <docking_score>
-9.181264877319336

> <overlap_score>
1.0

> <MMFF_internal_energy>
152.89068258625278

> <docked_smiles>
CNC(=O)CN1C[C@]2(CCN(C2=O)c3cncc4c3cc(cc4)C(=O)NC)c5cc(ccc5C1=O)Cl

$$$$
MAT-POS-c2d406ed-1_1
  -OEChem-12272114573D

 56 61  0     1  0  0  0  0  0999 V2000
    9.4982    5.5202   23.8089 C   0  0  0  0  0  0  0  0  0  0  0  0
    3.3432    2.6279   20.4411 C   0  0  0  0  0  0  0  0  0  0  0  0
    3.8960    1.9291   21.5050 C   0  0  0  0  0  0  0  0  0  0  0  0
    3.7865    2.4205   19.1660 C   0  0  0  0  0  0  0  0  0  0  0  0
    4.8973    1.0233   21.2988 C   0  0  0  0  0  0  0  0  0  0  0  0
   12.0765    0.0316   24.1541 C   0  0  0  0  0  0  0  0  0  0  0  0
   12.9132   -0.6032   23.2569 C   0  0  0  0  0  0  0  0  0  0  0  0
   10.9991   -1.4331   22.0443 C   0  0  0  0  0  0  0  0  0  0  0  0
    5.3278    1.2339   17.6066 C   0  0  0  0  0  0  0  0  0  0  0  0
    6.8438   -0.2892   18.3752 C   0  0  0  0  0  0  0  0  0  0  0  0
    4.8226    1.4906   18.9054 C   0  0  0  0  0  0  0  0  0  0  0  0
    5.3982    0.7733   19.9948 C   0  0  0  0  0  0  0  0  0  0  0  0
   10.7040   -0.0625   23.9898 C   0  0  0  0  0  0  0  0  0  0  0  0
   10.1406   -0.7765   22.9250 C   0  0  0  0  0  0  0  0  0  0  0  0
    6.4440   -0.1472   19.6979 C   0  0  0  0  0  0  0  0  0  0  0  0
   12.3683   -1.3298   22.2234 C   0  0  0  0  0  0  0  0  0  0  0  0
    8.2490    0.0169   21.4271 C   0  0  0  0  0  0  0  0  0  0  0  0
    6.9866   -1.9366   21.3580 C   0  0  0  0  0  0  0  0  0  0  0  0
    9.9479    0.5589   24.9534 C   0  0  0  0  0  0  0  0  0  0  0  0
    7.5711    6.0317   25.3518 C   0  0  0  0  0  0  0  0  0  0  0  0
    6.9891    5.5712   24.0480 C   0  0  0  0  0  0  0  0  0  0  0  0
    7.8721   -0.1194   23.8831 C   0  0  0  0  0  0  0  0  0  0  0  0
    8.3303    5.0389   24.5005 C   0  0  0  0  0  0  0  0  0  0  0  0
    8.6238   -0.7606   22.6929 C   0  0  3  0  0  0  0  0  0  0  0  0
    8.4040    3.6046   24.9743 C   0  0  0  0  0  0  0  0  0  0  0  0
   10.4391    5.9081   23.2518 N   0  0  0  0  0  0  0  0  0  0  0  0
    6.3062    0.3769   17.3421 N   0  0  0  0  0  0  0  0  0  0  0  0
    8.0140   -2.1541   22.4331 N   0  0  0  0  0  0  0  0  0  0  0  0
    7.2292   -0.6897   20.7790 N   0  0  0  0  0  0  0  0  0  0  0  0
    8.6609    1.0133   24.4995 N   0  0  1  0  0  0  0  0  0  0  0  0
    8.7702    1.0700   21.1195 O   0  0  0  0  0  0  0  0  0  0  0  0
    6.1647   -2.7933   21.1188 O   0  0  0  0  0  0  0  0  0  0  0  0
    7.4283    2.5279   22.8027 O   0  0  0  0  0  0  0  0  0  0  0  0
    9.9359    2.7091   23.0562 O   0  0  0  0  0  0  0  0  0  0  0  0
    8.6224    2.4817   23.6179 S   0  0  0  0  0  0  0  0  0  0  0  0
   13.4270   -2.1420   21.1093 Cl  0  0  0  0  0  0  0  0  0  0  0  0
    2.5432    3.3510   20.6369 H   0  0  0  0  0  0  0  0  0  0  0  0
    3.5174    2.1137   22.5168 H   0  0  0  0  0  0  0  0  0  0  0  0
    3.3409    2.9743   18.3364 H   0  0  0  0  0  0  0  0  0  0  0  0
    5.3118    0.4895   22.1572 H   0  0  0  0  0  0  0  0  0  0  0  0
   12.5027    0.5921   24.9785 H   0  0  0  0  0  0  0  0  0  0  0  0
   13.9911   -0.5223   23.3823 H   0  0  0  0  0  0  0  0  0  0  0  0
   10.6054   -2.0219   21.2270 H   0  0  0  0  0  0  0  0  0  0  0  0
    4.9141    1.7511   16.7474 H   0  0  0  0  0  0  0  0  0  0  0  0
    7.6445   -0.9764   18.1043 H   0  0  0  0  0  0  0  0  0  0  0  0
    9.7587   -0.1293   25.8177 H   0  0  0  0  0  0  0  0  0  0  0  0
   10.4941    1.4383   25.3854 H   0  0  0  0  0  0  0  0  0  0  0  0
    7.9264    7.0543   25.4097 H   0  0  0  0  0  0  0  0  0  0  0  0
    7.1020    5.6806   26.2637 H   0  0  0  0  0  0  0  0  0  0  0  0
    6.1294    4.9122   24.0867 H   0  0  0  0  0  0  0  0  0  0  0  0
    6.9543    6.2864   23.2339 H   0  0  0  0  0  0  0  0  0  0  0  0
    6.8937    0.2817   23.5623 H   0  0  0  0  0  0  0  0  0  0  0  0
    7.6765   -0.8746   24.6645 H   0  0  0  0  0  0  0  0  0  0  0  0
    7.4833    3.3143   25.4879 H   0  0  0  0  0  0  0  0  0  0  0  0
    9.2492    3.4593   25.6525 H   0  0  0  0  0  0  0  0  0  0  0  0
    8.2288   -2.9431   22.8426 H   0  0  0  0  0  0  0  0  0  0  0  0
  1 23  1  0  0  0  0
  1 26  3  0  0  0  0
  2  3  1  0  0  0  0
  2  4  2  0  0  0  0
  3  5  2  0  0  0  0
  4 11  1  0  0  0  0
  5 12  1  0  0  0  0
  6  7  1  0  0  0  0
  6 13  2  0  0  0  0
  7 16  2  0  0  0  0
  8 14  2  0  0  0  0
  8 16  1  0  0  0  0
  9 11  2  0  0  0  0
  9 27  1  0  0  0  0
 10 15  1  0  0  0  0
 10 27  2  0  0  0  0
 11 12  1  0  0  0  0
 12 15  2  0  0  0  0
 13 14  1  0  0  0  0
 13 19  1  0  0  0  0
 14 24  1  0  0  0  0
 15 29  1  0  0  0  0
 16 36  1  0  0  0  0
 17 24  1  0  0  0  0
 17 29  1  0  0  0  0
 17 31  2  0  0  0  0
 18 28  1  0  0  0  0
 18 29  1  0  0  0  0
 18 32  2  0  0  0  0
 19 30  1  0  0  0  0
 20 21  1  0  0  0  0
 20 23  1  0  0  0  0
 21 23  1  0  0  0  0
 22 24  1  0  0  0  0
 22 30  1  0  0  0  0
 23 25  1  0  0  0  0
 24 28  1  0  0  0  0
 25 35  1  0  0  0  0
 30 35  1  1  0  0  0
 33 35  2  0  0  0  0
 34 35  2  0  0  0  0
  2 37  1  0  0  0  0
  3 38  1  0  0  0  0
  4 39  1  0  0  0  0
  5 40  1  0  0  0  0
  6 41  1  0  0  0  0
  7 42  1  0  0  0  0
  8 43  1  0  0  0  0
  9 44  1  0  0  0  0
 10 45  1  0  0  0  0
 19 46  1  0  0  0  0
 19 47  1  0  0  0  0
 20 48  1  0  0  0  0
 20 49  1  0  0  0  0
 21 50  1  0  0  0  0
 21 51  1  0  0  0  0
 22 52  1  0  0  0  0
 22 53  1  0  0  0  0
 25 54  1  0  0  0  0
 25 55  1  0  0  0  0
 28 56  1  0  0  0  0
M  END
> <compound>
MAT-POS-c2d406ed-1

> <compound_smiles>
c1ccc2c(c1)cncc2N3C(=O)C4(CN(Cc5c4cc(cc5)Cl)S(=O)(=O)CC6(CC6)C#N)NC3=O

> <enantiomer_smiles>
c1ccc2c(c1)cncc2N3C(=O)C4(C[N@@](Cc5c4cc(cc5)Cl)S(=O)(=O)CC6(CC6)C#N)NC3=O

> <scaffold>
tetrahydroisoquinoline-5spiro-isoquinoline

> <clash_score>
0

> <docking_score>
-8.052278518676758

> <overlap_score>
1.0

> <MMFF_internal_energy>
103.19309002805633

> <docked_smiles>
c1ccc2c(c1)cncc2N3C(=O)[C@@]4(C[N@@](Cc5c4cc(cc5)Cl)S(=O)(=O)CC6(CC6)C#N)NC3=O

$$$$
MAT-POS-1d5ab790-1_2
  -OEChem-12272114573D

 58 63  0     1  0  0  0  0  0999 V2000
    7.3205    3.4054   22.7658 C   0  0  0  0  0  0  0  0  0  0  0  0
    3.3432    2.6279   20.4411 C   0  0  0  0  0  0  0  0  0  0  0  0
    3.7865    2.4205   19.1660 C   0  0  0  0  0  0  0  0  0  0  0  0
   12.0765    0.0316   24.1541 C   0  0  0  0  0  0  0  0  0  0  0  0
    3.8960    1.9291   21.5050 C   0  0  0  0  0  0  0  0  0  0  0  0
   12.9132   -0.6032   23.2569 C   0  0  0  0  0  0  0  0  0  0  0  0
   10.9991   -1.4331   22.0443 C   0  0  0  0  0  0  0  0  0  0  0  0
    5.3278    1.2339   17.6066 C   0  0  0  0  0  0  0  0  0  0  0  0
    6.8438   -0.2892   18.3752 C   0  0  0  0  0  0  0  0  0  0  0  0
    4.8226    1.4906   18.9054 C   0  0  0  0  0  0  0  0  0  0  0  0
    5.3982    0.7733   19.9948 C   0  0  0  0  0  0  0  0  0  0  0  0
   10.7040   -0.0625   23.9898 C   0  0  0  0  0  0  0  0  0  0  0  0
   10.1406   -0.7765   22.9250 C   0  0  0  0  0  0  0  0  0  0  0  0
    6.4440   -0.1472   19.6979 C   0  0  0  0  0  0  0  0  0  0  0  0
   12.3683   -1.3298   22.2234 C   0  0  0  0  0  0  0  0  0  0  0  0
    4.8973    1.0233   21.2988 C   0  0  0  0  0  0  0  0  0  0  0  0
    8.2490    0.0169   21.4271 C   0  0  0  0  0  0  0  0  0  0  0  0
    9.9479    0.5589   24.9534 C   0  0  0  0  0  0  0  0  0  0  0  0
    9.8217    3.1213   22.9038 C   0  0  0  0  0  0  0  0  0  0  0  0
    9.5383    4.5944   22.9183 C   0  0  0  0  0  0  0  0  0  0  0  0
    8.0140   -2.1541   22.4331 C   0  0  0  0  0  0  0  0  0  0  0  0
    6.9866   -1.9366   21.3580 C   0  0  0  0  0  0  0  0  0  0  0  0
    7.8721   -0.1194   23.8831 C   0  0  0  0  0  0  0  0  0  0  0  0
    8.5331    3.6312   23.5091 C   0  0  0  0  0  0  0  0  0  0  0  0
    8.6238   -0.7606   22.6929 C   0  0  3  0  0  0  0  0  0  0  0  0
    8.3874    3.5882   25.0137 C   0  0  0  0  0  0  0  0  0  0  0  0
    6.3436    3.2234   22.1669 N   0  0  0  0  0  0  0  0  0  0  0  0
    6.3062    0.3769   17.3421 N   0  0  0  0  0  0  0  0  0  0  0  0
    7.2292   -0.6897   20.7790 N   0  0  0  0  0  0  0  0  0  0  0  0
    8.6609    1.0133   24.4995 N   0  0  2  0  0  0  0  0  0  0  0  0
    8.8299    1.0397   21.0799 O   0  0  0  0  0  0  0  0  0  0  0  0
    8.2407    1.8013   26.9144 O   0  0  0  0  0  0  0  0  0  0  0  0
    6.3653    1.9471   25.2271 O   0  0  0  0  0  0  0  0  0  0  0  0
    7.7708    2.0177   25.5632 S   0  0  0  0  0  0  0  0  0  0  0  0
   13.4272   -2.1411   21.1086 Cl  0  0  0  0  0  0  0  0  0  0  0  0
    5.4623    0.2453   22.7515 Cl  0  0  0  0  0  0  0  0  0  0  0  0
    2.5425    3.3507   20.6372 H   0  0  0  0  0  0  0  0  0  0  0  0
    3.3401    2.9737   18.3362 H   0  0  0  0  0  0  0  0  0  0  0  0
   12.5024    0.5995   24.9735 H   0  0  0  0  0  0  0  0  0  0  0  0
    3.4992    2.1328   22.5080 H   0  0  0  0  0  0  0  0  0  0  0  0
   13.9910   -0.5177   23.3793 H   0  0  0  0  0  0  0  0  0  0  0  0
   10.6036   -2.0162   21.2241 H   0  0  0  0  0  0  0  0  0  0  0  0
    4.9135    1.7511   16.7477 H   0  0  0  0  0  0  0  0  0  0  0  0
    7.6449   -0.9747   18.1006 H   0  0  0  0  0  0  0  0  0  0  0  0
    9.7849   -0.1194   25.8306 H   0  0  0  0  0  0  0  0  0  0  0  0
   10.4793    1.4568   25.3613 H   0  0  0  0  0  0  0  0  0  0  0  0
    9.7878    2.6129   21.9468 H   0  0  0  0  0  0  0  0  0  0  0  0
   10.5952    2.7515   23.5670 H   0  0  0  0  0  0  0  0  0  0  0  0
   10.1228    5.2116   23.5908 H   0  0  0  0  0  0  0  0  0  0  0  0
    9.3157    5.0716   21.9707 H   0  0  0  0  0  0  0  0  0  0  0  0
    7.5152   -2.5456   23.3338 H   0  0  0  0  0  0  0  0  0  0  0  0
    8.7649   -2.9030   22.1434 H   0  0  0  0  0  0  0  0  0  0  0  0
    7.0587   -2.7248   20.5721 H   0  0  0  0  0  0  0  0  0  0  0  0
    5.9518   -1.9952   21.7720 H   0  0  0  0  0  0  0  0  0  0  0  0
    6.8867    0.2641   23.5642 H   0  0  0  0  0  0  0  0  0  0  0  0
    7.6652   -0.8660   24.6733 H   0  0  0  0  0  0  0  0  0  0  0  0
    7.6838    4.3500   25.3607 H   0  0  0  0  0  0  0  0  0  0  0  0
    9.3513    3.7460   25.5050 H   0  0  0  0  0  0  0  0  0  0  0  0
  1 24  1  0  0  0  0
  1 27  3  0  0  0  0
  2  3  1  0  0  0  0
  2  5  2  0  0  0  0
  3 10  2  0  0  0  0
  4  6  1  0  0  0  0
  4 12  2  0  0  0  0
  5 16  1  0  0  0  0
  6 15  2  0  0  0  0
  7 13  2  0  0  0  0
  7 15  1  0  0  0  0
  8 10  1  0  0  0  0
  8 28  2  0  0  0  0
  9 14  2  0  0  0  0
  9 28  1  0  0  0  0
 10 11  1  0  0  0  0
 11 14  1  0  0  0  0
 11 16  2  0  0  0  0
 12 13  1  0  0  0  0
 12 18  1  0  0  0  0
 13 25  1  0  0  0  0
 14 29  1  0  0  0  0
 15 35  1  0  0  0  0
 16 36  1  0  0  0  0
 17 25  1  0  0  0  0
 17 29  1  0  0  0  0
 17 31  2  0  0  0  0
 18 30  1  0  0  0  0
 19 20  1  0  0  0  0
 19 24  1  0  0  0  0
 20 24  1  0  0  0  0
 21 22  1  0  0  0  0
 21 25  1  0  0  0  0
 22 29  1  0  0  0  0
 23 25  1  0  0  0  0
 23 30  1  0  0  0  0
 24 26  1  0  0  0  0
 26 34  1  0  0  0  0
 30 34  1  6  0  0  0
 32 34  2  0  0  0  0
 33 34  2  0  0  0  0
  2 37  1  0  0  0  0
  3 38  1  0  0  0  0
  4 39  1  0  0  0  0
  5 40  1  0  0  0  0
  6 41  1  0  0  0  0
  7 42  1  0  0  0  0
  8 43  1  0  0  0  0
  9 44  1  0  0  0  0
 18 45  1  0  0  0  0
 18 46  1  0  0  0  0
 19 47  1  0  0  0  0
 19 48  1  0  0  0  0
 20 49  1  0  0  0  0
 20 50  1  0  0  0  0
 21 51  1  0  0  0  0
 21 52  1  0  0  0  0
 22 53  1  0  0  0  0
 22 54  1  0  0  0  0
 23 55  1  0  0  0  0
 23 56  1  0  0  0  0
 26 57  1  0  0  0  0
 26 58  1  0  0  0  0
M  END
> <compound>
MAT-POS-1d5ab790-1

> <compound_smiles>
c1cc2cncc(c2c(c1)Cl)N3CCC4(C3=O)CN(Cc5c4cc(cc5)Cl)S(=O)(=O)CC6(CC6)C#N

> <enantiomer_smiles>
c1cc2cncc(c2c(c1)Cl)N3CCC4(C3=O)C[N@](Cc5c4cc(cc5)Cl)S(=O)(=O)CC6(CC6)C#N

> <scaffold>
tetrahydroisoquinoline-5spiro-isoquinoline

> <clash_score>
0

> <docking_score>
-8.942920684814453

> <overlap_score>
0.9816679954528809

> <MMFF_internal_energy>
202.43564941171445

> <docked_smiles>
c1cc2cncc(c2c(c1)Cl)N3CC[C@@]4(C3=O)C[N@](Cc5c4cc(cc5)Cl)S(=O)(=O)CC6(CC6)C#N

$$$$
MAT-POS-b4d6b7fc-7_2
  -OEChem-12272114573D

 63 67  0     1  0  0  0  0  0999 V2000
    4.8973    1.0233   21.2988 C   0  0  0  0  0  0  0  0  0  0  0  0
   12.0765    0.0316   24.1541 C   0  0  0  0  0  0  0  0  0  0  0  0
    3.8960    1.9291   21.5050 C   0  0  0  0  0  0  0  0  0  0  0  0
   12.9132   -0.6032   23.2569 C   0  0  0  0  0  0  0  0  0  0  0  0
    3.7865    2.4205   19.1660 C   0  0  0  0  0  0  0  0  0  0  0  0
   10.9991   -1.4331   22.0443 C   0  0  0  0  0  0  0  0  0  0  0  0
    5.3278    1.2339   17.6066 C   0  0  0  0  0  0  0  0  0  0  0  0
    6.8438   -0.2892   18.3752 C   0  0  0  0  0  0  0  0  0  0  0  0
    5.3982    0.7733   19.9948 C   0  0  0  0  0  0  0  0  0  0  0  0
    4.8226    1.4906   18.9054 C   0  0  0  0  0  0  0  0  0  0  0  0
   10.7040   -0.0625   23.9898 C   0  0  0  0  0  0  0  0  0  0  0  0
   10.1406   -0.7765   22.9250 C   0  0  0  0  0  0  0  0  0  0  0  0
    6.4440   -0.1472   19.6979 C   0  0  0  0  0  0  0  0  0  0  0  0
    3.3432    2.6279   20.4411 C   0  0  0  0  0  0  0  0  0  0  0  0
   12.3683   -1.3298   22.2234 C   0  0  0  0  0  0  0  0  0  0  0  0
    8.2490    0.0169   21.4271 C   0  0  0  0  0  0  0  0  0  0  0  0
    6.5298    2.1893   25.0454 C   0  0  0  0  0  0  0  0  0  0  0  0
    9.9479    0.5589   24.9534 C   0  0  0  0  0  0  0  0  0  0  0  0
    8.0140   -2.1541   22.4331 C   0  0  0  0  0  0  0  0  0  0  0  0
    6.9866   -1.9366   21.3580 C   0  0  0  0  0  0  0  0  0  0  0  0
    7.8721   -0.1194   23.8831 C   0  0  0  0  0  0  0  0  0  0  0  0
    8.6238   -0.7606   22.6929 C   0  0  3  0  0  0  0  0  0  0  0  0
    5.5618    3.6790   23.3188 C   0  0  0  0  0  0  0  0  0  0  0  0
   -0.0919    3.5822   21.9293 C   0  0  0  0  0  0  0  0  0  0  0  0
    7.8596    1.7144   25.5749 C   0  0  0  0  0  0  0  0  0  0  0  0
    6.3062    0.3769   17.3421 N   0  0  0  0  0  0  0  0  0  0  0  0
    7.2292   -0.6897   20.7790 N   0  0  0  0  0  0  0  0  0  0  0  0
    2.2936    3.5769   20.6955 N   0  0  0  0  0  0  0  0  0  0  0  0
    6.6882    3.0827   23.9966 N   0  0  0  0  0  0  0  0  0  0  0  0
    8.6609    1.0133   24.4995 N   0  3  1  0  0  0  0  0  0  0  0  0
    8.8286    1.0402   21.0803 O   0  0  0  0  0  0  0  0  0  0  0  0
    5.4514    1.8173   25.5002 O   0  0  0  0  0  0  0  0  0  0  0  0
    0.1177    3.9521   19.3628 O   0  0  0  0  0  0  0  0  0  0  0  0
    0.5662    1.6528   20.2886 O   0  0  0  0  0  0  0  0  0  0  0  0
    0.6676    3.0947   20.3963 S   0  0  0  0  0  0  0  0  0  0  0  0
   13.4270   -2.1443   21.1108 Cl  0  0  0  0  0  0  0  0  0  0  0  0
    5.3115    0.4893   22.1569 H   0  0  0  0  0  0  0  0  0  0  0  0
   12.5021    0.5962   24.9756 H   0  0  0  0  0  0  0  0  0  0  0  0
    3.5248    2.1066   22.5217 H   0  0  0  0  0  0  0  0  0  0  0  0
   13.9911   -0.5171   23.3786 H   0  0  0  0  0  0  0  0  0  0  0  0
    3.3477    2.9700   18.3285 H   0  0  0  0  0  0  0  0  0  0  0  0
   10.6045   -2.0170   21.2248 H   0  0  0  0  0  0  0  0  0  0  0  0
    4.9135    1.7517   16.7479 H   0  0  0  0  0  0  0  0  0  0  0  0
    7.6449   -0.9757   18.1043 H   0  0  0  0  0  0  0  0  0  0  0  0
    9.7608   -0.1211   25.8247 H   0  0  0  0  0  0  0  0  0  0  0  0
   10.4565    1.4661   25.3705 H   0  0  0  0  0  0  0  0  0  0  0  0
    7.5144   -2.5472   23.3327 H   0  0  0  0  0  0  0  0  0  0  0  0
    8.7599   -2.9065   22.1418 H   0  0  0  0  0  0  0  0  0  0  0  0
    7.0582   -2.7244   20.5716 H   0  0  0  0  0  0  0  0  0  0  0  0
    5.9516   -1.9958   21.7713 H   0  0  0  0  0  0  0  0  0  0  0  0
    6.8955    0.2929   23.5757 H   0  0  0  0  0  0  0  0  0  0  0  0
    7.6774   -0.8491   24.6905 H   0  0  0  0  0  0  0  0  0  0  0  0
    5.2805    3.0566   22.4566 H   0  0  0  0  0  0  0  0  0  0  0  0
    4.7115    3.7493   24.0131 H   0  0  0  0  0  0  0  0  0  0  0  0
    5.8348    4.6860   22.9703 H   0  0  0  0  0  0  0  0  0  0  0  0
   -1.1527    3.3312   21.8832 H   0  0  0  0  0  0  0  0  0  0  0  0
    0.3943    3.0405   22.7420 H   0  0  0  0  0  0  0  0  0  0  0  0
    0.0415    4.6580   22.0527 H   0  0  0  0  0  0  0  0  0  0  0  0
    7.7140    1.0117   26.4001 H   0  0  0  0  0  0  0  0  0  0  0  0
    8.4651    2.5647   25.9008 H   0  0  0  0  0  0  0  0  0  0  0  0
    2.5147    4.5450   20.4090 H   0  0  0  0  0  0  0  0  0  0  0  0
    7.6230    3.3510   23.7026 H   0  0  0  0  0  0  0  0  0  0  0  0
    8.7930    1.7233   23.7554 H   0  0  0  0  0  0  0  0  0  0  0  0
  1  3  2  0  0  0  0
  1  9  1  0  0  0  0
  2  4  2  0  0  0  0
  2 11  1  0  0  0  0
  3 14  1  0  0  0  0
  4 15  1  0  0  0  0
  5 10  1  0  0  0  0
  5 14  2  0  0  0  0
  6 12  1  0  0  0  0
  6 15  2  0  0  0  0
  7 10  2  0  0  0  0
  7 26  1  0  0  0  0
  8 13  1  0  0  0  0
  8 26  2  0  0  0  0
  9 10  1  0  0  0  0
  9 13  2  0  0  0  0
 11 12  2  0  0  0  0
 11 18  1  0  0  0  0
 12 22  1  0  0  0  0
 13 27  1  0  0  0  0
 14 28  1  0  0  0  0
 15 36  1  0  0  0  0
 16 22  1  0  0  0  0
 16 27  1  0  0  0  0
 16 31  2  0  0  0  0
 17 25  1  0  0  0  0
 17 29  1  0  0  0  0
 17 32  2  0  0  0  0
 18 30  1  0  0  0  0
 19 20  1  0  0  0  0
 19 22  1  0  0  0  0
 20 27  1  0  0  0  0
 21 22  1  0  0  0  0
 21 30  1  0  0  0  0
 23 29  1  0  0  0  0
 24 35  1  0  0  0  0
 25 30  1  6  0  0  0
 28 35  1  0  0  0  0
 33 35  2  0  0  0  0
 34 35  2  0  0  0  0
  1 37  1  0  0  0  0
  2 38  1  0  0  0  0
  3 39  1  0  0  0  0
  4 40  1  0  0  0  0
  5 41  1  0  0  0  0
  6 42  1  0  0  0  0
  7 43  1  0  0  0  0
  8 44  1  0  0  0  0
 18 45  1  0  0  0  0
 18 46  1  0  0  0  0
 19 47  1  0  0  0  0
 19 48  1  0  0  0  0
 20 49  1  0  0  0  0
 20 50  1  0  0  0  0
 21 51  1  0  0  0  0
 21 52  1  0  0  0  0
 23 53  1  0  0  0  0
 23 54  1  0  0  0  0
 23 55  1  0  0  0  0
 24 56  1  0  0  0  0
 24 57  1  0  0  0  0
 24 58  1  0  0  0  0
 25 59  1  0  0  0  0
 25 60  1  0  0  0  0
 28 61  1  0  0  0  0
 29 62  1  0  0  0  0
 30 63  1  0  0  0  0
M  CHG  1  30   1
M  END
> <compound>
MAT-POS-b4d6b7fc-7

> <compound_smiles>
CNC(=O)CN1Cc2ccc(cc2C3(C1)CCN(C3=O)c4cncc5c4ccc(c5)NS(=O)(=O)C)Cl

> <enantiomer_smiles>
CNC(=O)C[N@]1Cc2ccc(cc2C3(C1)CCN(C3=O)c4cncc5c4ccc(c5)NS(=O)(=O)C)Cl

> <scaffold>
tetrahydroisoquinoline-5spiro-isoquinoline

> <clash_score>
0

> <docking_score>
-8.92956256866455

> <overlap_score>
0.9814729690551758

> <MMFF_internal_energy>
121.89066766966428

> <docked_smiles>
CNC(=O)C[N@H+]1Cc2ccc(cc2[C@]3(C1)CCN(C3=O)c4cncc5c4ccc(c5)NS(=O)(=O)C)Cl

$$$$
EDJ-MED-fed7ac0b-3_1
  -OEChem-12272114573D

 56 61  0     1  0  0  0  0  0999 V2000
    8.5840    5.6549   25.0367 C   0  0  0  0  0  0  0  0  0  0  0  0
    3.3432    2.6279   20.4411 C   0  0  0  0  0  0  0  0  0  0  0  0
    3.8960    1.9291   21.5050 C   0  0  0  0  0  0  0  0  0  0  0  0
    3.7865    2.4205   19.1660 C   0  0  0  0  0  0  0  0  0  0  0  0
    4.8973    1.0233   21.2988 C   0  0  0  0  0  0  0  0  0  0  0  0
   12.0765    0.0316   24.1541 C   0  0  0  0  0  0  0  0  0  0  0  0
   12.9132   -0.6032   23.2569 C   0  0  0  0  0  0  0  0  0  0  0  0
   10.9991   -1.4331   22.0443 C   0  0  0  0  0  0  0  0  0  0  0  0
    5.3278    1.2339   17.6066 C   0  0  0  0  0  0  0  0  0  0  0  0
    6.8438   -0.2892   18.3752 C   0  0  0  0  0  0  0  0  0  0  0  0
    4.8226    1.4906   18.9054 C   0  0  0  0  0  0  0  0  0  0  0  0
    5.3982    0.7733   19.9948 C   0  0  0  0  0  0  0  0  0  0  0  0
   10.7040   -0.0625   23.9898 C   0  0  0  0  0  0  0  0  0  0  0  0
   10.1406   -0.7765   22.9250 C   0  0  0  0  0  0  0  0  0  0  0  0
    6.4440   -0.1472   19.6979 C   0  0  0  0  0  0  0  0  0  0  0  0
   12.3683   -1.3298   22.2234 C   0  0  0  0  0  0  0  0  0  0  0  0
    9.9479    0.5589   24.9534 C   0  0  0  0  0  0  0  0  0  0  0  0
    8.2490    0.0169   21.4271 C   0  0  0  0  0  0  0  0  0  0  0  0
    6.4967    5.1066   23.7336 C   0  0  0  0  0  0  0  0  0  0  0  0
    7.5045    5.6397   22.7586 C   0  0  0  0  0  0  0  0  0  0  0  0
    8.0140   -2.1541   22.4331 C   0  0  0  0  0  0  0  0  0  0  0  0
    7.8721   -0.1194   23.8831 C   0  0  0  0  0  0  0  0  0  0  0  0
    7.9717    4.8864   23.9840 C   0  0  0  0  0  0  0  0  0  0  0  0
    8.6238   -0.7606   22.6929 C   0  0  3  0  0  0  0  0  0  0  0  0
    8.5256    3.4920   23.7943 C   0  0  0  0  0  0  0  0  0  0  0  0
    9.0773    6.2741   25.8849 N   0  0  0  0  0  0  0  0  0  0  0  0
    6.3062    0.3769   17.3421 N   0  0  0  0  0  0  0  0  0  0  0  0
    6.9866   -1.9366   21.3580 N   0  0  0  0  0  0  0  0  0  0  0  0
    7.2292   -0.6897   20.7790 N   0  0  0  0  0  0  0  0  0  0  0  0
    8.6609    1.0133   24.4995 N   0  0  0  0  0  0  0  0  0  0  0  0
   10.3183    0.7524   26.1204 O   0  0  0  0  0  0  0  0  0  0  0  0
    8.7592    1.0923   21.1227 O   0  0  0  0  0  0  0  0  0  0  0  0
    8.3668    2.7504   26.2947 O   0  0  0  0  0  0  0  0  0  0  0  0
    6.4609    2.1934   24.7317 O   0  0  0  0  0  0  0  0  0  0  0  0
    7.8707    2.3634   24.9948 S   0  0  0  0  0  0  0  0  0  0  0  0
   13.4278   -2.1484   21.1149 Cl  0  0  0  0  0  0  0  0  0  0  0  0
    2.5432    3.3510   20.6369 H   0  0  0  0  0  0  0  0  0  0  0  0
    3.5174    2.1137   22.5168 H   0  0  0  0  0  0  0  0  0  0  0  0
    3.3409    2.9743   18.3364 H   0  0  0  0  0  0  0  0  0  0  0  0
    5.3118    0.4895   22.1572 H   0  0  0  0  0  0  0  0  0  0  0  0
   12.5173    0.5920   24.9743 H   0  0  0  0  0  0  0  0  0  0  0  0
   13.9906   -0.5273   23.3858 H   0  0  0  0  0  0  0  0  0  0  0  0
   10.6089   -2.0283   21.2316 H   0  0  0  0  0  0  0  0  0  0  0  0
    4.9141    1.7511   16.7474 H   0  0  0  0  0  0  0  0  0  0  0  0
    7.6445   -0.9764   18.1043 H   0  0  0  0  0  0  0  0  0  0  0  0
    5.9612    5.8243   24.3450 H   0  0  0  0  0  0  0  0  0  0  0  0
    5.8923    4.2628   23.4212 H   0  0  0  0  0  0  0  0  0  0  0  0
    7.5745    5.1533   21.7924 H   0  0  0  0  0  0  0  0  0  0  0  0
    7.6425    6.7142   22.7171 H   0  0  0  0  0  0  0  0  0  0  0  0
    8.7568   -2.8624   22.0526 H   0  0  0  0  0  0  0  0  0  0  0  0
    7.5452   -2.5966   23.3134 H   0  0  0  0  0  0  0  0  0  0  0  0
    6.9080    0.3016   23.5552 H   0  0  0  0  0  0  0  0  0  0  0  0
    7.6395   -0.8721   24.6511 H   0  0  0  0  0  0  0  0  0  0  0  0
    9.6135    3.4846   23.9048 H   0  0  0  0  0  0  0  0  0  0  0  0
    8.2669    3.0990   22.8074 H   0  0  0  0  0  0  0  0  0  0  0  0
    7.1092   -2.6632   20.6445 H   0  0  0  0  0  0  0  0  0  0  0  0
  1 23  1  0  0  0  0
  1 26  3  0  0  0  0
  2  3  1  0  0  0  0
  2  4  2  0  0  0  0
  3  5  2  0  0  0  0
  4 11  1  0  0  0  0
  5 12  1  0  0  0  0
  6  7  1  0  0  0  0
  6 13  2  0  0  0  0
  7 16  2  0  0  0  0
  8 14  2  0  0  0  0
  8 16  1  0  0  0  0
  9 11  2  0  0  0  0
  9 27  1  0  0  0  0
 10 15  1  0  0  0  0
 10 27  2  0  0  0  0
 11 12  1  0  0  0  0
 12 15  2  0  0  0  0
 13 14  1  0  0  0  0
 13 17  1  0  0  0  0
 14 24  1  0  0  0  0
 15 29  1  0  0  0  0
 16 36  1  0  0  0  0
 17 30  1  0  0  0  0
 17 31  2  0  0  0  0
 18 24  1  0  0  0  0
 18 29  1  0  0  0  0
 18 32  2  0  0  0  0
 19 20  1  0  0  0  0
 19 23  1  0  0  0  0
 20 23  1  0  0  0  0
 21 24  1  0  0  0  0
 21 28  1  0  0  0  0
 22 24  1  0  0  0  0
 22 30  1  0  0  0  0
 23 25  1  0  0  0  0
 25 35  1  0  0  0  0
 28 29  1  0  0  0  0
 30 35  1  0  0  0  0
 33 35  2  0  0  0  0
 34 35  2  0  0  0  0
  2 37  1  0  0  0  0
  3 38  1  0  0  0  0
  4 39  1  0  0  0  0
  5 40  1  0  0  0  0
  6 41  1  0  0  0  0
  7 42  1  0  0  0  0
  8 43  1  0  0  0  0
  9 44  1  0  0  0  0
 10 45  1  0  0  0  0
 19 46  1  0  0  0  0
 19 47  1  0  0  0  0
 20 48  1  0  0  0  0
 20 49  1  0  0  0  0
 21 50  1  0  0  0  0
 21 51  1  0  0  0  0
 22 52  1  0  0  0  0
 22 53  1  0  0  0  0
 25 54  1  0  0  0  0
 25 55  1  0  0  0  0
 28 56  1  0  0  0  0
M  END
> <compound>
EDJ-MED-fed7ac0b-3

> <compound_smiles>
c1ccc2c(c1)cncc2N3C(=O)C4(CN3)CN(C(=O)c5c4cc(cc5)Cl)S(=O)(=O)CC6(CC6)C#N

> <enantiomer_smiles>
c1ccc2c(c1)cncc2N3C(=O)C4(CN3)CN(C(=O)c5c4cc(cc5)Cl)S(=O)(=O)CC6(CC6)C#N

> <scaffold>
tetrahydroisoquinoline-5spiro-isoquinoline

> <clash_score>
0

> <docking_score>
-8.153138160705566

> <overlap_score>
0.9813912510871887

> <MMFF_internal_energy>
129.58757516132997

> <docked_smiles>
c1ccc2c(c1)cncc2N3C(=O)[C@]4(CN3)CN(C(=O)c5c4cc(cc5)Cl)S(=O)(=O)CC6(CC6)C#N

$$$$
MAT-POS-c2d406ed-3_1
  -OEChem-12272114573D

 56 61  0     1  0  0  0  0  0999 V2000
    9.5003    5.5230   23.7472 C   0  0  0  0  0  0  0  0  0  0  0  0
    3.3432    2.6279   20.4411 C   0  0  0  0  0  0  0  0  0  0  0  0
    3.8960    1.9291   21.5050 C   0  0  0  0  0  0  0  0  0  0  0  0
    3.7865    2.4205   19.1660 C   0  0  0  0  0  0  0  0  0  0  0  0
    4.8973    1.0233   21.2988 C   0  0  0  0  0  0  0  0  0  0  0  0
   12.0765    0.0316   24.1541 C   0  0  0  0  0  0  0  0  0  0  0  0
   12.9132   -0.6032   23.2569 C   0  0  0  0  0  0  0  0  0  0  0  0
   10.9991   -1.4331   22.0443 C   0  0  0  0  0  0  0  0  0  0  0  0
    5.3278    1.2339   17.6066 C   0  0  0  0  0  0  0  0  0  0  0  0
    6.8438   -0.2892   18.3752 C   0  0  0  0  0  0  0  0  0  0  0  0
    4.8226    1.4906   18.9054 C   0  0  0  0  0  0  0  0  0  0  0  0
    5.3982    0.7733   19.9948 C   0  0  0  0  0  0  0  0  0  0  0  0
   10.7040   -0.0625   23.9898 C   0  0  0  0  0  0  0  0  0  0  0  0
   10.1406   -0.7765   22.9250 C   0  0  0  0  0  0  0  0  0  0  0  0
    6.4440   -0.1472   19.6979 C   0  0  0  0  0  0  0  0  0  0  0  0
   12.3683   -1.3298   22.2234 C   0  0  0  0  0  0  0  0  0  0  0  0
    8.2490    0.0169   21.4271 C   0  0  0  0  0  0  0  0  0  0  0  0
    6.9866   -1.9366   21.3580 C   0  0  0  0  0  0  0  0  0  0  0  0
    9.9479    0.5589   24.9534 C   0  0  0  0  0  0  0  0  0  0  0  0
    7.5711    6.0694   25.2753 C   0  0  0  0  0  0  0  0  0  0  0  0
    6.9909    5.5820   23.9805 C   0  0  0  0  0  0  0  0  0  0  0  0
    7.8721   -0.1194   23.8831 C   0  0  0  0  0  0  0  0  0  0  0  0
    8.3307    5.0578   24.4467 C   0  0  0  0  0  0  0  0  0  0  0  0
    8.6238   -0.7606   22.6929 C   0  0  3  0  0  0  0  0  0  0  0  0
    8.4017    3.6338   24.9510 C   0  0  0  0  0  0  0  0  0  0  0  0
   10.4428    5.8977   23.1837 N   0  0  0  0  0  0  0  0  0  0  0  0
    6.3062    0.3769   17.3421 N   0  0  0  0  0  0  0  0  0  0  0  0
    8.0140   -2.1541   22.4331 N   0  0  0  0  0  0  0  0  0  0  0  0
    7.2292   -0.6897   20.7790 N   0  0  0  0  0  0  0  0  0  0  0  0
    8.6609    1.0133   24.4995 N   0  0  1  0  0  0  0  0  0  0  0  0
    8.7612    1.0729   21.1139 O   0  0  0  0  0  0  0  0  0  0  0  0
    7.4249    2.5053   22.8064 O   0  0  0  0  0  0  0  0  0  0  0  0
    9.9324    2.7018   23.0494 O   0  0  0  0  0  0  0  0  0  0  0  0
    5.9149   -3.1556   21.0465 S   0  0  0  0  0  0  0  0  0  0  0  0
    8.6212    2.4822   23.6193 S   0  0  0  0  0  0  0  0  0  0  0  0
   13.4274   -2.1415   21.1094 Cl  0  0  0  0  0  0  0  0  0  0  0  0
    2.5432    3.3510   20.6369 H   0  0  0  0  0  0  0  0  0  0  0  0
    3.5174    2.1137   22.5168 H   0  0  0  0  0  0  0  0  0  0  0  0
    3.3409    2.9743   18.3364 H   0  0  0  0  0  0  0  0  0  0  0  0
    5.3118    0.4895   22.1572 H   0  0  0  0  0  0  0  0  0  0  0  0
   12.5020    0.5930   24.9782 H   0  0  0  0  0  0  0  0  0  0  0  0
   13.9910   -0.5217   23.3821 H   0  0  0  0  0  0  0  0  0  0  0  0
   10.6053   -2.0224   21.2274 H   0  0  0  0  0  0  0  0  0  0  0  0
    4.9141    1.7511   16.7474 H   0  0  0  0  0  0  0  0  0  0  0  0
    7.6445   -0.9764   18.1043 H   0  0  0  0  0  0  0  0  0  0  0  0
    9.7593   -0.1292   25.8181 H   0  0  0  0  0  0  0  0  0  0  0  0
   10.4945    1.4380   25.3850 H   0  0  0  0  0  0  0  0  0  0  0  0
    7.9276    7.0926   25.3122 H   0  0  0  0  0  0  0  0  0  0  0  0
    7.1000    5.7383   26.1936 H   0  0  0  0  0  0  0  0  0  0  0  0
    6.1303    4.9250   24.0317 H   0  0  0  0  0  0  0  0  0  0  0  0
    6.9584    6.2798   23.1514 H   0  0  0  0  0  0  0  0  0  0  0  0
    6.8935    0.2814   23.5624 H   0  0  0  0  0  0  0  0  0  0  0  0
    7.6756   -0.8745   24.6642 H   0  0  0  0  0  0  0  0  0  0  0  0
    7.4797    3.3556   25.4691 H   0  0  0  0  0  0  0  0  0  0  0  0
    9.2455    3.5020   25.6337 H   0  0  0  0  0  0  0  0  0  0  0  0
    8.2432   -2.9508   22.8204 H   0  0  0  0  0  0  0  0  0  0  0  0
  1 23  1  0  0  0  0
  1 26  3  0  0  0  0
  2  3  1  0  0  0  0
  2  4  2  0  0  0  0
  3  5  2  0  0  0  0
  4 11  1  0  0  0  0
  5 12  1  0  0  0  0
  6  7  1  0  0  0  0
  6 13  2  0  0  0  0
  7 16  2  0  0  0  0
  8 14  2  0  0  0  0
  8 16  1  0  0  0  0
  9 11  2  0  0  0  0
  9 27  1  0  0  0  0
 10 15  1  0  0  0  0
 10 27  2  0  0  0  0
 11 12  1  0  0  0  0
 12 15  2  0  0  0  0
 13 14  1  0  0  0  0
 13 19  1  0  0  0  0
 14 24  1  0  0  0  0
 15 29  1  0  0  0  0
 16 36  1  0  0  0  0
 17 24  1  0  0  0  0
 17 29  1  0  0  0  0
 17 31  2  0  0  0  0
 18 28  1  0  0  0  0
 18 29  1  0  0  0  0
 18 34  2  0  0  0  0
 19 30  1  0  0  0  0
 20 21  1  0  0  0  0
 20 23  1  0  0  0  0
 21 23  1  0  0  0  0
 22 24  1  0  0  0  0
 22 30  1  0  0  0  0
 23 25  1  0  0  0  0
 24 28  1  0  0  0  0
 25 35  1  0  0  0  0
 30 35  1  1  0  0  0
 32 35  2  0  0  0  0
 33 35  2  0  0  0  0
  2 37  1  0  0  0  0
  3 38  1  0  0  0  0
  4 39  1  0  0  0  0
  5 40  1  0  0  0  0
  6 41  1  0  0  0  0
  7 42  1  0  0  0  0
  8 43  1  0  0  0  0
  9 44  1  0  0  0  0
 10 45  1  0  0  0  0
 19 46  1  0  0  0  0
 19 47  1  0  0  0  0
 20 48  1  0  0  0  0
 20 49  1  0  0  0  0
 21 50  1  0  0  0  0
 21 51  1  0  0  0  0
 22 52  1  0  0  0  0
 22 53  1  0  0  0  0
 25 54  1  0  0  0  0
 25 55  1  0  0  0  0
 28 56  1  0  0  0  0
M  END
> <compound>
MAT-POS-c2d406ed-3

> <compound_smiles>
c1ccc2c(c1)cncc2N3C(=O)C4(CN(Cc5c4cc(cc5)Cl)S(=O)(=O)CC6(CC6)C#N)NC3=S

> <enantiomer_smiles>
c1ccc2c(c1)cncc2N3C(=O)C4(C[N@@](Cc5c4cc(cc5)Cl)S(=O)(=O)CC6(CC6)C#N)NC3=S

> <scaffold>
tetrahydroisoquinoline-5spiro-isoquinoline

> <clash_score>
0

> <docking_score>
-8.523062705993652

> <overlap_score>
1.0

> <MMFF_internal_energy>
131.84147256405998

> <docked_smiles>
c1ccc2c(c1)cncc2N3C(=O)[C@@]4(C[N@@](Cc5c4cc(cc5)Cl)S(=O)(=O)CC6(CC6)C#N)NC3=S

$$$$
MAT-POS-c2d406ed-3_2
  -OEChem-12272114573D

 56 61  0     1  0  0  0  0  0999 V2000
    7.3179    3.4121   22.7726 C   0  0  0  0  0  0  0  0  0  0  0  0
    3.3432    2.6279   20.4411 C   0  0  0  0  0  0  0  0  0  0  0  0
    3.8960    1.9291   21.5050 C   0  0  0  0  0  0  0  0  0  0  0  0
    3.7865    2.4205   19.1660 C   0  0  0  0  0  0  0  0  0  0  0  0
    4.8973    1.0233   21.2988 C   0  0  0  0  0  0  0  0  0  0  0  0
   12.0765    0.0316   24.1541 C   0  0  0  0  0  0  0  0  0  0  0  0
   12.9132   -0.6032   23.2569 C   0  0  0  0  0  0  0  0  0  0  0  0
   10.9991   -1.4331   22.0443 C   0  0  0  0  0  0  0  0  0  0  0  0
    5.3278    1.2339   17.6066 C   0  0  0  0  0  0  0  0  0  0  0  0
    6.8438   -0.2892   18.3752 C   0  0  0  0  0  0  0  0  0  0  0  0
    4.8226    1.4906   18.9054 C   0  0  0  0  0  0  0  0  0  0  0  0
    5.3982    0.7733   19.9948 C   0  0  0  0  0  0  0  0  0  0  0  0
   10.7040   -0.0625   23.9898 C   0  0  0  0  0  0  0  0  0  0  0  0
   10.1406   -0.7765   22.9250 C   0  0  0  0  0  0  0  0  0  0  0  0
    6.4440   -0.1472   19.6979 C   0  0  0  0  0  0  0  0  0  0  0  0
   12.3683   -1.3298   22.2234 C   0  0  0  0  0  0  0  0  0  0  0  0
    8.2490    0.0169   21.4271 C   0  0  0  0  0  0  0  0  0  0  0  0
    6.9866   -1.9366   21.3580 C   0  0  0  0  0  0  0  0  0  0  0  0
    9.9479    0.5589   24.9534 C   0  0  0  0  0  0  0  0  0  0  0  0
    9.8196    3.1316   22.9097 C   0  0  0  0  0  0  0  0  0  0  0  0
    9.5337    4.6041   22.9290 C   0  0  0  0  0  0  0  0  0  0  0  0
    7.8721   -0.1194   23.8831 C   0  0  0  0  0  0  0  0  0  0  0  0
    8.5301    3.6373   23.5166 C   0  0  0  0  0  0  0  0  0  0  0  0
    8.6238   -0.7606   22.6929 C   0  0  3  0  0  0  0  0  0  0  0  0
    8.3845    3.5891   25.0211 C   0  0  0  0  0  0  0  0  0  0  0  0
    6.3413    3.2305   22.1731 N   0  0  0  0  0  0  0  0  0  0  0  0
    6.3062    0.3769   17.3421 N   0  0  0  0  0  0  0  0  0  0  0  0
    8.0140   -2.1541   22.4331 N   0  0  0  0  0  0  0  0  0  0  0  0
    7.2292   -0.6897   20.7790 N   0  0  0  0  0  0  0  0  0  0  0  0
    8.6609    1.0133   24.4995 N   0  0  2  0  0  0  0  0  0  0  0  0
    8.7571    1.0625   21.0764 O   0  0  0  0  0  0  0  0  0  0  0  0
    8.2254    1.8035   26.9220 O   0  0  0  0  0  0  0  0  0  0  0  0
    6.3702    1.9356   25.2114 O   0  0  0  0  0  0  0  0  0  0  0  0
    5.8479   -3.0777   21.0214 S   0  0  0  0  0  0  0  0  0  0  0  0
    7.7705    2.0159   25.5653 S   0  0  0  0  0  0  0  0  0  0  0  0
   13.4270   -2.1416   21.1090 Cl  0  0  0  0  0  0  0  0  0  0  0  0
    2.5432    3.3510   20.6369 H   0  0  0  0  0  0  0  0  0  0  0  0
    3.5174    2.1137   22.5168 H   0  0  0  0  0  0  0  0  0  0  0  0
    3.3409    2.9743   18.3364 H   0  0  0  0  0  0  0  0  0  0  0  0
    5.3118    0.4895   22.1572 H   0  0  0  0  0  0  0  0  0  0  0  0
   12.5021    0.5994   24.9739 H   0  0  0  0  0  0  0  0  0  0  0  0
   13.9910   -0.5168   23.3787 H   0  0  0  0  0  0  0  0  0  0  0  0
   10.6054   -2.0180   21.2241 H   0  0  0  0  0  0  0  0  0  0  0  0
    4.9141    1.7511   16.7474 H   0  0  0  0  0  0  0  0  0  0  0  0
    7.6445   -0.9764   18.1043 H   0  0  0  0  0  0  0  0  0  0  0  0
    9.7863   -0.1172   25.8336 H   0  0  0  0  0  0  0  0  0  0  0  0
   10.4806    1.4573   25.3606 H   0  0  0  0  0  0  0  0  0  0  0  0
    9.7865    2.6263   21.9510 H   0  0  0  0  0  0  0  0  0  0  0  0
   10.5937    2.7609   23.5717 H   0  0  0  0  0  0  0  0  0  0  0  0
   10.1172    5.2201   23.6036 H   0  0  0  0  0  0  0  0  0  0  0  0
    9.3104    5.0841   21.9830 H   0  0  0  0  0  0  0  0  0  0  0  0
    6.8950    0.2744   23.5523 H   0  0  0  0  0  0  0  0  0  0  0  0
    7.6730   -0.8660   24.6732 H   0  0  0  0  0  0  0  0  0  0  0  0
    7.6797    4.3486   25.3707 H   0  0  0  0  0  0  0  0  0  0  0  0
    9.3482    3.7468   25.5129 H   0  0  0  0  0  0  0  0  0  0  0  0
    8.2060   -2.9419   22.8569 H   0  0  0  0  0  0  0  0  0  0  0  0
  1 23  1  0  0  0  0
  1 26  3  0  0  0  0
  2  3  1  0  0  0  0
  2  4  2  0  0  0  0
  3  5  2  0  0  0  0
  4 11  1  0  0  0  0
  5 12  1  0  0  0  0
  6  7  1  0  0  0  0
  6 13  2  0  0  0  0
  7 16  2  0  0  0  0
  8 14  2  0  0  0  0
  8 16  1  0  0  0  0
  9 11  2  0  0  0  0
  9 27  1  0  0  0  0
 10 15  1  0  0  0  0
 10 27  2  0  0  0  0
 11 12  1  0  0  0  0
 12 15  2  0  0  0  0
 13 14  1  0  0  0  0
 13 19  1  0  0  0  0
 14 24  1  0  0  0  0
 15 29  1  0  0  0  0
 16 36  1  0  0  0  0
 17 24  1  0  0  0  0
 17 29  1  0  0  0  0
 17 31  2  0  0  0  0
 18 28  1  0  0  0  0
 18 29  1  0  0  0  0
 18 34  2  0  0  0  0
 19 30  1  0  0  0  0
 20 21  1  0  0  0  0
 20 23  1  0  0  0  0
 21 23  1  0  0  0  0
 22 24  1  0  0  0  0
 22 30  1  0  0  0  0
 23 25  1  0  0  0  0
 24 28  1  0  0  0  0
 25 35  1  0  0  0  0
 30 35  1  6  0  0  0
 32 35  2  0  0  0  0
 33 35  2  0  0  0  0
  2 37  1  0  0  0  0
  3 38  1  0  0  0  0
  4 39  1  0  0  0  0
  5 40  1  0  0  0  0
  6 41  1  0  0  0  0
  7 42  1  0  0  0  0
  8 43  1  0  0  0  0
  9 44  1  0  0  0  0
 10 45  1  0  0  0  0
 19 46  1  0  0  0  0
 19 47  1  0  0  0  0
 20 48  1  0  0  0  0
 20 49  1  0  0  0  0
 21 50  1  0  0  0  0
 21 51  1  0  0  0  0
 22 52  1  0  0  0  0
 22 53  1  0  0  0  0
 25 54  1  0  0  0  0
 25 55  1  0  0  0  0
 28 56  1  0  0  0  0
M  END
> <compound>
MAT-POS-c2d406ed-3

> <compound_smiles>
c1ccc2c(c1)cncc2N3C(=O)C4(CN(Cc5c4cc(cc5)Cl)S(=O)(=O)CC6(CC6)C#N)NC3=S

> <enantiomer_smiles>
c1ccc2c(c1)cncc2N3C(=O)C4(C[N@](Cc5c4cc(cc5)Cl)S(=O)(=O)CC6(CC6)C#N)NC3=S

> <scaffold>
tetrahydroisoquinoline-5spiro-isoquinoline

> <clash_score>
0

> <docking_score>
-8.372855186462402

> <overlap_score>
1.0

> <MMFF_internal_energy>
131.01868256621

> <docked_smiles>
c1ccc2c(c1)cncc2N3C(=O)[C@@]4(C[N@](Cc5c4cc(cc5)Cl)S(=O)(=O)CC6(CC6)C#N)NC3=S

$$$$
MAT-POS-be048f2c-7_1
  -OEChem-12272114573D

 60 66  0     1  0  0  0  0  0999 V2000
    3.3432    2.6279   20.4411 C   0  0  0  0  0  0  0  0  0  0  0  0
    3.8960    1.9291   21.5050 C   0  0  0  0  0  0  0  0  0  0  0  0
    3.7865    2.4205   19.1660 C   0  0  0  0  0  0  0  0  0  0  0  0
    4.8973    1.0233   21.2988 C   0  0  0  0  0  0  0  0  0  0  0  0
   12.0765    0.0316   24.1541 C   0  0  0  0  0  0  0  0  0  0  0  0
   12.9132   -0.6032   23.2569 C   0  0  0  0  0  0  0  0  0  0  0  0
    5.9610    2.1425   25.7875 C   0  0  0  0  0  0  0  0  0  0  0  0
   10.9991   -1.4331   22.0443 C   0  0  0  0  0  0  0  0  0  0  0  0
    4.7082    2.6901   25.4522 C   0  0  0  0  0  0  0  0  0  0  0  0
    5.3278    1.2339   17.6066 C   0  0  0  0  0  0  0  0  0  0  0  0
    6.8438   -0.2892   18.3752 C   0  0  0  0  0  0  0  0  0  0  0  0
    4.8226    1.4906   18.9054 C   0  0  0  0  0  0  0  0  0  0  0  0
    5.3982    0.7733   19.9948 C   0  0  0  0  0  0  0  0  0  0  0  0
   10.7040   -0.0625   23.9898 C   0  0  0  0  0  0  0  0  0  0  0  0
   10.1406   -0.7765   22.9250 C   0  0  0  0  0  0  0  0  0  0  0  0
    6.4440   -0.1472   19.6979 C   0  0  0  0  0  0  0  0  0  0  0  0
   12.3683   -1.3298   22.2234 C   0  0  0  0  0  0  0  0  0  0  0  0
    6.8028    2.5764   24.7927 C   0  0  0  0  0  0  0  0  0  0  0  0
    8.2490    0.0169   21.4271 C   0  0  0  0  0  0  0  0  0  0  0  0
    8.2375    2.3090   24.6292 C   0  0  0  0  0  0  0  0  0  0  0  0
    9.9479    0.5589   24.9534 C   0  0  0  0  0  0  0  0  0  0  0  0
    7.1832    5.3465   22.8293 C   0  0  0  0  0  0  0  0  0  0  0  0
    5.8376    5.2033   22.1899 C   0  0  0  0  0  0  0  0  0  0  0  0
    8.0140   -2.1541   22.4331 C   0  0  0  0  0  0  0  0  0  0  0  0
    6.9866   -1.9366   21.3580 C   0  0  0  0  0  0  0  0  0  0  0  0
    7.8721   -0.1194   23.8831 C   0  0  0  0  0  0  0  0  0  0  0  0
    6.5295    3.9862   22.7575 C   0  0  0  0  0  0  0  0  0  0  0  0
    8.6238   -0.7606   22.6929 C   0  0  3  0  0  0  0  0  0  0  0  0
    6.3062    0.3769   17.3421 N   0  0  0  0  0  0  0  0  0  0  0  0
    4.7462    3.4166   24.3321 N   0  0  0  0  0  0  0  0  0  0  0  0
    6.0331    3.3286   23.9549 N   0  0  0  0  0  0  0  0  0  0  0  0
    7.2292   -0.6897   20.7790 N   0  0  0  0  0  0  0  0  0  0  0  0
    8.6609    1.0133   24.4995 N   0  0  0  0  0  0  0  0  0  0  0  0
    8.8277    1.0425   21.0805 O   0  0  0  0  0  0  0  0  0  0  0  0
    8.9768    3.2919   24.6275 O   0  0  0  0  0  0  0  0  0  0  0  0
   13.4283   -2.1471   21.1145 Cl  0  0  0  0  0  0  0  0  0  0  0  0
    2.5432    3.3510   20.6369 H   0  0  0  0  0  0  0  0  0  0  0  0
    3.5174    2.1137   22.5168 H   0  0  0  0  0  0  0  0  0  0  0  0
    3.3409    2.9743   18.3364 H   0  0  0  0  0  0  0  0  0  0  0  0
    5.3118    0.4895   22.1572 H   0  0  0  0  0  0  0  0  0  0  0  0
   12.5034    0.5864   24.9813 H   0  0  0  0  0  0  0  0  0  0  0  0
   13.9913   -0.5293   23.3874 H   0  0  0  0  0  0  0  0  0  0  0  0
    6.2131    1.5201   26.6339 H   0  0  0  0  0  0  0  0  0  0  0  0
   10.6139   -2.0336   21.2353 H   0  0  0  0  0  0  0  0  0  0  0  0
    3.7693    2.5899   25.9775 H   0  0  0  0  0  0  0  0  0  0  0  0
    4.9141    1.7511   16.7474 H   0  0  0  0  0  0  0  0  0  0  0  0
    7.6445   -0.9764   18.1043 H   0  0  0  0  0  0  0  0  0  0  0  0
    9.7841   -0.0930   25.8515 H   0  0  0  0  0  0  0  0  0  0  0  0
   10.4579    1.4725   25.3586 H   0  0  0  0  0  0  0  0  0  0  0  0
    8.0324    5.5306   22.1823 H   0  0  0  0  0  0  0  0  0  0  0  0
    7.2351    5.8453   23.7892 H   0  0  0  0  0  0  0  0  0  0  0  0
    4.9827    5.6052   22.7201 H   0  0  0  0  0  0  0  0  0  0  0  0
    5.7778    5.2908   21.1119 H   0  0  0  0  0  0  0  0  0  0  0  0
    7.5120   -2.5701   23.3194 H   0  0  0  0  0  0  0  0  0  0  0  0
    8.7722   -2.8982   22.1400 H   0  0  0  0  0  0  0  0  0  0  0  0
    7.0511   -2.7253   20.5708 H   0  0  0  0  0  0  0  0  0  0  0  0
    5.9515   -1.9941   21.7738 H   0  0  0  0  0  0  0  0  0  0  0  0
    6.9258    0.3344   23.5581 H   0  0  0  0  0  0  0  0  0  0  0  0
    7.6176   -0.8486   24.6565 H   0  0  0  0  0  0  0  0  0  0  0  0
    6.9435    3.2822   22.0442 H   0  0  0  0  0  0  0  0  0  0  0  0
  1  2  1  0  0  0  0
  1  3  2  0  0  0  0
  2  4  2  0  0  0  0
  3 12  1  0  0  0  0
  4 13  1  0  0  0  0
  5  6  1  0  0  0  0
  5 14  2  0  0  0  0
  6 17  2  0  0  0  0
  7  9  1  0  0  0  0
  7 18  2  0  0  0  0
  8 15  2  0  0  0  0
  8 17  1  0  0  0  0
  9 30  2  0  0  0  0
 10 12  2  0  0  0  0
 10 29  1  0  0  0  0
 11 16  1  0  0  0  0
 11 29  2  0  0  0  0
 12 13  1  0  0  0  0
 13 16  2  0  0  0  0
 14 15  1  0  0  0  0
 14 21  1  0  0  0  0
 15 28  1  0  0  0  0
 16 32  1  0  0  0  0
 17 36  1  0  0  0  0
 18 20  1  0  0  0  0
 18 31  1  0  0  0  0
 19 28  1  0  0  0  0
 19 32  1  0  0  0  0
 19 34  2  0  0  0  0
 20 33  1  0  0  0  0
 20 35  2  0  0  0  0
 21 33  1  0  0  0  0
 22 23  1  0  0  0  0
 22 27  1  0  0  0  0
 23 27  1  0  0  0  0
 24 25  1  0  0  0  0
 24 28  1  0  0  0  0
 25 32  1  0  0  0  0
 26 28  1  0  0  0  0
 26 33  1  0  0  0  0
 27 31  1  0  0  0  0
 30 31  1  0  0  0  0
  1 37  1  0  0  0  0
  2 38  1  0  0  0  0
  3 39  1  0  0  0  0
  4 40  1  0  0  0  0
  5 41  1  0  0  0  0
  6 42  1  0  0  0  0
  7 43  1  0  0  0  0
  8 44  1  0  0  0  0
  9 45  1  0  0  0  0
 10 46  1  0  0  0  0
 11 47  1  0  0  0  0
 21 48  1  0  0  0  0
 21 49  1  0  0  0  0
 22 50  1  0  0  0  0
 22 51  1  0  0  0  0
 23 52  1  0  0  0  0
 23 53  1  0  0  0  0
 24 54  1  0  0  0  0
 24 55  1  0  0  0  0
 25 56  1  0  0  0  0
 25 57  1  0  0  0  0
 26 58  1  0  0  0  0
 26 59  1  0  0  0  0
 27 60  1  0  0  0  0
M  END
> <compound>
MAT-POS-be048f2c-7

> <compound_smiles>
c1ccc2c(c1)cncc2N3CCC4(C3=O)CN(Cc5c4cc(cc5)Cl)C(=O)c6ccnn6C7CC7

> <enantiomer_smiles>
c1ccc2c(c1)cncc2N3CCC4(C3=O)CN(Cc5c4cc(cc5)Cl)C(=O)c6ccnn6C7CC7

> <scaffold>
tetrahydroisoquinoline-5spiro-isoquinoline

> <clash_score>
0

> <docking_score>
-8.490453720092773

> <overlap_score>
0.9707375168800354

> <MMFF_internal_energy>
133.95004028848865

> <docked_smiles>
c1ccc2c(c1)cncc2N3CC[C@@]4(C3=O)CN(Cc5c4cc(cc5)Cl)C(=O)c6ccnn6C7CC7

$$$$
EDJ-MED-a12e3a20-1_1
  -OEChem-12272114573D

 57 62  0     1  0  0  0  0  0999 V2000
    9.9995    5.1167   23.8048 C   0  0  0  0  0  0  0  0  0  0  0  0
    3.3432    2.6279   20.4411 C   0  0  0  0  0  0  0  0  0  0  0  0
    3.8960    1.9291   21.5050 C   0  0  0  0  0  0  0  0  0  0  0  0
    3.7865    2.4205   19.1660 C   0  0  0  0  0  0  0  0  0  0  0  0
    4.8973    1.0233   21.2988 C   0  0  0  0  0  0  0  0  0  0  0  0
   12.0765    0.0316   24.1541 C   0  0  0  0  0  0  0  0  0  0  0  0
   12.9132   -0.6032   23.2569 C   0  0  0  0  0  0  0  0  0  0  0  0
   10.9991   -1.4331   22.0443 C   0  0  0  0  0  0  0  0  0  0  0  0
    5.3278    1.2339   17.6066 C   0  0  0  0  0  0  0  0  0  0  0  0
    6.8438   -0.2892   18.3752 C   0  0  0  0  0  0  0  0  0  0  0  0
    4.8226    1.4906   18.9054 C   0  0  0  0  0  0  0  0  0  0  0  0
    5.3982    0.7733   19.9948 C   0  0  0  0  0  0  0  0  0  0  0  0
   10.7040   -0.0625   23.9898 C   0  0  0  0  0  0  0  0  0  0  0  0
   10.1406   -0.7765   22.9250 C   0  0  0  0  0  0  0  0  0  0  0  0
    6.4440   -0.1472   19.6979 C   0  0  0  0  0  0  0  0  0  0  0  0
   12.3683   -1.3298   22.2234 C   0  0  0  0  0  0  0  0  0  0  0  0
    8.0140   -2.1541   22.4331 C   0  0  0  0  0  0  0  0  0  0  0  0
    8.2490    0.0169   21.4271 C   0  0  0  0  0  0  0  0  0  0  0  0
    9.9479    0.5589   24.9534 C   0  0  0  0  0  0  0  0  0  0  0  0
    6.9866   -1.9366   21.3580 C   0  0  0  0  0  0  0  0  0  0  0  0
    8.5462    6.1077   25.6108 C   0  0  0  0  0  0  0  0  0  0  0  0
    7.7139    6.0204   24.3657 C   0  0  0  0  0  0  0  0  0  0  0  0
    7.8721   -0.1194   23.8831 C   0  0  0  0  0  0  0  0  0  0  0  0
    8.8095    5.0065   24.6083 C   0  0  0  0  0  0  0  0  0  0  0  0
    8.6238   -0.7606   22.6929 C   0  0  3  0  0  0  0  0  0  0  0  0
    8.4058    3.5966   24.9772 C   0  0  0  0  0  0  0  0  0  0  0  0
   10.9583    5.2054   23.1575 N   0  0  0  0  0  0  0  0  0  0  0  0
    6.3062    0.3769   17.3421 N   0  0  0  0  0  0  0  0  0  0  0  0
    7.2292   -0.6897   20.7790 N   0  0  0  0  0  0  0  0  0  0  0  0
    8.6609    1.0133   24.4995 N   0  0  1  0  0  0  0  0  0  0  0  0
    8.2949   -3.1642   22.9540 O   0  0  0  0  0  0  0  0  0  0  0  0
    8.7729    1.0673   21.0713 O   0  0  0  0  0  0  0  0  0  0  0  0
    7.4200    2.5162   22.8120 O   0  0  0  0  0  0  0  0  0  0  0  0
    9.9280    2.7234   23.0411 O   0  0  0  0  0  0  0  0  0  0  0  0
    8.6226    2.4803   23.6152 S   0  0  0  0  0  0  0  0  0  0  0  0
   13.4271   -2.1445   21.1113 Cl  0  0  0  0  0  0  0  0  0  0  0  0
    2.5432    3.3510   20.6369 H   0  0  0  0  0  0  0  0  0  0  0  0
    3.5174    2.1137   22.5168 H   0  0  0  0  0  0  0  0  0  0  0  0
    3.3409    2.9743   18.3364 H   0  0  0  0  0  0  0  0  0  0  0  0
    5.3118    0.4895   22.1572 H   0  0  0  0  0  0  0  0  0  0  0  0
   12.5022    0.5908   24.9798 H   0  0  0  0  0  0  0  0  0  0  0  0
   13.9909   -0.5239   23.3841 H   0  0  0  0  0  0  0  0  0  0  0  0
   10.6036   -2.0222   21.2278 H   0  0  0  0  0  0  0  0  0  0  0  0
    4.9141    1.7511   16.7474 H   0  0  0  0  0  0  0  0  0  0  0  0
    7.6445   -0.9764   18.1043 H   0  0  0  0  0  0  0  0  0  0  0  0
    9.7588   -0.1298   25.8182 H   0  0  0  0  0  0  0  0  0  0  0  0
   10.4944    1.4377   25.3872 H   0  0  0  0  0  0  0  0  0  0  0  0
    7.0696   -2.7505   20.5927 H   0  0  0  0  0  0  0  0  0  0  0  0
    5.9623   -1.9710   21.8103 H   0  0  0  0  0  0  0  0  0  0  0  0
    9.2506    6.9283   25.6873 H   0  0  0  0  0  0  0  0  0  0  0  0
    8.0727    5.8502   26.5512 H   0  0  0  0  0  0  0  0  0  0  0  0
    6.6823    5.7052   24.4723 H   0  0  0  0  0  0  0  0  0  0  0  0
    7.8609    6.7833   23.6096 H   0  0  0  0  0  0  0  0  0  0  0  0
    6.8897    0.2773   23.5726 H   0  0  0  0  0  0  0  0  0  0  0  0
    7.6735   -0.8763   24.6611 H   0  0  0  0  0  0  0  0  0  0  0  0
    7.3516    3.5537   25.2644 H   0  0  0  0  0  0  0  0  0  0  0  0
    9.0139    3.2188   25.8036 H   0  0  0  0  0  0  0  0  0  0  0  0
  1 24  1  0  0  0  0
  1 27  3  0  0  0  0
  2  3  1  0  0  0  0
  2  4  2  0  0  0  0
  3  5  2  0  0  0  0
  4 11  1  0  0  0  0
  5 12  1  0  0  0  0
  6  7  1  0  0  0  0
  6 13  2  0  0  0  0
  7 16  2  0  0  0  0
  8 14  2  0  0  0  0
  8 16  1  0  0  0  0
  9 11  2  0  0  0  0
  9 28  1  0  0  0  0
 10 15  1  0  0  0  0
 10 28  2  0  0  0  0
 11 12  1  0  0  0  0
 12 15  2  0  0  0  0
 13 14  1  0  0  0  0
 13 19  1  0  0  0  0
 14 25  1  0  0  0  0
 15 29  1  0  0  0  0
 16 36  1  0  0  0  0
 17 20  1  0  0  0  0
 17 25  1  0  0  0  0
 17 31  2  0  0  0  0
 18 25  1  0  0  0  0
 18 29  1  0  0  0  0
 18 32  2  0  0  0  0
 19 30  1  0  0  0  0
 20 29  1  0  0  0  0
 21 22  1  0  0  0  0
 21 24  1  0  0  0  0
 22 24  1  0  0  0  0
 23 25  1  0  0  0  0
 23 30  1  0  0  0  0
 24 26  1  0  0  0  0
 26 35  1  0  0  0  0
 30 35  1  1  0  0  0
 33 35  2  0  0  0  0
 34 35  2  0  0  0  0
  2 37  1  0  0  0  0
  3 38  1  0  0  0  0
  4 39  1  0  0  0  0
  5 40  1  0  0  0  0
  6 41  1  0  0  0  0
  7 42  1  0  0  0  0
  8 43  1  0  0  0  0
  9 44  1  0  0  0  0
 10 45  1  0  0  0  0
 19 46  1  0  0  0  0
 19 47  1  0  0  0  0
 20 48  1  0  0  0  0
 20 49  1  0  0  0  0
 21 50  1  0  0  0  0
 21 51  1  0  0  0  0
 22 52  1  0  0  0  0
 22 53  1  0  0  0  0
 23 54  1  0  0  0  0
 23 55  1  0  0  0  0
 26 56  1  0  0  0  0
 26 57  1  0  0  0  0
M  END
> <compound>
EDJ-MED-a12e3a20-1

> <compound_smiles>
c1ccc2c(c1)cncc2N3CC(=O)C4(C3=O)CN(Cc5c4cc(cc5)Cl)S(=O)(=O)CC6(CC6)C#N

> <enantiomer_smiles>
c1ccc2c(c1)cncc2N3CC(=O)C4(C3=O)C[N@@](Cc5c4cc(cc5)Cl)S(=O)(=O)CC6(CC6)C#N

> <scaffold>
tetrahydroisoquinoline-5spiro-isoquinoline

> <clash_score>
0

> <docking_score>
-8.592876434326172

> <overlap_score>
0.9846081137657166

> <MMFF_internal_energy>
138.71255950973324

> <docked_smiles>
c1ccc2c(c1)cncc2N3CC(=O)[C@@]4(C3=O)C[N@@](Cc5c4cc(cc5)Cl)S(=O)(=O)CC6(CC6)C#N

$$$$
EDJ-MED-98c0a822-1_1
  -OEChem-12272114573D

 61 66  0     1  0  0  0  0  0999 V2000
    3.3432    2.6279   20.4411 C   0  0  0  0  0  0  0  0  0  0  0  0
    3.8960    1.9291   21.5050 C   0  0  0  0  0  0  0  0  0  0  0  0
    3.7865    2.4205   19.1660 C   0  0  0  0  0  0  0  0  0  0  0  0
    4.8973    1.0233   21.2988 C   0  0  0  0  0  0  0  0  0  0  0  0
   12.0765    0.0316   24.1541 C   0  0  0  0  0  0  0  0  0  0  0  0
   12.9132   -0.6032   23.2569 C   0  0  0  0  0  0  0  0  0  0  0  0
   10.9991   -1.4331   22.0443 C   0  0  0  0  0  0  0  0  0  0  0  0
    5.3278    1.2339   17.6066 C   0  0  0  0  0  0  0  0  0  0  0  0
    6.8438   -0.2892   18.3752 C   0  0  0  0  0  0  0  0  0  0  0  0
    4.8226    1.4906   18.9054 C   0  0  0  0  0  0  0  0  0  0  0  0
    5.3982    0.7733   19.9948 C   0  0  0  0  0  0  0  0  0  0  0  0
   10.1406   -0.7765   22.9250 C   0  0  0  0  0  0  0  0  0  0  0  0
    6.4440   -0.1472   19.6979 C   0  0  0  0  0  0  0  0  0  0  0  0
   10.7040   -0.0625   23.9898 C   0  0  0  0  0  0  0  0  0  0  0  0
   12.3683   -1.3298   22.2234 C   0  0  0  0  0  0  0  0  0  0  0  0
    8.2490    0.0169   21.4271 C   0  0  0  0  0  0  0  0  0  0  0  0
    7.4396    3.2009   24.2973 C   0  0  0  0  0  0  0  0  0  0  0  0
    6.4342    2.1559   26.9837 C   0  0  0  0  0  0  0  0  0  0  0  0
    7.9437    2.2871   26.7179 C   0  0  0  0  0  0  0  0  0  0  0  0
    6.3473    1.2724   25.7274 C   0  0  0  0  0  0  0  0  0  0  0  0
    8.0140   -2.1541   22.4331 C   0  0  0  0  0  0  0  0  0  0  0  0
    6.9866   -1.9366   21.3580 C   0  0  0  0  0  0  0  0  0  0  0  0
    7.8721   -0.1194   23.8831 C   0  0  0  0  0  0  0  0  0  0  0  0
    8.6238   -0.7606   22.6929 C   0  0  3  0  0  0  0  0  0  0  0  0
    7.6567    1.9597   25.2144 C   0  0  0  0  0  0  0  0  0  0  0  0
    8.5319    5.2719   23.4606 C   0  0  0  0  0  0  0  0  0  0  0  0
    6.3062    0.3769   17.3421 N   0  0  0  0  0  0  0  0  0  0  0  0
    7.2292   -0.6897   20.7790 N   0  0  0  0  0  0  0  0  0  0  0  0
    8.6609    1.0133   24.4995 N   0  0  2  0  0  0  0  0  0  0  0  0
    8.5197    4.0614   24.2502 N   0  0  0  0  0  0  0  0  0  0  0  0
    8.8296    1.0392   21.0792 O   0  0  0  0  0  0  0  0  0  0  0  0
    6.3774    3.3329   23.7008 O   0  0  0  0  0  0  0  0  0  0  0  0
   10.7209    1.8061   25.5140 O   0  0  0  0  0  0  0  0  0  0  0  0
    9.7358   -0.4356   26.1497 O   0  0  0  0  0  0  0  0  0  0  0  0
    9.9479    0.5589   24.9534 S   0  0  0  0  0  0  0  0  0  0  0  0
   13.4285   -2.1375   21.1072 Cl  0  0  0  0  0  0  0  0  0  0  0  0
    2.5432    3.3510   20.6369 H   0  0  0  0  0  0  0  0  0  0  0  0
    3.5174    2.1137   22.5168 H   0  0  0  0  0  0  0  0  0  0  0  0
    3.3409    2.9743   18.3364 H   0  0  0  0  0  0  0  0  0  0  0  0
    5.3118    0.4895   22.1572 H   0  0  0  0  0  0  0  0  0  0  0  0
   12.5112    0.5948   24.9771 H   0  0  0  0  0  0  0  0  0  0  0  0
   13.9914   -0.5159   23.3780 H   0  0  0  0  0  0  0  0  0  0  0  0
   10.6098   -2.0129   21.2234 H   0  0  0  0  0  0  0  0  0  0  0  0
    4.9141    1.7511   16.7474 H   0  0  0  0  0  0  0  0  0  0  0  0
    7.6445   -0.9764   18.1043 H   0  0  0  0  0  0  0  0  0  0  0  0
    6.1939    1.6266   27.9119 H   0  0  0  0  0  0  0  0  0  0  0  0
    5.8638    3.0868   26.9480 H   0  0  0  0  0  0  0  0  0  0  0  0
    8.3334    3.2965   26.8902 H   0  0  0  0  0  0  0  0  0  0  0  0
    8.5729    1.5733   27.2554 H   0  0  0  0  0  0  0  0  0  0  0  0
    6.4079    0.1970   25.9119 H   0  0  0  0  0  0  0  0  0  0  0  0
    5.4640    1.4731   25.1111 H   0  0  0  0  0  0  0  0  0  0  0  0
    7.5140   -2.5507   23.3303 H   0  0  0  0  0  0  0  0  0  0  0  0
    8.7639   -2.9031   22.1424 H   0  0  0  0  0  0  0  0  0  0  0  0
    7.0575   -2.7253   20.5726 H   0  0  0  0  0  0  0  0  0  0  0  0
    5.9519   -1.9950   21.7718 H   0  0  0  0  0  0  0  0  0  0  0  0
    6.8777    0.2508   23.5695 H   0  0  0  0  0  0  0  0  0  0  0  0
    7.6520   -0.8631   24.6742 H   0  0  0  0  0  0  0  0  0  0  0  0
    8.9210    5.0509   22.4557 H   0  0  0  0  0  0  0  0  0  0  0  0
    7.5083    5.6665   23.3787 H   0  0  0  0  0  0  0  0  0  0  0  0
    9.1754    6.0201   23.9465 H   0  0  0  0  0  0  0  0  0  0  0  0
    9.3446    3.8324   24.7967 H   0  0  0  0  0  0  0  0  0  0  0  0
  1  2  1  0  0  0  0
  1  3  2  0  0  0  0
  2  4  2  0  0  0  0
  3 10  1  0  0  0  0
  4 11  1  0  0  0  0
  5  6  2  0  0  0  0
  5 14  1  0  0  0  0
  6 15  1  0  0  0  0
  7 12  1  0  0  0  0
  7 15  2  0  0  0  0
  8 10  2  0  0  0  0
  8 27  1  0  0  0  0
  9 13  1  0  0  0  0
  9 27  2  0  0  0  0
 10 11  1  0  0  0  0
 11 13  2  0  0  0  0
 12 14  2  0  0  0  0
 12 24  1  0  0  0  0
 13 28  1  0  0  0  0
 14 35  1  0  0  0  0
 15 36  1  0  0  0  0
 16 24  1  0  0  0  0
 16 28  1  0  0  0  0
 16 31  2  0  0  0  0
 17 25  1  0  0  0  0
 17 30  1  0  0  0  0
 17 32  2  0  0  0  0
 18 19  1  0  0  0  0
 18 20  1  0  0  0  0
 19 25  1  0  0  0  0
 20 25  1  0  0  0  0
 21 22  1  0  0  0  0
 21 24  1  0  0  0  0
 22 28  1  0  0  0  0
 23 24  1  0  0  0  0
 23 29  1  0  0  0  0
 25 29  1  1  0  0  0
 26 30  1  0  0  0  0
 29 35  1  0  0  0  0
 33 35  2  0  0  0  0
 34 35  2  0  0  0  0
  1 37  1  0  0  0  0
  2 38  1  0  0  0  0
  3 39  1  0  0  0  0
  4 40  1  0  0  0  0
  5 41  1  0  0  0  0
  6 42  1  0  0  0  0
  7 43  1  0  0  0  0
  8 44  1  0  0  0  0
  9 45  1  0  0  0  0
 18 46  1  0  0  0  0
 18 47  1  0  0  0  0
 19 48  1  0  0  0  0
 19 49  1  0  0  0  0
 20 50  1  0  0  0  0
 20 51  1  0  0  0  0
 21 52  1  0  0  0  0
 21 53  1  0  0  0  0
 22 54  1  0  0  0  0
 22 55  1  0  0  0  0
 23 56  1  0  0  0  0
 23 57  1  0  0  0  0
 26 58  1  0  0  0  0
 26 59  1  0  0  0  0
 26 60  1  0  0  0  0
 30 61  1  0  0  0  0
M  END
> <compound>
EDJ-MED-98c0a822-1

> <compound_smiles>
CNC(=O)C1(CCC1)N2CC3(CCN(C3=O)c4cncc5c4cccc5)c6cc(ccc6S2(=O)=O)Cl

> <enantiomer_smiles>
CNC(=O)C1(CCC1)[N@@]2CC3(CCN(C3=O)c4cncc5c4cccc5)c6cc(ccc6S2(=O)=O)Cl

> <scaffold>
tetralinlike-5spiro-isoquinoline

> <clash_score>
0.7227607487823909

> <docking_score>
-8.815980911254883

> <overlap_score>
0.9889084696769714

> <MMFF_internal_energy>
245.30912261758004

> <docked_smiles>
CNC(=O)C1(CCC1)[N@@]2C[C@]3(CCN(C3=O)c4cncc5c4cccc5)c6cc(ccc6S2(=O)=O)Cl

$$$$
EDJ-MED-b6c6ee2b-4_1
  -OEChem-12272114583D

 58 63  0     1  0  0  0  0  0999 V2000
    9.9899    5.1222   23.8236 C   0  0  0  0  0  0  0  0  0  0  0  0
    3.7865    2.4205   19.1660 C   0  0  0  0  0  0  0  0  0  0  0  0
   12.0765    0.0316   24.1541 C   0  0  0  0  0  0  0  0  0  0  0  0
    3.3432    2.6279   20.4411 C   0  0  0  0  0  0  0  0  0  0  0  0
   12.9132   -0.6032   23.2569 C   0  0  0  0  0  0  0  0  0  0  0  0
    4.8973    1.0233   21.2988 C   0  0  0  0  0  0  0  0  0  0  0  0
   10.9991   -1.4331   22.0443 C   0  0  0  0  0  0  0  0  0  0  0  0
    5.3278    1.2339   17.6066 C   0  0  0  0  0  0  0  0  0  0  0  0
    6.8438   -0.2892   18.3752 C   0  0  0  0  0  0  0  0  0  0  0  0
    4.8226    1.4906   18.9054 C   0  0  0  0  0  0  0  0  0  0  0  0
    5.3982    0.7733   19.9948 C   0  0  0  0  0  0  0  0  0  0  0  0
   10.7040   -0.0625   23.9898 C   0  0  0  0  0  0  0  0  0  0  0  0
   10.1406   -0.7765   22.9250 C   0  0  0  0  0  0  0  0  0  0  0  0
    6.4440   -0.1472   19.6979 C   0  0  0  0  0  0  0  0  0  0  0  0
    3.8960    1.9291   21.5050 C   0  0  0  0  0  0  0  0  0  0  0  0
   12.3683   -1.3298   22.2234 C   0  0  0  0  0  0  0  0  0  0  0  0
    8.2490    0.0169   21.4271 C   0  0  0  0  0  0  0  0  0  0  0  0
    9.9479    0.5589   24.9534 C   0  0  0  0  0  0  0  0  0  0  0  0
    8.5324    6.1021   25.6323 C   0  0  0  0  0  0  0  0  0  0  0  0
    7.7014    6.0179   24.3861 C   0  0  0  0  0  0  0  0  0  0  0  0
    8.0140   -2.1541   22.4331 C   0  0  0  0  0  0  0  0  0  0  0  0
    6.9866   -1.9366   21.3580 C   0  0  0  0  0  0  0  0  0  0  0  0
    7.8721   -0.1194   23.8831 C   0  0  0  0  0  0  0  0  0  0  0  0
    8.7994    5.0058   24.6255 C   0  0  0  0  0  0  0  0  0  0  0  0
    8.6238   -0.7606   22.6929 C   0  0  3  0  0  0  0  0  0  0  0  0
    8.3989    3.5932   24.9882 C   0  0  0  0  0  0  0  0  0  0  0  0
   10.9490    5.2161   23.1776 N   0  0  0  0  0  0  0  0  0  0  0  0
    6.3062    0.3769   17.3421 N   0  0  0  0  0  0  0  0  0  0  0  0
    7.2292   -0.6897   20.7790 N   0  0  0  0  0  0  0  0  0  0  0  0
    8.6609    1.0133   24.4995 N   0  0  1  0  0  0  0  0  0  0  0  0
    8.7572    1.0941   21.1350 O   0  0  0  0  0  0  0  0  0  0  0  0
    7.4179    2.5201   22.8172 O   0  0  0  0  0  0  0  0  0  0  0  0
    9.9251    2.7322   23.0499 O   0  0  0  0  0  0  0  0  0  0  0  0
    8.6198    2.4832   23.6217 S   0  0  0  0  0  0  0  0  0  0  0  0
    3.3000    2.2178   23.1047 Cl  0  0  0  0  0  0  0  0  0  0  0  0
   13.4275   -2.1421   21.1097 Cl  0  0  0  0  0  0  0  0  0  0  0  0
    3.3416    2.9748   18.3364 H   0  0  0  0  0  0  0  0  0  0  0  0
   12.5015    0.5938   24.9776 H   0  0  0  0  0  0  0  0  0  0  0  0
    2.5415    3.3543   20.6218 H   0  0  0  0  0  0  0  0  0  0  0  0
   13.9911   -0.5212   23.3814 H   0  0  0  0  0  0  0  0  0  0  0  0
    5.3220    0.4801   22.1475 H   0  0  0  0  0  0  0  0  0  0  0  0
   10.6037   -2.0228   21.2288 H   0  0  0  0  0  0  0  0  0  0  0  0
    4.9132    1.7509   16.7476 H   0  0  0  0  0  0  0  0  0  0  0  0
    7.6448   -0.9761   18.1046 H   0  0  0  0  0  0  0  0  0  0  0  0
    9.7581   -0.1287   25.8173 H   0  0  0  0  0  0  0  0  0  0  0  0
   10.4931    1.4391   25.3829 H   0  0  0  0  0  0  0  0  0  0  0  0
    9.2347    6.9241   25.7129 H   0  0  0  0  0  0  0  0  0  0  0  0
    8.0587    5.8395   26.5712 H   0  0  0  0  0  0  0  0  0  0  0  0
    6.6706    5.6996   24.4905 H   0  0  0  0  0  0  0  0  0  0  0  0
    7.8473    6.7843   23.6333 H   0  0  0  0  0  0  0  0  0  0  0  0
    7.5801   -2.6060   23.3366 H   0  0  0  0  0  0  0  0  0  0  0  0
    8.7749   -2.8608   22.0657 H   0  0  0  0  0  0  0  0  0  0  0  0
    7.0227   -2.7506   20.5953 H   0  0  0  0  0  0  0  0  0  0  0  0
    5.9554   -1.9484   21.7832 H   0  0  0  0  0  0  0  0  0  0  0  0
    6.8886    0.2769   23.5666 H   0  0  0  0  0  0  0  0  0  0  0  0
    7.6579   -0.8710   24.6633 H   0  0  0  0  0  0  0  0  0  0  0  0
    7.3445    3.5466   25.2742 H   0  0  0  0  0  0  0  0  0  0  0  0
    9.0072    3.2136   25.8136 H   0  0  0  0  0  0  0  0  0  0  0  0
  1 24  1  0  0  0  0
  1 27  3  0  0  0  0
  2  4  1  0  0  0  0
  2 10  2  0  0  0  0
  3  5  1  0  0  0  0
  3 12  2  0  0  0  0
  4 15  2  0  0  0  0
  5 16  2  0  0  0  0
  6 11  2  0  0  0  0
  6 15  1  0  0  0  0
  7 13  2  0  0  0  0
  7 16  1  0  0  0  0
  8 10  1  0  0  0  0
  8 28  2  0  0  0  0
  9 14  2  0  0  0  0
  9 28  1  0  0  0  0
 10 11  1  0  0  0  0
 11 14  1  0  0  0  0
 12 13  1  0  0  0  0
 12 18  1  0  0  0  0
 13 25  1  0  0  0  0
 14 29  1  0  0  0  0
 15 35  1  0  0  0  0
 16 36  1  0  0  0  0
 17 25  1  0  0  0  0
 17 29  1  0  0  0  0
 17 31  2  0  0  0  0
 18 30  1  0  0  0  0
 19 20  1  0  0  0  0
 19 24  1  0  0  0  0
 20 24  1  0  0  0  0
 21 22  1  0  0  0  0
 21 25  1  0  0  0  0
 22 29  1  0  0  0  0
 23 25  1  0  0  0  0
 23 30  1  0  0  0  0
 24 26  1  0  0  0  0
 26 34  1  0  0  0  0
 30 34  1  1  0  0  0
 32 34  2  0  0  0  0
 33 34  2  0  0  0  0
  2 37  1  0  0  0  0
  3 38  1  0  0  0  0
  4 39  1  0  0  0  0
  5 40  1  0  0  0  0
  6 41  1  0  0  0  0
  7 42  1  0  0  0  0
  8 43  1  0  0  0  0
  9 44  1  0  0  0  0
 18 45  1  0  0  0  0
 18 46  1  0  0  0  0
 19 47  1  0  0  0  0
 19 48  1  0  0  0  0
 20 49  1  0  0  0  0
 20 50  1  0  0  0  0
 21 51  1  0  0  0  0
 21 52  1  0  0  0  0
 22 53  1  0  0  0  0
 22 54  1  0  0  0  0
 23 55  1  0  0  0  0
 23 56  1  0  0  0  0
 26 57  1  0  0  0  0
 26 58  1  0  0  0  0
M  END
> <compound>
EDJ-MED-b6c6ee2b-4

> <compound_smiles>
c1cc2cncc(c2cc1Cl)N3CCC4(C3=O)CN(Cc5c4cc(cc5)Cl)S(=O)(=O)CC6(CC6)C#N

> <enantiomer_smiles>
c1cc2cncc(c2cc1Cl)N3CCC4(C3=O)C[N@@](Cc5c4cc(cc5)Cl)S(=O)(=O)CC6(CC6)C#N

> <scaffold>
tetrahydroisoquinoline-5spiro-isoquinoline

> <clash_score>
0

> <docking_score>
-9.191839218139648

> <overlap_score>
0.9783148765563965

> <MMFF_internal_energy>
127.4328533239702

> <docked_smiles>
c1cc2cncc(c2cc1Cl)N3CC[C@@]4(C3=O)C[N@@](Cc5c4cc(cc5)Cl)S(=O)(=O)CC6(CC6)C#N

$$$$
EDJ-MED-98c0a822-1_2
  -OEChem-12272114583D

 61 66  0     1  0  0  0  0  0999 V2000
    3.3432    2.6279   20.4411 C   0  0  0  0  0  0  0  0  0  0  0  0
    3.8960    1.9291   21.5050 C   0  0  0  0  0  0  0  0  0  0  0  0
    3.7865    2.4205   19.1660 C   0  0  0  0  0  0  0  0  0  0  0  0
    4.8973    1.0233   21.2988 C   0  0  0  0  0  0  0  0  0  0  0  0
   12.0765    0.0316   24.1541 C   0  0  0  0  0  0  0  0  0  0  0  0
   12.9132   -0.6032   23.2569 C   0  0  0  0  0  0  0  0  0  0  0  0
   10.9991   -1.4331   22.0443 C   0  0  0  0  0  0  0  0  0  0  0  0
    5.3278    1.2339   17.6066 C   0  0  0  0  0  0  0  0  0  0  0  0
    6.8438   -0.2892   18.3752 C   0  0  0  0  0  0  0  0  0  0  0  0
    4.8226    1.4906   18.9054 C   0  0  0  0  0  0  0  0  0  0  0  0
    5.3982    0.7733   19.9948 C   0  0  0  0  0  0  0  0  0  0  0  0
   10.1406   -0.7765   22.9250 C   0  0  0  0  0  0  0  0  0  0  0  0
    6.4440   -0.1472   19.6979 C   0  0  0  0  0  0  0  0  0  0  0  0
   10.7040   -0.0625   23.9898 C   0  0  0  0  0  0  0  0  0  0  0  0
   12.3683   -1.3298   22.2234 C   0  0  0  0  0  0  0  0  0  0  0  0
    8.2490    0.0169   21.4271 C   0  0  0  0  0  0  0  0  0  0  0  0
    9.5361    2.7053   22.8618 C   0  0  0  0  0  0  0  0  0  0  0  0
    6.2975    2.9996   24.1747 C   0  0  0  0  0  0  0  0  0  0  0  0
    7.6994    3.4969   24.5655 C   0  0  0  0  0  0  0  0  0  0  0  0
    6.9395    2.3067   22.9611 C   0  0  0  0  0  0  0  0  0  0  0  0
    8.0140   -2.1541   22.4331 C   0  0  0  0  0  0  0  0  0  0  0  0
    6.9866   -1.9366   21.3580 C   0  0  0  0  0  0  0  0  0  0  0  0
    7.8721   -0.1194   23.8831 C   0  0  0  0  0  0  0  0  0  0  0  0
    8.6238   -0.7606   22.6929 C   0  0  3  0  0  0  0  0  0  0  0  0
    8.3042    2.3204   23.7281 C   0  0  0  0  0  0  0  0  0  0  0  0
   10.2848    4.1976   21.0192 C   0  0  0  0  0  0  0  0  0  0  0  0
    6.3062    0.3769   17.3421 N   0  0  0  0  0  0  0  0  0  0  0  0
    7.2292   -0.6897   20.7790 N   0  0  0  0  0  0  0  0  0  0  0  0
    8.6609    1.0133   24.4995 N   0  0  1  0  0  0  0  0  0  0  0  0
    9.2806    3.6896   21.9262 N   0  0  0  0  0  0  0  0  0  0  0  0
    8.7570    1.0937   21.1339 O   0  0  0  0  0  0  0  0  0  0  0  0
   10.6078    2.1420   23.0515 O   0  0  0  0  0  0  0  0  0  0  0  0
    9.7076   -0.4225   26.1562 O   0  0  0  0  0  0  0  0  0  0  0  0
   10.7478    1.7906   25.5085 O   0  0  0  0  0  0  0  0  0  0  0  0
    9.9479    0.5589   24.9534 S   0  0  0  0  0  0  0  0  0  0  0  0
   13.4284   -2.1465   21.1136 Cl  0  0  0  0  0  0  0  0  0  0  0  0
    2.5432    3.3510   20.6369 H   0  0  0  0  0  0  0  0  0  0  0  0
    3.5174    2.1137   22.5168 H   0  0  0  0  0  0  0  0  0  0  0  0
    3.3409    2.9743   18.3364 H   0  0  0  0  0  0  0  0  0  0  0  0
    5.3118    0.4895   22.1572 H   0  0  0  0  0  0  0  0  0  0  0  0
   12.5121    0.5980   24.9746 H   0  0  0  0  0  0  0  0  0  0  0  0
   13.9912   -0.5222   23.3835 H   0  0  0  0  0  0  0  0  0  0  0  0
   10.6094   -2.0246   21.2319 H   0  0  0  0  0  0  0  0  0  0  0  0
    4.9141    1.7511   16.7474 H   0  0  0  0  0  0  0  0  0  0  0  0
    7.6445   -0.9764   18.1043 H   0  0  0  0  0  0  0  0  0  0  0  0
    5.8584    2.3036   24.8984 H   0  0  0  0  0  0  0  0  0  0  0  0
    5.5657    3.7777   23.9434 H   0  0  0  0  0  0  0  0  0  0  0  0
    7.9366    4.4936   24.1743 H   0  0  0  0  0  0  0  0  0  0  0  0
    7.9136    3.4853   25.6382 H   0  0  0  0  0  0  0  0  0  0  0  0
    6.5316    1.3205   22.7206 H   0  0  0  0  0  0  0  0  0  0  0  0
    6.9297    2.9186   22.0511 H   0  0  0  0  0  0  0  0  0  0  0  0
    7.5788   -2.6075   23.3348 H   0  0  0  0  0  0  0  0  0  0  0  0
    8.7710   -2.8641   22.0654 H   0  0  0  0  0  0  0  0  0  0  0  0
    7.0230   -2.7503   20.5951 H   0  0  0  0  0  0  0  0  0  0  0  0
    5.9555   -1.9483   21.7831 H   0  0  0  0  0  0  0  0  0  0  0  0
    6.8814    0.2705   23.5765 H   0  0  0  0  0  0  0  0  0  0  0  0
    7.6424   -0.8746   24.6586 H   0  0  0  0  0  0  0  0  0  0  0  0
   10.7988    5.0528   21.4821 H   0  0  0  0  0  0  0  0  0  0  0  0
   11.0157    3.4052   20.8006 H   0  0  0  0  0  0  0  0  0  0  0  0
    9.8041    4.5211   20.0842 H   0  0  0  0  0  0  0  0  0  0  0  0
    8.3423    4.0745   21.8734 H   0  0  0  0  0  0  0  0  0  0  0  0
  1  2  1  0  0  0  0
  1  3  2  0  0  0  0
  2  4  2  0  0  0  0
  3 10  1  0  0  0  0
  4 11  1  0  0  0  0
  5  6  2  0  0  0  0
  5 14  1  0  0  0  0
  6 15  1  0  0  0  0
  7 12  1  0  0  0  0
  7 15  2  0  0  0  0
  8 10  2  0  0  0  0
  8 27  1  0  0  0  0
  9 13  1  0  0  0  0
  9 27  2  0  0  0  0
 10 11  1  0  0  0  0
 11 13  2  0  0  0  0
 12 14  2  0  0  0  0
 12 24  1  0  0  0  0
 13 28  1  0  0  0  0
 14 35  1  0  0  0  0
 15 36  1  0  0  0  0
 16 24  1  0  0  0  0
 16 28  1  0  0  0  0
 16 31  2  0  0  0  0
 17 25  1  0  0  0  0
 17 30  1  0  0  0  0
 17 32  2  0  0  0  0
 18 19  1  0  0  0  0
 18 20  1  0  0  0  0
 19 25  1  0  0  0  0
 20 25  1  0  0  0  0
 21 22  1  0  0  0  0
 21 24  1  0  0  0  0
 22 28  1  0  0  0  0
 23 24  1  0  0  0  0
 23 29  1  0  0  0  0
 25 29  1  6  0  0  0
 26 30  1  0  0  0  0
 29 35  1  0  0  0  0
 33 35  2  0  0  0  0
 34 35  2  0  0  0  0
  1 37  1  0  0  0  0
  2 38  1  0  0  0  0
  3 39  1  0  0  0  0
  4 40  1  0  0  0  0
  5 41  1  0  0  0  0
  6 42  1  0  0  0  0
  7 43  1  0  0  0  0
  8 44  1  0  0  0  0
  9 45  1  0  0  0  0
 18 46  1  0  0  0  0
 18 47  1  0  0  0  0
 19 48  1  0  0  0  0
 19 49  1  0  0  0  0
 20 50  1  0  0  0  0
 20 51  1  0  0  0  0
 21 52  1  0  0  0  0
 21 53  1  0  0  0  0
 22 54  1  0  0  0  0
 22 55  1  0  0  0  0
 23 56  1  0  0  0  0
 23 57  1  0  0  0  0
 26 58  1  0  0  0  0
 26 59  1  0  0  0  0
 26 60  1  0  0  0  0
 30 61  1  0  0  0  0
M  END
> <compound>
EDJ-MED-98c0a822-1

> <compound_smiles>
CNC(=O)C1(CCC1)N2CC3(CCN(C3=O)c4cncc5c4cccc5)c6cc(ccc6S2(=O)=O)Cl

> <enantiomer_smiles>
CNC(=O)C1(CCC1)[N@]2CC3(CCN(C3=O)c4cncc5c4cccc5)c6cc(ccc6S2(=O)=O)Cl

> <scaffold>
tetralinlike-5spiro-isoquinoline

> <clash_score>
1.5252468439968458

> <docking_score>
-7.495826244354248

> <overlap_score>
1.0

> <MMFF_internal_energy>
315.47174356746655

> <docked_smiles>
CNC(=O)C1(CCC1)[N@]2C[C@]3(CCN(C3=O)c4cncc5c4cccc5)c6cc(ccc6S2(=O)=O)Cl

$$$$
MAT-POS-be048f2c-6_1
  -OEChem-12272114583D

 62 67  0     1  0  0  0  0  0999 V2000
    3.3432    2.6279   20.4411 C   0  0  0  0  0  0  0  0  0  0  0  0
    3.8960    1.9291   21.5050 C   0  0  0  0  0  0  0  0  0  0  0  0
    3.7865    2.4205   19.1660 C   0  0  0  0  0  0  0  0  0  0  0  0
    4.8973    1.0233   21.2988 C   0  0  0  0  0  0  0  0  0  0  0  0
   12.0765    0.0316   24.1541 C   0  0  0  0  0  0  0  0  0  0  0  0
   12.9132   -0.6032   23.2569 C   0  0  0  0  0  0  0  0  0  0  0  0
    5.9574    2.1448   25.7854 C   0  0  0  0  0  0  0  0  0  0  0  0
   10.9991   -1.4331   22.0443 C   0  0  0  0  0  0  0  0  0  0  0  0
    4.7067    2.6950   25.4464 C   0  0  0  0  0  0  0  0  0  0  0  0
    5.3278    1.2339   17.6066 C   0  0  0  0  0  0  0  0  0  0  0  0
    6.8438   -0.2892   18.3752 C   0  0  0  0  0  0  0  0  0  0  0  0
    4.8226    1.4906   18.9054 C   0  0  0  0  0  0  0  0  0  0  0  0
    5.3982    0.7733   19.9948 C   0  0  0  0  0  0  0  0  0  0  0  0
   10.7040   -0.0625   23.9898 C   0  0  0  0  0  0  0  0  0  0  0  0
   10.1406   -0.7765   22.9250 C   0  0  0  0  0  0  0  0  0  0  0  0
    6.4440   -0.1472   19.6979 C   0  0  0  0  0  0  0  0  0  0  0  0
   12.3683   -1.3298   22.2234 C   0  0  0  0  0  0  0  0  0  0  0  0
    6.8028    2.5764   24.7927 C   0  0  0  0  0  0  0  0  0  0  0  0
    8.2490    0.0169   21.4271 C   0  0  0  0  0  0  0  0  0  0  0  0
    8.2375    2.3090   24.6292 C   0  0  0  0  0  0  0  0  0  0  0  0
    9.9479    0.5589   24.9534 C   0  0  0  0  0  0  0  0  0  0  0  0
    8.0140   -2.1541   22.4331 C   0  0  0  0  0  0  0  0  0  0  0  0
    6.9866   -1.9366   21.3580 C   0  0  0  0  0  0  0  0  0  0  0  0
    7.8721   -0.1194   23.8831 C   0  0  0  0  0  0  0  0  0  0  0  0
    8.6238   -0.7606   22.6929 C   0  0  3  0  0  0  0  0  0  0  0  0
    7.5850    3.2371   22.0350 C   0  0  0  0  0  0  0  0  0  0  0  0
    6.8771    5.4556   23.0268 C   0  0  0  0  0  0  0  0  0  0  0  0
    6.4736    4.0056   22.7525 C   0  0  0  0  0  0  0  0  0  0  0  0
    6.3062    0.3769   17.3421 N   0  0  0  0  0  0  0  0  0  0  0  0
    4.7493    3.4209   24.3260 N   0  0  0  0  0  0  0  0  0  0  0  0
    6.0370    3.3299   23.9524 N   0  0  0  0  0  0  0  0  0  0  0  0
    7.2292   -0.6897   20.7790 N   0  0  0  0  0  0  0  0  0  0  0  0
    8.6609    1.0133   24.4995 N   0  0  0  0  0  0  0  0  0  0  0  0
    8.8277    1.0425   21.0805 O   0  0  0  0  0  0  0  0  0  0  0  0
    8.9768    3.2919   24.6275 O   0  0  0  0  0  0  0  0  0  0  0  0
   13.4283   -2.1471   21.1145 Cl  0  0  0  0  0  0  0  0  0  0  0  0
    2.5432    3.3510   20.6369 H   0  0  0  0  0  0  0  0  0  0  0  0
    3.5174    2.1137   22.5168 H   0  0  0  0  0  0  0  0  0  0  0  0
    3.3409    2.9743   18.3364 H   0  0  0  0  0  0  0  0  0  0  0  0
    5.3118    0.4895   22.1572 H   0  0  0  0  0  0  0  0  0  0  0  0
   12.5034    0.5864   24.9813 H   0  0  0  0  0  0  0  0  0  0  0  0
   13.9913   -0.5293   23.3874 H   0  0  0  0  0  0  0  0  0  0  0  0
    6.2053    1.5231   26.6336 H   0  0  0  0  0  0  0  0  0  0  0  0
   10.6139   -2.0336   21.2353 H   0  0  0  0  0  0  0  0  0  0  0  0
    3.7660    2.5978   25.9692 H   0  0  0  0  0  0  0  0  0  0  0  0
    4.9141    1.7511   16.7474 H   0  0  0  0  0  0  0  0  0  0  0  0
    7.6445   -0.9764   18.1043 H   0  0  0  0  0  0  0  0  0  0  0  0
    9.7841   -0.0930   25.8515 H   0  0  0  0  0  0  0  0  0  0  0  0
   10.4579    1.4725   25.3586 H   0  0  0  0  0  0  0  0  0  0  0  0
    7.5120   -2.5701   23.3194 H   0  0  0  0  0  0  0  0  0  0  0  0
    8.7722   -2.8982   22.1400 H   0  0  0  0  0  0  0  0  0  0  0  0
    7.0511   -2.7253   20.5708 H   0  0  0  0  0  0  0  0  0  0  0  0
    5.9515   -1.9941   21.7738 H   0  0  0  0  0  0  0  0  0  0  0  0
    6.9258    0.3344   23.5581 H   0  0  0  0  0  0  0  0  0  0  0  0
    7.6176   -0.8486   24.6565 H   0  0  0  0  0  0  0  0  0  0  0  0
    8.4912    3.1639   22.6458 H   0  0  0  0  0  0  0  0  0  0  0  0
    7.8545    3.7362   21.0981 H   0  0  0  0  0  0  0  0  0  0  0  0
    7.2621    2.2183   21.7936 H   0  0  0  0  0  0  0  0  0  0  0  0
    7.7403    5.4999   23.7001 H   0  0  0  0  0  0  0  0  0  0  0  0
    6.0531    6.0013   23.4988 H   0  0  0  0  0  0  0  0  0  0  0  0
    7.1443    5.9865   22.1069 H   0  0  0  0  0  0  0  0  0  0  0  0
    5.6093    4.0321   22.0763 H   0  0  0  0  0  0  0  0  0  0  0  0
  1  2  1  0  0  0  0
  1  3  2  0  0  0  0
  2  4  2  0  0  0  0
  3 12  1  0  0  0  0
  4 13  1  0  0  0  0
  5  6  2  0  0  0  0
  5 14  1  0  0  0  0
  6 17  1  0  0  0  0
  7  9  1  0  0  0  0
  7 18  2  0  0  0  0
  8 15  1  0  0  0  0
  8 17  2  0  0  0  0
  9 30  2  0  0  0  0
 10 12  2  0  0  0  0
 10 29  1  0  0  0  0
 11 16  1  0  0  0  0
 11 29  2  0  0  0  0
 12 13  1  0  0  0  0
 13 16  2  0  0  0  0
 14 15  2  0  0  0  0
 14 21  1  0  0  0  0
 15 25  1  0  0  0  0
 16 32  1  0  0  0  0
 17 36  1  0  0  0  0
 18 20  1  0  0  0  0
 18 31  1  0  0  0  0
 19 25  1  0  0  0  0
 19 32  1  0  0  0  0
 19 34  2  0  0  0  0
 20 33  1  0  0  0  0
 20 35  2  0  0  0  0
 21 33  1  0  0  0  0
 22 23  1  0  0  0  0
 22 25  1  0  0  0  0
 23 32  1  0  0  0  0
 24 25  1  0  0  0  0
 24 33  1  0  0  0  0
 26 28  1  0  0  0  0
 27 28  1  0  0  0  0
 28 31  1  0  0  0  0
 30 31  1  0  0  0  0
  1 37  1  0  0  0  0
  2 38  1  0  0  0  0
  3 39  1  0  0  0  0
  4 40  1  0  0  0  0
  5 41  1  0  0  0  0
  6 42  1  0  0  0  0
  7 43  1  0  0  0  0
  8 44  1  0  0  0  0
  9 45  1  0  0  0  0
 10 46  1  0  0  0  0
 11 47  1  0  0  0  0
 21 48  1  0  0  0  0
 21 49  1  0  0  0  0
 22 50  1  0  0  0  0
 22 51  1  0  0  0  0
 23 52  1  0  0  0  0
 23 53  1  0  0  0  0
 24 54  1  0  0  0  0
 24 55  1  0  0  0  0
 26 56  1  0  0  0  0
 26 57  1  0  0  0  0
 26 58  1  0  0  0  0
 27 59  1  0  0  0  0
 27 60  1  0  0  0  0
 27 61  1  0  0  0  0
 28 62  1  0  0  0  0
M  END
> <compound>
MAT-POS-be048f2c-6

> <compound_smiles>
CC(C)n1c(ccn1)C(=O)N2Cc3ccc(cc3C4(C2)CCN(C4=O)c5cncc6c5cccc6)Cl

> <enantiomer_smiles>
CC(C)n1c(ccn1)C(=O)N2Cc3ccc(cc3C4(C2)CCN(C4=O)c5cncc6c5cccc6)Cl

> <scaffold>
tetrahydroisoquinoline-5spiro-isoquinoline

> <clash_score>
0

> <docking_score>
-8.332825660705566

> <overlap_score>
0.9722715020179749

> <MMFF_internal_energy>
142.30549907893382

> <docked_smiles>
CC(C)n1c(ccn1)C(=O)N2Cc3ccc(cc3[C@]4(C2)CCN(C4=O)c5cncc6c5cccc6)Cl

$$$$
EDJ-MED-a12e3a20-1_2
  -OEChem-12272114583D

 57 62  0     1  0  0  0  0  0999 V2000
    7.3170    3.4149   22.7753 C   0  0  0  0  0  0  0  0  0  0  0  0
    3.3432    2.6279   20.4411 C   0  0  0  0  0  0  0  0  0  0  0  0
    3.8960    1.9291   21.5050 C   0  0  0  0  0  0  0  0  0  0  0  0
    3.7865    2.4205   19.1660 C   0  0  0  0  0  0  0  0  0  0  0  0
    4.8973    1.0233   21.2988 C   0  0  0  0  0  0  0  0  0  0  0  0
   12.0765    0.0316   24.1541 C   0  0  0  0  0  0  0  0  0  0  0  0
   12.9132   -0.6032   23.2569 C   0  0  0  0  0  0  0  0  0  0  0  0
   10.9991   -1.4331   22.0443 C   0  0  0  0  0  0  0  0  0  0  0  0
    5.3278    1.2339   17.6066 C   0  0  0  0  0  0  0  0  0  0  0  0
    6.8438   -0.2892   18.3752 C   0  0  0  0  0  0  0  0  0  0  0  0
    4.8226    1.4906   18.9054 C   0  0  0  0  0  0  0  0  0  0  0  0
    5.3982    0.7733   19.9948 C   0  0  0  0  0  0  0  0  0  0  0  0
   10.7040   -0.0625   23.9898 C   0  0  0  0  0  0  0  0  0  0  0  0
   10.1406   -0.7765   22.9250 C   0  0  0  0  0  0  0  0  0  0  0  0
    6.4440   -0.1472   19.6979 C   0  0  0  0  0  0  0  0  0  0  0  0
   12.3683   -1.3298   22.2234 C   0  0  0  0  0  0  0  0  0  0  0  0
    8.0140   -2.1541   22.4331 C   0  0  0  0  0  0  0  0  0  0  0  0
    8.2490    0.0169   21.4271 C   0  0  0  0  0  0  0  0  0  0  0  0
    9.9479    0.5589   24.9534 C   0  0  0  0  0  0  0  0  0  0  0  0
    6.9866   -1.9366   21.3580 C   0  0  0  0  0  0  0  0  0  0  0  0
    9.8189    3.1372   22.9140 C   0  0  0  0  0  0  0  0  0  0  0  0
    9.5312    4.6094   22.9358 C   0  0  0  0  0  0  0  0  0  0  0  0
    7.8721   -0.1194   23.8831 C   0  0  0  0  0  0  0  0  0  0  0  0
    8.5283    3.6403   23.5208 C   0  0  0  0  0  0  0  0  0  0  0  0
    8.6238   -0.7606   22.6929 C   0  0  3  0  0  0  0  0  0  0  0  0
    8.3815    3.5892   25.0251 C   0  0  0  0  0  0  0  0  0  0  0  0
    6.3411    3.2333   22.1747 N   0  0  0  0  0  0  0  0  0  0  0  0
    6.3062    0.3769   17.3421 N   0  0  0  0  0  0  0  0  0  0  0  0
    7.2292   -0.6897   20.7790 N   0  0  0  0  0  0  0  0  0  0  0  0
    8.6609    1.0133   24.4995 N   0  0  2  0  0  0  0  0  0  0  0  0
    8.2868   -3.1623   22.9621 O   0  0  0  0  0  0  0  0  0  0  0  0
    8.7678    1.0711   21.0752 O   0  0  0  0  0  0  0  0  0  0  0  0
    8.2215    1.8008   26.9233 O   0  0  0  0  0  0  0  0  0  0  0  0
    6.3694    1.9324   25.2093 O   0  0  0  0  0  0  0  0  0  0  0  0
    7.7690    2.0143   25.5659 S   0  0  0  0  0  0  0  0  0  0  0  0
   13.4269   -2.1432   21.1102 Cl  0  0  0  0  0  0  0  0  0  0  0  0
    2.5432    3.3510   20.6369 H   0  0  0  0  0  0  0  0  0  0  0  0
    3.5174    2.1137   22.5168 H   0  0  0  0  0  0  0  0  0  0  0  0
    3.3409    2.9743   18.3364 H   0  0  0  0  0  0  0  0  0  0  0  0
    5.3118    0.4895   22.1572 H   0  0  0  0  0  0  0  0  0  0  0  0
   12.5021    0.6006   24.9730 H   0  0  0  0  0  0  0  0  0  0  0  0
   13.9909   -0.5155   23.3780 H   0  0  0  0  0  0  0  0  0  0  0  0
   10.6035   -2.0186   21.2253 H   0  0  0  0  0  0  0  0  0  0  0  0
    4.9141    1.7511   16.7474 H   0  0  0  0  0  0  0  0  0  0  0  0
    7.6445   -0.9764   18.1043 H   0  0  0  0  0  0  0  0  0  0  0  0
    9.7877   -0.1167   25.8349 H   0  0  0  0  0  0  0  0  0  0  0  0
   10.4811    1.4578   25.3606 H   0  0  0  0  0  0  0  0  0  0  0  0
    7.0693   -2.7512   20.5934 H   0  0  0  0  0  0  0  0  0  0  0  0
    5.9622   -1.9697   21.8101 H   0  0  0  0  0  0  0  0  0  0  0  0
    9.7872    2.6337   21.9544 H   0  0  0  0  0  0  0  0  0  0  0  0
   10.5929    2.7663   23.5759 H   0  0  0  0  0  0  0  0  0  0  0  0
   10.1134    5.2249   23.6120 H   0  0  0  0  0  0  0  0  0  0  0  0
    9.3080    5.0909   21.9905 H   0  0  0  0  0  0  0  0  0  0  0  0
    6.8950    0.2714   23.5506 H   0  0  0  0  0  0  0  0  0  0  0  0
    7.6616   -0.8606   24.6742 H   0  0  0  0  0  0  0  0  0  0  0  0
    7.6755    4.3472   25.3754 H   0  0  0  0  0  0  0  0  0  0  0  0
    9.3446    3.7472   25.5180 H   0  0  0  0  0  0  0  0  0  0  0  0
  1 24  1  0  0  0  0
  1 27  3  0  0  0  0
  2  3  1  0  0  0  0
  2  4  2  0  0  0  0
  3  5  2  0  0  0  0
  4 11  1  0  0  0  0
  5 12  1  0  0  0  0
  6  7  1  0  0  0  0
  6 13  2  0  0  0  0
  7 16  2  0  0  0  0
  8 14  2  0  0  0  0
  8 16  1  0  0  0  0
  9 11  2  0  0  0  0
  9 28  1  0  0  0  0
 10 15  1  0  0  0  0
 10 28  2  0  0  0  0
 11 12  1  0  0  0  0
 12 15  2  0  0  0  0
 13 14  1  0  0  0  0
 13 19  1  0  0  0  0
 14 25  1  0  0  0  0
 15 29  1  0  0  0  0
 16 36  1  0  0  0  0
 17 20  1  0  0  0  0
 17 25  1  0  0  0  0
 17 31  2  0  0  0  0
 18 25  1  0  0  0  0
 18 29  1  0  0  0  0
 18 32  2  0  0  0  0
 19 30  1  0  0  0  0
 20 29  1  0  0  0  0
 21 22  1  0  0  0  0
 21 24  1  0  0  0  0
 22 24  1  0  0  0  0
 23 25  1  0  0  0  0
 23 30  1  0  0  0  0
 24 26  1  0  0  0  0
 26 35  1  0  0  0  0
 30 35  1  6  0  0  0
 33 35  2  0  0  0  0
 34 35  2  0  0  0  0
  2 37  1  0  0  0  0
  3 38  1  0  0  0  0
  4 39  1  0  0  0  0
  5 40  1  0  0  0  0
  6 41  1  0  0  0  0
  7 42  1  0  0  0  0
  8 43  1  0  0  0  0
  9 44  1  0  0  0  0
 10 45  1  0  0  0  0
 19 46  1  0  0  0  0
 19 47  1  0  0  0  0
 20 48  1  0  0  0  0
 20 49  1  0  0  0  0
 21 50  1  0  0  0  0
 21 51  1  0  0  0  0
 22 52  1  0  0  0  0
 22 53  1  0  0  0  0
 23 54  1  0  0  0  0
 23 55  1  0  0  0  0
 26 56  1  0  0  0  0
 26 57  1  0  0  0  0
M  END
> <compound>
EDJ-MED-a12e3a20-1

> <compound_smiles>
c1ccc2c(c1)cncc2N3CC(=O)C4(C3=O)CN(Cc5c4cc(cc5)Cl)S(=O)(=O)CC6(CC6)C#N

> <enantiomer_smiles>
c1ccc2c(c1)cncc2N3CC(=O)C4(C3=O)C[N@](Cc5c4cc(cc5)Cl)S(=O)(=O)CC6(CC6)C#N

> <scaffold>
tetrahydroisoquinoline-5spiro-isoquinoline

> <clash_score>
0

> <docking_score>
-8.154653549194336

> <overlap_score>
0.9853377938270569

> <MMFF_internal_energy>
126.7545150078524

> <docked_smiles>
c1ccc2c(c1)cncc2N3CC(=O)[C@@]4(C3=O)C[N@](Cc5c4cc(cc5)Cl)S(=O)(=O)CC6(CC6)C#N

$$$$
EDJ-MED-98c0a822-2_1
  -OEChem-12272114583D

 59 64  0     1  0  0  0  0  0999 V2000
    3.3432    2.6279   20.4411 C   0  0  0  0  0  0  0  0  0  0  0  0
    3.8960    1.9291   21.5050 C   0  0  0  0  0  0  0  0  0  0  0  0
    3.7865    2.4205   19.1660 C   0  0  0  0  0  0  0  0  0  0  0  0
    4.8973    1.0233   21.2988 C   0  0  0  0  0  0  0  0  0  0  0  0
   12.0765    0.0316   24.1541 C   0  0  0  0  0  0  0  0  0  0  0  0
   12.9132   -0.6032   23.2569 C   0  0  0  0  0  0  0  0  0  0  0  0
   10.9991   -1.4331   22.0443 C   0  0  0  0  0  0  0  0  0  0  0  0
    5.3278    1.2339   17.6066 C   0  0  0  0  0  0  0  0  0  0  0  0
    6.8438   -0.2892   18.3752 C   0  0  0  0  0  0  0  0  0  0  0  0
    4.8226    1.4906   18.9054 C   0  0  0  0  0  0  0  0  0  0  0  0
    5.3982    0.7733   19.9948 C   0  0  0  0  0  0  0  0  0  0  0  0
   10.1406   -0.7765   22.9250 C   0  0  0  0  0  0  0  0  0  0  0  0
    6.4440   -0.1472   19.6979 C   0  0  0  0  0  0  0  0  0  0  0  0
   10.7040   -0.0625   23.9898 C   0  0  0  0  0  0  0  0  0  0  0  0
   12.3683   -1.3298   22.2234 C   0  0  0  0  0  0  0  0  0  0  0  0
    8.2490    0.0169   21.4271 C   0  0  0  0  0  0  0  0  0  0  0  0
    6.8352    2.7521   24.1686 C   0  0  0  0  0  0  0  0  0  0  0  0
    8.0140   -2.1541   22.4331 C   0  0  0  0  0  0  0  0  0  0  0  0
    6.9866   -1.9366   21.3580 C   0  0  0  0  0  0  0  0  0  0  0  0
    7.8721   -0.1194   23.8831 C   0  0  0  0  0  0  0  0  0  0  0  0
    8.1844    2.7735   26.4125 C   0  0  0  0  0  0  0  0  0  0  0  0
    6.8394    1.2180   26.2926 C   0  0  0  0  0  0  0  0  0  0  0  0
    8.6238   -0.7606   22.6929 C   0  0  3  0  0  0  0  0  0  0  0  0
    7.6623    1.9539   25.2098 C   0  0  0  0  0  0  0  0  0  0  0  0
    7.0226    4.0853   22.0781 C   0  0  0  0  0  0  0  0  0  0  0  0
    6.3062    0.3769   17.3421 N   0  0  0  0  0  0  0  0  0  0  0  0
    7.2292   -0.6897   20.7790 N   0  0  0  0  0  0  0  0  0  0  0  0
    8.6609    1.0133   24.4995 N   0  0  2  0  0  0  0  0  0  0  0  0
    7.5920    3.3046   23.1529 N   0  0  0  0  0  0  0  0  0  0  0  0
    8.8296    1.0392   21.0792 O   0  0  0  0  0  0  0  0  0  0  0  0
    5.6201    2.8397   24.3010 O   0  0  0  0  0  0  0  0  0  0  0  0
   10.7209    1.8061   25.5140 O   0  0  0  0  0  0  0  0  0  0  0  0
    9.7358   -0.4356   26.1497 O   0  0  0  0  0  0  0  0  0  0  0  0
    7.5477    1.8874   27.3584 O   0  0  0  0  0  0  0  0  0  0  0  0
    9.9479    0.5589   24.9534 S   0  0  0  0  0  0  0  0  0  0  0  0
   13.4285   -2.1375   21.1072 Cl  0  0  0  0  0  0  0  0  0  0  0  0
    2.5432    3.3510   20.6369 H   0  0  0  0  0  0  0  0  0  0  0  0
    3.5174    2.1137   22.5168 H   0  0  0  0  0  0  0  0  0  0  0  0
    3.3409    2.9743   18.3364 H   0  0  0  0  0  0  0  0  0  0  0  0
    5.3118    0.4895   22.1572 H   0  0  0  0  0  0  0  0  0  0  0  0
   12.5112    0.5948   24.9771 H   0  0  0  0  0  0  0  0  0  0  0  0
   13.9914   -0.5159   23.3780 H   0  0  0  0  0  0  0  0  0  0  0  0
   10.6098   -2.0129   21.2234 H   0  0  0  0  0  0  0  0  0  0  0  0
    4.9141    1.7511   16.7474 H   0  0  0  0  0  0  0  0  0  0  0  0
    7.6445   -0.9764   18.1043 H   0  0  0  0  0  0  0  0  0  0  0  0
    7.5140   -2.5507   23.3303 H   0  0  0  0  0  0  0  0  0  0  0  0
    8.7639   -2.9031   22.1424 H   0  0  0  0  0  0  0  0  0  0  0  0
    7.0575   -2.7253   20.5726 H   0  0  0  0  0  0  0  0  0  0  0  0
    5.9519   -1.9950   21.7718 H   0  0  0  0  0  0  0  0  0  0  0  0
    6.8777    0.2508   23.5695 H   0  0  0  0  0  0  0  0  0  0  0  0
    7.6520   -0.8631   24.6742 H   0  0  0  0  0  0  0  0  0  0  0  0
    9.2707    2.7905   26.5438 H   0  0  0  0  0  0  0  0  0  0  0  0
    7.7957    3.7932   26.5021 H   0  0  0  0  0  0  0  0  0  0  0  0
    5.7697    1.4500   26.3218 H   0  0  0  0  0  0  0  0  0  0  0  0
    6.9731    0.1329   26.3391 H   0  0  0  0  0  0  0  0  0  0  0  0
    6.7545    3.4206   21.2436 H   0  0  0  0  0  0  0  0  0  0  0  0
    6.1214    4.6028   22.4386 H   0  0  0  0  0  0  0  0  0  0  0  0
    7.7585    4.8269   21.7341 H   0  0  0  0  0  0  0  0  0  0  0  0
    8.5965    3.1548   23.1622 H   0  0  0  0  0  0  0  0  0  0  0  0
  1  2  1  0  0  0  0
  1  3  2  0  0  0  0
  2  4  2  0  0  0  0
  3 10  1  0  0  0  0
  4 11  1  0  0  0  0
  5  6  2  0  0  0  0
  5 14  1  0  0  0  0
  6 15  1  0  0  0  0
  7 12  1  0  0  0  0
  7 15  2  0  0  0  0
  8 10  2  0  0  0  0
  8 26  1  0  0  0  0
  9 13  1  0  0  0  0
  9 26  2  0  0  0  0
 10 11  1  0  0  0  0
 11 13  2  0  0  0  0
 12 14  2  0  0  0  0
 12 23  1  0  0  0  0
 13 27  1  0  0  0  0
 14 35  1  0  0  0  0
 15 36  1  0  0  0  0
 16 23  1  0  0  0  0
 16 27  1  0  0  0  0
 16 30  2  0  0  0  0
 17 24  1  0  0  0  0
 17 29  1  0  0  0  0
 17 31  2  0  0  0  0
 18 19  1  0  0  0  0
 18 23  1  0  0  0  0
 19 27  1  0  0  0  0
 20 23  1  0  0  0  0
 20 28  1  0  0  0  0
 21 24  1  0  0  0  0
 21 34  1  0  0  0  0
 22 24  1  0  0  0  0
 22 34  1  0  0  0  0
 24 28  1  1  0  0  0
 25 29  1  0  0  0  0
 28 35  1  0  0  0  0
 32 35  2  0  0  0  0
 33 35  2  0  0  0  0
  1 37  1  0  0  0  0
  2 38  1  0  0  0  0
  3 39  1  0  0  0  0
  4 40  1  0  0  0  0
  5 41  1  0  0  0  0
  6 42  1  0  0  0  0
  7 43  1  0  0  0  0
  8 44  1  0  0  0  0
  9 45  1  0  0  0  0
 18 46  1  0  0  0  0
 18 47  1  0  0  0  0
 19 48  1  0  0  0  0
 19 49  1  0  0  0  0
 20 50  1  0  0  0  0
 20 51  1  0  0  0  0
 21 52  1  0  0  0  0
 21 53  1  0  0  0  0
 22 54  1  0  0  0  0
 22 55  1  0  0  0  0
 25 56  1  0  0  0  0
 25 57  1  0  0  0  0
 25 58  1  0  0  0  0
 29 59  1  0  0  0  0
M  END
> <compound>
EDJ-MED-98c0a822-2

> <compound_smiles>
CNC(=O)C1(COC1)N2CC3(CCN(C3=O)c4cncc5c4cccc5)c6cc(ccc6S2(=O)=O)Cl

> <enantiomer_smiles>
CNC(=O)C1(COC1)[N@@]2CC3(CCN(C3=O)c4cncc5c4cccc5)c6cc(ccc6S2(=O)=O)Cl

> <scaffold>
tetralinlike-5spiro-isoquinoline

> <clash_score>
0.7227607487823909

> <docking_score>
-7.692234039306641

> <overlap_score>
0.9897847175598145

> <MMFF_internal_energy>
244.43785372123634

> <docked_smiles>
CNC(=O)C1(COC1)[N@@]2C[C@]3(CCN(C3=O)c4cncc5c4cccc5)c6cc(ccc6S2(=O)=O)Cl

$$$$
EDJ-MED-98c0a822-2_2
  -OEChem-12272114583D

 59 64  0     1  0  0  0  0  0999 V2000
    3.3432    2.6279   20.4411 C   0  0  0  0  0  0  0  0  0  0  0  0
    3.8960    1.9291   21.5050 C   0  0  0  0  0  0  0  0  0  0  0  0
    3.7865    2.4205   19.1660 C   0  0  0  0  0  0  0  0  0  0  0  0
    4.8973    1.0233   21.2988 C   0  0  0  0  0  0  0  0  0  0  0  0
   12.0765    0.0316   24.1541 C   0  0  0  0  0  0  0  0  0  0  0  0
   12.9132   -0.6032   23.2569 C   0  0  0  0  0  0  0  0  0  0  0  0
   10.9991   -1.4331   22.0443 C   0  0  0  0  0  0  0  0  0  0  0  0
    5.3278    1.2339   17.6066 C   0  0  0  0  0  0  0  0  0  0  0  0
    6.8438   -0.2892   18.3752 C   0  0  0  0  0  0  0  0  0  0  0  0
    4.8226    1.4906   18.9054 C   0  0  0  0  0  0  0  0  0  0  0  0
    5.3982    0.7733   19.9948 C   0  0  0  0  0  0  0  0  0  0  0  0
   10.1406   -0.7765   22.9250 C   0  0  0  0  0  0  0  0  0  0  0  0
    6.4440   -0.1472   19.6979 C   0  0  0  0  0  0  0  0  0  0  0  0
   10.7040   -0.0625   23.9898 C   0  0  0  0  0  0  0  0  0  0  0  0
   12.3683   -1.3298   22.2234 C   0  0  0  0  0  0  0  0  0  0  0  0
    8.2490    0.0169   21.4271 C   0  0  0  0  0  0  0  0  0  0  0  0
    6.7919    2.4313   23.4258 C   0  0  0  0  0  0  0  0  0  0  0  0
    8.0140   -2.1541   22.4331 C   0  0  0  0  0  0  0  0  0  0  0  0
    6.9866   -1.9366   21.3580 C   0  0  0  0  0  0  0  0  0  0  0  0
    7.8721   -0.1194   23.8831 C   0  0  0  0  0  0  0  0  0  0  0  0
    9.2544    2.6849   22.5728 C   0  0  0  0  0  0  0  0  0  0  0  0
    8.9485    3.5343   24.4242 C   0  0  0  0  0  0  0  0  0  0  0  0
    8.6238   -0.7606   22.6929 C   0  0  3  0  0  0  0  0  0  0  0  0
    8.3066    2.3080   23.7349 C   0  0  0  0  0  0  0  0  0  0  0  0
    4.5813    2.9008   24.4627 C   0  0  0  0  0  0  0  0  0  0  0  0
    6.3062    0.3769   17.3421 N   0  0  0  0  0  0  0  0  0  0  0  0
    7.2292   -0.6897   20.7790 N   0  0  0  0  0  0  0  0  0  0  0  0
    8.6609    1.0133   24.4995 N   0  0  1  0  0  0  0  0  0  0  0  0
    6.0160    2.7380   24.5273 N   0  0  0  0  0  0  0  0  0  0  0  0
    8.7570    1.0937   21.1339 O   0  0  0  0  0  0  0  0  0  0  0  0
    6.3932    2.2595   22.2798 O   0  0  0  0  0  0  0  0  0  0  0  0
    9.7076   -0.4225   26.1562 O   0  0  0  0  0  0  0  0  0  0  0  0
   10.7478    1.7906   25.5085 O   0  0  0  0  0  0  0  0  0  0  0  0
    9.9388    3.6663   23.3813 O   0  0  0  0  0  0  0  0  0  0  0  0
    9.9479    0.5589   24.9534 S   0  0  0  0  0  0  0  0  0  0  0  0
   13.4284   -2.1465   21.1136 Cl  0  0  0  0  0  0  0  0  0  0  0  0
    2.5432    3.3510   20.6369 H   0  0  0  0  0  0  0  0  0  0  0  0
    3.5174    2.1137   22.5168 H   0  0  0  0  0  0  0  0  0  0  0  0
    3.3409    2.9743   18.3364 H   0  0  0  0  0  0  0  0  0  0  0  0
    5.3118    0.4895   22.1572 H   0  0  0  0  0  0  0  0  0  0  0  0
   12.5121    0.5980   24.9746 H   0  0  0  0  0  0  0  0  0  0  0  0
   13.9912   -0.5222   23.3835 H   0  0  0  0  0  0  0  0  0  0  0  0
   10.6094   -2.0246   21.2319 H   0  0  0  0  0  0  0  0  0  0  0  0
    4.9141    1.7511   16.7474 H   0  0  0  0  0  0  0  0  0  0  0  0
    7.6445   -0.9764   18.1043 H   0  0  0  0  0  0  0  0  0  0  0  0
    7.5788   -2.6075   23.3348 H   0  0  0  0  0  0  0  0  0  0  0  0
    8.7710   -2.8641   22.0654 H   0  0  0  0  0  0  0  0  0  0  0  0
    7.0230   -2.7503   20.5951 H   0  0  0  0  0  0  0  0  0  0  0  0
    5.9555   -1.9483   21.7831 H   0  0  0  0  0  0  0  0  0  0  0  0
    6.8814    0.2705   23.5765 H   0  0  0  0  0  0  0  0  0  0  0  0
    7.6424   -0.8746   24.6586 H   0  0  0  0  0  0  0  0  0  0  0  0
    9.9336    1.8961   22.2349 H   0  0  0  0  0  0  0  0  0  0  0  0
    8.7822    3.1500   21.7013 H   0  0  0  0  0  0  0  0  0  0  0  0
    8.3217    4.4297   24.4902 H   0  0  0  0  0  0  0  0  0  0  0  0
    9.4113    3.3472   25.3980 H   0  0  0  0  0  0  0  0  0  0  0  0
    4.3403    3.9531   24.2518 H   0  0  0  0  0  0  0  0  0  0  0  0
    4.1758    2.2644   23.6624 H   0  0  0  0  0  0  0  0  0  0  0  0
    4.1356    2.6085   25.4250 H   0  0  0  0  0  0  0  0  0  0  0  0
    6.4759    2.8546   25.4252 H   0  0  0  0  0  0  0  0  0  0  0  0
  1  2  1  0  0  0  0
  1  3  2  0  0  0  0
  2  4  2  0  0  0  0
  3 10  1  0  0  0  0
  4 11  1  0  0  0  0
  5  6  2  0  0  0  0
  5 14  1  0  0  0  0
  6 15  1  0  0  0  0
  7 12  1  0  0  0  0
  7 15  2  0  0  0  0
  8 10  2  0  0  0  0
  8 26  1  0  0  0  0
  9 13  1  0  0  0  0
  9 26  2  0  0  0  0
 10 11  1  0  0  0  0
 11 13  2  0  0  0  0
 12 14  2  0  0  0  0
 12 23  1  0  0  0  0
 13 27  1  0  0  0  0
 14 35  1  0  0  0  0
 15 36  1  0  0  0  0
 16 23  1  0  0  0  0
 16 27  1  0  0  0  0
 16 30  2  0  0  0  0
 17 24  1  0  0  0  0
 17 29  1  0  0  0  0
 17 31  2  0  0  0  0
 18 19  1  0  0  0  0
 18 23  1  0  0  0  0
 19 27  1  0  0  0  0
 20 23  1  0  0  0  0
 20 28  1  0  0  0  0
 21 24  1  0  0  0  0
 21 34  1  0  0  0  0
 22 24  1  0  0  0  0
 22 34  1  0  0  0  0
 24 28  1  6  0  0  0
 25 29  1  0  0  0  0
 28 35  1  0  0  0  0
 32 35  2  0  0  0  0
 33 35  2  0  0  0  0
  1 37  1  0  0  0  0
  2 38  1  0  0  0  0
  3 39  1  0  0  0  0
  4 40  1  0  0  0  0
  5 41  1  0  0  0  0
  6 42  1  0  0  0  0
  7 43  1  0  0  0  0
  8 44  1  0  0  0  0
  9 45  1  0  0  0  0
 18 46  1  0  0  0  0
 18 47  1  0  0  0  0
 19 48  1  0  0  0  0
 19 49  1  0  0  0  0
 20 50  1  0  0  0  0
 20 51  1  0  0  0  0
 21 52  1  0  0  0  0
 21 53  1  0  0  0  0
 22 54  1  0  0  0  0
 22 55  1  0  0  0  0
 25 56  1  0  0  0  0
 25 57  1  0  0  0  0
 25 58  1  0  0  0  0
 29 59  1  0  0  0  0
M  END
> <compound>
EDJ-MED-98c0a822-2

> <compound_smiles>
CNC(=O)C1(COC1)N2CC3(CCN(C3=O)c4cncc5c4cccc5)c6cc(ccc6S2(=O)=O)Cl

> <enantiomer_smiles>
CNC(=O)C1(COC1)[N@]2CC3(CCN(C3=O)c4cncc5c4cccc5)c6cc(ccc6S2(=O)=O)Cl

> <scaffold>
tetralinlike-5spiro-isoquinoline

> <clash_score>
0.7195135980763496

> <docking_score>
-7.225314140319824

> <overlap_score>
1.0

> <MMFF_internal_energy>
338.5473029717754

> <docked_smiles>
CNC(=O)C1(COC1)[N@]2C[C@]3(CCN(C3=O)c4cncc5c4cccc5)c6cc(ccc6S2(=O)=O)Cl

$$$$
EDJ-MED-b6c6ee2b-4_2
  -OEChem-12272114583D

 58 63  0     1  0  0  0  0  0999 V2000
    7.3205    3.4054   22.7658 C   0  0  0  0  0  0  0  0  0  0  0  0
    3.7865    2.4205   19.1660 C   0  0  0  0  0  0  0  0  0  0  0  0
   12.0765    0.0316   24.1541 C   0  0  0  0  0  0  0  0  0  0  0  0
    3.3432    2.6279   20.4411 C   0  0  0  0  0  0  0  0  0  0  0  0
   12.9132   -0.6032   23.2569 C   0  0  0  0  0  0  0  0  0  0  0  0
    4.8973    1.0233   21.2988 C   0  0  0  0  0  0  0  0  0  0  0  0
   10.9991   -1.4331   22.0443 C   0  0  0  0  0  0  0  0  0  0  0  0
    5.3278    1.2339   17.6066 C   0  0  0  0  0  0  0  0  0  0  0  0
    6.8438   -0.2892   18.3752 C   0  0  0  0  0  0  0  0  0  0  0  0
    4.8226    1.4906   18.9054 C   0  0  0  0  0  0  0  0  0  0  0  0
    5.3982    0.7733   19.9948 C   0  0  0  0  0  0  0  0  0  0  0  0
   10.7040   -0.0625   23.9898 C   0  0  0  0  0  0  0  0  0  0  0  0
   10.1406   -0.7765   22.9250 C   0  0  0  0  0  0  0  0  0  0  0  0
    6.4440   -0.1472   19.6979 C   0  0  0  0  0  0  0  0  0  0  0  0
    3.8960    1.9291   21.5050 C   0  0  0  0  0  0  0  0  0  0  0  0
   12.3683   -1.3298   22.2234 C   0  0  0  0  0  0  0  0  0  0  0  0
    8.2490    0.0169   21.4271 C   0  0  0  0  0  0  0  0  0  0  0  0
    9.9479    0.5589   24.9534 C   0  0  0  0  0  0  0  0  0  0  0  0
    9.8217    3.1213   22.9038 C   0  0  0  0  0  0  0  0  0  0  0  0
    9.5383    4.5944   22.9183 C   0  0  0  0  0  0  0  0  0  0  0  0
    8.0140   -2.1541   22.4331 C   0  0  0  0  0  0  0  0  0  0  0  0
    6.9866   -1.9366   21.3580 C   0  0  0  0  0  0  0  0  0  0  0  0
    7.8721   -0.1194   23.8831 C   0  0  0  0  0  0  0  0  0  0  0  0
    8.5331    3.6312   23.5091 C   0  0  0  0  0  0  0  0  0  0  0  0
    8.6238   -0.7606   22.6929 C   0  0  3  0  0  0  0  0  0  0  0  0
    8.3874    3.5882   25.0137 C   0  0  0  0  0  0  0  0  0  0  0  0
    6.3436    3.2234   22.1669 N   0  0  0  0  0  0  0  0  0  0  0  0
    6.3062    0.3769   17.3421 N   0  0  0  0  0  0  0  0  0  0  0  0
    7.2292   -0.6897   20.7790 N   0  0  0  0  0  0  0  0  0  0  0  0
    8.6609    1.0133   24.4995 N   0  0  2  0  0  0  0  0  0  0  0  0
    8.8299    1.0397   21.0799 O   0  0  0  0  0  0  0  0  0  0  0  0
    8.2407    1.8013   26.9144 O   0  0  0  0  0  0  0  0  0  0  0  0
    6.3653    1.9471   25.2271 O   0  0  0  0  0  0  0  0  0  0  0  0
    7.7708    2.0177   25.5632 S   0  0  0  0  0  0  0  0  0  0  0  0
    3.3000    2.2178   23.1047 Cl  0  0  0  0  0  0  0  0  0  0  0  0
   13.4272   -2.1411   21.1086 Cl  0  0  0  0  0  0  0  0  0  0  0  0
    3.3416    2.9748   18.3364 H   0  0  0  0  0  0  0  0  0  0  0  0
   12.5024    0.5995   24.9735 H   0  0  0  0  0  0  0  0  0  0  0  0
    2.5415    3.3543   20.6218 H   0  0  0  0  0  0  0  0  0  0  0  0
   13.9910   -0.5177   23.3793 H   0  0  0  0  0  0  0  0  0  0  0  0
    5.3220    0.4801   22.1475 H   0  0  0  0  0  0  0  0  0  0  0  0
   10.6036   -2.0162   21.2241 H   0  0  0  0  0  0  0  0  0  0  0  0
    4.9132    1.7509   16.7476 H   0  0  0  0  0  0  0  0  0  0  0  0
    7.6448   -0.9761   18.1046 H   0  0  0  0  0  0  0  0  0  0  0  0
    9.7849   -0.1194   25.8306 H   0  0  0  0  0  0  0  0  0  0  0  0
   10.4793    1.4568   25.3613 H   0  0  0  0  0  0  0  0  0  0  0  0
    9.7878    2.6129   21.9468 H   0  0  0  0  0  0  0  0  0  0  0  0
   10.5952    2.7515   23.5670 H   0  0  0  0  0  0  0  0  0  0  0  0
   10.1228    5.2116   23.5908 H   0  0  0  0  0  0  0  0  0  0  0  0
    9.3157    5.0716   21.9707 H   0  0  0  0  0  0  0  0  0  0  0  0
    7.5152   -2.5456   23.3338 H   0  0  0  0  0  0  0  0  0  0  0  0
    8.7649   -2.9030   22.1434 H   0  0  0  0  0  0  0  0  0  0  0  0
    7.0587   -2.7248   20.5721 H   0  0  0  0  0  0  0  0  0  0  0  0
    5.9518   -1.9952   21.7720 H   0  0  0  0  0  0  0  0  0  0  0  0
    6.8867    0.2641   23.5642 H   0  0  0  0  0  0  0  0  0  0  0  0
    7.6652   -0.8660   24.6733 H   0  0  0  0  0  0  0  0  0  0  0  0
    7.6838    4.3500   25.3607 H   0  0  0  0  0  0  0  0  0  0  0  0
    9.3513    3.7460   25.5050 H   0  0  0  0  0  0  0  0  0  0  0  0
  1 24  1  0  0  0  0
  1 27  3  0  0  0  0
  2  4  1  0  0  0  0
  2 10  2  0  0  0  0
  3  5  1  0  0  0  0
  3 12  2  0  0  0  0
  4 15  2  0  0  0  0
  5 16  2  0  0  0  0
  6 11  2  0  0  0  0
  6 15  1  0  0  0  0
  7 13  2  0  0  0  0
  7 16  1  0  0  0  0
  8 10  1  0  0  0  0
  8 28  2  0  0  0  0
  9 14  2  0  0  0  0
  9 28  1  0  0  0  0
 10 11  1  0  0  0  0
 11 14  1  0  0  0  0
 12 13  1  0  0  0  0
 12 18  1  0  0  0  0
 13 25  1  0  0  0  0
 14 29  1  0  0  0  0
 15 35  1  0  0  0  0
 16 36  1  0  0  0  0
 17 25  1  0  0  0  0
 17 29  1  0  0  0  0
 17 31  2  0  0  0  0
 18 30  1  0  0  0  0
 19 20  1  0  0  0  0
 19 24  1  0  0  0  0
 20 24  1  0  0  0  0
 21 22  1  0  0  0  0
 21 25  1  0  0  0  0
 22 29  1  0  0  0  0
 23 25  1  0  0  0  0
 23 30  1  0  0  0  0
 24 26  1  0  0  0  0
 26 34  1  0  0  0  0
 30 34  1  6  0  0  0
 32 34  2  0  0  0  0
 33 34  2  0  0  0  0
  2 37  1  0  0  0  0
  3 38  1  0  0  0  0
  4 39  1  0  0  0  0
  5 40  1  0  0  0  0
  6 41  1  0  0  0  0
  7 42  1  0  0  0  0
  8 43  1  0  0  0  0
  9 44  1  0  0  0  0
 18 45  1  0  0  0  0
 18 46  1  0  0  0  0
 19 47  1  0  0  0  0
 19 48  1  0  0  0  0
 20 49  1  0  0  0  0
 20 50  1  0  0  0  0
 21 51  1  0  0  0  0
 21 52  1  0  0  0  0
 22 53  1  0  0  0  0
 22 54  1  0  0  0  0
 23 55  1  0  0  0  0
 23 56  1  0  0  0  0
 26 57  1  0  0  0  0
 26 58  1  0  0  0  0
M  END
> <compound>
EDJ-MED-b6c6ee2b-4

> <compound_smiles>
c1cc2cncc(c2cc1Cl)N3CCC4(C3=O)CN(Cc5c4cc(cc5)Cl)S(=O)(=O)CC6(CC6)C#N

> <enantiomer_smiles>
c1cc2cncc(c2cc1Cl)N3CCC4(C3=O)C[N@](Cc5c4cc(cc5)Cl)S(=O)(=O)CC6(CC6)C#N

> <scaffold>
tetrahydroisoquinoline-5spiro-isoquinoline

> <clash_score>
0

> <docking_score>
-8.696407318115234

> <overlap_score>
0.9792011380195618

> <MMFF_internal_energy>
116.12150024347008

> <docked_smiles>
c1cc2cncc(c2cc1Cl)N3CC[C@@]4(C3=O)C[N@](Cc5c4cc(cc5)Cl)S(=O)(=O)CC6(CC6)C#N

$$$$
PET-UNK-94036022-4_1
  -OEChem-12272114583D

 58 63  0     1  0  0  0  0  0999 V2000
   10.6473    6.1865   24.0148 C   0  0  0  0  0  0  0  0  0  0  0  0
    9.5912    5.6631   24.2420 C   0  0  0  0  0  0  0  0  0  0  0  0
    3.3432    2.6279   20.4411 C   0  0  0  0  0  0  0  0  0  0  0  0
    3.8960    1.9291   21.5050 C   0  0  0  0  0  0  0  0  0  0  0  0
    3.7865    2.4205   19.1660 C   0  0  0  0  0  0  0  0  0  0  0  0
    4.8973    1.0233   21.2988 C   0  0  0  0  0  0  0  0  0  0  0  0
   12.0765    0.0316   24.1541 C   0  0  0  0  0  0  0  0  0  0  0  0
   12.9132   -0.6032   23.2569 C   0  0  0  0  0  0  0  0  0  0  0  0
   10.9991   -1.4331   22.0443 C   0  0  0  0  0  0  0  0  0  0  0  0
    5.3278    1.2339   17.6066 C   0  0  0  0  0  0  0  0  0  0  0  0
    6.8438   -0.2892   18.3752 C   0  0  0  0  0  0  0  0  0  0  0  0
    4.8226    1.4906   18.9054 C   0  0  0  0  0  0  0  0  0  0  0  0
    5.3982    0.7733   19.9948 C   0  0  0  0  0  0  0  0  0  0  0  0
   10.7040   -0.0625   23.9898 C   0  0  0  0  0  0  0  0  0  0  0  0
   10.1406   -0.7765   22.9250 C   0  0  0  0  0  0  0  0  0  0  0  0
    6.4440   -0.1472   19.6979 C   0  0  0  0  0  0  0  0  0  0  0  0
   12.3683   -1.3298   22.2234 C   0  0  0  0  0  0  0  0  0  0  0  0
    6.9866   -1.9366   21.3580 C   0  0  0  0  0  0  0  0  0  0  0  0
    8.2490    0.0169   21.4271 C   0  0  0  0  0  0  0  0  0  0  0  0
    9.9479    0.5589   24.9534 C   0  0  0  0  0  0  0  0  0  0  0  0
    8.0140   -2.1541   22.4331 C   0  0  0  0  0  0  0  0  0  0  0  0
    7.2244    5.9093   25.0749 C   0  0  0  0  0  0  0  0  0  0  0  0
    7.1504    5.4420   23.6513 C   0  0  0  0  0  0  0  0  0  0  0  0
    7.8721   -0.1194   23.8831 C   0  0  0  0  0  0  0  0  0  0  0  0
    8.3240    5.0355   24.5142 C   0  0  0  0  0  0  0  0  0  0  0  0
    8.6238   -0.7606   22.6929 C   0  0  2  0  0  0  0  0  0  0  0  0
    8.4002    3.5993   24.9817 C   0  0  0  0  0  0  0  0  0  0  0  0
    6.3062    0.3769   17.3421 N   0  0  0  0  0  0  0  0  0  0  0  0
    7.2292   -0.6897   20.7790 N   0  0  0  0  0  0  0  0  0  0  0  0
    8.6609    1.0133   24.4995 N   0  0  2  0  0  0  0  0  0  0  0  0
    6.1208   -2.7600   21.1047 O   0  0  0  0  0  0  0  0  0  0  0  0
    8.7896    1.0612   21.1027 O   0  0  0  0  0  0  0  0  0  0  0  0
    7.4247    2.5285   22.8071 O   0  0  0  0  0  0  0  0  0  0  0  0
    9.9321    2.7174   23.0574 O   0  0  0  0  0  0  0  0  0  0  0  0
    8.6203    2.4826   23.6205 S   0  0  0  0  0  0  0  0  0  0  0  0
   13.4271   -2.1418   21.1092 Cl  0  0  0  0  0  0  0  0  0  0  0  0
   11.5844    6.6507   23.8134 H   0  0  0  0  0  0  0  0  0  0  0  0
    2.5432    3.3510   20.6369 H   0  0  0  0  0  0  0  0  0  0  0  0
    3.5174    2.1137   22.5168 H   0  0  0  0  0  0  0  0  0  0  0  0
    3.3409    2.9743   18.3364 H   0  0  0  0  0  0  0  0  0  0  0  0
    5.3118    0.4895   22.1572 H   0  0  0  0  0  0  0  0  0  0  0  0
   12.5020    0.5927   24.9783 H   0  0  0  0  0  0  0  0  0  0  0  0
   13.9911   -0.5225   23.3825 H   0  0  0  0  0  0  0  0  0  0  0  0
   10.6032   -2.0209   21.2277 H   0  0  0  0  0  0  0  0  0  0  0  0
    4.9141    1.7511   16.7474 H   0  0  0  0  0  0  0  0  0  0  0  0
    7.6445   -0.9764   18.1043 H   0  0  0  0  0  0  0  0  0  0  0  0
    9.7590   -0.1292   25.8175 H   0  0  0  0  0  0  0  0  0  0  0  0
   10.4933    1.4387   25.3838 H   0  0  0  0  0  0  0  0  0  0  0  0
    7.5403   -2.5807   23.3246 H   0  0  0  0  0  0  0  0  0  0  0  0
    8.7445   -2.8785   22.0514 H   0  0  0  0  0  0  0  0  0  0  0  0
    7.4255    6.9604   25.2485 H   0  0  0  0  0  0  0  0  0  0  0  0
    6.5281    5.4755   25.7833 H   0  0  0  0  0  0  0  0  0  0  0  0
    6.4036    4.6957   23.4059 H   0  0  0  0  0  0  0  0  0  0  0  0
    7.3010    6.1809   22.8724 H   0  0  0  0  0  0  0  0  0  0  0  0
    6.8882    0.2774   23.5695 H   0  0  0  0  0  0  0  0  0  0  0  0
    7.6626   -0.8750   24.6620 H   0  0  0  0  0  0  0  0  0  0  0  0
    7.4801    3.3052   25.4943 H   0  0  0  0  0  0  0  0  0  0  0  0
    9.2457    3.4525   25.6592 H   0  0  0  0  0  0  0  0  0  0  0  0
  1  2  3  0  0  0  0
  2 25  1  0  0  0  0
  3  4  1  0  0  0  0
  3  5  2  0  0  0  0
  4  6  2  0  0  0  0
  5 12  1  0  0  0  0
  6 13  1  0  0  0  0
  7  8  2  0  0  0  0
  7 14  1  0  0  0  0
  8 17  1  0  0  0  0
  9 15  1  0  0  0  0
  9 17  2  0  0  0  0
 10 12  2  0  0  0  0
 10 28  1  0  0  0  0
 11 16  1  0  0  0  0
 11 28  2  0  0  0  0
 12 13  1  0  0  0  0
 13 16  2  0  0  0  0
 14 15  2  0  0  0  0
 14 20  1  0  0  0  0
 15 26  1  6  0  0  0
 16 29  1  0  0  0  0
 17 36  1  0  0  0  0
 18 21  1  0  0  0  0
 18 29  1  0  0  0  0
 18 31  2  0  0  0  0
 19 26  1  1  0  0  0
 19 29  1  0  0  0  0
 19 32  2  0  0  0  0
 20 30  1  0  0  0  0
 21 26  1  1  0  0  0
 22 23  1  0  0  0  0
 22 25  1  0  0  0  0
 23 25  1  0  0  0  0
 24 26  1  6  0  0  0
 24 30  1  0  0  0  0
 25 27  1  0  0  0  0
 27 35  1  0  0  0  0
 30 35  1  1  0  0  0
 33 35  2  0  0  0  0
 34 35  2  0  0  0  0
  1 37  1  0  0  0  0
  3 38  1  0  0  0  0
  4 39  1  0  0  0  0
  5 40  1  0  0  0  0
  6 41  1  0  0  0  0
  7 42  1  0  0  0  0
  8 43  1  0  0  0  0
  9 44  1  0  0  0  0
 10 45  1  0  0  0  0
 11 46  1  0  0  0  0
 20 47  1  0  0  0  0
 20 48  1  0  0  0  0
 21 49  1  0  0  0  0
 21 50  1  0  0  0  0
 22 51  1  0  0  0  0
 22 52  1  0  0  0  0
 23 53  1  0  0  0  0
 23 54  1  0  0  0  0
 24 55  1  0  0  0  0
 24 56  1  0  0  0  0
 27 57  1  0  0  0  0
 27 58  1  0  0  0  0
M  END
> <compound>
PET-UNK-94036022-4

> <compound_smiles>
C#CC1(CC1)CS(=O)(=O)N2Cc3ccc(cc3[C@]4(C2)CC(=O)N(C4=O)c5cncc6c5cccc6)Cl

> <enantiomer_smiles>
C#CC1(CC1)CS(=O)(=O)[N@@]2Cc3ccc(cc3[C@]4(C2)CC(=O)N(C4=O)c5cncc6c5cccc6)Cl

> <scaffold>
tetrahydroisoquinoline-5spiro-isoquinoline

> <clash_score>
0

> <docking_score>
-9.24660873413086

> <overlap_score>
1.0

> <MMFF_internal_energy>
94.09715548094111

> <docked_smiles>
C#CC1(CC1)CS(=O)(=O)[N@@]2Cc3ccc(cc3[C@]4(C2)CC(=O)N(C4=O)c5cncc6c5cccc6)Cl

$$$$
MAT-POS-50a80394-1_1
  -OEChem-12272114583D

 61 66  0     1  0  0  0  0  0999 V2000
   10.0126    5.1147   23.7990 C   0  0  0  0  0  0  0  0  0  0  0  0
    3.3432    2.6279   20.4411 C   0  0  0  0  0  0  0  0  0  0  0  0
    3.8960    1.9291   21.5050 C   0  0  0  0  0  0  0  0  0  0  0  0
    3.7865    2.4205   19.1660 C   0  0  0  0  0  0  0  0  0  0  0  0
    4.8973    1.0233   21.2988 C   0  0  0  0  0  0  0  0  0  0  0  0
   12.0765    0.0316   24.1541 C   0  0  0  0  0  0  0  0  0  0  0  0
   12.9132   -0.6032   23.2569 C   0  0  0  0  0  0  0  0  0  0  0  0
   10.9991   -1.4331   22.0443 C   0  0  0  0  0  0  0  0  0  0  0  0
    5.3278    1.2339   17.6066 C   0  0  0  0  0  0  0  0  0  0  0  0
    6.8438   -0.2892   18.3752 C   0  0  0  0  0  0  0  0  0  0  0  0
    4.8226    1.4906   18.9054 C   0  0  0  0  0  0  0  0  0  0  0  0
    5.3982    0.7733   19.9948 C   0  0  0  0  0  0  0  0  0  0  0  0
   10.7040   -0.0625   23.9898 C   0  0  0  0  0  0  0  0  0  0  0  0
   10.1406   -0.7765   22.9250 C   0  0  0  0  0  0  0  0  0  0  0  0
    6.4440   -0.1472   19.6979 C   0  0  0  0  0  0  0  0  0  0  0  0
   12.3683   -1.3298   22.2234 C   0  0  0  0  0  0  0  0  0  0  0  0
    8.2490    0.0169   21.4271 C   0  0  0  0  0  0  0  0  0  0  0  0
    9.9479    0.5589   24.9534 C   0  0  0  0  0  0  0  0  0  0  0  0
    8.5601    6.1135   25.6014 C   0  0  0  0  0  0  0  0  0  0  0  0
    7.7290    6.0264   24.3554 C   0  0  0  0  0  0  0  0  0  0  0  0
    6.9866   -1.9366   21.3580 C   0  0  0  0  0  0  0  0  0  0  0  0
    7.8721   -0.1194   23.8831 C   0  0  0  0  0  0  0  0  0  0  0  0
    8.0140   -2.1541   22.4331 C   0  0  2  0  0  0  0  0  0  0  0  0
    8.8213    5.0097   24.6012 C   0  0  0  0  0  0  0  0  0  0  0  0
    8.6238   -0.7606   22.6929 C   0  0  3  0  0  0  0  0  0  0  0  0
    9.0010   -3.2760   22.0773 C   0  0  0  0  0  0  0  0  0  0  0  0
    8.4129    3.6016   24.9722 C   0  0  0  0  0  0  0  0  0  0  0  0
   10.9724    5.1994   23.1527 N   0  0  0  0  0  0  0  0  0  0  0  0
    6.3062    0.3769   17.3421 N   0  0  0  0  0  0  0  0  0  0  0  0
    7.2292   -0.6897   20.7790 N   0  0  0  0  0  0  0  0  0  0  0  0
    8.6609    1.0133   24.4995 N   0  0  1  0  0  0  0  0  0  0  0  0
    8.7926    1.0477   21.0410 O   0  0  0  0  0  0  0  0  0  0  0  0
    7.4254    2.5191   22.8088 O   0  0  0  0  0  0  0  0  0  0  0  0
    9.9337    2.7223   23.0379 O   0  0  0  0  0  0  0  0  0  0  0  0
    8.6279    2.4822   23.6125 S   0  0  0  0  0  0  0  0  0  0  0  0
   13.4291   -2.1463   21.1151 Cl  0  0  0  0  0  0  0  0  0  0  0  0
    2.5432    3.3510   20.6369 H   0  0  0  0  0  0  0  0  0  0  0  0
    3.5174    2.1137   22.5168 H   0  0  0  0  0  0  0  0  0  0  0  0
    3.3409    2.9743   18.3364 H   0  0  0  0  0  0  0  0  0  0  0  0
    5.3118    0.4895   22.1572 H   0  0  0  0  0  0  0  0  0  0  0  0
   12.5035    0.5856   24.9819 H   0  0  0  0  0  0  0  0  0  0  0  0
   13.9916   -0.5306   23.3886 H   0  0  0  0  0  0  0  0  0  0  0  0
   10.6204   -2.0357   21.2359 H   0  0  0  0  0  0  0  0  0  0  0  0
    4.9141    1.7511   16.7474 H   0  0  0  0  0  0  0  0  0  0  0  0
    7.6445   -0.9764   18.1043 H   0  0  0  0  0  0  0  0  0  0  0  0
    9.7570   -0.1302   25.8192 H   0  0  0  0  0  0  0  0  0  0  0  0
   10.4946    1.4373   25.3913 H   0  0  0  0  0  0  0  0  0  0  0  0
    9.2670    6.9321   25.6772 H   0  0  0  0  0  0  0  0  0  0  0  0
    8.0847    5.8592   26.5416 H   0  0  0  0  0  0  0  0  0  0  0  0
    6.6964    5.7145   24.4614 H   0  0  0  0  0  0  0  0  0  0  0  0
    7.8793    6.7875   23.5981 H   0  0  0  0  0  0  0  0  0  0  0  0
    7.0339   -2.7222   20.5620 H   0  0  0  0  0  0  0  0  0  0  0  0
    5.9485   -1.9852   21.7748 H   0  0  0  0  0  0  0  0  0  0  0  0
    6.8962    0.2982   23.5778 H   0  0  0  0  0  0  0  0  0  0  0  0
    7.6688   -0.8624   24.6740 H   0  0  0  0  0  0  0  0  0  0  0  0
    7.4661   -2.5173   23.3215 H   0  0  0  0  0  0  0  0  0  0  0  0
    9.5839   -2.9841   21.2037 H   0  0  0  0  0  0  0  0  0  0  0  0
    8.4594   -4.1942   21.8504 H   0  0  0  0  0  0  0  0  0  0  0  0
    9.6799   -3.4620   22.9096 H   0  0  0  0  0  0  0  0  0  0  0  0
    7.3581    3.5625   25.2582 H   0  0  0  0  0  0  0  0  0  0  0  0
    9.0188    3.2236   25.8001 H   0  0  0  0  0  0  0  0  0  0  0  0
  1 24  1  0  0  0  0
  1 28  3  0  0  0  0
  2  3  1  0  0  0  0
  2  4  2  0  0  0  0
  3  5  2  0  0  0  0
  4 11  1  0  0  0  0
  5 12  1  0  0  0  0
  6  7  1  0  0  0  0
  6 13  2  0  0  0  0
  7 16  2  0  0  0  0
  8 14  2  0  0  0  0
  8 16  1  0  0  0  0
  9 11  2  0  0  0  0
  9 29  1  0  0  0  0
 10 15  1  0  0  0  0
 10 29  2  0  0  0  0
 11 12  1  0  0  0  0
 12 15  2  0  0  0  0
 13 14  1  0  0  0  0
 13 18  1  0  0  0  0
 14 25  1  0  0  0  0
 15 30  1  0  0  0  0
 16 36  1  0  0  0  0
 17 25  1  0  0  0  0
 17 30  1  0  0  0  0
 17 32  2  0  0  0  0
 18 31  1  0  0  0  0
 19 20  1  0  0  0  0
 19 24  1  0  0  0  0
 20 24  1  0  0  0  0
 21 23  1  0  0  0  0
 21 30  1  0  0  0  0
 22 25  1  0  0  0  0
 22 31  1  0  0  0  0
 23 25  1  0  0  0  0
 23 26  1  1  0  0  0
 24 27  1  0  0  0  0
 27 35  1  0  0  0  0
 31 35  1  1  0  0  0
 33 35  2  0  0  0  0
 34 35  2  0  0  0  0
  2 37  1  0  0  0  0
  3 38  1  0  0  0  0
  4 39  1  0  0  0  0
  5 40  1  0  0  0  0
  6 41  1  0  0  0  0
  7 42  1  0  0  0  0
  8 43  1  0  0  0  0
  9 44  1  0  0  0  0
 10 45  1  0  0  0  0
 18 46  1  0  0  0  0
 18 47  1  0  0  0  0
 19 48  1  0  0  0  0
 19 49  1  0  0  0  0
 20 50  1  0  0  0  0
 20 51  1  0  0  0  0
 21 52  1  0  0  0  0
 21 53  1  0  0  0  0
 22 54  1  0  0  0  0
 22 55  1  0  0  0  0
 23 56  1  0  0  0  0
 26 57  1  0  0  0  0
 26 58  1  0  0  0  0
 26 59  1  0  0  0  0
 27 60  1  0  0  0  0
 27 61  1  0  0  0  0
M  END
> <compound>
MAT-POS-50a80394-1

> <compound_smiles>
CC1CN(C(=O)C12CN(Cc3c2cc(cc3)Cl)S(=O)(=O)CC4(CC4)C#N)c5cncc6c5cccc6

> <enantiomer_smiles>
C[C@@H]1CN(C(=O)C12C[N@@](Cc3c2cc(cc3)Cl)S(=O)(=O)CC4(CC4)C#N)c5cncc6c5cccc6

> <scaffold>
tetrahydroisoquinoline-5spiro-isoquinoline

> <clash_score>
0

> <docking_score>
-8.453224182128906

> <overlap_score>
0.981713593006134

> <MMFF_internal_energy>
167.35172345107355

> <docked_smiles>
C[C@@H]1CN(C(=O)[C@@]12C[N@@](Cc3c2cc(cc3)Cl)S(=O)(=O)CC4(CC4)C#N)c5cncc6c5cccc6

$$$$
MAT-POS-50a80394-1_3
  -OEChem-12272114583D

 61 66  0     1  0  0  0  0  0999 V2000
    7.3021    3.4444   22.7827 C   0  0  0  0  0  0  0  0  0  0  0  0
    3.3432    2.6279   20.4411 C   0  0  0  0  0  0  0  0  0  0  0  0
    3.8960    1.9291   21.5050 C   0  0  0  0  0  0  0  0  0  0  0  0
    3.7865    2.4205   19.1660 C   0  0  0  0  0  0  0  0  0  0  0  0
    4.8973    1.0233   21.2988 C   0  0  0  0  0  0  0  0  0  0  0  0
   12.0765    0.0316   24.1541 C   0  0  0  0  0  0  0  0  0  0  0  0
   12.9132   -0.6032   23.2569 C   0  0  0  0  0  0  0  0  0  0  0  0
   10.9991   -1.4331   22.0443 C   0  0  0  0  0  0  0  0  0  0  0  0
    5.3278    1.2339   17.6066 C   0  0  0  0  0  0  0  0  0  0  0  0
    6.8438   -0.2892   18.3752 C   0  0  0  0  0  0  0  0  0  0  0  0
    4.8226    1.4906   18.9054 C   0  0  0  0  0  0  0  0  0  0  0  0
    5.3982    0.7733   19.9948 C   0  0  0  0  0  0  0  0  0  0  0  0
   10.7040   -0.0625   23.9898 C   0  0  0  0  0  0  0  0  0  0  0  0
   10.1406   -0.7765   22.9250 C   0  0  0  0  0  0  0  0  0  0  0  0
    6.4440   -0.1472   19.6979 C   0  0  0  0  0  0  0  0  0  0  0  0
   12.3683   -1.3298   22.2234 C   0  0  0  0  0  0  0  0  0  0  0  0
    8.2490    0.0169   21.4271 C   0  0  0  0  0  0  0  0  0  0  0  0
    9.9479    0.5589   24.9534 C   0  0  0  0  0  0  0  0  0  0  0  0
    9.8076    3.2003   22.9200 C   0  0  0  0  0  0  0  0  0  0  0  0
    9.4994    4.6680   22.9571 C   0  0  0  0  0  0  0  0  0  0  0  0
    6.9866   -1.9366   21.3580 C   0  0  0  0  0  0  0  0  0  0  0  0
    7.8721   -0.1194   23.8831 C   0  0  0  0  0  0  0  0  0  0  0  0
    8.0140   -2.1541   22.4331 C   0  0  2  0  0  0  0  0  0  0  0  0
    8.5098    3.6789   23.5312 C   0  0  0  0  0  0  0  0  0  0  0  0
    8.6238   -0.7606   22.6929 C   0  0  3  0  0  0  0  0  0  0  0  0
    8.9909   -3.2809   22.0742 C   0  0  0  0  0  0  0  0  0  0  0  0
    8.3630    3.6099   25.0348 C   0  0  0  0  0  0  0  0  0  0  0  0
    6.3291    3.2555   22.1796 N   0  0  0  0  0  0  0  0  0  0  0  0
    6.3062    0.3769   17.3421 N   0  0  0  0  0  0  0  0  0  0  0  0
    7.2292   -0.6897   20.7790 N   0  0  0  0  0  0  0  0  0  0  0  0
    8.6609    1.0133   24.4995 N   0  0  2  0  0  0  0  0  0  0  0  0
    8.8282    1.0393   21.0751 O   0  0  0  0  0  0  0  0  0  0  0  0
    8.2270    1.7999   26.9143 O   0  0  0  0  0  0  0  0  0  0  0  0
    6.3738    1.9237   25.2009 O   0  0  0  0  0  0  0  0  0  0  0  0
    7.7723    2.0208   25.5587 S   0  0  0  0  0  0  0  0  0  0  0  0
   13.4274   -2.1434   21.1105 Cl  0  0  0  0  0  0  0  0  0  0  0  0
    2.5432    3.3510   20.6369 H   0  0  0  0  0  0  0  0  0  0  0  0
    3.5174    2.1137   22.5168 H   0  0  0  0  0  0  0  0  0  0  0  0
    3.3409    2.9743   18.3364 H   0  0  0  0  0  0  0  0  0  0  0  0
    5.3118    0.4895   22.1572 H   0  0  0  0  0  0  0  0  0  0  0  0
   12.5025    0.5963   24.9751 H   0  0  0  0  0  0  0  0  0  0  0  0
   13.9912   -0.5180   23.3793 H   0  0  0  0  0  0  0  0  0  0  0  0
   10.6049   -2.0193   21.2265 H   0  0  0  0  0  0  0  0  0  0  0  0
    4.9141    1.7511   16.7474 H   0  0  0  0  0  0  0  0  0  0  0  0
    7.6445   -0.9764   18.1043 H   0  0  0  0  0  0  0  0  0  0  0  0
    9.7848   -0.1184   25.8317 H   0  0  0  0  0  0  0  0  0  0  0  0
   10.4795    1.4567   25.3619 H   0  0  0  0  0  0  0  0  0  0  0  0
    9.7835    2.7064   21.9551 H   0  0  0  0  0  0  0  0  0  0  0  0
   10.5864    2.8332   23.5785 H   0  0  0  0  0  0  0  0  0  0  0  0
   10.0726    5.2843   23.6401 H   0  0  0  0  0  0  0  0  0  0  0  0
    9.2700    5.1562   22.0167 H   0  0  0  0  0  0  0  0  0  0  0  0
    7.0378   -2.7208   20.5626 H   0  0  0  0  0  0  0  0  0  0  0  0
    5.9498   -1.9850   21.7745 H   0  0  0  0  0  0  0  0  0  0  0  0
    6.8879    0.2595   23.5690 H   0  0  0  0  0  0  0  0  0  0  0  0
    7.6762   -0.8602   24.6766 H   0  0  0  0  0  0  0  0  0  0  0  0
    7.4776   -2.4981   23.3384 H   0  0  0  0  0  0  0  0  0  0  0  0
    9.5592   -3.0030   21.1863 H   0  0  0  0  0  0  0  0  0  0  0  0
    8.4428   -4.2008   21.8691 H   0  0  0  0  0  0  0  0  0  0  0  0
    9.6846   -3.4588   22.8963 H   0  0  0  0  0  0  0  0  0  0  0  0
    7.6463    4.3542   25.3927 H   0  0  0  0  0  0  0  0  0  0  0  0
    9.3236    3.7761   25.5300 H   0  0  0  0  0  0  0  0  0  0  0  0
  1 24  1  0  0  0  0
  1 28  3  0  0  0  0
  2  3  1  0  0  0  0
  2  4  2  0  0  0  0
  3  5  2  0  0  0  0
  4 11  1  0  0  0  0
  5 12  1  0  0  0  0
  6  7  1  0  0  0  0
  6 13  2  0  0  0  0
  7 16  2  0  0  0  0
  8 14  2  0  0  0  0
  8 16  1  0  0  0  0
  9 11  2  0  0  0  0
  9 29  1  0  0  0  0
 10 15  1  0  0  0  0
 10 29  2  0  0  0  0
 11 12  1  0  0  0  0
 12 15  2  0  0  0  0
 13 14  1  0  0  0  0
 13 18  1  0  0  0  0
 14 25  1  0  0  0  0
 15 30  1  0  0  0  0
 16 36  1  0  0  0  0
 17 25  1  0  0  0  0
 17 30  1  0  0  0  0
 17 32  2  0  0  0  0
 18 31  1  0  0  0  0
 19 20  1  0  0  0  0
 19 24  1  0  0  0  0
 20 24  1  0  0  0  0
 21 23  1  0  0  0  0
 21 30  1  0  0  0  0
 22 25  1  0  0  0  0
 22 31  1  0  0  0  0
 23 25  1  0  0  0  0
 23 26  1  1  0  0  0
 24 27  1  0  0  0  0
 27 35  1  0  0  0  0
 31 35  1  6  0  0  0
 33 35  2  0  0  0  0
 34 35  2  0  0  0  0
  2 37  1  0  0  0  0
  3 38  1  0  0  0  0
  4 39  1  0  0  0  0
  5 40  1  0  0  0  0
  6 41  1  0  0  0  0
  7 42  1  0  0  0  0
  8 43  1  0  0  0  0
  9 44  1  0  0  0  0
 10 45  1  0  0  0  0
 18 46  1  0  0  0  0
 18 47  1  0  0  0  0
 19 48  1  0  0  0  0
 19 49  1  0  0  0  0
 20 50  1  0  0  0  0
 20 51  1  0  0  0  0
 21 52  1  0  0  0  0
 21 53  1  0  0  0  0
 22 54  1  0  0  0  0
 22 55  1  0  0  0  0
 23 56  1  0  0  0  0
 26 57  1  0  0  0  0
 26 58  1  0  0  0  0
 26 59  1  0  0  0  0
 27 60  1  0  0  0  0
 27 61  1  0  0  0  0
M  END
> <compound>
MAT-POS-50a80394-1

> <compound_smiles>
CC1CN(C(=O)C12CN(Cc3c2cc(cc3)Cl)S(=O)(=O)CC4(CC4)C#N)c5cncc6c5cccc6

> <enantiomer_smiles>
C[C@@H]1CN(C(=O)C12C[N@](Cc3c2cc(cc3)Cl)S(=O)(=O)CC4(CC4)C#N)c5cncc6c5cccc6

> <scaffold>
tetrahydroisoquinoline-5spiro-isoquinoline

> <clash_score>
0

> <docking_score>
-8.029006958007812

> <overlap_score>
0.9822295904159546

> <MMFF_internal_energy>
150.2732297180793

> <docked_smiles>
C[C@@H]1CN(C(=O)[C@@]12C[N@](Cc3c2cc(cc3)Cl)S(=O)(=O)CC4(CC4)C#N)c5cncc6c5cccc6

$$$$
MAT-POS-50a80394-1_2
  -OEChem-12272114583D

 61 66  0     1  0  0  0  0  0999 V2000
    9.9899    5.1261   23.7595 C   0  0  0  0  0  0  0  0  0  0  0  0
    3.3432    2.6279   20.4411 C   0  0  0  0  0  0  0  0  0  0  0  0
    3.8960    1.9291   21.5050 C   0  0  0  0  0  0  0  0  0  0  0  0
    3.7865    2.4205   19.1660 C   0  0  0  0  0  0  0  0  0  0  0  0
    4.8973    1.0233   21.2988 C   0  0  0  0  0  0  0  0  0  0  0  0
   12.0765    0.0316   24.1541 C   0  0  0  0  0  0  0  0  0  0  0  0
   12.9132   -0.6032   23.2569 C   0  0  0  0  0  0  0  0  0  0  0  0
   10.9991   -1.4331   22.0443 C   0  0  0  0  0  0  0  0  0  0  0  0
    5.3278    1.2339   17.6066 C   0  0  0  0  0  0  0  0  0  0  0  0
    6.8438   -0.2892   18.3752 C   0  0  0  0  0  0  0  0  0  0  0  0
    4.8226    1.4906   18.9054 C   0  0  0  0  0  0  0  0  0  0  0  0
    5.3982    0.7733   19.9948 C   0  0  0  0  0  0  0  0  0  0  0  0
   10.7040   -0.0625   23.9898 C   0  0  0  0  0  0  0  0  0  0  0  0
   10.1406   -0.7765   22.9250 C   0  0  0  0  0  0  0  0  0  0  0  0
    6.4440   -0.1472   19.6979 C   0  0  0  0  0  0  0  0  0  0  0  0
   12.3683   -1.3298   22.2234 C   0  0  0  0  0  0  0  0  0  0  0  0
    8.2490    0.0169   21.4271 C   0  0  0  0  0  0  0  0  0  0  0  0
    9.9479    0.5589   24.9534 C   0  0  0  0  0  0  0  0  0  0  0  0
    8.5281    6.1569   25.5361 C   0  0  0  0  0  0  0  0  0  0  0  0
    7.7007    6.0392   24.2902 C   0  0  0  0  0  0  0  0  0  0  0  0
    6.9866   -1.9366   21.3580 C   0  0  0  0  0  0  0  0  0  0  0  0
    7.8721   -0.1194   23.8831 C   0  0  0  0  0  0  0  0  0  0  0  0
    8.0140   -2.1541   22.4331 C   0  0  1  0  0  0  0  0  0  0  0  0
    8.7969    5.0330   24.5607 C   0  0  0  0  0  0  0  0  0  0  0  0
    8.6238   -0.7606   22.6929 C   0  0  3  0  0  0  0  0  0  0  0  0
    7.4299   -2.8908   23.6451 C   0  0  0  0  0  0  0  0  0  0  0  0
    8.3938    3.6314   24.9609 C   0  0  0  0  0  0  0  0  0  0  0  0
   10.9510    5.2012   23.1140 N   0  0  0  0  0  0  0  0  0  0  0  0
    6.3062    0.3769   17.3421 N   0  0  0  0  0  0  0  0  0  0  0  0
    7.2292   -0.6897   20.7790 N   0  0  0  0  0  0  0  0  0  0  0  0
    8.6609    1.0133   24.4995 N   0  0  1  0  0  0  0  0  0  0  0  0
    8.7540    1.0949   21.1312 O   0  0  0  0  0  0  0  0  0  0  0  0
    7.4193    2.5019   22.8158 O   0  0  0  0  0  0  0  0  0  0  0  0
    9.9262    2.7134   23.0538 O   0  0  0  0  0  0  0  0  0  0  0  0
    8.6175    2.4839   23.6263 S   0  0  0  0  0  0  0  0  0  0  0  0
   13.4271   -2.1406   21.1083 Cl  0  0  0  0  0  0  0  0  0  0  0  0
    2.5432    3.3510   20.6369 H   0  0  0  0  0  0  0  0  0  0  0  0
    3.5174    2.1137   22.5168 H   0  0  0  0  0  0  0  0  0  0  0  0
    3.3409    2.9743   18.3364 H   0  0  0  0  0  0  0  0  0  0  0  0
    5.3118    0.4895   22.1572 H   0  0  0  0  0  0  0  0  0  0  0  0
   12.5026    0.5939   24.9767 H   0  0  0  0  0  0  0  0  0  0  0  0
   13.9911   -0.5201   23.3811 H   0  0  0  0  0  0  0  0  0  0  0  0
   10.6049   -2.0193   21.2265 H   0  0  0  0  0  0  0  0  0  0  0  0
    4.9141    1.7511   16.7474 H   0  0  0  0  0  0  0  0  0  0  0  0
    7.6445   -0.9764   18.1043 H   0  0  0  0  0  0  0  0  0  0  0  0
    9.7589   -0.1287   25.8179 H   0  0  0  0  0  0  0  0  0  0  0  0
   10.4929    1.4385   25.3837 H   0  0  0  0  0  0  0  0  0  0  0  0
    9.2310    6.9802   25.5960 H   0  0  0  0  0  0  0  0  0  0  0  0
    8.0513    5.9208   26.4804 H   0  0  0  0  0  0  0  0  0  0  0  0
    6.6692    5.7249   24.4002 H   0  0  0  0  0  0  0  0  0  0  0  0
    7.8497    6.7844   23.5170 H   0  0  0  0  0  0  0  0  0  0  0  0
    7.0302   -2.7464   20.5879 H   0  0  0  0  0  0  0  0  0  0  0  0
    5.9444   -1.9500   21.7629 H   0  0  0  0  0  0  0  0  0  0  0  0
    6.8971    0.2879   23.5658 H   0  0  0  0  0  0  0  0  0  0  0  0
    7.6525   -0.8675   24.6597 H   0  0  0  0  0  0  0  0  0  0  0  0
    8.7896   -2.8266   22.0174 H   0  0  0  0  0  0  0  0  0  0  0  0
    6.6566   -2.2772   24.1081 H   0  0  0  0  0  0  0  0  0  0  0  0
    8.2095   -3.0906   24.3806 H   0  0  0  0  0  0  0  0  0  0  0  0
    6.9890   -3.8374   23.3315 H   0  0  0  0  0  0  0  0  0  0  0  0
    7.3385    3.5937   25.2450 H   0  0  0  0  0  0  0  0  0  0  0  0
    8.9992    3.2741   25.7983 H   0  0  0  0  0  0  0  0  0  0  0  0
  1 24  1  0  0  0  0
  1 28  3  0  0  0  0
  2  3  1  0  0  0  0
  2  4  2  0  0  0  0
  3  5  2  0  0  0  0
  4 11  1  0  0  0  0
  5 12  1  0  0  0  0
  6  7  1  0  0  0  0
  6 13  2  0  0  0  0
  7 16  2  0  0  0  0
  8 14  2  0  0  0  0
  8 16  1  0  0  0  0
  9 11  2  0  0  0  0
  9 29  1  0  0  0  0
 10 15  1  0  0  0  0
 10 29  2  0  0  0  0
 11 12  1  0  0  0  0
 12 15  2  0  0  0  0
 13 14  1  0  0  0  0
 13 18  1  0  0  0  0
 14 25  1  0  0  0  0
 15 30  1  0  0  0  0
 16 36  1  0  0  0  0
 17 25  1  0  0  0  0
 17 30  1  0  0  0  0
 17 32  2  0  0  0  0
 18 31  1  0  0  0  0
 19 20  1  0  0  0  0
 19 24  1  0  0  0  0
 20 24  1  0  0  0  0
 21 23  1  0  0  0  0
 21 30  1  0  0  0  0
 22 25  1  0  0  0  0
 22 31  1  0  0  0  0
 23 25  1  0  0  0  0
 23 26  1  6  0  0  0
 24 27  1  0  0  0  0
 27 35  1  0  0  0  0
 31 35  1  1  0  0  0
 33 35  2  0  0  0  0
 34 35  2  0  0  0  0
  2 37  1  0  0  0  0
  3 38  1  0  0  0  0
  4 39  1  0  0  0  0
  5 40  1  0  0  0  0
  6 41  1  0  0  0  0
  7 42  1  0  0  0  0
  8 43  1  0  0  0  0
  9 44  1  0  0  0  0
 10 45  1  0  0  0  0
 18 46  1  0  0  0  0
 18 47  1  0  0  0  0
 19 48  1  0  0  0  0
 19 49  1  0  0  0  0
 20 50  1  0  0  0  0
 20 51  1  0  0  0  0
 21 52  1  0  0  0  0
 21 53  1  0  0  0  0
 22 54  1  0  0  0  0
 22 55  1  0  0  0  0
 23 56  1  0  0  0  0
 26 57  1  0  0  0  0
 26 58  1  0  0  0  0
 26 59  1  0  0  0  0
 27 60  1  0  0  0  0
 27 61  1  0  0  0  0
M  END
> <compound>
MAT-POS-50a80394-1

> <compound_smiles>
CC1CN(C(=O)C12CN(Cc3c2cc(cc3)Cl)S(=O)(=O)CC4(CC4)C#N)c5cncc6c5cccc6

> <enantiomer_smiles>
C[C@H]1CN(C(=O)C12C[N@@](Cc3c2cc(cc3)Cl)S(=O)(=O)CC4(CC4)C#N)c5cncc6c5cccc6

> <scaffold>
tetrahydroisoquinoline-5spiro-isoquinoline

> <clash_score>
0

> <docking_score>
-9.498950004577637

> <overlap_score>
0.9812818169593811

> <MMFF_internal_energy>
144.50043172307383

> <docked_smiles>
C[C@H]1CN(C(=O)[C@@]12C[N@@](Cc3c2cc(cc3)Cl)S(=O)(=O)CC4(CC4)C#N)c5cncc6c5cccc6

$$$$
MAT-POS-be048f2c-8_1
  -OEChem-12272114583D

 62 67  0     1  0  0  0  0  0999 V2000
    3.3432    2.6279   20.4411 C   0  0  0  0  0  0  0  0  0  0  0  0
    3.8960    1.9291   21.5050 C   0  0  0  0  0  0  0  0  0  0  0  0
    3.7865    2.4205   19.1660 C   0  0  0  0  0  0  0  0  0  0  0  0
    4.8973    1.0233   21.2988 C   0  0  0  0  0  0  0  0  0  0  0  0
   12.0765    0.0316   24.1541 C   0  0  0  0  0  0  0  0  0  0  0  0
   12.9132   -0.6032   23.2569 C   0  0  0  0  0  0  0  0  0  0  0  0
    5.8439    1.7857   25.3774 C   0  0  0  0  0  0  0  0  0  0  0  0
   10.9991   -1.4331   22.0443 C   0  0  0  0  0  0  0  0  0  0  0  0
    4.6542    2.5287   25.2579 C   0  0  0  0  0  0  0  0  0  0  0  0
    5.3278    1.2339   17.6066 C   0  0  0  0  0  0  0  0  0  0  0  0
    6.8438   -0.2892   18.3752 C   0  0  0  0  0  0  0  0  0  0  0  0
    4.8226    1.4906   18.9054 C   0  0  0  0  0  0  0  0  0  0  0  0
    5.3982    0.7733   19.9948 C   0  0  0  0  0  0  0  0  0  0  0  0
   10.7040   -0.0625   23.9898 C   0  0  0  0  0  0  0  0  0  0  0  0
   10.1406   -0.7765   22.9250 C   0  0  0  0  0  0  0  0  0  0  0  0
    6.4440   -0.1472   19.6979 C   0  0  0  0  0  0  0  0  0  0  0  0
   12.3683   -1.3298   22.2234 C   0  0  0  0  0  0  0  0  0  0  0  0
    6.8028    2.5764   24.7927 C   0  0  0  0  0  0  0  0  0  0  0  0
    8.2490    0.0169   21.4271 C   0  0  0  0  0  0  0  0  0  0  0  0
    8.2375    2.3090   24.6292 C   0  0  0  0  0  0  0  0  0  0  0  0
    9.9479    0.5589   24.9534 C   0  0  0  0  0  0  0  0  0  0  0  0
    8.0140   -2.1541   22.4331 C   0  0  0  0  0  0  0  0  0  0  0  0
    6.9866   -1.9366   21.3580 C   0  0  0  0  0  0  0  0  0  0  0  0
    7.8721   -0.1194   23.8831 C   0  0  0  0  0  0  0  0  0  0  0  0
    8.6238   -0.7606   22.6929 C   0  0  3  0  0  0  0  0  0  0  0  0
    7.0700    6.0244   21.5055 C   0  0  0  0  0  0  0  0  0  0  0  0
    6.4406    4.8287   22.2013 C   0  0  0  0  0  0  0  0  0  0  0  0
    6.7366    4.8377   23.6993 C   0  0  0  0  0  0  0  0  0  0  0  0
    6.3062    0.3769   17.3421 N   0  0  0  0  0  0  0  0  0  0  0  0
    4.8380    3.7015   24.6455 N   0  0  0  0  0  0  0  0  0  0  0  0
    6.1544    3.7013   24.3751 N   0  0  0  0  0  0  0  0  0  0  0  0
    7.2292   -0.6897   20.7790 N   0  0  0  0  0  0  0  0  0  0  0  0
    8.6609    1.0133   24.4995 N   0  0  0  0  0  0  0  0  0  0  0  0
    8.8277    1.0425   21.0805 O   0  0  0  0  0  0  0  0  0  0  0  0
    8.9768    3.2919   24.6275 O   0  0  0  0  0  0  0  0  0  0  0  0
   13.4283   -2.1471   21.1145 Cl  0  0  0  0  0  0  0  0  0  0  0  0
    2.5432    3.3510   20.6369 H   0  0  0  0  0  0  0  0  0  0  0  0
    3.5174    2.1137   22.5168 H   0  0  0  0  0  0  0  0  0  0  0  0
    3.3409    2.9743   18.3364 H   0  0  0  0  0  0  0  0  0  0  0  0
    5.3118    0.4895   22.1572 H   0  0  0  0  0  0  0  0  0  0  0  0
   12.5034    0.5864   24.9813 H   0  0  0  0  0  0  0  0  0  0  0  0
   13.9913   -0.5293   23.3874 H   0  0  0  0  0  0  0  0  0  0  0  0
    5.9810    0.8128   25.8269 H   0  0  0  0  0  0  0  0  0  0  0  0
   10.6139   -2.0336   21.2353 H   0  0  0  0  0  0  0  0  0  0  0  0
    3.6610    2.2650   25.5918 H   0  0  0  0  0  0  0  0  0  0  0  0
    4.9141    1.7511   16.7474 H   0  0  0  0  0  0  0  0  0  0  0  0
    7.6445   -0.9764   18.1043 H   0  0  0  0  0  0  0  0  0  0  0  0
    9.7841   -0.0930   25.8515 H   0  0  0  0  0  0  0  0  0  0  0  0
   10.4579    1.4725   25.3586 H   0  0  0  0  0  0  0  0  0  0  0  0
    7.5120   -2.5701   23.3194 H   0  0  0  0  0  0  0  0  0  0  0  0
    8.7722   -2.8982   22.1400 H   0  0  0  0  0  0  0  0  0  0  0  0
    7.0511   -2.7253   20.5708 H   0  0  0  0  0  0  0  0  0  0  0  0
    5.9515   -1.9941   21.7738 H   0  0  0  0  0  0  0  0  0  0  0  0
    6.9258    0.3344   23.5581 H   0  0  0  0  0  0  0  0  0  0  0  0
    7.6176   -0.8486   24.6565 H   0  0  0  0  0  0  0  0  0  0  0  0
    8.1540    6.0403   21.6571 H   0  0  0  0  0  0  0  0  0  0  0  0
    6.6572    6.9561   21.9049 H   0  0  0  0  0  0  0  0  0  0  0  0
    6.8736    5.9997   20.4288 H   0  0  0  0  0  0  0  0  0  0  0  0
    5.3574    4.8409   22.0312 H   0  0  0  0  0  0  0  0  0  0  0  0
    6.8205    3.9053   21.7477 H   0  0  0  0  0  0  0  0  0  0  0  0
    6.3420    5.7447   24.1728 H   0  0  0  0  0  0  0  0  0  0  0  0
    7.8167    4.8193   23.8872 H   0  0  0  0  0  0  0  0  0  0  0  0
  1  2  1  0  0  0  0
  1  3  2  0  0  0  0
  2  4  2  0  0  0  0
  3 12  1  0  0  0  0
  4 13  1  0  0  0  0
  5  6  2  0  0  0  0
  5 14  1  0  0  0  0
  6 17  1  0  0  0  0
  7  9  1  0  0  0  0
  7 18  2  0  0  0  0
  8 15  1  0  0  0  0
  8 17  2  0  0  0  0
  9 30  2  0  0  0  0
 10 12  2  0  0  0  0
 10 29  1  0  0  0  0
 11 16  1  0  0  0  0
 11 29  2  0  0  0  0
 12 13  1  0  0  0  0
 13 16  2  0  0  0  0
 14 15  2  0  0  0  0
 14 21  1  0  0  0  0
 15 25  1  0  0  0  0
 16 32  1  0  0  0  0
 17 36  1  0  0  0  0
 18 20  1  0  0  0  0
 18 31  1  0  0  0  0
 19 25  1  0  0  0  0
 19 32  1  0  0  0  0
 19 34  2  0  0  0  0
 20 33  1  0  0  0  0
 20 35  2  0  0  0  0
 21 33  1  0  0  0  0
 22 23  1  0  0  0  0
 22 25  1  0  0  0  0
 23 32  1  0  0  0  0
 24 25  1  0  0  0  0
 24 33  1  0  0  0  0
 26 27  1  0  0  0  0
 27 28  1  0  0  0  0
 28 31  1  0  0  0  0
 30 31  1  0  0  0  0
  1 37  1  0  0  0  0
  2 38  1  0  0  0  0
  3 39  1  0  0  0  0
  4 40  1  0  0  0  0
  5 41  1  0  0  0  0
  6 42  1  0  0  0  0
  7 43  1  0  0  0  0
  8 44  1  0  0  0  0
  9 45  1  0  0  0  0
 10 46  1  0  0  0  0
 11 47  1  0  0  0  0
 21 48  1  0  0  0  0
 21 49  1  0  0  0  0
 22 50  1  0  0  0  0
 22 51  1  0  0  0  0
 23 52  1  0  0  0  0
 23 53  1  0  0  0  0
 24 54  1  0  0  0  0
 24 55  1  0  0  0  0
 26 56  1  0  0  0  0
 26 57  1  0  0  0  0
 26 58  1  0  0  0  0
 27 59  1  0  0  0  0
 27 60  1  0  0  0  0
 28 61  1  0  0  0  0
 28 62  1  0  0  0  0
M  END
> <compound>
MAT-POS-be048f2c-8

> <compound_smiles>
CCCn1c(ccn1)C(=O)N2Cc3ccc(cc3C4(C2)CCN(C4=O)c5cncc6c5cccc6)Cl

> <enantiomer_smiles>
CCCn1c(ccn1)C(=O)N2Cc3ccc(cc3C4(C2)CCN(C4=O)c5cncc6c5cccc6)Cl

> <scaffold>
tetrahydroisoquinoline-5spiro-isoquinoline

> <clash_score>
0

> <docking_score>
-8.824360847473145

> <overlap_score>
0.9710834622383118

> <MMFF_internal_energy>
122.15765512523984

> <docked_smiles>
CCCn1c(ccn1)C(=O)N2Cc3ccc(cc3[C@]4(C2)CCN(C4=O)c5cncc6c5cccc6)Cl

$$$$
PET-UNK-94036022-11_2
  -OEChem-12272114583D

 58 63  0     1  0  0  0  0  0999 V2000
   10.7167    2.5236   22.5582 C   0  0  0  0  0  0  0  0  0  0  0  0
    9.7214    3.0329   22.9952 C   0  0  0  0  0  0  0  0  0  0  0  0
    3.3432    2.6279   20.4411 C   0  0  0  0  0  0  0  0  0  0  0  0
    3.8960    1.9291   21.5050 C   0  0  0  0  0  0  0  0  0  0  0  0
    3.7865    2.4205   19.1660 C   0  0  0  0  0  0  0  0  0  0  0  0
    4.8973    1.0233   21.2988 C   0  0  0  0  0  0  0  0  0  0  0  0
   12.0765    0.0316   24.1541 C   0  0  0  0  0  0  0  0  0  0  0  0
   12.9132   -0.6032   23.2569 C   0  0  0  0  0  0  0  0  0  0  0  0
   10.9991   -1.4331   22.0443 C   0  0  0  0  0  0  0  0  0  0  0  0
    5.3278    1.2339   17.6066 C   0  0  0  0  0  0  0  0  0  0  0  0
    6.8438   -0.2892   18.3752 C   0  0  0  0  0  0  0  0  0  0  0  0
    4.8226    1.4906   18.9054 C   0  0  0  0  0  0  0  0  0  0  0  0
    5.3982    0.7733   19.9948 C   0  0  0  0  0  0  0  0  0  0  0  0
   10.7040   -0.0625   23.9898 C   0  0  0  0  0  0  0  0  0  0  0  0
   10.1406   -0.7765   22.9250 C   0  0  0  0  0  0  0  0  0  0  0  0
    6.4440   -0.1472   19.6979 C   0  0  0  0  0  0  0  0  0  0  0  0
   12.3683   -1.3298   22.2234 C   0  0  0  0  0  0  0  0  0  0  0  0
    6.9866   -1.9366   21.3580 C   0  0  0  0  0  0  0  0  0  0  0  0
    8.2490    0.0169   21.4271 C   0  0  0  0  0  0  0  0  0  0  0  0
    9.9479    0.5589   24.9534 C   0  0  0  0  0  0  0  0  0  0  0  0
    8.0140   -2.1541   22.4331 C   0  0  0  0  0  0  0  0  0  0  0  0
    7.9940    4.8582   22.7941 C   0  0  0  0  0  0  0  0  0  0  0  0
    7.2737    3.5472   22.6791 C   0  0  0  0  0  0  0  0  0  0  0  0
    7.8721   -0.1194   23.8831 C   0  0  0  0  0  0  0  0  0  0  0  0
    8.5272    3.6433   23.5198 C   0  0  0  0  0  0  0  0  0  0  0  0
    8.6238   -0.7606   22.6929 C   0  0  3  0  0  0  0  0  0  0  0  0
    8.3812    3.5917   25.0242 C   0  0  0  0  0  0  0  0  0  0  0  0
    6.3062    0.3769   17.3421 N   0  0  0  0  0  0  0  0  0  0  0  0
    7.2292   -0.6897   20.7790 N   0  0  0  0  0  0  0  0  0  0  0  0
    8.6609    1.0133   24.4995 N   0  0  1  0  0  0  0  0  0  0  0  0
    6.1264   -2.7640   21.0985 O   0  0  0  0  0  0  0  0  0  0  0  0
    8.7869    1.0633   21.1047 O   0  0  0  0  0  0  0  0  0  0  0  0
    8.2211    1.8042   26.9232 O   0  0  0  0  0  0  0  0  0  0  0  0
    6.3712    1.9321   25.2066 O   0  0  0  0  0  0  0  0  0  0  0  0
    7.7703    2.0160   25.5650 S   0  0  0  0  0  0  0  0  0  0  0  0
   13.4271   -2.1409   21.1085 Cl  0  0  0  0  0  0  0  0  0  0  0  0
   11.5998    2.0721   22.1703 H   0  0  0  0  0  0  0  0  0  0  0  0
    2.5432    3.3510   20.6369 H   0  0  0  0  0  0  0  0  0  0  0  0
    3.5174    2.1137   22.5168 H   0  0  0  0  0  0  0  0  0  0  0  0
    3.3409    2.9743   18.3364 H   0  0  0  0  0  0  0  0  0  0  0  0
    5.3118    0.4895   22.1572 H   0  0  0  0  0  0  0  0  0  0  0  0
   12.5021    0.5988   24.9738 H   0  0  0  0  0  0  0  0  0  0  0  0
   13.9910   -0.5161   23.3782 H   0  0  0  0  0  0  0  0  0  0  0  0
   10.6033   -2.0172   21.2250 H   0  0  0  0  0  0  0  0  0  0  0  0
    4.9141    1.7511   16.7474 H   0  0  0  0  0  0  0  0  0  0  0  0
    7.6445   -0.9764   18.1043 H   0  0  0  0  0  0  0  0  0  0  0  0
    9.7850   -0.1186   25.8318 H   0  0  0  0  0  0  0  0  0  0  0  0
   10.4800    1.4566   25.3616 H   0  0  0  0  0  0  0  0  0  0  0  0
    7.4956   -2.5668   23.3079 H   0  0  0  0  0  0  0  0  0  0  0  0
    8.7587   -2.8850   22.0979 H   0  0  0  0  0  0  0  0  0  0  0  0
    8.5206    5.2202   21.9182 H   0  0  0  0  0  0  0  0  0  0  0  0
    7.5214    5.6424   23.3741 H   0  0  0  0  0  0  0  0  0  0  0  0
    6.3179    3.4537   23.1815 H   0  0  0  0  0  0  0  0  0  0  0  0
    7.3177    3.0328   21.7258 H   0  0  0  0  0  0  0  0  0  0  0  0
    6.8890    0.2655   23.5579 H   0  0  0  0  0  0  0  0  0  0  0  0
    7.6635   -0.8640   24.6742 H   0  0  0  0  0  0  0  0  0  0  0  0
    7.6747    4.3490   25.3750 H   0  0  0  0  0  0  0  0  0  0  0  0
    9.3444    3.7504   25.5166 H   0  0  0  0  0  0  0  0  0  0  0  0
  1  2  3  0  0  0  0
  2 25  1  0  0  0  0
  3  4  1  0  0  0  0
  3  5  2  0  0  0  0
  4  6  2  0  0  0  0
  5 12  1  0  0  0  0
  6 13  1  0  0  0  0
  7  8  2  0  0  0  0
  7 14  1  0  0  0  0
  8 17  1  0  0  0  0
  9 15  1  0  0  0  0
  9 17  2  0  0  0  0
 10 12  2  0  0  0  0
 10 28  1  0  0  0  0
 11 16  1  0  0  0  0
 11 28  2  0  0  0  0
 12 13  1  0  0  0  0
 13 16  2  0  0  0  0
 14 15  2  0  0  0  0
 14 20  1  0  0  0  0
 15 26  1  0  0  0  0
 16 29  1  0  0  0  0
 17 36  1  0  0  0  0
 18 21  1  0  0  0  0
 18 29  1  0  0  0  0
 18 31  2  0  0  0  0
 19 26  1  0  0  0  0
 19 29  1  0  0  0  0
 19 32  2  0  0  0  0
 20 30  1  0  0  0  0
 21 26  1  0  0  0  0
 22 23  1  0  0  0  0
 22 25  1  0  0  0  0
 23 25  1  0  0  0  0
 24 26  1  0  0  0  0
 24 30  1  0  0  0  0
 25 27  1  0  0  0  0
 27 35  1  0  0  0  0
 30 35  1  6  0  0  0
 33 35  2  0  0  0  0
 34 35  2  0  0  0  0
  1 37  1  0  0  0  0
  3 38  1  0  0  0  0
  4 39  1  0  0  0  0
  5 40  1  0  0  0  0
  6 41  1  0  0  0  0
  7 42  1  0  0  0  0
  8 43  1  0  0  0  0
  9 44  1  0  0  0  0
 10 45  1  0  0  0  0
 11 46  1  0  0  0  0
 20 47  1  0  0  0  0
 20 48  1  0  0  0  0
 21 49  1  0  0  0  0
 21 50  1  0  0  0  0
 22 51  1  0  0  0  0
 22 52  1  0  0  0  0
 23 53  1  0  0  0  0
 23 54  1  0  0  0  0
 24 55  1  0  0  0  0
 24 56  1  0  0  0  0
 27 57  1  0  0  0  0
 27 58  1  0  0  0  0
M  END
> <compound>
PET-UNK-94036022-11

> <compound_smiles>
C#CC1(CC1)CS(=O)(=O)N2Cc3ccc(cc3C4(C2)CC(=O)N(C4=O)c5cncc6c5cccc6)Cl

> <enantiomer_smiles>
C#CC1(CC1)CS(=O)(=O)[N@]2Cc3ccc(cc3C4(C2)CC(=O)N(C4=O)c5cncc6c5cccc6)Cl

> <scaffold>
tetrahydroisoquinoline-5spiro-isoquinoline

> <clash_score>
0

> <docking_score>
-9.162172317504883

> <overlap_score>
1.0

> <MMFF_internal_energy>
93.23800941602865

> <docked_smiles>
C#CC1(CC1)CS(=O)(=O)[N@]2Cc3ccc(cc3[C@]4(C2)CC(=O)N(C4=O)c5cncc6c5cccc6)Cl

$$$$
EDJ-MED-5cd3920d-5_1
  -OEChem-12272114583D

 60 65  0     1  0  0  0  0  0999 V2000
    3.3432    2.6279   20.4411 C   0  0  0  0  0  0  0  0  0  0  0  0
    3.8960    1.9291   21.5050 C   0  0  0  0  0  0  0  0  0  0  0  0
    3.7865    2.4205   19.1660 C   0  0  0  0  0  0  0  0  0  0  0  0
    4.8973    1.0233   21.2988 C   0  0  0  0  0  0  0  0  0  0  0  0
   12.0765    0.0316   24.1541 C   0  0  0  0  0  0  0  0  0  0  0  0
   12.9132   -0.6032   23.2569 C   0  0  0  0  0  0  0  0  0  0  0  0
   10.9991   -1.4331   22.0443 C   0  0  0  0  0  0  0  0  0  0  0  0
    5.3278    1.2339   17.6066 C   0  0  0  0  0  0  0  0  0  0  0  0
    6.8438   -0.2892   18.3752 C   0  0  0  0  0  0  0  0  0  0  0  0
    4.8226    1.4906   18.9054 C   0  0  0  0  0  0  0  0  0  0  0  0
    5.3982    0.7733   19.9948 C   0  0  0  0  0  0  0  0  0  0  0  0
   10.7040   -0.0625   23.9898 C   0  0  0  0  0  0  0  0  0  0  0  0
   10.1406   -0.7765   22.9250 C   0  0  0  0  0  0  0  0  0  0  0  0
    6.4440   -0.1472   19.6979 C   0  0  0  0  0  0  0  0  0  0  0  0
   12.3683   -1.3298   22.2234 C   0  0  0  0  0  0  0  0  0  0  0  0
    8.2490    0.0169   21.4271 C   0  0  0  0  0  0  0  0  0  0  0  0
    9.9479    0.5589   24.9534 C   0  0  0  0  0  0  0  0  0  0  0  0
    7.6767    6.0378   25.4516 C   0  0  0  0  0  0  0  0  0  0  0  0
    9.1652    6.0541   25.2519 C   0  0  0  0  0  0  0  0  0  0  0  0
    8.0140   -2.1541   22.4331 C   0  0  0  0  0  0  0  0  0  0  0  0
    6.9866   -1.9366   21.3580 C   0  0  0  0  0  0  0  0  0  0  0  0
    7.8721   -0.1194   23.8831 C   0  0  0  0  0  0  0  0  0  0  0  0
    8.6238   -0.7606   22.6929 C   0  0  3  0  0  0  0  0  0  0  0  0
    8.3214    5.0316   24.5273 C   0  0  0  0  0  0  0  0  0  0  0  0
    8.3989    3.5932   24.9882 C   0  0  0  0  0  0  0  0  0  0  0  0
    8.1212    5.2042   23.0468 C   0  0  0  0  0  0  0  0  0  0  0  0
    6.3062    0.3769   17.3421 N   0  0  0  0  0  0  0  0  0  0  0  0
    7.2292   -0.6897   20.7790 N   0  0  0  0  0  0  0  0  0  0  0  0
    8.6609    1.0133   24.4995 N   0  0  1  0  0  0  0  0  0  0  0  0
    8.7572    1.0941   21.1350 O   0  0  0  0  0  0  0  0  0  0  0  0
    7.4179    2.5201   22.8172 O   0  0  0  0  0  0  0  0  0  0  0  0
    9.9251    2.7322   23.0499 O   0  0  0  0  0  0  0  0  0  0  0  0
    8.5880    6.4184   22.6867 F   0  0  0  0  0  0  0  0  0  0  0  0
    6.7974    5.1812   22.7844 F   0  0  0  0  0  0  0  0  0  0  0  0
    8.6198    2.4832   23.6217 S   0  0  0  0  0  0  0  0  0  0  0  0
   13.4275   -2.1421   21.1097 Cl  0  0  0  0  0  0  0  0  0  0  0  0
    2.5432    3.3510   20.6369 H   0  0  0  0  0  0  0  0  0  0  0  0
    3.5174    2.1137   22.5168 H   0  0  0  0  0  0  0  0  0  0  0  0
    3.3409    2.9743   18.3364 H   0  0  0  0  0  0  0  0  0  0  0  0
    5.3118    0.4895   22.1572 H   0  0  0  0  0  0  0  0  0  0  0  0
   12.5015    0.5938   24.9776 H   0  0  0  0  0  0  0  0  0  0  0  0
   13.9911   -0.5212   23.3814 H   0  0  0  0  0  0  0  0  0  0  0  0
   10.6037   -2.0228   21.2288 H   0  0  0  0  0  0  0  0  0  0  0  0
    4.9141    1.7511   16.7474 H   0  0  0  0  0  0  0  0  0  0  0  0
    7.6445   -0.9764   18.1043 H   0  0  0  0  0  0  0  0  0  0  0  0
    9.7581   -0.1287   25.8173 H   0  0  0  0  0  0  0  0  0  0  0  0
   10.4931    1.4391   25.3829 H   0  0  0  0  0  0  0  0  0  0  0  0
    7.3015    5.6971   26.4094 H   0  0  0  0  0  0  0  0  0  0  0  0
    7.1021    6.8477   25.0179 H   0  0  0  0  0  0  0  0  0  0  0  0
    9.5875    6.8750   24.6845 H   0  0  0  0  0  0  0  0  0  0  0  0
    9.7869    5.7243   26.0759 H   0  0  0  0  0  0  0  0  0  0  0  0
    7.5801   -2.6060   23.3366 H   0  0  0  0  0  0  0  0  0  0  0  0
    8.7749   -2.8608   22.0657 H   0  0  0  0  0  0  0  0  0  0  0  0
    7.0227   -2.7506   20.5953 H   0  0  0  0  0  0  0  0  0  0  0  0
    5.9554   -1.9484   21.7832 H   0  0  0  0  0  0  0  0  0  0  0  0
    6.8886    0.2769   23.5666 H   0  0  0  0  0  0  0  0  0  0  0  0
    7.6579   -0.8710   24.6633 H   0  0  0  0  0  0  0  0  0  0  0  0
    7.4792    3.2960   25.4995 H   0  0  0  0  0  0  0  0  0  0  0  0
    9.2447    3.4440   25.6648 H   0  0  0  0  0  0  0  0  0  0  0  0
    8.6272    4.4273   22.4831 H   0  0  0  0  0  0  0  0  0  0  0  0
  1  2  1  0  0  0  0
  1  3  2  0  0  0  0
  2  4  2  0  0  0  0
  3 10  1  0  0  0  0
  4 11  1  0  0  0  0
  5  6  1  0  0  0  0
  5 12  2  0  0  0  0
  6 15  2  0  0  0  0
  7 13  2  0  0  0  0
  7 15  1  0  0  0  0
  8 10  2  0  0  0  0
  8 27  1  0  0  0  0
  9 14  1  0  0  0  0
  9 27  2  0  0  0  0
 10 11  1  0  0  0  0
 11 14  2  0  0  0  0
 12 13  1  0  0  0  0
 12 17  1  0  0  0  0
 13 23  1  0  0  0  0
 14 28  1  0  0  0  0
 15 36  1  0  0  0  0
 16 23  1  0  0  0  0
 16 28  1  0  0  0  0
 16 30  2  0  0  0  0
 17 29  1  0  0  0  0
 18 19  1  0  0  0  0
 18 24  1  0  0  0  0
 19 24  1  0  0  0  0
 20 21  1  0  0  0  0
 20 23  1  0  0  0  0
 21 28  1  0  0  0  0
 22 23  1  0  0  0  0
 22 29  1  0  0  0  0
 24 25  1  0  0  0  0
 24 26  1  0  0  0  0
 25 35  1  0  0  0  0
 26 33  1  0  0  0  0
 26 34  1  0  0  0  0
 29 35  1  1  0  0  0
 31 35  2  0  0  0  0
 32 35  2  0  0  0  0
  1 37  1  0  0  0  0
  2 38  1  0  0  0  0
  3 39  1  0  0  0  0
  4 40  1  0  0  0  0
  5 41  1  0  0  0  0
  6 42  1  0  0  0  0
  7 43  1  0  0  0  0
  8 44  1  0  0  0  0
  9 45  1  0  0  0  0
 17 46  1  0  0  0  0
 17 47  1  0  0  0  0
 18 48  1  0  0  0  0
 18 49  1  0  0  0  0
 19 50  1  0  0  0  0
 19 51  1  0  0  0  0
 20 52  1  0  0  0  0
 20 53  1  0  0  0  0
 21 54  1  0  0  0  0
 21 55  1  0  0  0  0
 22 56  1  0  0  0  0
 22 57  1  0  0  0  0
 25 58  1  0  0  0  0
 25 59  1  0  0  0  0
 26 60  1  0  0  0  0
M  END
> <compound>
EDJ-MED-5cd3920d-5

> <compound_smiles>
c1ccc2c(c1)cncc2N3CCC4(C3=O)CN(Cc5c4cc(cc5)Cl)S(=O)(=O)CC6(CC6)C(F)F

> <enantiomer_smiles>
c1ccc2c(c1)cncc2N3CCC4(C3=O)C[N@@](Cc5c4cc(cc5)Cl)S(=O)(=O)CC6(CC6)C(F)F

> <scaffold>
tetrahydroisoquinoline-5spiro-isoquinoline

> <clash_score>
0

> <docking_score>
-8.905113220214844

> <overlap_score>
0.9716334342956543

> <MMFF_internal_energy>
151.09958849536068

> <docked_smiles>
c1ccc2c(c1)cncc2N3CC[C@@]4(C3=O)C[N@@](Cc5c4cc(cc5)Cl)S(=O)(=O)CC6(CC6)C(F)F

$$$$
MAT-POS-50a80394-1_4
  -OEChem-12272114583D

 61 66  0     1  0  0  0  0  0999 V2000
    8.6848    5.6511   25.2684 C   0  0  0  0  0  0  0  0  0  0  0  0
    3.3432    2.6279   20.4411 C   0  0  0  0  0  0  0  0  0  0  0  0
    3.8960    1.9291   21.5050 C   0  0  0  0  0  0  0  0  0  0  0  0
    3.7865    2.4205   19.1660 C   0  0  0  0  0  0  0  0  0  0  0  0
    4.8973    1.0233   21.2988 C   0  0  0  0  0  0  0  0  0  0  0  0
   12.0765    0.0316   24.1541 C   0  0  0  0  0  0  0  0  0  0  0  0
   12.9132   -0.6032   23.2569 C   0  0  0  0  0  0  0  0  0  0  0  0
   10.9991   -1.4331   22.0443 C   0  0  0  0  0  0  0  0  0  0  0  0
    5.3278    1.2339   17.6066 C   0  0  0  0  0  0  0  0  0  0  0  0
    6.8438   -0.2892   18.3752 C   0  0  0  0  0  0  0  0  0  0  0  0
    4.8226    1.4906   18.9054 C   0  0  0  0  0  0  0  0  0  0  0  0
    5.3982    0.7733   19.9948 C   0  0  0  0  0  0  0  0  0  0  0  0
   10.7040   -0.0625   23.9898 C   0  0  0  0  0  0  0  0  0  0  0  0
   10.1406   -0.7765   22.9250 C   0  0  0  0  0  0  0  0  0  0  0  0
    6.4440   -0.1472   19.6979 C   0  0  0  0  0  0  0  0  0  0  0  0
   12.3683   -1.3298   22.2234 C   0  0  0  0  0  0  0  0  0  0  0  0
    8.2490    0.0169   21.4271 C   0  0  0  0  0  0  0  0  0  0  0  0
    9.9479    0.5589   24.9534 C   0  0  0  0  0  0  0  0  0  0  0  0
    6.5519    5.2038   24.0009 C   0  0  0  0  0  0  0  0  0  0  0  0
    7.5365    5.7823   23.0280 C   0  0  0  0  0  0  0  0  0  0  0  0
    6.9866   -1.9366   21.3580 C   0  0  0  0  0  0  0  0  0  0  0  0
    7.8721   -0.1194   23.8831 C   0  0  0  0  0  0  0  0  0  0  0  0
    8.0140   -2.1541   22.4331 C   0  0  1  0  0  0  0  0  0  0  0  0
    8.0309    4.9529   24.1920 C   0  0  0  0  0  0  0  0  0  0  0  0
    8.6238   -0.7606   22.6929 C   0  0  3  0  0  0  0  0  0  0  0  0
    7.3486   -2.8126   23.6631 C   0  0  0  0  0  0  0  0  0  0  0  0
    8.5607    3.5660   23.9038 C   0  0  0  0  0  0  0  0  0  0  0  0
    9.2118    6.2136   26.1356 N   0  0  0  0  0  0  0  0  0  0  0  0
    6.3062    0.3769   17.3421 N   0  0  0  0  0  0  0  0  0  0  0  0
    7.2292   -0.6897   20.7790 N   0  0  0  0  0  0  0  0  0  0  0  0
    8.6609    1.0133   24.4995 N   0  0  2  0  0  0  0  0  0  0  0  0
    8.8313    1.0359   21.0699 O   0  0  0  0  0  0  0  0  0  0  0  0
    8.4640    2.6888   26.3631 O   0  0  0  0  0  0  0  0  0  0  0  0
    6.5047    2.2459   24.8300 O   0  0  0  0  0  0  0  0  0  0  0  0
    7.9276    2.3751   25.0567 S   0  0  0  0  0  0  0  0  0  0  0  0
   13.4294   -2.1351   21.1073 Cl  0  0  0  0  0  0  0  0  0  0  0  0
    2.5432    3.3510   20.6369 H   0  0  0  0  0  0  0  0  0  0  0  0
    3.5174    2.1137   22.5168 H   0  0  0  0  0  0  0  0  0  0  0  0
    3.3409    2.9743   18.3364 H   0  0  0  0  0  0  0  0  0  0  0  0
    5.3118    0.4895   22.1572 H   0  0  0  0  0  0  0  0  0  0  0  0
   12.5038    0.6047   24.9687 H   0  0  0  0  0  0  0  0  0  0  0  0
   13.9917   -0.5071   23.3722 H   0  0  0  0  0  0  0  0  0  0  0  0
   10.6207   -2.0052   21.2139 H   0  0  0  0  0  0  0  0  0  0  0  0
    4.9141    1.7511   16.7474 H   0  0  0  0  0  0  0  0  0  0  0  0
    7.6445   -0.9764   18.1043 H   0  0  0  0  0  0  0  0  0  0  0  0
    9.7893   -0.1144   25.8388 H   0  0  0  0  0  0  0  0  0  0  0  0
   10.4795    1.4600   25.3606 H   0  0  0  0  0  0  0  0  0  0  0  0
    6.0446    5.8901   24.6697 H   0  0  0  0  0  0  0  0  0  0  0  0
    5.9275    4.3867   23.6586 H   0  0  0  0  0  0  0  0  0  0  0  0
    7.5708    5.3530   22.0333 H   0  0  0  0  0  0  0  0  0  0  0  0
    7.6870    6.8557   23.0453 H   0  0  0  0  0  0  0  0  0  0  0  0
    7.0304   -2.7474   20.5869 H   0  0  0  0  0  0  0  0  0  0  0  0
    5.9424   -1.9535   21.7612 H   0  0  0  0  0  0  0  0  0  0  0  0
    6.8920    0.2797   23.5687 H   0  0  0  0  0  0  0  0  0  0  0  0
    7.6771   -0.8496   24.6886 H   0  0  0  0  0  0  0  0  0  0  0  0
    8.7349   -2.8650   22.0643 H   0  0  0  0  0  0  0  0  0  0  0  0
    6.6096   -2.1301   24.0830 H   0  0  0  0  0  0  0  0  0  0  0  0
    8.0941   -3.0392   24.4253 H   0  0  0  0  0  0  0  0  0  0  0  0
    6.8503   -3.7366   23.3696 H   0  0  0  0  0  0  0  0  0  0  0  0
    9.6513    3.5401   23.9798 H   0  0  0  0  0  0  0  0  0  0  0  0
    8.2671    3.2348   22.9040 H   0  0  0  0  0  0  0  0  0  0  0  0
  1 24  1  0  0  0  0
  1 28  3  0  0  0  0
  2  3  1  0  0  0  0
  2  4  2  0  0  0  0
  3  5  2  0  0  0  0
  4 11  1  0  0  0  0
  5 12  1  0  0  0  0
  6  7  1  0  0  0  0
  6 13  2  0  0  0  0
  7 16  2  0  0  0  0
  8 14  2  0  0  0  0
  8 16  1  0  0  0  0
  9 11  2  0  0  0  0
  9 29  1  0  0  0  0
 10 15  1  0  0  0  0
 10 29  2  0  0  0  0
 11 12  1  0  0  0  0
 12 15  2  0  0  0  0
 13 14  1  0  0  0  0
 13 18  1  0  0  0  0
 14 25  1  0  0  0  0
 15 30  1  0  0  0  0
 16 36  1  0  0  0  0
 17 25  1  0  0  0  0
 17 30  1  0  0  0  0
 17 32  2  0  0  0  0
 18 31  1  0  0  0  0
 19 20  1  0  0  0  0
 19 24  1  0  0  0  0
 20 24  1  0  0  0  0
 21 23  1  0  0  0  0
 21 30  1  0  0  0  0
 22 25  1  0  0  0  0
 22 31  1  0  0  0  0
 23 25  1  0  0  0  0
 23 26  1  6  0  0  0
 24 27  1  0  0  0  0
 27 35  1  0  0  0  0
 31 35  1  6  0  0  0
 33 35  2  0  0  0  0
 34 35  2  0  0  0  0
  2 37  1  0  0  0  0
  3 38  1  0  0  0  0
  4 39  1  0  0  0  0
  5 40  1  0  0  0  0
  6 41  1  0  0  0  0
  7 42  1  0  0  0  0
  8 43  1  0  0  0  0
  9 44  1  0  0  0  0
 10 45  1  0  0  0  0
 18 46  1  0  0  0  0
 18 47  1  0  0  0  0
 19 48  1  0  0  0  0
 19 49  1  0  0  0  0
 20 50  1  0  0  0  0
 20 51  1  0  0  0  0
 21 52  1  0  0  0  0
 21 53  1  0  0  0  0
 22 54  1  0  0  0  0
 22 55  1  0  0  0  0
 23 56  1  0  0  0  0
 26 57  1  0  0  0  0
 26 58  1  0  0  0  0
 26 59  1  0  0  0  0
 27 60  1  0  0  0  0
 27 61  1  0  0  0  0
M  END
> <compound>
MAT-POS-50a80394-1

> <compound_smiles>
CC1CN(C(=O)C12CN(Cc3c2cc(cc3)Cl)S(=O)(=O)CC4(CC4)C#N)c5cncc6c5cccc6

> <enantiomer_smiles>
C[C@H]1CN(C(=O)C12C[N@](Cc3c2cc(cc3)Cl)S(=O)(=O)CC4(CC4)C#N)c5cncc6c5cccc6

> <scaffold>
tetrahydroisoquinoline-5spiro-isoquinoline

> <clash_score>
0

> <docking_score>
-9.079608917236328

> <overlap_score>
0.9785642623901367

> <MMFF_internal_energy>
119.98774170183535

> <docked_smiles>
C[C@H]1CN(C(=O)[C@@]12C[N@](Cc3c2cc(cc3)Cl)S(=O)(=O)CC4(CC4)C#N)c5cncc6c5cccc6

$$$$
EDJ-MED-7e491f08-2_1
  -OEChem-12272114583D

 57 62  0     1  0  0  0  0  0999 V2000
    3.3432    2.6279   20.4411 C   0  0  0  0  0  0  0  0  0  0  0  0
    3.8960    1.9291   21.5050 C   0  0  0  0  0  0  0  0  0  0  0  0
    3.7865    2.4205   19.1660 C   0  0  0  0  0  0  0  0  0  0  0  0
    4.8973    1.0233   21.2988 C   0  0  0  0  0  0  0  0  0  0  0  0
   12.0765    0.0316   24.1541 C   0  0  0  0  0  0  0  0  0  0  0  0
   12.9132   -0.6032   23.2569 C   0  0  0  0  0  0  0  0  0  0  0  0
   10.9991   -1.4331   22.0443 C   0  0  0  0  0  0  0  0  0  0  0  0
    5.3278    1.2339   17.6066 C   0  0  0  0  0  0  0  0  0  0  0  0
    6.8438   -0.2892   18.3752 C   0  0  0  0  0  0  0  0  0  0  0  0
    4.8226    1.4906   18.9054 C   0  0  0  0  0  0  0  0  0  0  0  0
    5.3982    0.7733   19.9948 C   0  0  0  0  0  0  0  0  0  0  0  0
   10.7040   -0.0625   23.9898 C   0  0  0  0  0  0  0  0  0  0  0  0
   10.1406   -0.7765   22.9250 C   0  0  0  0  0  0  0  0  0  0  0  0
    6.4440   -0.1472   19.6979 C   0  0  0  0  0  0  0  0  0  0  0  0
   12.3683   -1.3298   22.2234 C   0  0  0  0  0  0  0  0  0  0  0  0
    9.9479    0.5589   24.9534 C   0  0  0  0  0  0  0  0  0  0  0  0
    8.2490    0.0169   21.4271 C   0  0  0  0  0  0  0  0  0  0  0  0
    8.4475    3.2589   23.7645 C   0  0  0  0  0  0  0  0  0  0  0  0
    7.9808    2.6707   26.2056 C   0  0  0  0  0  0  0  0  0  0  0  0
    6.7566    2.3074   25.4253 C   0  0  0  0  0  0  0  0  0  0  0  0
    7.8721   -0.1194   23.8831 C   0  0  0  0  0  0  0  0  0  0  0  0
    6.9866   -1.9366   21.3580 C   0  0  0  0  0  0  0  0  0  0  0  0
    8.6238   -0.7606   22.6929 C   0  0  2  0  0  0  0  0  0  0  0  0
    8.1169    2.2256   24.7642 C   0  0  0  0  0  0  0  0  0  0  0  0
    8.0140   -2.1541   22.4331 C   0  0  0  0  0  0  0  0  0  0  0  0
   10.1635    4.9464   23.1400 C   0  0  0  0  0  0  0  0  0  0  0  0
    6.3062    0.3769   17.3421 N   0  0  0  0  0  0  0  0  0  0  0  0
    7.2292   -0.6897   20.7790 N   0  0  0  0  0  0  0  0  0  0  0  0
    8.6609    1.0133   24.4995 N   0  0  0  0  0  0  0  0  0  0  0  0
    9.6479    3.9028   23.9967 N   0  0  0  0  0  0  0  0  0  0  0  0
   10.3144    0.7353   26.1109 O   0  0  0  0  0  0  0  0  0  0  0  0
    8.8246    1.0392   21.0758 O   0  0  0  0  0  0  0  0  0  0  0  0
    7.6760    3.4700   22.8361 O   0  0  0  0  0  0  0  0  0  0  0  0
    8.9283   -3.0750   22.0951 F   0  0  0  0  0  0  0  0  0  0  0  0
    7.3777   -2.6104   23.5398 F   0  0  0  0  0  0  0  0  0  0  0  0
   13.4272   -2.1476   21.1136 Cl  0  0  0  0  0  0  0  0  0  0  0  0
    2.5432    3.3510   20.6369 H   0  0  0  0  0  0  0  0  0  0  0  0
    3.5174    2.1137   22.5168 H   0  0  0  0  0  0  0  0  0  0  0  0
    3.3409    2.9743   18.3364 H   0  0  0  0  0  0  0  0  0  0  0  0
    5.3118    0.4895   22.1572 H   0  0  0  0  0  0  0  0  0  0  0  0
   12.5179    0.5933   24.9733 H   0  0  0  0  0  0  0  0  0  0  0  0
   13.9904   -0.5271   23.3854 H   0  0  0  0  0  0  0  0  0  0  0  0
   10.6061   -2.0271   21.2313 H   0  0  0  0  0  0  0  0  0  0  0  0
    4.9141    1.7511   16.7474 H   0  0  0  0  0  0  0  0  0  0  0  0
    7.6445   -0.9764   18.1043 H   0  0  0  0  0  0  0  0  0  0  0  0
    8.1348    3.7170   26.4423 H   0  0  0  0  0  0  0  0  0  0  0  0
    8.2988    1.9907   26.9873 H   0  0  0  0  0  0  0  0  0  0  0  0
    6.2522    1.3832   25.6824 H   0  0  0  0  0  0  0  0  0  0  0  0
    6.0869    3.1093   25.1373 H   0  0  0  0  0  0  0  0  0  0  0  0
    6.9326    0.3323   23.5575 H   0  0  0  0  0  0  0  0  0  0  0  0
    7.6421   -0.8438   24.6620 H   0  0  0  0  0  0  0  0  0  0  0  0
    7.0363   -2.7453   20.5871 H   0  0  0  0  0  0  0  0  0  0  0  0
    5.9500   -1.9613   21.7764 H   0  0  0  0  0  0  0  0  0  0  0  0
   10.7868    4.4996   22.3514 H   0  0  0  0  0  0  0  0  0  0  0  0
    9.3254    5.4908   22.6804 H   0  0  0  0  0  0  0  0  0  0  0  0
   10.7707    5.6435   23.7362 H   0  0  0  0  0  0  0  0  0  0  0  0
   10.1940    3.6295   24.8082 H   0  0  0  0  0  0  0  0  0  0  0  0
  1  2  1  0  0  0  0
  1  3  2  0  0  0  0
  2  4  2  0  0  0  0
  3 10  1  0  0  0  0
  4 11  1  0  0  0  0
  5  6  2  0  0  0  0
  5 12  1  0  0  0  0
  6 15  1  0  0  0  0
  7 13  1  0  0  0  0
  7 15  2  0  0  0  0
  8 10  2  0  0  0  0
  8 27  1  0  0  0  0
  9 14  1  0  0  0  0
  9 27  2  0  0  0  0
 10 11  1  0  0  0  0
 11 14  2  0  0  0  0
 12 13  2  0  0  0  0
 12 16  1  0  0  0  0
 13 23  1  6  0  0  0
 14 28  1  0  0  0  0
 15 36  1  0  0  0  0
 16 29  1  0  0  0  0
 16 31  2  0  0  0  0
 17 23  1  1  0  0  0
 17 28  1  0  0  0  0
 17 32  2  0  0  0  0
 18 24  1  0  0  0  0
 18 30  1  0  0  0  0
 18 33  2  0  0  0  0
 19 20  1  0  0  0  0
 19 24  1  0  0  0  0
 20 24  1  0  0  0  0
 21 23  1  6  0  0  0
 21 29  1  0  0  0  0
 22 25  1  0  0  0  0
 22 28  1  0  0  0  0
 23 25  1  1  0  0  0
 24 29  1  0  0  0  0
 25 34  1  0  0  0  0
 25 35  1  0  0  0  0
 26 30  1  0  0  0  0
  1 37  1  0  0  0  0
  2 38  1  0  0  0  0
  3 39  1  0  0  0  0
  4 40  1  0  0  0  0
  5 41  1  0  0  0  0
  6 42  1  0  0  0  0
  7 43  1  0  0  0  0
  8 44  1  0  0  0  0
  9 45  1  0  0  0  0
 19 46  1  0  0  0  0
 19 47  1  0  0  0  0
 20 48  1  0  0  0  0
 20 49  1  0  0  0  0
 21 50  1  0  0  0  0
 21 51  1  0  0  0  0
 22 52  1  0  0  0  0
 22 53  1  0  0  0  0
 26 54  1  0  0  0  0
 26 55  1  0  0  0  0
 26 56  1  0  0  0  0
 30 57  1  0  0  0  0
M  END
> <compound>
EDJ-MED-7e491f08-2

> <compound_smiles>
CNC(=O)C1(CC1)N2C[C@]3(c4cc(ccc4C2=O)Cl)C(=O)N(CC3(F)F)c5cncc6c5cccc6

> <enantiomer_smiles>
CNC(=O)C1(CC1)N2C[C@]3(c4cc(ccc4C2=O)Cl)C(=O)N(CC3(F)F)c5cncc6c5cccc6

> <scaffold>
tetrahydroisoquinoline-5spiro-isoquinoline

> <clash_score>
0

> <docking_score>
-9.07569408416748

> <overlap_score>
1.0101349353790283

> <MMFF_internal_energy>
158.1847165693065

> <docked_smiles>
CNC(=O)C1(CC1)N2C[C@]3(c4cc(ccc4C2=O)Cl)C(=O)N(CC3(F)F)c5cncc6c5cccc6

$$$$
LUO-POS-ed2cfb03-1_1
  -OEChem-12272114583D

 65 70  0     1  0  0  0  0  0999 V2000
    3.3432    2.6279   20.4411 C   0  0  0  0  0  0  0  0  0  0  0  0
    3.8960    1.9291   21.5050 C   0  0  0  0  0  0  0  0  0  0  0  0
    3.7865    2.4205   19.1660 C   0  0  0  0  0  0  0  0  0  0  0  0
    4.8973    1.0233   21.2988 C   0  0  0  0  0  0  0  0  0  0  0  0
   12.0765    0.0316   24.1541 C   0  0  0  0  0  0  0  0  0  0  0  0
   12.9132   -0.6032   23.2569 C   0  0  0  0  0  0  0  0  0  0  0  0
   10.9991   -1.4331   22.0443 C   0  0  0  0  0  0  0  0  0  0  0  0
    5.3278    1.2339   17.6066 C   0  0  0  0  0  0  0  0  0  0  0  0
    6.8438   -0.2892   18.3752 C   0  0  0  0  0  0  0  0  0  0  0  0
    4.8226    1.4906   18.9054 C   0  0  0  0  0  0  0  0  0  0  0  0
    5.3982    0.7733   19.9948 C   0  0  0  0  0  0  0  0  0  0  0  0
   10.7040   -0.0625   23.9898 C   0  0  0  0  0  0  0  0  0  0  0  0
   10.1406   -0.7765   22.9250 C   0  0  0  0  0  0  0  0  0  0  0  0
    6.4440   -0.1472   19.6979 C   0  0  0  0  0  0  0  0  0  0  0  0
   12.3683   -1.3298   22.2234 C   0  0  0  0  0  0  0  0  0  0  0  0
    8.2490    0.0169   21.4271 C   0  0  0  0  0  0  0  0  0  0  0  0
    9.9479    0.5589   24.9534 C   0  0  0  0  0  0  0  0  0  0  0  0
    8.0140   -2.1541   22.4331 C   0  0  0  0  0  0  0  0  0  0  0  0
    6.9866   -1.9366   21.3580 C   0  0  0  0  0  0  0  0  0  0  0  0
    7.1852    4.4540   24.8540 C   0  0  0  0  0  0  0  0  0  0  0  0
    9.6054    4.3664   25.3370 C   0  0  0  0  0  0  0  0  0  0  0  0
    7.8721   -0.1194   23.8831 C   0  0  0  0  0  0  0  0  0  0  0  0
    7.3930    5.6524   23.9423 C   0  0  0  0  0  0  0  0  0  0  0  0
    9.8468    5.5638   24.4323 C   0  0  0  0  0  0  0  0  0  0  0  0
    8.6238   -0.7606   22.6929 C   0  0  3  0  0  0  0  0  0  0  0  0
    8.8100    7.6808   23.6101 C   0  0  0  0  0  0  0  0  0  0  0  0
    6.3062    0.3769   17.3421 N   0  0  0  0  0  0  0  0  0  0  0  0
    7.2292   -0.6897   20.7790 N   0  0  0  0  0  0  0  0  0  0  0  0
    8.6609    1.0133   24.4995 N   0  0  2  0  0  0  0  0  0  0  0  0
    8.4070    3.6051   24.8906 N   0  0  0  0  0  0  0  0  0  0  0  0
    8.6047    6.4260   24.4114 N   0  3  0  0  0  0  0  0  0  0  0  0
    8.7572    1.0941   21.1350 O   0  0  0  0  0  0  0  0  0  0  0  0
    9.9258    2.7014   23.0280 O   0  0  0  0  0  0  0  0  0  0  0  0
    7.4210    2.4868   22.8036 O   0  0  0  0  0  0  0  0  0  0  0  0
    8.6198    2.4832   23.6217 S   0  0  0  0  0  0  0  0  0  0  0  0
   13.4275   -2.1421   21.1097 Cl  0  0  0  0  0  0  0  0  0  0  0  0
    2.5432    3.3510   20.6369 H   0  0  0  0  0  0  0  0  0  0  0  0
    3.5174    2.1137   22.5168 H   0  0  0  0  0  0  0  0  0  0  0  0
    3.3409    2.9743   18.3364 H   0  0  0  0  0  0  0  0  0  0  0  0
    5.3118    0.4895   22.1572 H   0  0  0  0  0  0  0  0  0  0  0  0
   12.5015    0.5938   24.9776 H   0  0  0  0  0  0  0  0  0  0  0  0
   13.9911   -0.5212   23.3814 H   0  0  0  0  0  0  0  0  0  0  0  0
   10.6037   -2.0228   21.2288 H   0  0  0  0  0  0  0  0  0  0  0  0
    4.9141    1.7511   16.7474 H   0  0  0  0  0  0  0  0  0  0  0  0
    7.6445   -0.9764   18.1043 H   0  0  0  0  0  0  0  0  0  0  0  0
    9.7581   -0.1287   25.8173 H   0  0  0  0  0  0  0  0  0  0  0  0
   10.4931    1.4391   25.3829 H   0  0  0  0  0  0  0  0  0  0  0  0
    7.5801   -2.6060   23.3366 H   0  0  0  0  0  0  0  0  0  0  0  0
    8.7749   -2.8608   22.0657 H   0  0  0  0  0  0  0  0  0  0  0  0
    7.0227   -2.7506   20.5953 H   0  0  0  0  0  0  0  0  0  0  0  0
    5.9554   -1.9484   21.7832 H   0  0  0  0  0  0  0  0  0  0  0  0
    6.9252    4.7788   25.8731 H   0  0  0  0  0  0  0  0  0  0  0  0
    6.3434    3.8605   24.4685 H   0  0  0  0  0  0  0  0  0  0  0  0
   10.4876    3.7111   25.2957 H   0  0  0  0  0  0  0  0  0  0  0  0
    9.4765    4.6854   26.3827 H   0  0  0  0  0  0  0  0  0  0  0  0
    6.8886    0.2769   23.5666 H   0  0  0  0  0  0  0  0  0  0  0  0
    7.6579   -0.8710   24.6633 H   0  0  0  0  0  0  0  0  0  0  0  0
    7.5762    5.3520   22.9047 H   0  0  0  0  0  0  0  0  0  0  0  0
    6.5335    6.3285   23.9861 H   0  0  0  0  0  0  0  0  0  0  0  0
   10.6683    6.1794   24.8118 H   0  0  0  0  0  0  0  0  0  0  0  0
   10.0554    5.2625   23.3996 H   0  0  0  0  0  0  0  0  0  0  0  0
    9.0057    7.3888   22.5767 H   0  0  0  0  0  0  0  0  0  0  0  0
    7.8985    8.2771   23.6837 H   0  0  0  0  0  0  0  0  0  0  0  0
    9.6628    8.2132   24.0356 H   0  0  0  0  0  0  0  0  0  0  0  0
    8.4221    6.7261   25.3804 H   0  0  0  0  0  0  0  0  0  0  0  0
  1  2  1  0  0  0  0
  1  3  2  0  0  0  0
  2  4  2  0  0  0  0
  3 10  1  0  0  0  0
  4 11  1  0  0  0  0
  5  6  2  0  0  0  0
  5 12  1  0  0  0  0
  6 15  1  0  0  0  0
  7 13  1  0  0  0  0
  7 15  2  0  0  0  0
  8 10  2  0  0  0  0
  8 27  1  0  0  0  0
  9 14  1  0  0  0  0
  9 27  2  0  0  0  0
 10 11  1  0  0  0  0
 11 14  2  0  0  0  0
 12 13  2  0  0  0  0
 12 17  1  0  0  0  0
 13 25  1  0  0  0  0
 14 28  1  0  0  0  0
 15 36  1  0  0  0  0
 16 25  1  0  0  0  0
 16 28  1  0  0  0  0
 16 32  2  0  0  0  0
 17 29  1  0  0  0  0
 18 19  1  0  0  0  0
 18 25  1  0  0  0  0
 19 28  1  0  0  0  0
 20 23  1  0  0  0  0
 20 30  1  0  0  0  0
 21 24  1  0  0  0  0
 21 30  1  0  0  0  0
 22 25  1  0  0  0  0
 22 29  1  0  0  0  0
 23 31  1  0  0  0  0
 24 31  1  0  0  0  0
 26 31  1  0  0  0  0
 29 35  1  1  0  0  0
 30 35  1  0  0  0  0
 33 35  2  0  0  0  0
 34 35  2  0  0  0  0
  1 37  1  0  0  0  0
  2 38  1  0  0  0  0
  3 39  1  0  0  0  0
  4 40  1  0  0  0  0
  5 41  1  0  0  0  0
  6 42  1  0  0  0  0
  7 43  1  0  0  0  0
  8 44  1  0  0  0  0
  9 45  1  0  0  0  0
 17 46  1  0  0  0  0
 17 47  1  0  0  0  0
 18 48  1  0  0  0  0
 18 49  1  0  0  0  0
 19 50  1  0  0  0  0
 19 51  1  0  0  0  0
 20 52  1  0  0  0  0
 20 53  1  0  0  0  0
 21 54  1  0  0  0  0
 21 55  1  0  0  0  0
 22 56  1  0  0  0  0
 22 57  1  0  0  0  0
 23 58  1  0  0  0  0
 23 59  1  0  0  0  0
 24 60  1  0  0  0  0
 24 61  1  0  0  0  0
 26 62  1  0  0  0  0
 26 63  1  0  0  0  0
 26 64  1  0  0  0  0
 31 65  1  0  0  0  0
M  CHG  1  31   1
M  END
> <compound>
LUO-POS-ed2cfb03-1

> <compound_smiles>
CN1CCN(CC1)S(=O)(=O)N2Cc3ccc(cc3C4(C2)CCN(C4=O)c5cncc6c5cccc6)Cl

> <enantiomer_smiles>
CN1CCN(CC1)S(=O)(=O)[N@@]2Cc3ccc(cc3C4(C2)CCN(C4=O)c5cncc6c5cccc6)Cl

> <scaffold>
tetrahydroisoquinoline-5spiro-isoquinoline

> <clash_score>
0

> <docking_score>
-8.458413124084473

> <overlap_score>
0.9724047780036926

> <MMFF_internal_energy>
48.52228919035733

> <docked_smiles>
C[NH+]1CCN(CC1)S(=O)(=O)[N@@]2Cc3ccc(cc3[C@]4(C2)CCN(C4=O)c5cncc6c5cccc6)Cl

$$$$
EDJ-MED-5cd3920d-5_2
  -OEChem-12272114583D

 60 65  0     1  0  0  0  0  0999 V2000
    3.3432    2.6279   20.4411 C   0  0  0  0  0  0  0  0  0  0  0  0
    3.8960    1.9291   21.5050 C   0  0  0  0  0  0  0  0  0  0  0  0
    3.7865    2.4205   19.1660 C   0  0  0  0  0  0  0  0  0  0  0  0
    4.8973    1.0233   21.2988 C   0  0  0  0  0  0  0  0  0  0  0  0
   12.0765    0.0316   24.1541 C   0  0  0  0  0  0  0  0  0  0  0  0
   12.9132   -0.6032   23.2569 C   0  0  0  0  0  0  0  0  0  0  0  0
   10.9991   -1.4331   22.0443 C   0  0  0  0  0  0  0  0  0  0  0  0
    5.3278    1.2339   17.6066 C   0  0  0  0  0  0  0  0  0  0  0  0
    6.8438   -0.2892   18.3752 C   0  0  0  0  0  0  0  0  0  0  0  0
    4.8226    1.4906   18.9054 C   0  0  0  0  0  0  0  0  0  0  0  0
    5.3982    0.7733   19.9948 C   0  0  0  0  0  0  0  0  0  0  0  0
   10.7040   -0.0625   23.9898 C   0  0  0  0  0  0  0  0  0  0  0  0
   10.1406   -0.7765   22.9250 C   0  0  0  0  0  0  0  0  0  0  0  0
    6.4440   -0.1472   19.6979 C   0  0  0  0  0  0  0  0  0  0  0  0
   12.3683   -1.3298   22.2234 C   0  0  0  0  0  0  0  0  0  0  0  0
    8.2490    0.0169   21.4271 C   0  0  0  0  0  0  0  0  0  0  0  0
    9.9479    0.5589   24.9534 C   0  0  0  0  0  0  0  0  0  0  0  0
    9.4384    4.6847   22.9148 C   0  0  0  0  0  0  0  0  0  0  0  0
    9.8677    3.2453   22.9152 C   0  0  0  0  0  0  0  0  0  0  0  0
    8.0140   -2.1541   22.4331 C   0  0  0  0  0  0  0  0  0  0  0  0
    6.9866   -1.9366   21.3580 C   0  0  0  0  0  0  0  0  0  0  0  0
    7.8721   -0.1194   23.8831 C   0  0  0  0  0  0  0  0  0  0  0  0
    8.6238   -0.7606   22.6929 C   0  0  3  0  0  0  0  0  0  0  0  0
    8.5331    3.6312   23.5091 C   0  0  0  0  0  0  0  0  0  0  0  0
    8.3874    3.5882   25.0137 C   0  0  0  0  0  0  0  0  0  0  0  0
    7.2895    3.2598   22.7492 C   0  0  0  0  0  0  0  0  0  0  0  0
    6.3062    0.3769   17.3421 N   0  0  0  0  0  0  0  0  0  0  0  0
    7.2292   -0.6897   20.7790 N   0  0  0  0  0  0  0  0  0  0  0  0
    8.6609    1.0133   24.4995 N   0  0  2  0  0  0  0  0  0  0  0  0
    8.8299    1.0397   21.0799 O   0  0  0  0  0  0  0  0  0  0  0  0
    8.2407    1.8013   26.9144 O   0  0  0  0  0  0  0  0  0  0  0  0
    6.3653    1.9471   25.2271 O   0  0  0  0  0  0  0  0  0  0  0  0
    7.5114    3.4611   21.4332 F   0  0  0  0  0  0  0  0  0  0  0  0
    6.2904    4.0853   23.1261 F   0  0  0  0  0  0  0  0  0  0  0  0
    7.7708    2.0177   25.5632 S   0  0  0  0  0  0  0  0  0  0  0  0
   13.4272   -2.1411   21.1086 Cl  0  0  0  0  0  0  0  0  0  0  0  0
    2.5432    3.3510   20.6369 H   0  0  0  0  0  0  0  0  0  0  0  0
    3.5174    2.1137   22.5168 H   0  0  0  0  0  0  0  0  0  0  0  0
    3.3409    2.9743   18.3364 H   0  0  0  0  0  0  0  0  0  0  0  0
    5.3118    0.4895   22.1572 H   0  0  0  0  0  0  0  0  0  0  0  0
   12.5024    0.5995   24.9735 H   0  0  0  0  0  0  0  0  0  0  0  0
   13.9910   -0.5177   23.3793 H   0  0  0  0  0  0  0  0  0  0  0  0
   10.6036   -2.0162   21.2241 H   0  0  0  0  0  0  0  0  0  0  0  0
    4.9141    1.7511   16.7474 H   0  0  0  0  0  0  0  0  0  0  0  0
    7.6445   -0.9764   18.1043 H   0  0  0  0  0  0  0  0  0  0  0  0
    9.7849   -0.1194   25.8306 H   0  0  0  0  0  0  0  0  0  0  0  0
   10.4793    1.4568   25.3613 H   0  0  0  0  0  0  0  0  0  0  0  0
    9.9541    5.3634   23.5838 H   0  0  0  0  0  0  0  0  0  0  0  0
    9.1654    5.1278   21.9644 H   0  0  0  0  0  0  0  0  0  0  0  0
    9.8822    2.7246   21.9650 H   0  0  0  0  0  0  0  0  0  0  0  0
   10.6708    2.9602   23.5845 H   0  0  0  0  0  0  0  0  0  0  0  0
    7.5152   -2.5456   23.3338 H   0  0  0  0  0  0  0  0  0  0  0  0
    8.7649   -2.9030   22.1434 H   0  0  0  0  0  0  0  0  0  0  0  0
    7.0587   -2.7248   20.5721 H   0  0  0  0  0  0  0  0  0  0  0  0
    5.9518   -1.9952   21.7720 H   0  0  0  0  0  0  0  0  0  0  0  0
    6.8867    0.2641   23.5642 H   0  0  0  0  0  0  0  0  0  0  0  0
    7.6652   -0.8660   24.6733 H   0  0  0  0  0  0  0  0  0  0  0  0
    7.6838    4.3500   25.3607 H   0  0  0  0  0  0  0  0  0  0  0  0
    9.3513    3.7460   25.5050 H   0  0  0  0  0  0  0  0  0  0  0  0
    7.0077    2.2270   22.9269 H   0  0  0  0  0  0  0  0  0  0  0  0
  1  2  1  0  0  0  0
  1  3  2  0  0  0  0
  2  4  2  0  0  0  0
  3 10  1  0  0  0  0
  4 11  1  0  0  0  0
  5  6  1  0  0  0  0
  5 12  2  0  0  0  0
  6 15  2  0  0  0  0
  7 13  2  0  0  0  0
  7 15  1  0  0  0  0
  8 10  2  0  0  0  0
  8 27  1  0  0  0  0
  9 14  1  0  0  0  0
  9 27  2  0  0  0  0
 10 11  1  0  0  0  0
 11 14  2  0  0  0  0
 12 13  1  0  0  0  0
 12 17  1  0  0  0  0
 13 23  1  0  0  0  0
 14 28  1  0  0  0  0
 15 36  1  0  0  0  0
 16 23  1  0  0  0  0
 16 28  1  0  0  0  0
 16 30  2  0  0  0  0
 17 29  1  0  0  0  0
 18 19  1  0  0  0  0
 18 24  1  0  0  0  0
 19 24  1  0  0  0  0
 20 21  1  0  0  0  0
 20 23  1  0  0  0  0
 21 28  1  0  0  0  0
 22 23  1  0  0  0  0
 22 29  1  0  0  0  0
 24 25  1  0  0  0  0
 24 26  1  0  0  0  0
 25 35  1  0  0  0  0
 26 33  1  0  0  0  0
 26 34  1  0  0  0  0
 29 35  1  6  0  0  0
 31 35  2  0  0  0  0
 32 35  2  0  0  0  0
  1 37  1  0  0  0  0
  2 38  1  0  0  0  0
  3 39  1  0  0  0  0
  4 40  1  0  0  0  0
  5 41  1  0  0  0  0
  6 42  1  0  0  0  0
  7 43  1  0  0  0  0
  8 44  1  0  0  0  0
  9 45  1  0  0  0  0
 17 46  1  0  0  0  0
 17 47  1  0  0  0  0
 18 48  1  0  0  0  0
 18 49  1  0  0  0  0
 19 50  1  0  0  0  0
 19 51  1  0  0  0  0
 20 52  1  0  0  0  0
 20 53  1  0  0  0  0
 21 54  1  0  0  0  0
 21 55  1  0  0  0  0
 22 56  1  0  0  0  0
 22 57  1  0  0  0  0
 25 58  1  0  0  0  0
 25 59  1  0  0  0  0
 26 60  1  0  0  0  0
M  END
> <compound>
EDJ-MED-5cd3920d-5

> <compound_smiles>
c1ccc2c(c1)cncc2N3CCC4(C3=O)CN(Cc5c4cc(cc5)Cl)S(=O)(=O)CC6(CC6)C(F)F

> <enantiomer_smiles>
c1ccc2c(c1)cncc2N3CCC4(C3=O)C[N@](Cc5c4cc(cc5)Cl)S(=O)(=O)CC6(CC6)C(F)F

> <scaffold>
tetrahydroisoquinoline-5spiro-isoquinoline

> <clash_score>
0

> <docking_score>
-8.441938400268555

> <overlap_score>
0.9719123244285583

> <MMFF_internal_energy>
131.31919477680196

> <docked_smiles>
c1ccc2c(c1)cncc2N3CC[C@@]4(C3=O)C[N@](Cc5c4cc(cc5)Cl)S(=O)(=O)CC6(CC6)C(F)F

$$$$
LUO-POS-ed2cfb03-1_2
  -OEChem-12272114583D

 65 70  0     1  0  0  0  0  0999 V2000
    3.3432    2.6279   20.4411 C   0  0  0  0  0  0  0  0  0  0  0  0
    3.8960    1.9291   21.5050 C   0  0  0  0  0  0  0  0  0  0  0  0
    3.7865    2.4205   19.1660 C   0  0  0  0  0  0  0  0  0  0  0  0
    4.8973    1.0233   21.2988 C   0  0  0  0  0  0  0  0  0  0  0  0
   12.0765    0.0316   24.1541 C   0  0  0  0  0  0  0  0  0  0  0  0
   12.9132   -0.6032   23.2569 C   0  0  0  0  0  0  0  0  0  0  0  0
   10.9991   -1.4331   22.0443 C   0  0  0  0  0  0  0  0  0  0  0  0
    5.3278    1.2339   17.6066 C   0  0  0  0  0  0  0  0  0  0  0  0
    6.8438   -0.2892   18.3752 C   0  0  0  0  0  0  0  0  0  0  0  0
    4.8226    1.4906   18.9054 C   0  0  0  0  0  0  0  0  0  0  0  0
    5.3982    0.7733   19.9948 C   0  0  0  0  0  0  0  0  0  0  0  0
   10.7040   -0.0625   23.9898 C   0  0  0  0  0  0  0  0  0  0  0  0
   10.1406   -0.7765   22.9250 C   0  0  0  0  0  0  0  0  0  0  0  0
    6.4440   -0.1472   19.6979 C   0  0  0  0  0  0  0  0  0  0  0  0
   12.3683   -1.3298   22.2234 C   0  0  0  0  0  0  0  0  0  0  0  0
    8.2490    0.0169   21.4271 C   0  0  0  0  0  0  0  0  0  0  0  0
    9.9479    0.5589   24.9534 C   0  0  0  0  0  0  0  0  0  0  0  0
    8.0140   -2.1541   22.4331 C   0  0  0  0  0  0  0  0  0  0  0  0
    6.9866   -1.9366   21.3580 C   0  0  0  0  0  0  0  0  0  0  0  0
    8.2318    4.6535   25.1285 C   0  0  0  0  0  0  0  0  0  0  0  0
    8.0036    3.2085   23.1393 C   0  0  0  0  0  0  0  0  0  0  0  0
    7.8721   -0.1194   23.8831 C   0  0  0  0  0  0  0  0  0  0  0  0
    7.7557    5.8549   24.3269 C   0  0  0  0  0  0  0  0  0  0  0  0
    7.5241    4.3941   22.3164 C   0  0  0  0  0  0  0  0  0  0  0  0
    8.6238   -0.7606   22.6929 C   0  0  3  0  0  0  0  0  0  0  0  0
    7.7788    6.8618   22.0432 C   0  0  0  0  0  0  0  0  0  0  0  0
    6.3062    0.3769   17.3421 N   0  0  0  0  0  0  0  0  0  0  0  0
    7.2292   -0.6897   20.7790 N   0  0  0  0  0  0  0  0  0  0  0  0
    8.6609    1.0133   24.4995 N   0  0  1  0  0  0  0  0  0  0  0  0
    7.6322    3.4072   24.5700 N   0  0  0  0  0  0  0  0  0  0  0  0
    8.1277    5.6606   22.8759 N   0  3  0  0  0  0  0  0  0  0  0  0
    8.8299    1.0397   21.0799 O   0  0  0  0  0  0  0  0  0  0  0  0
    6.4486    1.4476   25.7445 O   0  0  0  0  0  0  0  0  0  0  0  0
    8.5979    2.3553   26.7071 O   0  0  0  0  0  0  0  0  0  0  0  0
    7.7708    2.0177   25.5632 S   0  0  0  0  0  0  0  0  0  0  0  0
   13.4272   -2.1411   21.1086 Cl  0  0  0  0  0  0  0  0  0  0  0  0
    2.5432    3.3510   20.6369 H   0  0  0  0  0  0  0  0  0  0  0  0
    3.5174    2.1137   22.5168 H   0  0  0  0  0  0  0  0  0  0  0  0
    3.3409    2.9743   18.3364 H   0  0  0  0  0  0  0  0  0  0  0  0
    5.3118    0.4895   22.1572 H   0  0  0  0  0  0  0  0  0  0  0  0
   12.5024    0.5995   24.9735 H   0  0  0  0  0  0  0  0  0  0  0  0
   13.9910   -0.5177   23.3793 H   0  0  0  0  0  0  0  0  0  0  0  0
   10.6036   -2.0162   21.2241 H   0  0  0  0  0  0  0  0  0  0  0  0
    4.9141    1.7511   16.7474 H   0  0  0  0  0  0  0  0  0  0  0  0
    7.6445   -0.9764   18.1043 H   0  0  0  0  0  0  0  0  0  0  0  0
    9.7849   -0.1194   25.8306 H   0  0  0  0  0  0  0  0  0  0  0  0
   10.4793    1.4568   25.3613 H   0  0  0  0  0  0  0  0  0  0  0  0
    7.5152   -2.5456   23.3338 H   0  0  0  0  0  0  0  0  0  0  0  0
    8.7649   -2.9030   22.1434 H   0  0  0  0  0  0  0  0  0  0  0  0
    7.0587   -2.7248   20.5721 H   0  0  0  0  0  0  0  0  0  0  0  0
    5.9518   -1.9952   21.7720 H   0  0  0  0  0  0  0  0  0  0  0  0
    9.3255    4.5807   25.1129 H   0  0  0  0  0  0  0  0  0  0  0  0
    7.9104    4.7740   26.1688 H   0  0  0  0  0  0  0  0  0  0  0  0
    7.5206    2.3002   22.7629 H   0  0  0  0  0  0  0  0  0  0  0  0
    9.0888    3.0820   23.0502 H   0  0  0  0  0  0  0  0  0  0  0  0
    6.8867    0.2641   23.5642 H   0  0  0  0  0  0  0  0  0  0  0  0
    7.6652   -0.8660   24.6733 H   0  0  0  0  0  0  0  0  0  0  0  0
    6.6674    5.9745   24.3751 H   0  0  0  0  0  0  0  0  0  0  0  0
    8.2442    6.7714   24.6732 H   0  0  0  0  0  0  0  0  0  0  0  0
    7.8527    4.3036   21.2761 H   0  0  0  0  0  0  0  0  0  0  0  0
    6.4344    4.5041   22.3526 H   0  0  0  0  0  0  0  0  0  0  0  0
    6.6951    6.9878   22.0765 H   0  0  0  0  0  0  0  0  0  0  0  0
    8.2880    7.7262   22.4737 H   0  0  0  0  0  0  0  0  0  0  0  0
    8.1206    6.6724   21.0238 H   0  0  0  0  0  0  0  0  0  0  0  0
    9.1513    5.5603   22.8308 H   0  0  0  0  0  0  0  0  0  0  0  0
  1  2  1  0  0  0  0
  1  3  2  0  0  0  0
  2  4  2  0  0  0  0
  3 10  1  0  0  0  0
  4 11  1  0  0  0  0
  5  6  2  0  0  0  0
  5 12  1  0  0  0  0
  6 15  1  0  0  0  0
  7 13  1  0  0  0  0
  7 15  2  0  0  0  0
  8 10  2  0  0  0  0
  8 27  1  0  0  0  0
  9 14  1  0  0  0  0
  9 27  2  0  0  0  0
 10 11  1  0  0  0  0
 11 14  2  0  0  0  0
 12 13  2  0  0  0  0
 12 17  1  0  0  0  0
 13 25  1  0  0  0  0
 14 28  1  0  0  0  0
 15 36  1  0  0  0  0
 16 25  1  0  0  0  0
 16 28  1  0  0  0  0
 16 32  2  0  0  0  0
 17 29  1  0  0  0  0
 18 19  1  0  0  0  0
 18 25  1  0  0  0  0
 19 28  1  0  0  0  0
 20 23  1  0  0  0  0
 20 30  1  0  0  0  0
 21 24  1  0  0  0  0
 21 30  1  0  0  0  0
 22 25  1  0  0  0  0
 22 29  1  0  0  0  0
 23 31  1  0  0  0  0
 24 31  1  0  0  0  0
 26 31  1  0  0  0  0
 29 35  1  6  0  0  0
 30 35  1  0  0  0  0
 33 35  2  0  0  0  0
 34 35  2  0  0  0  0
  1 37  1  0  0  0  0
  2 38  1  0  0  0  0
  3 39  1  0  0  0  0
  4 40  1  0  0  0  0
  5 41  1  0  0  0  0
  6 42  1  0  0  0  0
  7 43  1  0  0  0  0
  8 44  1  0  0  0  0
  9 45  1  0  0  0  0
 17 46  1  0  0  0  0
 17 47  1  0  0  0  0
 18 48  1  0  0  0  0
 18 49  1  0  0  0  0
 19 50  1  0  0  0  0
 19 51  1  0  0  0  0
 20 52  1  0  0  0  0
 20 53  1  0  0  0  0
 21 54  1  0  0  0  0
 21 55  1  0  0  0  0
 22 56  1  0  0  0  0
 22 57  1  0  0  0  0
 23 58  1  0  0  0  0
 23 59  1  0  0  0  0
 24 60  1  0  0  0  0
 24 61  1  0  0  0  0
 26 62  1  0  0  0  0
 26 63  1  0  0  0  0
 26 64  1  0  0  0  0
 31 65  1  0  0  0  0
M  CHG  1  31   1
M  END
> <compound>
LUO-POS-ed2cfb03-1

> <compound_smiles>
CN1CCN(CC1)S(=O)(=O)N2Cc3ccc(cc3C4(C2)CCN(C4=O)c5cncc6c5cccc6)Cl

> <enantiomer_smiles>
CN1CCN(CC1)S(=O)(=O)[N@]2Cc3ccc(cc3C4(C2)CCN(C4=O)c5cncc6c5cccc6)Cl

> <scaffold>
tetrahydroisoquinoline-5spiro-isoquinoline

> <clash_score>
0

> <docking_score>
-8.977852821350098

> <overlap_score>
0.9701424837112427

> <MMFF_internal_energy>
40.25928031058536

> <docked_smiles>
C[NH+]1CCN(CC1)S(=O)(=O)[N@]2Cc3ccc(cc3[C@]4(C2)CCN(C4=O)c5cncc6c5cccc6)Cl

$$$$
LUO-POS-eaf50f21-1_1
  -OEChem-12272114583D

 58 63  0     1  0  0  0  0  0999 V2000
    9.9911    5.1242   23.7563 C   0  0  0  0  0  0  0  0  0  0  0  0
    3.3432    2.6279   20.4411 C   0  0  0  0  0  0  0  0  0  0  0  0
    3.8960    1.9291   21.5050 C   0  0  0  0  0  0  0  0  0  0  0  0
    3.7865    2.4205   19.1660 C   0  0  0  0  0  0  0  0  0  0  0  0
    4.8973    1.0233   21.2988 C   0  0  0  0  0  0  0  0  0  0  0  0
   12.0765    0.0316   24.1541 C   0  0  0  0  0  0  0  0  0  0  0  0
   12.9132   -0.6032   23.2569 C   0  0  0  0  0  0  0  0  0  0  0  0
   10.9991   -1.4331   22.0443 C   0  0  0  0  0  0  0  0  0  0  0  0
    5.3278    1.2339   17.6066 C   0  0  0  0  0  0  0  0  0  0  0  0
    6.8438   -0.2892   18.3752 C   0  0  0  0  0  0  0  0  0  0  0  0
    4.8226    1.4906   18.9054 C   0  0  0  0  0  0  0  0  0  0  0  0
    5.3982    0.7733   19.9948 C   0  0  0  0  0  0  0  0  0  0  0  0
   10.7040   -0.0625   23.9898 C   0  0  0  0  0  0  0  0  0  0  0  0
   10.1406   -0.7765   22.9250 C   0  0  0  0  0  0  0  0  0  0  0  0
    6.4440   -0.1472   19.6979 C   0  0  0  0  0  0  0  0  0  0  0  0
   12.3683   -1.3298   22.2234 C   0  0  0  0  0  0  0  0  0  0  0  0
    8.2490    0.0169   21.4271 C   0  0  0  0  0  0  0  0  0  0  0  0
    6.9866   -1.9366   21.3580 C   0  0  0  0  0  0  0  0  0  0  0  0
    9.9479    0.5589   24.9534 C   0  0  0  0  0  0  0  0  0  0  0  0
    8.5320    6.1536   25.5360 C   0  0  0  0  0  0  0  0  0  0  0  0
    7.7030    6.0376   24.2910 C   0  0  0  0  0  0  0  0  0  0  0  0
    7.8721   -0.1194   23.8831 C   0  0  0  0  0  0  0  0  0  0  0  0
    8.7992    5.0307   24.5590 C   0  0  0  0  0  0  0  0  0  0  0  0
    8.6238   -0.7606   22.6929 C   0  0  3  0  0  0  0  0  0  0  0  0
    8.3961    3.6288   24.9583 C   0  0  0  0  0  0  0  0  0  0  0  0
   10.9515    5.1995   23.1096 N   0  0  0  0  0  0  0  0  0  0  0  0
    6.3062    0.3769   17.3421 N   0  0  0  0  0  0  0  0  0  0  0  0
    7.2292   -0.6897   20.7790 N   0  0  0  0  0  0  0  0  0  0  0  0
    8.6609    1.0133   24.4995 N   0  0  1  0  0  0  0  0  0  0  0  0
    8.0140   -2.1541   22.4331 N   0  3  0  0  0  0  0  0  0  0  0  0
    6.0811   -2.8859   21.0710 N   0  0  0  0  0  0  0  0  0  0  0  0
    8.7473    1.0987   21.0885 O   0  0  0  0  0  0  0  0  0  0  0  0
    7.4119    2.4897   22.8226 O   0  0  0  0  0  0  0  0  0  0  0  0
    9.9188    2.7238   23.0373 O   0  0  0  0  0  0  0  0  0  0  0  0
    8.6177    2.4826   23.6220 S   0  0  0  0  0  0  0  0  0  0  0  0
   13.4268   -2.1425   21.1095 Cl  0  0  0  0  0  0  0  0  0  0  0  0
    2.5435    3.3515   20.6369 H   0  0  0  0  0  0  0  0  0  0  0  0
    3.5181    2.1139   22.5170 H   0  0  0  0  0  0  0  0  0  0  0  0
    3.3409    2.9743   18.3364 H   0  0  0  0  0  0  0  0  0  0  0  0
    5.3146    0.4870   22.1544 H   0  0  0  0  0  0  0  0  0  0  0  0
   12.5023    0.5921   24.9791 H   0  0  0  0  0  0  0  0  0  0  0  0
   13.9908   -0.5221   23.3827 H   0  0  0  0  0  0  0  0  0  0  0  0
   10.6031   -2.0221   21.2278 H   0  0  0  0  0  0  0  0  0  0  0  0
    4.9136    1.7512   16.7476 H   0  0  0  0  0  0  0  0  0  0  0  0
    7.6452   -0.9770   18.1101 H   0  0  0  0  0  0  0  0  0  0  0  0
    9.7601   -0.1291   25.8181 H   0  0  0  0  0  0  0  0  0  0  0  0
   10.4934    1.4385   25.3850 H   0  0  0  0  0  0  0  0  0  0  0  0
    9.2353    6.9765   25.5960 H   0  0  0  0  0  0  0  0  0  0  0  0
    8.0564    5.9166   26.4807 H   0  0  0  0  0  0  0  0  0  0  0  0
    6.6715    5.7236   24.4020 H   0  0  0  0  0  0  0  0  0  0  0  0
    7.8512    6.7836   23.5185 H   0  0  0  0  0  0  0  0  0  0  0  0
    6.8912    0.2693   23.5597 H   0  0  0  0  0  0  0  0  0  0  0  0
    7.6737   -0.8821   24.6542 H   0  0  0  0  0  0  0  0  0  0  0  0
    7.3412    3.5911   25.2436 H   0  0  0  0  0  0  0  0  0  0  0  0
    9.0025    3.2703   25.7945 H   0  0  0  0  0  0  0  0  0  0  0  0
    8.2316   -2.9940   22.8008 H   0  0  0  0  0  0  0  0  0  0  0  0
    5.4580   -2.6955   20.3216 H   0  0  0  0  0  0  0  0  0  0  0  0
    6.0612   -3.7247   21.6021 H   0  0  0  0  0  0  0  0  0  0  0  0
  1 23  1  0  0  0  0
  1 26  3  0  0  0  0
  2  3  1  0  0  0  0
  2  4  2  0  0  0  0
  3  5  2  0  0  0  0
  4 11  1  0  0  0  0
  5 12  1  0  0  0  0
  6  7  1  0  0  0  0
  6 13  2  0  0  0  0
  7 16  2  0  0  0  0
  8 14  2  0  0  0  0
  8 16  1  0  0  0  0
  9 11  2  0  0  0  0
  9 27  1  0  0  0  0
 10 15  1  0  0  0  0
 10 27  2  0  0  0  0
 11 12  1  0  0  0  0
 12 15  2  0  0  0  0
 13 14  1  0  0  0  0
 13 19  1  0  0  0  0
 14 24  1  0  0  0  0
 15 28  1  0  0  0  0
 16 36  1  0  0  0  0
 17 24  1  0  0  0  0
 17 28  1  0  0  0  0
 17 32  2  0  0  0  0
 18 28  1  0  0  0  0
 18 30  2  0  0  0  0
 18 31  1  0  0  0  0
 19 29  1  0  0  0  0
 20 21  1  0  0  0  0
 20 23  1  0  0  0  0
 21 23  1  0  0  0  0
 22 24  1  0  0  0  0
 22 29  1  0  0  0  0
 23 25  1  0  0  0  0
 24 30  1  0  0  0  0
 25 35  1  0  0  0  0
 29 35  1  1  0  0  0
 33 35  2  0  0  0  0
 34 35  2  0  0  0  0
  2 37  1  0  0  0  0
  3 38  1  0  0  0  0
  4 39  1  0  0  0  0
  5 40  1  0  0  0  0
  6 41  1  0  0  0  0
  7 42  1  0  0  0  0
  8 43  1  0  0  0  0
  9 44  1  0  0  0  0
 10 45  1  0  0  0  0
 19 46  1  0  0  0  0
 19 47  1  0  0  0  0
 20 48  1  0  0  0  0
 20 49  1  0  0  0  0
 21 50  1  0  0  0  0
 21 51  1  0  0  0  0
 22 52  1  0  0  0  0
 22 53  1  0  0  0  0
 25 54  1  0  0  0  0
 25 55  1  0  0  0  0
 30 56  1  0  0  0  0
 31 57  1  0  0  0  0
 31 58  1  0  0  0  0
M  CHG  1  30   1
M  END
> <compound>
LUO-POS-eaf50f21-1

> <compound_smiles>
c1ccc2c(c1)cncc2N3C(=O)C4(CN(Cc5c4cc(cc5)Cl)S(=O)(=O)CC6(CC6)C#N)N=C3N

> <enantiomer_smiles>
c1ccc2c(c1)cncc2N3C(=O)C4(C[N@@](Cc5c4cc(cc5)Cl)S(=O)(=O)CC6(CC6)C#N)N=C3N

> <scaffold>
tetrahydroisoquinoline-5spiro-isoquinoline

> <clash_score>
0

> <docking_score>
-7.840425968170166

> <overlap_score>
1.0

> <MMFF_internal_energy>
26.60371377713156

> <docked_smiles>
c1ccc2c(c1)cncc2N3C(=O)[C@@]4(C[N@@](Cc5c4cc(cc5)Cl)S(=O)(=O)CC6(CC6)C#N)[NH+]=C3N

$$$$
PET-UNK-94036022-4_2
  -OEChem-12272114583D

 58 63  0     1  0  0  0  0  0999 V2000
   10.7116    2.6244   22.5715 C   0  0  0  0  0  0  0  0  0  0  0  0
    9.7078    3.1092   23.0166 C   0  0  0  0  0  0  0  0  0  0  0  0
    3.3432    2.6279   20.4411 C   0  0  0  0  0  0  0  0  0  0  0  0
    3.8960    1.9291   21.5050 C   0  0  0  0  0  0  0  0  0  0  0  0
    3.7865    2.4205   19.1660 C   0  0  0  0  0  0  0  0  0  0  0  0
    4.8973    1.0233   21.2988 C   0  0  0  0  0  0  0  0  0  0  0  0
   12.0765    0.0316   24.1541 C   0  0  0  0  0  0  0  0  0  0  0  0
   12.9132   -0.6032   23.2569 C   0  0  0  0  0  0  0  0  0  0  0  0
   10.9991   -1.4331   22.0443 C   0  0  0  0  0  0  0  0  0  0  0  0
    5.3278    1.2339   17.6066 C   0  0  0  0  0  0  0  0  0  0  0  0
    6.8438   -0.2892   18.3752 C   0  0  0  0  0  0  0  0  0  0  0  0
    4.8226    1.4906   18.9054 C   0  0  0  0  0  0  0  0  0  0  0  0
    5.3982    0.7733   19.9948 C   0  0  0  0  0  0  0  0  0  0  0  0
   10.7040   -0.0625   23.9898 C   0  0  0  0  0  0  0  0  0  0  0  0
   10.1406   -0.7765   22.9250 C   0  0  0  0  0  0  0  0  0  0  0  0
    6.4440   -0.1472   19.6979 C   0  0  0  0  0  0  0  0  0  0  0  0
   12.3683   -1.3298   22.2234 C   0  0  0  0  0  0  0  0  0  0  0  0
    6.9866   -1.9366   21.3580 C   0  0  0  0  0  0  0  0  0  0  0  0
    8.2490    0.0169   21.4271 C   0  0  0  0  0  0  0  0  0  0  0  0
    9.9479    0.5589   24.9534 C   0  0  0  0  0  0  0  0  0  0  0  0
    8.0140   -2.1541   22.4331 C   0  0  0  0  0  0  0  0  0  0  0  0
    7.9520    4.9104   22.8467 C   0  0  0  0  0  0  0  0  0  0  0  0
    7.2525    3.5906   22.7074 C   0  0  0  0  0  0  0  0  0  0  0  0
    7.8721   -0.1194   23.8831 C   0  0  0  0  0  0  0  0  0  0  0  0
    8.5038    3.6912   23.5510 C   0  0  0  0  0  0  0  0  0  0  0  0
    8.6238   -0.7606   22.6929 C   0  0  2  0  0  0  0  0  0  0  0  0
    8.3575    3.6102   25.0540 C   0  0  0  0  0  0  0  0  0  0  0  0
    6.3062    0.3769   17.3421 N   0  0  0  0  0  0  0  0  0  0  0  0
    7.2292   -0.6897   20.7790 N   0  0  0  0  0  0  0  0  0  0  0  0
    8.6609    1.0133   24.4995 N   0  0  1  0  0  0  0  0  0  0  0  0
    6.1313   -2.7665   21.0946 O   0  0  0  0  0  0  0  0  0  0  0  0
    8.7792    1.0647   21.1044 O   0  0  0  0  0  0  0  0  0  0  0  0
    8.2397    1.7786   26.9137 O   0  0  0  0  0  0  0  0  0  0  0  0
    6.3694    1.9228   25.2205 O   0  0  0  0  0  0  0  0  0  0  0  0
    7.7712    2.0157   25.5657 S   0  0  0  0  0  0  0  0  0  0  0  0
   13.4280   -2.1405   21.1093 Cl  0  0  0  0  0  0  0  0  0  0  0  0
   11.6021    2.1941   22.1765 H   0  0  0  0  0  0  0  0  0  0  0  0
    2.5432    3.3510   20.6369 H   0  0  0  0  0  0  0  0  0  0  0  0
    3.5174    2.1137   22.5168 H   0  0  0  0  0  0  0  0  0  0  0  0
    3.3409    2.9743   18.3364 H   0  0  0  0  0  0  0  0  0  0  0  0
    5.3118    0.4895   22.1572 H   0  0  0  0  0  0  0  0  0  0  0  0
   12.5030    0.5986   24.9733 H   0  0  0  0  0  0  0  0  0  0  0  0
   13.9915   -0.5171   23.3790 H   0  0  0  0  0  0  0  0  0  0  0  0
   10.6134   -2.0183   21.2242 H   0  0  0  0  0  0  0  0  0  0  0  0
    4.9141    1.7511   16.7474 H   0  0  0  0  0  0  0  0  0  0  0  0
    7.6445   -0.9764   18.1043 H   0  0  0  0  0  0  0  0  0  0  0  0
    9.7877   -0.1156   25.8356 H   0  0  0  0  0  0  0  0  0  0  0  0
   10.4797    1.4586   25.3596 H   0  0  0  0  0  0  0  0  0  0  0  0
    7.4819   -2.5429   23.3081 H   0  0  0  0  0  0  0  0  0  0  0  0
    8.7486   -2.8980   22.1150 H   0  0  0  0  0  0  0  0  0  0  0  0
    8.4734    5.2965   21.9780 H   0  0  0  0  0  0  0  0  0  0  0  0
    7.4667    5.6765   23.4403 H   0  0  0  0  0  0  0  0  0  0  0  0
    6.2979    3.4731   23.2072 H   0  0  0  0  0  0  0  0  0  0  0  0
    7.3052    3.0942   21.7451 H   0  0  0  0  0  0  0  0  0  0  0  0
    6.9015    0.2780   23.5471 H   0  0  0  0  0  0  0  0  0  0  0  0
    7.6689   -0.8632   24.6705 H   0  0  0  0  0  0  0  0  0  0  0  0
    7.6389    4.3499   25.4177 H   0  0  0  0  0  0  0  0  0  0  0  0
    9.3178    3.7752   25.5502 H   0  0  0  0  0  0  0  0  0  0  0  0
  1  2  3  0  0  0  0
  2 25  1  0  0  0  0
  3  4  1  0  0  0  0
  3  5  2  0  0  0  0
  4  6  2  0  0  0  0
  5 12  1  0  0  0  0
  6 13  1  0  0  0  0
  7  8  2  0  0  0  0
  7 14  1  0  0  0  0
  8 17  1  0  0  0  0
  9 15  1  0  0  0  0
  9 17  2  0  0  0  0
 10 12  2  0  0  0  0
 10 28  1  0  0  0  0
 11 16  1  0  0  0  0
 11 28  2  0  0  0  0
 12 13  1  0  0  0  0
 13 16  2  0  0  0  0
 14 15  2  0  0  0  0
 14 20  1  0  0  0  0
 15 26  1  6  0  0  0
 16 29  1  0  0  0  0
 17 36  1  0  0  0  0
 18 21  1  0  0  0  0
 18 29  1  0  0  0  0
 18 31  2  0  0  0  0
 19 26  1  1  0  0  0
 19 29  1  0  0  0  0
 19 32  2  0  0  0  0
 20 30  1  0  0  0  0
 21 26  1  1  0  0  0
 22 23  1  0  0  0  0
 22 25  1  0  0  0  0
 23 25  1  0  0  0  0
 24 26  1  6  0  0  0
 24 30  1  0  0  0  0
 25 27  1  0  0  0  0
 27 35  1  0  0  0  0
 30 35  1  6  0  0  0
 33 35  2  0  0  0  0
 34 35  2  0  0  0  0
  1 37  1  0  0  0  0
  3 38  1  0  0  0  0
  4 39  1  0  0  0  0
  5 40  1  0  0  0  0
  6 41  1  0  0  0  0
  7 42  1  0  0  0  0
  8 43  1  0  0  0  0
  9 44  1  0  0  0  0
 10 45  1  0  0  0  0
 11 46  1  0  0  0  0
 20 47  1  0  0  0  0
 20 48  1  0  0  0  0
 21 49  1  0  0  0  0
 21 50  1  0  0  0  0
 22 51  1  0  0  0  0
 22 52  1  0  0  0  0
 23 53  1  0  0  0  0
 23 54  1  0  0  0  0
 24 55  1  0  0  0  0
 24 56  1  0  0  0  0
 27 57  1  0  0  0  0
 27 58  1  0  0  0  0
M  END
> <compound>
PET-UNK-94036022-4

> <compound_smiles>
C#CC1(CC1)CS(=O)(=O)N2Cc3ccc(cc3[C@]4(C2)CC(=O)N(C4=O)c5cncc6c5cccc6)Cl

> <enantiomer_smiles>
C#CC1(CC1)CS(=O)(=O)[N@]2Cc3ccc(cc3[C@]4(C2)CC(=O)N(C4=O)c5cncc6c5cccc6)Cl

> <scaffold>
tetrahydroisoquinoline-5spiro-isoquinoline

> <clash_score>
0

> <docking_score>
-9.184221267700195

> <overlap_score>
1.0

> <MMFF_internal_energy>
89.69417418797119

> <docked_smiles>
C#CC1(CC1)CS(=O)(=O)[N@]2Cc3ccc(cc3[C@]4(C2)CC(=O)N(C4=O)c5cncc6c5cccc6)Cl

$$$$
MAT-POS-853c0ffa-6_1
  -OEChem-12272114583D

 58 63  0     1  0  0  0  0  0999 V2000
    9.9899    5.1222   23.8236 C   0  0  0  0  0  0  0  0  0  0  0  0
   12.0765    0.0316   24.1541 C   0  0  0  0  0  0  0  0  0  0  0  0
   12.9132   -0.6032   23.2569 C   0  0  0  0  0  0  0  0  0  0  0  0
    3.7865    2.4205   19.1660 C   0  0  0  0  0  0  0  0  0  0  0  0
   10.9991   -1.4331   22.0443 C   0  0  0  0  0  0  0  0  0  0  0  0
    3.8960    1.9291   21.5050 C   0  0  0  0  0  0  0  0  0  0  0  0
    5.3278    1.2339   17.6066 C   0  0  0  0  0  0  0  0  0  0  0  0
    6.8438   -0.2892   18.3752 C   0  0  0  0  0  0  0  0  0  0  0  0
    4.8226    1.4906   18.9054 C   0  0  0  0  0  0  0  0  0  0  0  0
    5.3982    0.7733   19.9948 C   0  0  0  0  0  0  0  0  0  0  0  0
   10.7040   -0.0625   23.9898 C   0  0  0  0  0  0  0  0  0  0  0  0
   10.1406   -0.7765   22.9250 C   0  0  0  0  0  0  0  0  0  0  0  0
    6.4440   -0.1472   19.6979 C   0  0  0  0  0  0  0  0  0  0  0  0
    3.3432    2.6279   20.4411 C   0  0  0  0  0  0  0  0  0  0  0  0
   12.3683   -1.3298   22.2234 C   0  0  0  0  0  0  0  0  0  0  0  0
    4.8973    1.0233   21.2988 C   0  0  0  0  0  0  0  0  0  0  0  0
    8.2490    0.0169   21.4271 C   0  0  0  0  0  0  0  0  0  0  0  0
    9.9479    0.5589   24.9534 C   0  0  0  0  0  0  0  0  0  0  0  0
    8.5324    6.1021   25.6323 C   0  0  0  0  0  0  0  0  0  0  0  0
    7.7014    6.0179   24.3861 C   0  0  0  0  0  0  0  0  0  0  0  0
    8.0140   -2.1541   22.4331 C   0  0  0  0  0  0  0  0  0  0  0  0
    6.9866   -1.9366   21.3580 C   0  0  0  0  0  0  0  0  0  0  0  0
    7.8721   -0.1194   23.8831 C   0  0  0  0  0  0  0  0  0  0  0  0
    8.7994    5.0058   24.6255 C   0  0  0  0  0  0  0  0  0  0  0  0
    8.6238   -0.7606   22.6929 C   0  0  3  0  0  0  0  0  0  0  0  0
    8.3989    3.5932   24.9882 C   0  0  0  0  0  0  0  0  0  0  0  0
   10.9490    5.2161   23.1776 N   0  0  0  0  0  0  0  0  0  0  0  0
    6.3062    0.3769   17.3421 N   0  0  0  0  0  0  0  0  0  0  0  0
    7.2292   -0.6897   20.7790 N   0  0  0  0  0  0  0  0  0  0  0  0
    8.6609    1.0133   24.4995 N   0  0  1  0  0  0  0  0  0  0  0  0
    8.7572    1.0941   21.1350 O   0  0  0  0  0  0  0  0  0  0  0  0
    7.4179    2.5201   22.8172 O   0  0  0  0  0  0  0  0  0  0  0  0
    9.9251    2.7322   23.0499 O   0  0  0  0  0  0  0  0  0  0  0  0
    2.3578    3.5185   20.6801 F   0  0  0  0  0  0  0  0  0  0  0  0
    8.6198    2.4832   23.6217 S   0  0  0  0  0  0  0  0  0  0  0  0
   13.4275   -2.1421   21.1097 Cl  0  0  0  0  0  0  0  0  0  0  0  0
    5.4641    0.2478   22.7523 Cl  0  0  0  0  0  0  0  0  0  0  0  0
   12.5015    0.5938   24.9776 H   0  0  0  0  0  0  0  0  0  0  0  0
   13.9911   -0.5212   23.3814 H   0  0  0  0  0  0  0  0  0  0  0  0
    3.3399    2.9748   18.3374 H   0  0  0  0  0  0  0  0  0  0  0  0
   10.6037   -2.0228   21.2288 H   0  0  0  0  0  0  0  0  0  0  0  0
    3.4981    2.1315   22.5077 H   0  0  0  0  0  0  0  0  0  0  0  0
    4.9136    1.7513   16.7477 H   0  0  0  0  0  0  0  0  0  0  0  0
    7.6458   -0.9737   18.1006 H   0  0  0  0  0  0  0  0  0  0  0  0
    9.7581   -0.1287   25.8173 H   0  0  0  0  0  0  0  0  0  0  0  0
   10.4931    1.4391   25.3829 H   0  0  0  0  0  0  0  0  0  0  0  0
    9.2347    6.9241   25.7129 H   0  0  0  0  0  0  0  0  0  0  0  0
    8.0587    5.8395   26.5712 H   0  0  0  0  0  0  0  0  0  0  0  0
    6.6706    5.6996   24.4905 H   0  0  0  0  0  0  0  0  0  0  0  0
    7.8473    6.7843   23.6333 H   0  0  0  0  0  0  0  0  0  0  0  0
    7.5801   -2.6060   23.3366 H   0  0  0  0  0  0  0  0  0  0  0  0
    8.7749   -2.8608   22.0657 H   0  0  0  0  0  0  0  0  0  0  0  0
    7.0227   -2.7506   20.5953 H   0  0  0  0  0  0  0  0  0  0  0  0
    5.9554   -1.9484   21.7832 H   0  0  0  0  0  0  0  0  0  0  0  0
    6.8886    0.2769   23.5666 H   0  0  0  0  0  0  0  0  0  0  0  0
    7.6579   -0.8710   24.6633 H   0  0  0  0  0  0  0  0  0  0  0  0
    7.3445    3.5466   25.2742 H   0  0  0  0  0  0  0  0  0  0  0  0
    9.0072    3.2136   25.8136 H   0  0  0  0  0  0  0  0  0  0  0  0
  1 24  1  0  0  0  0
  1 27  3  0  0  0  0
  2  3  1  0  0  0  0
  2 11  2  0  0  0  0
  3 15  2  0  0  0  0
  4  9  1  0  0  0  0
  4 14  2  0  0  0  0
  5 12  2  0  0  0  0
  5 15  1  0  0  0  0
  6 14  1  0  0  0  0
  6 16  2  0  0  0  0
  7  9  2  0  0  0  0
  7 28  1  0  0  0  0
  8 13  1  0  0  0  0
  8 28  2  0  0  0  0
  9 10  1  0  0  0  0
 10 13  2  0  0  0  0
 10 16  1  0  0  0  0
 11 12  1  0  0  0  0
 11 18  1  0  0  0  0
 12 25  1  0  0  0  0
 13 29  1  0  0  0  0
 14 34  1  0  0  0  0
 15 36  1  0  0  0  0
 16 37  1  0  0  0  0
 17 25  1  0  0  0  0
 17 29  1  0  0  0  0
 17 31  2  0  0  0  0
 18 30  1  0  0  0  0
 19 20  1  0  0  0  0
 19 24  1  0  0  0  0
 20 24  1  0  0  0  0
 21 22  1  0  0  0  0
 21 25  1  0  0  0  0
 22 29  1  0  0  0  0
 23 25  1  0  0  0  0
 23 30  1  0  0  0  0
 24 26  1  0  0  0  0
 26 35  1  0  0  0  0
 30 35  1  1  0  0  0
 32 35  2  0  0  0  0
 33 35  2  0  0  0  0
  2 38  1  0  0  0  0
  3 39  1  0  0  0  0
  4 40  1  0  0  0  0
  5 41  1  0  0  0  0
  6 42  1  0  0  0  0
  7 43  1  0  0  0  0
  8 44  1  0  0  0  0
 18 45  1  0  0  0  0
 18 46  1  0  0  0  0
 19 47  1  0  0  0  0
 19 48  1  0  0  0  0
 20 49  1  0  0  0  0
 20 50  1  0  0  0  0
 21 51  1  0  0  0  0
 21 52  1  0  0  0  0
 22 53  1  0  0  0  0
 22 54  1  0  0  0  0
 23 55  1  0  0  0  0
 23 56  1  0  0  0  0
 26 57  1  0  0  0  0
 26 58  1  0  0  0  0
M  END
> <compound>
MAT-POS-853c0ffa-6

> <compound_smiles>
c1cc2c(cc1Cl)C3(CCN(C3=O)c4cncc5c4c(cc(c5)F)Cl)CN(C2)S(=O)(=O)CC6(CC6)C#N

> <enantiomer_smiles>
c1cc2c(cc1Cl)C3(CCN(C3=O)c4cncc5c4c(cc(c5)F)Cl)C[N@@](C2)S(=O)(=O)CC6(CC6)C#N

> <scaffold>
tetrahydroisoquinoline-5spiro-isoquinoline

> <clash_score>
0

> <docking_score>
-9.295379638671875

> <overlap_score>
0.9896005988121033

> <MMFF_internal_energy>
199.78489095515206

> <docked_smiles>
c1cc2c(cc1Cl)[C@@]3(CCN(C3=O)c4cncc5c4c(cc(c5)F)Cl)C[N@@](C2)S(=O)(=O)CC6(CC6)C#N

$$$$
PET-UNK-94036022-11_1
  -OEChem-12272114583D

 58 63  0     1  0  0  0  0  0999 V2000
   10.6481    6.1859   24.0155 C   0  0  0  0  0  0  0  0  0  0  0  0
    9.5919    5.6626   24.2426 C   0  0  0  0  0  0  0  0  0  0  0  0
    3.3432    2.6279   20.4411 C   0  0  0  0  0  0  0  0  0  0  0  0
    3.8960    1.9291   21.5050 C   0  0  0  0  0  0  0  0  0  0  0  0
    3.7865    2.4205   19.1660 C   0  0  0  0  0  0  0  0  0  0  0  0
    4.8973    1.0233   21.2988 C   0  0  0  0  0  0  0  0  0  0  0  0
   12.0765    0.0316   24.1541 C   0  0  0  0  0  0  0  0  0  0  0  0
   12.9132   -0.6032   23.2569 C   0  0  0  0  0  0  0  0  0  0  0  0
   10.9991   -1.4331   22.0443 C   0  0  0  0  0  0  0  0  0  0  0  0
    5.3278    1.2339   17.6066 C   0  0  0  0  0  0  0  0  0  0  0  0
    6.8438   -0.2892   18.3752 C   0  0  0  0  0  0  0  0  0  0  0  0
    4.8226    1.4906   18.9054 C   0  0  0  0  0  0  0  0  0  0  0  0
    5.3982    0.7733   19.9948 C   0  0  0  0  0  0  0  0  0  0  0  0
   10.7040   -0.0625   23.9898 C   0  0  0  0  0  0  0  0  0  0  0  0
   10.1406   -0.7765   22.9250 C   0  0  0  0  0  0  0  0  0  0  0  0
    6.4440   -0.1472   19.6979 C   0  0  0  0  0  0  0  0  0  0  0  0
   12.3683   -1.3298   22.2234 C   0  0  0  0  0  0  0  0  0  0  0  0
    6.9866   -1.9366   21.3580 C   0  0  0  0  0  0  0  0  0  0  0  0
    8.2490    0.0169   21.4271 C   0  0  0  0  0  0  0  0  0  0  0  0
    9.9479    0.5589   24.9534 C   0  0  0  0  0  0  0  0  0  0  0  0
    8.0140   -2.1541   22.4331 C   0  0  0  0  0  0  0  0  0  0  0  0
    7.2252    5.9089   25.0755 C   0  0  0  0  0  0  0  0  0  0  0  0
    7.1511    5.4420   23.6517 C   0  0  0  0  0  0  0  0  0  0  0  0
    7.8721   -0.1194   23.8831 C   0  0  0  0  0  0  0  0  0  0  0  0
    8.3246    5.0351   24.5146 C   0  0  0  0  0  0  0  0  0  0  0  0
    8.6238   -0.7606   22.6929 C   0  0  3  0  0  0  0  0  0  0  0  0
    8.4006    3.5988   24.9818 C   0  0  0  0  0  0  0  0  0  0  0  0
    6.3062    0.3769   17.3421 N   0  0  0  0  0  0  0  0  0  0  0  0
    7.2292   -0.6897   20.7790 N   0  0  0  0  0  0  0  0  0  0  0  0
    8.6609    1.0133   24.4995 N   0  0  2  0  0  0  0  0  0  0  0  0
    6.1206   -2.7598   21.1048 O   0  0  0  0  0  0  0  0  0  0  0  0
    8.7896    1.0612   21.1026 O   0  0  0  0  0  0  0  0  0  0  0  0
    7.4249    2.5281   22.8073 O   0  0  0  0  0  0  0  0  0  0  0  0
    9.9323    2.7171   23.0572 O   0  0  0  0  0  0  0  0  0  0  0  0
    8.6206    2.4824   23.6204 S   0  0  0  0  0  0  0  0  0  0  0  0
   13.4272   -2.1441   21.1108 Cl  0  0  0  0  0  0  0  0  0  0  0  0
   11.5852    6.6501   23.8142 H   0  0  0  0  0  0  0  0  0  0  0  0
    2.5432    3.3510   20.6369 H   0  0  0  0  0  0  0  0  0  0  0  0
    3.5174    2.1137   22.5168 H   0  0  0  0  0  0  0  0  0  0  0  0
    3.3409    2.9743   18.3364 H   0  0  0  0  0  0  0  0  0  0  0  0
    5.3118    0.4895   22.1572 H   0  0  0  0  0  0  0  0  0  0  0  0
   12.5015    0.5923   24.9788 H   0  0  0  0  0  0  0  0  0  0  0  0
   13.9910   -0.5224   23.3824 H   0  0  0  0  0  0  0  0  0  0  0  0
   10.6030   -2.0207   21.2274 H   0  0  0  0  0  0  0  0  0  0  0  0
    4.9141    1.7511   16.7474 H   0  0  0  0  0  0  0  0  0  0  0  0
    7.6445   -0.9764   18.1043 H   0  0  0  0  0  0  0  0  0  0  0  0
    9.7589   -0.1285   25.8179 H   0  0  0  0  0  0  0  0  0  0  0  0
   10.4934    1.4393   25.3829 H   0  0  0  0  0  0  0  0  0  0  0  0
    7.5396   -2.5802   23.3244 H   0  0  0  0  0  0  0  0  0  0  0  0
    8.7446   -2.8786   22.0515 H   0  0  0  0  0  0  0  0  0  0  0  0
    7.4264    6.9600   25.2493 H   0  0  0  0  0  0  0  0  0  0  0  0
    6.5288    5.4751   25.7838 H   0  0  0  0  0  0  0  0  0  0  0  0
    6.4042    4.6958   23.4062 H   0  0  0  0  0  0  0  0  0  0  0  0
    7.3018    6.1811   22.8731 H   0  0  0  0  0  0  0  0  0  0  0  0
    6.8881    0.2767   23.5693 H   0  0  0  0  0  0  0  0  0  0  0  0
    7.6631   -0.8748   24.6619 H   0  0  0  0  0  0  0  0  0  0  0  0
    7.4805    3.3047   25.4944 H   0  0  0  0  0  0  0  0  0  0  0  0
    9.2461    3.4518   25.6593 H   0  0  0  0  0  0  0  0  0  0  0  0
  1  2  3  0  0  0  0
  2 25  1  0  0  0  0
  3  4  1  0  0  0  0
  3  5  2  0  0  0  0
  4  6  2  0  0  0  0
  5 12  1  0  0  0  0
  6 13  1  0  0  0  0
  7  8  2  0  0  0  0
  7 14  1  0  0  0  0
  8 17  1  0  0  0  0
  9 15  1  0  0  0  0
  9 17  2  0  0  0  0
 10 12  2  0  0  0  0
 10 28  1  0  0  0  0
 11 16  1  0  0  0  0
 11 28  2  0  0  0  0
 12 13  1  0  0  0  0
 13 16  2  0  0  0  0
 14 15  2  0  0  0  0
 14 20  1  0  0  0  0
 15 26  1  0  0  0  0
 16 29  1  0  0  0  0
 17 36  1  0  0  0  0
 18 21  1  0  0  0  0
 18 29  1  0  0  0  0
 18 31  2  0  0  0  0
 19 26  1  0  0  0  0
 19 29  1  0  0  0  0
 19 32  2  0  0  0  0
 20 30  1  0  0  0  0
 21 26  1  0  0  0  0
 22 23  1  0  0  0  0
 22 25  1  0  0  0  0
 23 25  1  0  0  0  0
 24 26  1  0  0  0  0
 24 30  1  0  0  0  0
 25 27  1  0  0  0  0
 27 35  1  0  0  0  0
 30 35  1  1  0  0  0
 33 35  2  0  0  0  0
 34 35  2  0  0  0  0
  1 37  1  0  0  0  0
  3 38  1  0  0  0  0
  4 39  1  0  0  0  0
  5 40  1  0  0  0  0
  6 41  1  0  0  0  0
  7 42  1  0  0  0  0
  8 43  1  0  0  0  0
  9 44  1  0  0  0  0
 10 45  1  0  0  0  0
 11 46  1  0  0  0  0
 20 47  1  0  0  0  0
 20 48  1  0  0  0  0
 21 49  1  0  0  0  0
 21 50  1  0  0  0  0
 22 51  1  0  0  0  0
 22 52  1  0  0  0  0
 23 53  1  0  0  0  0
 23 54  1  0  0  0  0
 24 55  1  0  0  0  0
 24 56  1  0  0  0  0
 27 57  1  0  0  0  0
 27 58  1  0  0  0  0
M  END
> <compound>
PET-UNK-94036022-11

> <compound_smiles>
C#CC1(CC1)CS(=O)(=O)N2Cc3ccc(cc3C4(C2)CC(=O)N(C4=O)c5cncc6c5cccc6)Cl

> <enantiomer_smiles>
C#CC1(CC1)CS(=O)(=O)[N@@]2Cc3ccc(cc3C4(C2)CC(=O)N(C4=O)c5cncc6c5cccc6)Cl

> <scaffold>
tetrahydroisoquinoline-5spiro-isoquinoline

> <clash_score>
0

> <docking_score>
-9.244575500488281

> <overlap_score>
1.0

> <MMFF_internal_energy>
94.09545954030068

> <docked_smiles>
C#CC1(CC1)CS(=O)(=O)[N@@]2Cc3ccc(cc3[C@]4(C2)CC(=O)N(C4=O)c5cncc6c5cccc6)Cl

$$$$
LUO-POS-eaf50f21-1_2
  -OEChem-12272114583D

 58 63  0     1  0  0  0  0  0999 V2000
    7.3086    3.4322   22.7805 C   0  0  0  0  0  0  0  0  0  0  0  0
    3.3432    2.6279   20.4411 C   0  0  0  0  0  0  0  0  0  0  0  0
    3.8960    1.9291   21.5050 C   0  0  0  0  0  0  0  0  0  0  0  0
    3.7865    2.4205   19.1660 C   0  0  0  0  0  0  0  0  0  0  0  0
    4.8973    1.0233   21.2988 C   0  0  0  0  0  0  0  0  0  0  0  0
   12.0765    0.0316   24.1541 C   0  0  0  0  0  0  0  0  0  0  0  0
   12.9132   -0.6032   23.2569 C   0  0  0  0  0  0  0  0  0  0  0  0
   10.9991   -1.4331   22.0443 C   0  0  0  0  0  0  0  0  0  0  0  0
    5.3278    1.2339   17.6066 C   0  0  0  0  0  0  0  0  0  0  0  0
    6.8438   -0.2892   18.3752 C   0  0  0  0  0  0  0  0  0  0  0  0
    4.8226    1.4906   18.9054 C   0  0  0  0  0  0  0  0  0  0  0  0
    5.3982    0.7733   19.9948 C   0  0  0  0  0  0  0  0  0  0  0  0
   10.7040   -0.0625   23.9898 C   0  0  0  0  0  0  0  0  0  0  0  0
   10.1406   -0.7765   22.9250 C   0  0  0  0  0  0  0  0  0  0  0  0
    6.4440   -0.1472   19.6979 C   0  0  0  0  0  0  0  0  0  0  0  0
   12.3683   -1.3298   22.2234 C   0  0  0  0  0  0  0  0  0  0  0  0
    8.2490    0.0169   21.4271 C   0  0  0  0  0  0  0  0  0  0  0  0
    6.9866   -1.9366   21.3580 C   0  0  0  0  0  0  0  0  0  0  0  0
    9.9479    0.5589   24.9534 C   0  0  0  0  0  0  0  0  0  0  0  0
    9.8125    3.1740   22.9194 C   0  0  0  0  0  0  0  0  0  0  0  0
    9.5129    4.6436   22.9506 C   0  0  0  0  0  0  0  0  0  0  0  0
    7.8721   -0.1194   23.8831 C   0  0  0  0  0  0  0  0  0  0  0  0
    8.5174    3.6626   23.5284 C   0  0  0  0  0  0  0  0  0  0  0  0
    8.6238   -0.7606   22.6929 C   0  0  3  0  0  0  0  0  0  0  0  0
    8.3699    3.6005   25.0322 C   0  0  0  0  0  0  0  0  0  0  0  0
    6.3347    3.2465   22.1779 N   0  0  0  0  0  0  0  0  0  0  0  0
    6.3062    0.3769   17.3421 N   0  0  0  0  0  0  0  0  0  0  0  0
    7.2292   -0.6897   20.7790 N   0  0  0  0  0  0  0  0  0  0  0  0
    8.6609    1.0133   24.4995 N   0  0  2  0  0  0  0  0  0  0  0  0
    8.0140   -2.1541   22.4331 N   0  3  0  0  0  0  0  0  0  0  0  0
    6.0229   -2.8449   21.1349 N   0  0  0  0  0  0  0  0  0  0  0  0
    8.8000    1.0592   21.0486 O   0  0  0  0  0  0  0  0  0  0  0  0
    8.2527    1.7830   26.9058 O   0  0  0  0  0  0  0  0  0  0  0  0
    6.3624    1.9403   25.2362 O   0  0  0  0  0  0  0  0  0  0  0  0
    7.7698    2.0170   25.5623 S   0  0  0  0  0  0  0  0  0  0  0  0
   13.4271   -2.1418   21.1093 Cl  0  0  0  0  0  0  0  0  0  0  0  0
    2.5435    3.3515   20.6369 H   0  0  0  0  0  0  0  0  0  0  0  0
    3.5181    2.1139   22.5170 H   0  0  0  0  0  0  0  0  0  0  0  0
    3.3409    2.9743   18.3364 H   0  0  0  0  0  0  0  0  0  0  0  0
    5.3146    0.4870   22.1544 H   0  0  0  0  0  0  0  0  0  0  0  0
   12.5019    0.5995   24.9742 H   0  0  0  0  0  0  0  0  0  0  0  0
   13.9909   -0.5172   23.3792 H   0  0  0  0  0  0  0  0  0  0  0  0
   10.6033   -2.0176   21.2245 H   0  0  0  0  0  0  0  0  0  0  0  0
    4.9136    1.7512   16.7476 H   0  0  0  0  0  0  0  0  0  0  0  0
    7.6452   -0.9770   18.1101 H   0  0  0  0  0  0  0  0  0  0  0  0
    9.7864   -0.1173   25.8332 H   0  0  0  0  0  0  0  0  0  0  0  0
   10.4802    1.4573   25.3603 H   0  0  0  0  0  0  0  0  0  0  0  0
    9.7857    2.6764   21.9565 H   0  0  0  0  0  0  0  0  0  0  0  0
   10.5890    2.8050   23.5796 H   0  0  0  0  0  0  0  0  0  0  0  0
   10.0895    5.2593   23.6312 H   0  0  0  0  0  0  0  0  0  0  0  0
    9.2865    5.1293   22.0082 H   0  0  0  0  0  0  0  0  0  0  0  0
    6.8955    0.2646   23.5448 H   0  0  0  0  0  0  0  0  0  0  0  0
    7.6662   -0.8717   24.6638 H   0  0  0  0  0  0  0  0  0  0  0  0
    7.6574    4.3504   25.3869 H   0  0  0  0  0  0  0  0  0  0  0  0
    9.3313    3.7631   25.5269 H   0  0  0  0  0  0  0  0  0  0  0  0
    8.1764   -2.9802   22.8563 H   0  0  0  0  0  0  0  0  0  0  0  0
    5.3511   -2.6202   20.4390 H   0  0  0  0  0  0  0  0  0  0  0  0
    6.0120   -3.6901   21.6560 H   0  0  0  0  0  0  0  0  0  0  0  0
  1 23  1  0  0  0  0
  1 26  3  0  0  0  0
  2  3  1  0  0  0  0
  2  4  2  0  0  0  0
  3  5  2  0  0  0  0
  4 11  1  0  0  0  0
  5 12  1  0  0  0  0
  6  7  1  0  0  0  0
  6 13  2  0  0  0  0
  7 16  2  0  0  0  0
  8 14  2  0  0  0  0
  8 16  1  0  0  0  0
  9 11  2  0  0  0  0
  9 27  1  0  0  0  0
 10 15  1  0  0  0  0
 10 27  2  0  0  0  0
 11 12  1  0  0  0  0
 12 15  2  0  0  0  0
 13 14  1  0  0  0  0
 13 19  1  0  0  0  0
 14 24  1  0  0  0  0
 15 28  1  0  0  0  0
 16 36  1  0  0  0  0
 17 24  1  0  0  0  0
 17 28  1  0  0  0  0
 17 32  2  0  0  0  0
 18 28  1  0  0  0  0
 18 30  2  0  0  0  0
 18 31  1  0  0  0  0
 19 29  1  0  0  0  0
 20 21  1  0  0  0  0
 20 23  1  0  0  0  0
 21 23  1  0  0  0  0
 22 24  1  0  0  0  0
 22 29  1  0  0  0  0
 23 25  1  0  0  0  0
 24 30  1  0  0  0  0
 25 35  1  0  0  0  0
 29 35  1  6  0  0  0
 33 35  2  0  0  0  0
 34 35  2  0  0  0  0
  2 37  1  0  0  0  0
  3 38  1  0  0  0  0
  4 39  1  0  0  0  0
  5 40  1  0  0  0  0
  6 41  1  0  0  0  0
  7 42  1  0  0  0  0
  8 43  1  0  0  0  0
  9 44  1  0  0  0  0
 10 45  1  0  0  0  0
 19 46  1  0  0  0  0
 19 47  1  0  0  0  0
 20 48  1  0  0  0  0
 20 49  1  0  0  0  0
 21 50  1  0  0  0  0
 21 51  1  0  0  0  0
 22 52  1  0  0  0  0
 22 53  1  0  0  0  0
 25 54  1  0  0  0  0
 25 55  1  0  0  0  0
 30 56  1  0  0  0  0
 31 57  1  0  0  0  0
 31 58  1  0  0  0  0
M  CHG  1  30   1
M  END
> <compound>
LUO-POS-eaf50f21-1

> <compound_smiles>
c1ccc2c(c1)cncc2N3C(=O)C4(CN(Cc5c4cc(cc5)Cl)S(=O)(=O)CC6(CC6)C#N)N=C3N

> <enantiomer_smiles>
c1ccc2c(c1)cncc2N3C(=O)C4(C[N@](Cc5c4cc(cc5)Cl)S(=O)(=O)CC6(CC6)C#N)N=C3N

> <scaffold>
tetrahydroisoquinoline-5spiro-isoquinoline

> <clash_score>
0

> <docking_score>
-7.435683250427246

> <overlap_score>
1.0

> <MMFF_internal_energy>
16.08680944606417

> <docked_smiles>
c1ccc2c(c1)cncc2N3C(=O)[C@@]4(C[N@](Cc5c4cc(cc5)Cl)S(=O)(=O)CC6(CC6)C#N)[NH+]=C3N

$$$$
EDJ-MED-9f4ac58c-1_1
  -OEChem-12272114583D

 57 62  0     1  0  0  0  0  0999 V2000
    7.6188    5.2281   23.1262 C   0  0  0  0  0  0  0  0  0  0  0  0
    4.8973    1.0233   21.2988 C   0  0  0  0  0  0  0  0  0  0  0  0
   12.0765    0.0316   24.1541 C   0  0  0  0  0  0  0  0  0  0  0  0
    3.8960    1.9291   21.5050 C   0  0  0  0  0  0  0  0  0  0  0  0
   12.9132   -0.6032   23.2569 C   0  0  0  0  0  0  0  0  0  0  0  0
    3.7865    2.4205   19.1660 C   0  0  0  0  0  0  0  0  0  0  0  0
   10.9991   -1.4331   22.0443 C   0  0  0  0  0  0  0  0  0  0  0  0
    5.3278    1.2339   17.6066 C   0  0  0  0  0  0  0  0  0  0  0  0
    6.8438   -0.2892   18.3752 C   0  0  0  0  0  0  0  0  0  0  0  0
    5.3982    0.7733   19.9948 C   0  0  0  0  0  0  0  0  0  0  0  0
    4.8226    1.4906   18.9054 C   0  0  0  0  0  0  0  0  0  0  0  0
   10.7040   -0.0625   23.9898 C   0  0  0  0  0  0  0  0  0  0  0  0
   10.1406   -0.7765   22.9250 C   0  0  0  0  0  0  0  0  0  0  0  0
    6.4440   -0.1472   19.6979 C   0  0  0  0  0  0  0  0  0  0  0  0
    3.3432    2.6279   20.4411 C   0  0  0  0  0  0  0  0  0  0  0  0
   12.3683   -1.3298   22.2234 C   0  0  0  0  0  0  0  0  0  0  0  0
    9.9479    0.5589   24.9534 C   0  0  0  0  0  0  0  0  0  0  0  0
    8.2490    0.0169   21.4271 C   0  0  0  0  0  0  0  0  0  0  0  0
    9.9922    5.8998   23.6472 C   0  0  0  0  0  0  0  0  0  0  0  0
    9.2734    5.7498   24.9553 C   0  0  0  0  0  0  0  0  0  0  0  0
    8.0140   -2.1541   22.4331 C   0  0  0  0  0  0  0  0  0  0  0  0
    6.9866   -1.9366   21.3580 C   0  0  0  0  0  0  0  0  0  0  0  0
    7.8721   -0.1194   23.8831 C   0  0  0  0  0  0  0  0  0  0  0  0
    8.8635    4.9012   23.7725 C   0  0  0  0  0  0  0  0  0  0  0  0
    8.6238   -0.7606   22.6929 C   0  0  3  0  0  0  0  0  0  0  0  0
    9.2137    3.4302   23.7961 C   0  0  0  0  0  0  0  0  0  0  0  0
    6.6159    5.4914   22.6056 N   0  0  0  0  0  0  0  0  0  0  0  0
    6.3062    0.3769   17.3421 N   0  0  0  0  0  0  0  0  0  0  0  0
    7.2292   -0.6897   20.7790 N   0  0  0  0  0  0  0  0  0  0  0  0
    8.6609    1.0133   24.4995 N   0  0  0  0  0  0  0  0  0  0  0  0
   10.3149    0.7350   26.1235 O   0  0  0  0  0  0  0  0  0  0  0  0
    8.8183    1.0411   21.0761 O   0  0  0  0  0  0  0  0  0  0  0  0
    8.0349    2.8632   26.0580 O   0  0  0  0  0  0  0  0  0  0  0  0
    6.7654    2.5231   23.8997 O   0  0  0  0  0  0  0  0  0  0  0  0
    7.9905    2.4844   24.6644 S   0  0  0  0  0  0  0  0  0  0  0  0
    2.0796    3.7712   20.7461 Cl  0  0  0  0  0  0  0  0  0  0  0  0
   13.4278   -2.1472   21.1141 Cl  0  0  0  0  0  0  0  0  0  0  0  0
    5.3117    0.4892   22.1570 H   0  0  0  0  0  0  0  0  0  0  0  0
   12.5173    0.5967   24.9711 H   0  0  0  0  0  0  0  0  0  0  0  0
    3.5279    2.1039   22.5232 H   0  0  0  0  0  0  0  0  0  0  0  0
   13.9906   -0.5212   23.3817 H   0  0  0  0  0  0  0  0  0  0  0  0
    3.3507    2.9677   18.3253 H   0  0  0  0  0  0  0  0  0  0  0  0
   10.6155   -2.0259   21.2280 H   0  0  0  0  0  0  0  0  0  0  0  0
    4.9139    1.7517   16.7478 H   0  0  0  0  0  0  0  0  0  0  0  0
    7.6451   -0.9758   18.1045 H   0  0  0  0  0  0  0  0  0  0  0  0
    9.8269    6.8121   23.0852 H   0  0  0  0  0  0  0  0  0  0  0  0
   11.0086    5.5282   23.5865 H   0  0  0  0  0  0  0  0  0  0  0  0
    9.8088    5.2784   25.7714 H   0  0  0  0  0  0  0  0  0  0  0  0
    8.6278    6.5623   25.2689 H   0  0  0  0  0  0  0  0  0  0  0  0
    7.5103   -2.5286   23.3380 H   0  0  0  0  0  0  0  0  0  0  0  0
    8.7576   -2.9098   22.1428 H   0  0  0  0  0  0  0  0  0  0  0  0
    7.0600   -2.7254   20.5723 H   0  0  0  0  0  0  0  0  0  0  0  0
    5.9510   -1.9973   21.7704 H   0  0  0  0  0  0  0  0  0  0  0  0
    6.8972    0.2928   23.5636 H   0  0  0  0  0  0  0  0  0  0  0  0
    7.6441   -0.8835   24.6470 H   0  0  0  0  0  0  0  0  0  0  0  0
   10.1689    3.2634   24.3017 H   0  0  0  0  0  0  0  0  0  0  0  0
    9.2740    3.0259   22.7821 H   0  0  0  0  0  0  0  0  0  0  0  0
  1 24  1  0  0  0  0
  1 27  3  0  0  0  0
  2  4  1  0  0  0  0
  2 10  2  0  0  0  0
  3  5  1  0  0  0  0
  3 12  2  0  0  0  0
  4 15  2  0  0  0  0
  5 16  2  0  0  0  0
  6 11  2  0  0  0  0
  6 15  1  0  0  0  0
  7 13  2  0  0  0  0
  7 16  1  0  0  0  0
  8 11  1  0  0  0  0
  8 28  2  0  0  0  0
  9 14  2  0  0  0  0
  9 28  1  0  0  0  0
 10 11  1  0  0  0  0
 10 14  1  0  0  0  0
 12 13  1  0  0  0  0
 12 17  1  0  0  0  0
 13 25  1  0  0  0  0
 14 29  1  0  0  0  0
 15 36  1  0  0  0  0
 16 37  1  0  0  0  0
 17 30  1  0  0  0  0
 17 31  2  0  0  0  0
 18 25  1  0  0  0  0
 18 29  1  0  0  0  0
 18 32  2  0  0  0  0
 19 20  1  0  0  0  0
 19 24  1  0  0  0  0
 20 24  1  0  0  0  0
 21 22  1  0  0  0  0
 21 25  1  0  0  0  0
 22 29  1  0  0  0  0
 23 25  1  0  0  0  0
 23 30  1  0  0  0  0
 24 26  1  0  0  0  0
 26 35  1  0  0  0  0
 30 35  1  0  0  0  0
 33 35  2  0  0  0  0
 34 35  2  0  0  0  0
  2 38  1  0  0  0  0
  3 39  1  0  0  0  0
  4 40  1  0  0  0  0
  5 41  1  0  0  0  0
  6 42  1  0  0  0  0
  7 43  1  0  0  0  0
  8 44  1  0  0  0  0
  9 45  1  0  0  0  0
 19 46  1  0  0  0  0
 19 47  1  0  0  0  0
 20 48  1  0  0  0  0
 20 49  1  0  0  0  0
 21 50  1  0  0  0  0
 21 51  1  0  0  0  0
 22 52  1  0  0  0  0
 22 53  1  0  0  0  0
 23 54  1  0  0  0  0
 23 55  1  0  0  0  0
 26 56  1  0  0  0  0
 26 57  1  0  0  0  0
M  END
> <compound>
EDJ-MED-9f4ac58c-1

> <compound_smiles>
c1cc2c(cc1Cl)cncc2N3CCC4(C3=O)CN(C(=O)c5c4cc(cc5)Cl)S(=O)(=O)CC6(CC6)C#N

> <enantiomer_smiles>
c1cc2c(cc1Cl)cncc2N3CCC4(C3=O)CN(C(=O)c5c4cc(cc5)Cl)S(=O)(=O)CC6(CC6)C#N

> <scaffold>
tetrahydroisoquinoline-5spiro-isoquinoline

> <clash_score>
0

> <docking_score>
-8.259747505187988

> <overlap_score>
0.9866766333580017

> <MMFF_internal_energy>
91.70807244225219

> <docked_smiles>
c1cc2c(cc1Cl)cncc2N3CC[C@@]4(C3=O)CN(C(=O)c5c4cc(cc5)Cl)S(=O)(=O)CC6(CC6)C#N

$$$$
MAT-POS-853c0ffa-6_2
  -OEChem-12272114583D

 58 63  0     1  0  0  0  0  0999 V2000
    7.3205    3.4054   22.7658 C   0  0  0  0  0  0  0  0  0  0  0  0
   12.0765    0.0316   24.1541 C   0  0  0  0  0  0  0  0  0  0  0  0
   12.9132   -0.6032   23.2569 C   0  0  0  0  0  0  0  0  0  0  0  0
    3.7865    2.4205   19.1660 C   0  0  0  0  0  0  0  0  0  0  0  0
   10.9991   -1.4331   22.0443 C   0  0  0  0  0  0  0  0  0  0  0  0
    3.8960    1.9291   21.5050 C   0  0  0  0  0  0  0  0  0  0  0  0
    5.3278    1.2339   17.6066 C   0  0  0  0  0  0  0  0  0  0  0  0
    6.8438   -0.2892   18.3752 C   0  0  0  0  0  0  0  0  0  0  0  0
    4.8226    1.4906   18.9054 C   0  0  0  0  0  0  0  0  0  0  0  0
    5.3982    0.7733   19.9948 C   0  0  0  0  0  0  0  0  0  0  0  0
   10.7040   -0.0625   23.9898 C   0  0  0  0  0  0  0  0  0  0  0  0
   10.1406   -0.7765   22.9250 C   0  0  0  0  0  0  0  0  0  0  0  0
    6.4440   -0.1472   19.6979 C   0  0  0  0  0  0  0  0  0  0  0  0
    3.3432    2.6279   20.4411 C   0  0  0  0  0  0  0  0  0  0  0  0
   12.3683   -1.3298   22.2234 C   0  0  0  0  0  0  0  0  0  0  0  0
    4.8973    1.0233   21.2988 C   0  0  0  0  0  0  0  0  0  0  0  0
    8.2490    0.0169   21.4271 C   0  0  0  0  0  0  0  0  0  0  0  0
    9.9479    0.5589   24.9534 C   0  0  0  0  0  0  0  0  0  0  0  0
    9.8217    3.1213   22.9038 C   0  0  0  0  0  0  0  0  0  0  0  0
    9.5383    4.5944   22.9183 C   0  0  0  0  0  0  0  0  0  0  0  0
    8.0140   -2.1541   22.4331 C   0  0  0  0  0  0  0  0  0  0  0  0
    6.9866   -1.9366   21.3580 C   0  0  0  0  0  0  0  0  0  0  0  0
    7.8721   -0.1194   23.8831 C   0  0  0  0  0  0  0  0  0  0  0  0
    8.5331    3.6312   23.5091 C   0  0  0  0  0  0  0  0  0  0  0  0
    8.6238   -0.7606   22.6929 C   0  0  3  0  0  0  0  0  0  0  0  0
    8.3874    3.5882   25.0137 C   0  0  0  0  0  0  0  0  0  0  0  0
    6.3436    3.2234   22.1669 N   0  0  0  0  0  0  0  0  0  0  0  0
    6.3062    0.3769   17.3421 N   0  0  0  0  0  0  0  0  0  0  0  0
    7.2292   -0.6897   20.7790 N   0  0  0  0  0  0  0  0  0  0  0  0
    8.6609    1.0133   24.4995 N   0  0  2  0  0  0  0  0  0  0  0  0
    8.8299    1.0397   21.0799 O   0  0  0  0  0  0  0  0  0  0  0  0
    8.2407    1.8013   26.9144 O   0  0  0  0  0  0  0  0  0  0  0  0
    6.3653    1.9471   25.2271 O   0  0  0  0  0  0  0  0  0  0  0  0
    2.3578    3.5185   20.6801 F   0  0  0  0  0  0  0  0  0  0  0  0
    7.7708    2.0177   25.5632 S   0  0  0  0  0  0  0  0  0  0  0  0
   13.4272   -2.1411   21.1086 Cl  0  0  0  0  0  0  0  0  0  0  0  0
    5.4641    0.2478   22.7523 Cl  0  0  0  0  0  0  0  0  0  0  0  0
   12.5024    0.5995   24.9735 H   0  0  0  0  0  0  0  0  0  0  0  0
   13.9910   -0.5177   23.3793 H   0  0  0  0  0  0  0  0  0  0  0  0
    3.3399    2.9748   18.3374 H   0  0  0  0  0  0  0  0  0  0  0  0
   10.6036   -2.0162   21.2241 H   0  0  0  0  0  0  0  0  0  0  0  0
    3.4981    2.1315   22.5077 H   0  0  0  0  0  0  0  0  0  0  0  0
    4.9136    1.7513   16.7477 H   0  0  0  0  0  0  0  0  0  0  0  0
    7.6458   -0.9737   18.1006 H   0  0  0  0  0  0  0  0  0  0  0  0
    9.7849   -0.1194   25.8306 H   0  0  0  0  0  0  0  0  0  0  0  0
   10.4793    1.4568   25.3613 H   0  0  0  0  0  0  0  0  0  0  0  0
    9.7878    2.6129   21.9468 H   0  0  0  0  0  0  0  0  0  0  0  0
   10.5952    2.7515   23.5670 H   0  0  0  0  0  0  0  0  0  0  0  0
   10.1228    5.2116   23.5908 H   0  0  0  0  0  0  0  0  0  0  0  0
    9.3157    5.0716   21.9707 H   0  0  0  0  0  0  0  0  0  0  0  0
    7.5152   -2.5456   23.3338 H   0  0  0  0  0  0  0  0  0  0  0  0
    8.7649   -2.9030   22.1434 H   0  0  0  0  0  0  0  0  0  0  0  0
    7.0587   -2.7248   20.5721 H   0  0  0  0  0  0  0  0  0  0  0  0
    5.9518   -1.9952   21.7720 H   0  0  0  0  0  0  0  0  0  0  0  0
    6.8867    0.2641   23.5642 H   0  0  0  0  0  0  0  0  0  0  0  0
    7.6652   -0.8660   24.6733 H   0  0  0  0  0  0  0  0  0  0  0  0
    7.6838    4.3500   25.3607 H   0  0  0  0  0  0  0  0  0  0  0  0
    9.3513    3.7460   25.5050 H   0  0  0  0  0  0  0  0  0  0  0  0
  1 24  1  0  0  0  0
  1 27  3  0  0  0  0
  2  3  1  0  0  0  0
  2 11  2  0  0  0  0
  3 15  2  0  0  0  0
  4  9  1  0  0  0  0
  4 14  2  0  0  0  0
  5 12  2  0  0  0  0
  5 15  1  0  0  0  0
  6 14  1  0  0  0  0
  6 16  2  0  0  0  0
  7  9  2  0  0  0  0
  7 28  1  0  0  0  0
  8 13  1  0  0  0  0
  8 28  2  0  0  0  0
  9 10  1  0  0  0  0
 10 13  2  0  0  0  0
 10 16  1  0  0  0  0
 11 12  1  0  0  0  0
 11 18  1  0  0  0  0
 12 25  1  0  0  0  0
 13 29  1  0  0  0  0
 14 34  1  0  0  0  0
 15 36  1  0  0  0  0
 16 37  1  0  0  0  0
 17 25  1  0  0  0  0
 17 29  1  0  0  0  0
 17 31  2  0  0  0  0
 18 30  1  0  0  0  0
 19 20  1  0  0  0  0
 19 24  1  0  0  0  0
 20 24  1  0  0  0  0
 21 22  1  0  0  0  0
 21 25  1  0  0  0  0
 22 29  1  0  0  0  0
 23 25  1  0  0  0  0
 23 30  1  0  0  0  0
 24 26  1  0  0  0  0
 26 35  1  0  0  0  0
 30 35  1  6  0  0  0
 32 35  2  0  0  0  0
 33 35  2  0  0  0  0
  2 38  1  0  0  0  0
  3 39  1  0  0  0  0
  4 40  1  0  0  0  0
  5 41  1  0  0  0  0
  6 42  1  0  0  0  0
  7 43  1  0  0  0  0
  8 44  1  0  0  0  0
 18 45  1  0  0  0  0
 18 46  1  0  0  0  0
 19 47  1  0  0  0  0
 19 48  1  0  0  0  0
 20 49  1  0  0  0  0
 20 50  1  0  0  0  0
 21 51  1  0  0  0  0
 21 52  1  0  0  0  0
 22 53  1  0  0  0  0
 22 54  1  0  0  0  0
 23 55  1  0  0  0  0
 23 56  1  0  0  0  0
 26 57  1  0  0  0  0
 26 58  1  0  0  0  0
M  END
> <compound>
MAT-POS-853c0ffa-6

> <compound_smiles>
c1cc2c(cc1Cl)C3(CCN(C3=O)c4cncc5c4c(cc(c5)F)Cl)CN(C2)S(=O)(=O)CC6(CC6)C#N

> <enantiomer_smiles>
c1cc2c(cc1Cl)C3(CCN(C3=O)c4cncc5c4c(cc(c5)F)Cl)C[N@](C2)S(=O)(=O)CC6(CC6)C#N

> <scaffold>
tetrahydroisoquinoline-5spiro-isoquinoline

> <clash_score>
0

> <docking_score>
-8.799949645996094

> <overlap_score>
0.9904866218566895

> <MMFF_internal_energy>
186.7207185323856

> <docked_smiles>
c1cc2c(cc1Cl)[C@@]3(CCN(C3=O)c4cncc5c4c(cc(c5)F)Cl)C[N@](C2)S(=O)(=O)CC6(CC6)C#N

$$$$
ALP-POS-ecbed2ba-1_1
  -OEChem-12272114583D

 63 68  0     1  0  0  0  0  0999 V2000
    3.3432    2.6279   20.4411 C   0  0  0  0  0  0  0  0  0  0  0  0
    3.8960    1.9291   21.5050 C   0  0  0  0  0  0  0  0  0  0  0  0
    3.7865    2.4205   19.1660 C   0  0  0  0  0  0  0  0  0  0  0  0
    4.8973    1.0233   21.2988 C   0  0  0  0  0  0  0  0  0  0  0  0
   12.0765    0.0316   24.1541 C   0  0  0  0  0  0  0  0  0  0  0  0
   12.9132   -0.6032   23.2569 C   0  0  0  0  0  0  0  0  0  0  0  0
   10.9991   -1.4331   22.0443 C   0  0  0  0  0  0  0  0  0  0  0  0
    5.3278    1.2339   17.6066 C   0  0  0  0  0  0  0  0  0  0  0  0
    6.8438   -0.2892   18.3752 C   0  0  0  0  0  0  0  0  0  0  0  0
    4.8226    1.4906   18.9054 C   0  0  0  0  0  0  0  0  0  0  0  0
    5.3982    0.7733   19.9948 C   0  0  0  0  0  0  0  0  0  0  0  0
   10.7040   -0.0625   23.9898 C   0  0  0  0  0  0  0  0  0  0  0  0
   10.1406   -0.7765   22.9250 C   0  0  0  0  0  0  0  0  0  0  0  0
    6.4440   -0.1472   19.6979 C   0  0  0  0  0  0  0  0  0  0  0  0
   12.3683   -1.3298   22.2234 C   0  0  0  0  0  0  0  0  0  0  0  0
    8.2490    0.0169   21.4271 C   0  0  0  0  0  0  0  0  0  0  0  0
    9.9479    0.5589   24.9534 C   0  0  0  0  0  0  0  0  0  0  0  0
    8.0140   -2.1541   22.4331 C   0  0  0  0  0  0  0  0  0  0  0  0
    6.9866   -1.9366   21.3580 C   0  0  0  0  0  0  0  0  0  0  0  0
    7.8721   -0.1194   23.8831 C   0  0  0  0  0  0  0  0  0  0  0  0
    9.6127    5.4981   23.7925 C   0  0  0  0  0  0  0  0  0  0  0  0
    8.5399    6.0475   25.6873 C   0  0  0  0  0  0  0  0  0  0  0  0
    8.6238   -0.7606   22.6929 C   0  0  3  0  0  0  0  0  0  0  0  0
    8.3214    5.0316   24.5273 C   0  0  0  0  0  0  0  0  0  0  0  0
    7.0376    5.2764   23.7294 C   0  0  0  0  0  0  0  0  0  0  0  0
    8.3989    3.5932   24.9882 C   0  0  0  0  0  0  0  0  0  0  0  0
    6.3062    0.3769   17.3421 N   0  0  0  0  0  0  0  0  0  0  0  0
    7.2292   -0.6897   20.7790 N   0  0  0  0  0  0  0  0  0  0  0  0
    8.6609    1.0133   24.4995 N   0  0  2  0  0  0  0  0  0  0  0  0
    8.7572    1.0941   21.1350 O   0  0  0  0  0  0  0  0  0  0  0  0
    8.9012    8.0639   23.9766 O   0  0  0  0  0  0  0  0  0  0  0  0
   10.8889    7.2511   25.3376 O   0  0  0  0  0  0  0  0  0  0  0  0
    7.4179    2.5201   22.8172 O   0  0  0  0  0  0  0  0  0  0  0  0
    9.9251    2.7322   23.0499 O   0  0  0  0  0  0  0  0  0  0  0  0
    9.6178    7.0239   24.6837 S   0  0  0  0  0  0  0  0  0  0  0  0
    8.6198    2.4832   23.6217 S   0  0  0  0  0  0  0  0  0  0  0  0
   13.4275   -2.1421   21.1097 Cl  0  0  0  0  0  0  0  0  0  0  0  0
    2.5432    3.3510   20.6369 H   0  0  0  0  0  0  0  0  0  0  0  0
    3.5174    2.1137   22.5168 H   0  0  0  0  0  0  0  0  0  0  0  0
    3.3409    2.9743   18.3364 H   0  0  0  0  0  0  0  0  0  0  0  0
    5.3118    0.4895   22.1572 H   0  0  0  0  0  0  0  0  0  0  0  0
   12.5015    0.5938   24.9776 H   0  0  0  0  0  0  0  0  0  0  0  0
   13.9911   -0.5212   23.3814 H   0  0  0  0  0  0  0  0  0  0  0  0
   10.6037   -2.0228   21.2288 H   0  0  0  0  0  0  0  0  0  0  0  0
    4.9141    1.7511   16.7474 H   0  0  0  0  0  0  0  0  0  0  0  0
    7.6445   -0.9764   18.1043 H   0  0  0  0  0  0  0  0  0  0  0  0
    9.7581   -0.1287   25.8173 H   0  0  0  0  0  0  0  0  0  0  0  0
   10.4931    1.4391   25.3829 H   0  0  0  0  0  0  0  0  0  0  0  0
    7.5801   -2.6060   23.3366 H   0  0  0  0  0  0  0  0  0  0  0  0
    8.7749   -2.8608   22.0657 H   0  0  0  0  0  0  0  0  0  0  0  0
    7.0227   -2.7506   20.5953 H   0  0  0  0  0  0  0  0  0  0  0  0
    5.9554   -1.9484   21.7832 H   0  0  0  0  0  0  0  0  0  0  0  0
    6.8886    0.2769   23.5666 H   0  0  0  0  0  0  0  0  0  0  0  0
    7.6579   -0.8710   24.6633 H   0  0  0  0  0  0  0  0  0  0  0  0
   10.5106    4.9070   24.0022 H   0  0  0  0  0  0  0  0  0  0  0  0
    9.5245    5.6270   22.7097 H   0  0  0  0  0  0  0  0  0  0  0  0
    7.6492    6.5875   26.0218 H   0  0  0  0  0  0  0  0  0  0  0  0
    9.0590    5.6503   26.5662 H   0  0  0  0  0  0  0  0  0  0  0  0
    6.1805    4.9280   24.3008 H   0  0  0  0  0  0  0  0  0  0  0  0
    7.0851    4.7365   22.7867 H   0  0  0  0  0  0  0  0  0  0  0  0
    6.9289    6.3399   23.5301 H   0  0  0  0  0  0  0  0  0  0  0  0
    7.4792    3.2960   25.4995 H   0  0  0  0  0  0  0  0  0  0  0  0
    9.2447    3.4440   25.6648 H   0  0  0  0  0  0  0  0  0  0  0  0
  1  2  1  0  0  0  0
  1  3  2  0  0  0  0
  2  4  2  0  0  0  0
  3 10  1  0  0  0  0
  4 11  1  0  0  0  0
  5  6  2  0  0  0  0
  5 12  1  0  0  0  0
  6 15  1  0  0  0  0
  7 13  1  0  0  0  0
  7 15  2  0  0  0  0
  8 10  2  0  0  0  0
  8 27  1  0  0  0  0
  9 14  1  0  0  0  0
  9 27  2  0  0  0  0
 10 11  1  0  0  0  0
 11 14  2  0  0  0  0
 12 13  2  0  0  0  0
 12 17  1  0  0  0  0
 13 23  1  0  0  0  0
 14 28  1  0  0  0  0
 15 37  1  0  0  0  0
 16 23  1  0  0  0  0
 16 28  1  0  0  0  0
 16 30  2  0  0  0  0
 17 29  1  0  0  0  0
 18 19  1  0  0  0  0
 18 23  1  0  0  0  0
 19 28  1  0  0  0  0
 20 23  1  0  0  0  0
 20 29  1  0  0  0  0
 21 24  1  0  0  0  0
 21 35  1  0  0  0  0
 22 24  1  0  0  0  0
 22 35  1  0  0  0  0
 24 25  1  0  0  0  0
 24 26  1  0  0  0  0
 26 36  1  0  0  0  0
 29 36  1  1  0  0  0
 31 35  2  0  0  0  0
 32 35  2  0  0  0  0
 33 36  2  0  0  0  0
 34 36  2  0  0  0  0
  1 38  1  0  0  0  0
  2 39  1  0  0  0  0
  3 40  1  0  0  0  0
  4 41  1  0  0  0  0
  5 42  1  0  0  0  0
  6 43  1  0  0  0  0
  7 44  1  0  0  0  0
  8 45  1  0  0  0  0
  9 46  1  0  0  0  0
 17 47  1  0  0  0  0
 17 48  1  0  0  0  0
 18 49  1  0  0  0  0
 18 50  1  0  0  0  0
 19 51  1  0  0  0  0
 19 52  1  0  0  0  0
 20 53  1  0  0  0  0
 20 54  1  0  0  0  0
 21 55  1  0  0  0  0
 21 56  1  0  0  0  0
 22 57  1  0  0  0  0
 22 58  1  0  0  0  0
 25 59  1  0  0  0  0
 25 60  1  0  0  0  0
 25 61  1  0  0  0  0
 26 62  1  0  0  0  0
 26 63  1  0  0  0  0
M  END
> <compound>
ALP-POS-ecbed2ba-1

> <compound_smiles>
CC1(CS(=O)(=O)C1)CS(=O)(=O)N2Cc3ccc(cc3C4(C2)CCN(C4=O)c5cncc6c5cccc6)Cl

> <enantiomer_smiles>
CC1(CS(=O)(=O)C1)CS(=O)(=O)[N@@]2Cc3ccc(cc3C4(C2)CCN(C4=O)c5cncc6c5cccc6)Cl

> <scaffold>
tetrahydroisoquinoline-5spiro-isoquinoline

> <clash_score>
0

> <docking_score>
-9.690506935119629

> <overlap_score>
0.9708684086799622

> <MMFF_internal_energy>
105.25172774231417

> <docked_smiles>
CC1(CS(=O)(=O)C1)CS(=O)(=O)[N@@]2Cc3ccc(cc3[C@]4(C2)CCN(C4=O)c5cncc6c5cccc6)Cl

$$$$
EDJ-MED-9f4ac58c-5_1
  -OEChem-12272114583D

 60 65  0     1  0  0  0  0  0999 V2000
    4.8973    1.0233   21.2988 C   0  0  0  0  0  0  0  0  0  0  0  0
   12.0765    0.0316   24.1541 C   0  0  0  0  0  0  0  0  0  0  0  0
    3.8960    1.9291   21.5050 C   0  0  0  0  0  0  0  0  0  0  0  0
   12.9132   -0.6032   23.2569 C   0  0  0  0  0  0  0  0  0  0  0  0
    3.7865    2.4205   19.1660 C   0  0  0  0  0  0  0  0  0  0  0  0
   10.9991   -1.4331   22.0443 C   0  0  0  0  0  0  0  0  0  0  0  0
    5.3278    1.2339   17.6066 C   0  0  0  0  0  0  0  0  0  0  0  0
    6.8438   -0.2892   18.3752 C   0  0  0  0  0  0  0  0  0  0  0  0
    5.3982    0.7733   19.9948 C   0  0  0  0  0  0  0  0  0  0  0  0
    4.8226    1.4906   18.9054 C   0  0  0  0  0  0  0  0  0  0  0  0
   10.7040   -0.0625   23.9898 C   0  0  0  0  0  0  0  0  0  0  0  0
   10.1406   -0.7765   22.9250 C   0  0  0  0  0  0  0  0  0  0  0  0
    6.4440   -0.1472   19.6979 C   0  0  0  0  0  0  0  0  0  0  0  0
    3.3432    2.6279   20.4411 C   0  0  0  0  0  0  0  0  0  0  0  0
   12.3683   -1.3298   22.2234 C   0  0  0  0  0  0  0  0  0  0  0  0
    9.9479    0.5589   24.9534 C   0  0  0  0  0  0  0  0  0  0  0  0
    8.2490    0.0169   21.4271 C   0  0  0  0  0  0  0  0  0  0  0  0
    7.8661    5.4226   22.7736 C   0  0  0  0  0  0  0  0  0  0  0  0
    7.5079    5.3647   24.2327 C   0  0  0  0  0  0  0  0  0  0  0  0
    8.0140   -2.1541   22.4331 C   0  0  0  0  0  0  0  0  0  0  0  0
    6.9866   -1.9366   21.3580 C   0  0  0  0  0  0  0  0  0  0  0  0
    7.8721   -0.1194   23.8831 C   0  0  0  0  0  0  0  0  0  0  0  0
    8.6238   -0.7606   22.6929 C   0  0  3  0  0  0  0  0  0  0  0  0
    8.8635    4.9012   23.7725 C   0  0  0  0  0  0  0  0  0  0  0  0
   10.9592    5.6953   23.0651 C   0  0  0  0  0  0  0  0  0  0  0  0
    9.2137    3.4302   23.7961 C   0  0  0  0  0  0  0  0  0  0  0  0
    6.3062    0.3769   17.3421 N   0  0  0  0  0  0  0  0  0  0  0  0
    7.2292   -0.6897   20.7790 N   0  0  0  0  0  0  0  0  0  0  0  0
    8.6609    1.0133   24.4995 N   0  0  0  0  0  0  0  0  0  0  0  0
   10.3149    0.7350   26.1235 O   0  0  0  0  0  0  0  0  0  0  0  0
    8.8183    1.0411   21.0761 O   0  0  0  0  0  0  0  0  0  0  0  0
    8.0349    2.8632   26.0580 O   0  0  0  0  0  0  0  0  0  0  0  0
    6.7654    2.5231   23.8997 O   0  0  0  0  0  0  0  0  0  0  0  0
    9.9675    5.7713   24.0722 O   0  0  0  0  0  0  0  0  0  0  0  0
    7.9905    2.4844   24.6644 S   0  0  0  0  0  0  0  0  0  0  0  0
    2.0796    3.7712   20.7461 Cl  0  0  0  0  0  0  0  0  0  0  0  0
   13.4278   -2.1472   21.1141 Cl  0  0  0  0  0  0  0  0  0  0  0  0
    5.3117    0.4892   22.1570 H   0  0  0  0  0  0  0  0  0  0  0  0
   12.5173    0.5967   24.9711 H   0  0  0  0  0  0  0  0  0  0  0  0
    3.5279    2.1039   22.5232 H   0  0  0  0  0  0  0  0  0  0  0  0
   13.9906   -0.5212   23.3817 H   0  0  0  0  0  0  0  0  0  0  0  0
    3.3507    2.9677   18.3253 H   0  0  0  0  0  0  0  0  0  0  0  0
   10.6155   -2.0259   21.2280 H   0  0  0  0  0  0  0  0  0  0  0  0
    4.9139    1.7517   16.7478 H   0  0  0  0  0  0  0  0  0  0  0  0
    7.6451   -0.9758   18.1045 H   0  0  0  0  0  0  0  0  0  0  0  0
    7.3811    4.7175   22.1094 H   0  0  0  0  0  0  0  0  0  0  0  0
    8.0405    6.3984   22.3366 H   0  0  0  0  0  0  0  0  0  0  0  0
    7.4421    6.3019   24.7725 H   0  0  0  0  0  0  0  0  0  0  0  0
    6.7842    4.6207   24.5428 H   0  0  0  0  0  0  0  0  0  0  0  0
    7.5103   -2.5286   23.3380 H   0  0  0  0  0  0  0  0  0  0  0  0
    8.7576   -2.9098   22.1428 H   0  0  0  0  0  0  0  0  0  0  0  0
    7.0600   -2.7254   20.5723 H   0  0  0  0  0  0  0  0  0  0  0  0
    5.9510   -1.9973   21.7704 H   0  0  0  0  0  0  0  0  0  0  0  0
    6.8972    0.2928   23.5636 H   0  0  0  0  0  0  0  0  0  0  0  0
    7.6441   -0.8835   24.6470 H   0  0  0  0  0  0  0  0  0  0  0  0
   11.7860    6.3644   23.3157 H   0  0  0  0  0  0  0  0  0  0  0  0
   10.5253    5.9794   22.1031 H   0  0  0  0  0  0  0  0  0  0  0  0
   11.3289    4.6688   23.0070 H   0  0  0  0  0  0  0  0  0  0  0  0
   10.1689    3.2634   24.3017 H   0  0  0  0  0  0  0  0  0  0  0  0
    9.2740    3.0259   22.7821 H   0  0  0  0  0  0  0  0  0  0  0  0
  1  3  2  0  0  0  0
  1  9  1  0  0  0  0
  2  4  2  0  0  0  0
  2 11  1  0  0  0  0
  3 14  1  0  0  0  0
  4 15  1  0  0  0  0
  5 10  1  0  0  0  0
  5 14  2  0  0  0  0
  6 12  1  0  0  0  0
  6 15  2  0  0  0  0
  7 10  2  0  0  0  0
  7 27  1  0  0  0  0
  8 13  1  0  0  0  0
  8 27  2  0  0  0  0
  9 10  1  0  0  0  0
  9 13  2  0  0  0  0
 11 12  2  0  0  0  0
 11 16  1  0  0  0  0
 12 23  1  0  0  0  0
 13 28  1  0  0  0  0
 14 36  1  0  0  0  0
 15 37  1  0  0  0  0
 16 29  1  0  0  0  0
 16 30  2  0  0  0  0
 17 23  1  0  0  0  0
 17 28  1  0  0  0  0
 17 31  2  0  0  0  0
 18 19  1  0  0  0  0
 18 24  1  0  0  0  0
 19 24  1  0  0  0  0
 20 21  1  0  0  0  0
 20 23  1  0  0  0  0
 21 28  1  0  0  0  0
 22 23  1  0  0  0  0
 22 29  1  0  0  0  0
 24 26  1  0  0  0  0
 24 34  1  0  0  0  0
 25 34  1  0  0  0  0
 26 35  1  0  0  0  0
 29 35  1  0  0  0  0
 32 35  2  0  0  0  0
 33 35  2  0  0  0  0
  1 38  1  0  0  0  0
  2 39  1  0  0  0  0
  3 40  1  0  0  0  0
  4 41  1  0  0  0  0
  5 42  1  0  0  0  0
  6 43  1  0  0  0  0
  7 44  1  0  0  0  0
  8 45  1  0  0  0  0
 18 46  1  0  0  0  0
 18 47  1  0  0  0  0
 19 48  1  0  0  0  0
 19 49  1  0  0  0  0
 20 50  1  0  0  0  0
 20 51  1  0  0  0  0
 21 52  1  0  0  0  0
 21 53  1  0  0  0  0
 22 54  1  0  0  0  0
 22 55  1  0  0  0  0
 25 56  1  0  0  0  0
 25 57  1  0  0  0  0
 25 58  1  0  0  0  0
 26 59  1  0  0  0  0
 26 60  1  0  0  0  0
M  END
> <compound>
EDJ-MED-9f4ac58c-5

> <compound_smiles>
COC1(CC1)CS(=O)(=O)N2CC3(CCN(C3=O)c4cncc5c4ccc(c5)Cl)c6cc(ccc6C2=O)Cl

> <enantiomer_smiles>
COC1(CC1)CS(=O)(=O)N2CC3(CCN(C3=O)c4cncc5c4ccc(c5)Cl)c6cc(ccc6C2=O)Cl

> <scaffold>
tetrahydroisoquinoline-5spiro-isoquinoline

> <clash_score>
0

> <docking_score>
-8.413485527038574

> <overlap_score>
0.986721932888031

> <MMFF_internal_energy>
111.93533197362896

> <docked_smiles>
COC1(CC1)CS(=O)(=O)N2C[C@]3(CCN(C3=O)c4cncc5c4ccc(c5)Cl)c6cc(ccc6C2=O)Cl

$$$$
MAT-POS-853c0ffa-8_1
  -OEChem-12272114583D

 61 66  0     1  0  0  0  0  0999 V2000
   12.0765    0.0316   24.1541 C   0  0  0  0  0  0  0  0  0  0  0  0
   12.9132   -0.6032   23.2569 C   0  0  0  0  0  0  0  0  0  0  0  0
    3.7865    2.4205   19.1660 C   0  0  0  0  0  0  0  0  0  0  0  0
   10.9991   -1.4331   22.0443 C   0  0  0  0  0  0  0  0  0  0  0  0
    3.8960    1.9291   21.5050 C   0  0  0  0  0  0  0  0  0  0  0  0
    5.3278    1.2339   17.6066 C   0  0  0  0  0  0  0  0  0  0  0  0
    6.8438   -0.2892   18.3752 C   0  0  0  0  0  0  0  0  0  0  0  0
    4.8226    1.4906   18.9054 C   0  0  0  0  0  0  0  0  0  0  0  0
    5.3982    0.7733   19.9948 C   0  0  0  0  0  0  0  0  0  0  0  0
   10.7040   -0.0625   23.9898 C   0  0  0  0  0  0  0  0  0  0  0  0
   10.1406   -0.7765   22.9250 C   0  0  0  0  0  0  0  0  0  0  0  0
    6.4440   -0.1472   19.6979 C   0  0  0  0  0  0  0  0  0  0  0  0
    3.3432    2.6279   20.4411 C   0  0  0  0  0  0  0  0  0  0  0  0
   12.3683   -1.3298   22.2234 C   0  0  0  0  0  0  0  0  0  0  0  0
    4.8973    1.0233   21.2988 C   0  0  0  0  0  0  0  0  0  0  0  0
    8.2490    0.0169   21.4271 C   0  0  0  0  0  0  0  0  0  0  0  0
    9.9479    0.5589   24.9534 C   0  0  0  0  0  0  0  0  0  0  0  0
    7.5775    5.3800   23.2665 C   0  0  0  0  0  0  0  0  0  0  0  0
    7.0196    5.7824   24.6035 C   0  0  0  0  0  0  0  0  0  0  0  0
    8.0140   -2.1541   22.4331 C   0  0  0  0  0  0  0  0  0  0  0  0
    6.9866   -1.9366   21.3580 C   0  0  0  0  0  0  0  0  0  0  0  0
    7.8721   -0.1194   23.8831 C   0  0  0  0  0  0  0  0  0  0  0  0
    8.6238   -0.7606   22.6929 C   0  0  3  0  0  0  0  0  0  0  0  0
    8.3214    5.0316   24.5273 C   0  0  0  0  0  0  0  0  0  0  0  0
   10.4527    5.6360   23.7430 C   0  0  0  0  0  0  0  0  0  0  0  0
    8.3989    3.5932   24.9882 C   0  0  0  0  0  0  0  0  0  0  0  0
    6.3062    0.3769   17.3421 N   0  0  0  0  0  0  0  0  0  0  0  0
    7.2292   -0.6897   20.7790 N   0  0  0  0  0  0  0  0  0  0  0  0
    8.6609    1.0133   24.4995 N   0  0  2  0  0  0  0  0  0  0  0  0
    8.7572    1.0941   21.1350 O   0  0  0  0  0  0  0  0  0  0  0  0
    7.4179    2.5201   22.8172 O   0  0  0  0  0  0  0  0  0  0  0  0
    9.9251    2.7322   23.0499 O   0  0  0  0  0  0  0  0  0  0  0  0
    9.5109    5.7951   24.7876 O   0  0  0  0  0  0  0  0  0  0  0  0
    2.3578    3.5185   20.6801 F   0  0  0  0  0  0  0  0  0  0  0  0
    8.6198    2.4832   23.6217 S   0  0  0  0  0  0  0  0  0  0  0  0
   13.4275   -2.1421   21.1097 Cl  0  0  0  0  0  0  0  0  0  0  0  0
    5.4641    0.2478   22.7523 Cl  0  0  0  0  0  0  0  0  0  0  0  0
   12.5015    0.5938   24.9776 H   0  0  0  0  0  0  0  0  0  0  0  0
   13.9911   -0.5212   23.3814 H   0  0  0  0  0  0  0  0  0  0  0  0
    3.3399    2.9748   18.3374 H   0  0  0  0  0  0  0  0  0  0  0  0
   10.6037   -2.0228   21.2288 H   0  0  0  0  0  0  0  0  0  0  0  0
    3.4981    2.1315   22.5077 H   0  0  0  0  0  0  0  0  0  0  0  0
    4.9136    1.7513   16.7477 H   0  0  0  0  0  0  0  0  0  0  0  0
    7.6458   -0.9737   18.1006 H   0  0  0  0  0  0  0  0  0  0  0  0
    9.7581   -0.1287   25.8173 H   0  0  0  0  0  0  0  0  0  0  0  0
   10.4931    1.4391   25.3829 H   0  0  0  0  0  0  0  0  0  0  0  0
    7.0702    4.5882   22.7287 H   0  0  0  0  0  0  0  0  0  0  0  0
    7.9799    6.1615   22.6333 H   0  0  0  0  0  0  0  0  0  0  0  0
    7.0481    6.8334   24.8653 H   0  0  0  0  0  0  0  0  0  0  0  0
    6.1401    5.2589   24.9585 H   0  0  0  0  0  0  0  0  0  0  0  0
    7.5801   -2.6060   23.3366 H   0  0  0  0  0  0  0  0  0  0  0  0
    8.7749   -2.8608   22.0657 H   0  0  0  0  0  0  0  0  0  0  0  0
    7.0227   -2.7506   20.5953 H   0  0  0  0  0  0  0  0  0  0  0  0
    5.9554   -1.9484   21.7832 H   0  0  0  0  0  0  0  0  0  0  0  0
    6.8886    0.2769   23.5666 H   0  0  0  0  0  0  0  0  0  0  0  0
    7.6579   -0.8710   24.6633 H   0  0  0  0  0  0  0  0  0  0  0  0
   11.3461    6.2251   23.9641 H   0  0  0  0  0  0  0  0  0  0  0  0
   10.0105    5.9651   22.7993 H   0  0  0  0  0  0  0  0  0  0  0  0
   10.7246    4.5805   23.6672 H   0  0  0  0  0  0  0  0  0  0  0  0
    7.4792    3.2960   25.4995 H   0  0  0  0  0  0  0  0  0  0  0  0
    9.2447    3.4440   25.6648 H   0  0  0  0  0  0  0  0  0  0  0  0
  1  2  2  0  0  0  0
  1 10  1  0  0  0  0
  2 14  1  0  0  0  0
  3  8  1  0  0  0  0
  3 13  2  0  0  0  0
  4 11  1  0  0  0  0
  4 14  2  0  0  0  0
  5 13  1  0  0  0  0
  5 15  2  0  0  0  0
  6  8  2  0  0  0  0
  6 27  1  0  0  0  0
  7 12  1  0  0  0  0
  7 27  2  0  0  0  0
  8  9  1  0  0  0  0
  9 12  2  0  0  0  0
  9 15  1  0  0  0  0
 10 11  2  0  0  0  0
 10 17  1  0  0  0  0
 11 23  1  0  0  0  0
 12 28  1  0  0  0  0
 13 34  1  0  0  0  0
 14 36  1  0  0  0  0
 15 37  1  0  0  0  0
 16 23  1  0  0  0  0
 16 28  1  0  0  0  0
 16 30  2  0  0  0  0
 17 29  1  0  0  0  0
 18 19  1  0  0  0  0
 18 24  1  0  0  0  0
 19 24  1  0  0  0  0
 20 21  1  0  0  0  0
 20 23  1  0  0  0  0
 21 28  1  0  0  0  0
 22 23  1  0  0  0  0
 22 29  1  0  0  0  0
 24 26  1  0  0  0  0
 24 33  1  0  0  0  0
 25 33  1  0  0  0  0
 26 35  1  0  0  0  0
 29 35  1  1  0  0  0
 31 35  2  0  0  0  0
 32 35  2  0  0  0  0
  1 38  1  0  0  0  0
  2 39  1  0  0  0  0
  3 40  1  0  0  0  0
  4 41  1  0  0  0  0
  5 42  1  0  0  0  0
  6 43  1  0  0  0  0
  7 44  1  0  0  0  0
 17 45  1  0  0  0  0
 17 46  1  0  0  0  0
 18 47  1  0  0  0  0
 18 48  1  0  0  0  0
 19 49  1  0  0  0  0
 19 50  1  0  0  0  0
 20 51  1  0  0  0  0
 20 52  1  0  0  0  0
 21 53  1  0  0  0  0
 21 54  1  0  0  0  0
 22 55  1  0  0  0  0
 22 56  1  0  0  0  0
 25 57  1  0  0  0  0
 25 58  1  0  0  0  0
 25 59  1  0  0  0  0
 26 60  1  0  0  0  0
 26 61  1  0  0  0  0
M  END
> <compound>
MAT-POS-853c0ffa-8

> <compound_smiles>
COC1(CC1)CS(=O)(=O)N2Cc3ccc(cc3C4(C2)CCN(C4=O)c5cncc6c5c(cc(c6)F)Cl)Cl

> <enantiomer_smiles>
COC1(CC1)CS(=O)(=O)[N@@]2Cc3ccc(cc3C4(C2)CCN(C4=O)c5cncc6c5c(cc(c6)F)Cl)Cl

> <scaffold>
tetrahydroisoquinoline-5spiro-isoquinoline

> <clash_score>
0

> <docking_score>
-9.62507152557373

> <overlap_score>
0.9897642731666565

> <MMFF_internal_energy>
208.35691067813053

> <docked_smiles>
COC1(CC1)CS(=O)(=O)[N@@]2Cc3ccc(cc3[C@]4(C2)CCN(C4=O)c5cncc6c5c(cc(c6)F)Cl)Cl

$$$$
ALP-POS-ecbed2ba-15_1
  -OEChem-12272114583D

 64 69  0     1  0  0  0  0  0999 V2000
    9.5806    5.4079   23.8370 C   0  0  0  0  0  0  0  0  0  0  0  0
    3.3432    2.6279   20.4411 C   0  0  0  0  0  0  0  0  0  0  0  0
    3.8960    1.9291   21.5050 C   0  0  0  0  0  0  0  0  0  0  0  0
    3.7865    2.4205   19.1660 C   0  0  0  0  0  0  0  0  0  0  0  0
    4.8973    1.0233   21.2988 C   0  0  0  0  0  0  0  0  0  0  0  0
   12.0765    0.0316   24.1541 C   0  0  0  0  0  0  0  0  0  0  0  0
   12.9132   -0.6032   23.2569 C   0  0  0  0  0  0  0  0  0  0  0  0
   10.9991   -1.4331   22.0443 C   0  0  0  0  0  0  0  0  0  0  0  0
    5.3278    1.2339   17.6066 C   0  0  0  0  0  0  0  0  0  0  0  0
    6.8438   -0.2892   18.3752 C   0  0  0  0  0  0  0  0  0  0  0  0
    4.8226    1.4906   18.9054 C   0  0  0  0  0  0  0  0  0  0  0  0
    5.3982    0.7733   19.9948 C   0  0  0  0  0  0  0  0  0  0  0  0
   10.7040   -0.0625   23.9898 C   0  0  0  0  0  0  0  0  0  0  0  0
   10.1406   -0.7765   22.9250 C   0  0  0  0  0  0  0  0  0  0  0  0
    6.4440   -0.1472   19.6979 C   0  0  0  0  0  0  0  0  0  0  0  0
   12.3683   -1.3298   22.2234 C   0  0  0  0  0  0  0  0  0  0  0  0
    8.2490    0.0169   21.4271 C   0  0  0  0  0  0  0  0  0  0  0  0
    9.9479    0.5589   24.9534 C   0  0  0  0  0  0  0  0  0  0  0  0
    7.4385    7.2530   25.0306 C   0  0  0  0  0  0  0  0  0  0  0  0
    6.8460    6.7939   23.6985 C   0  0  0  0  0  0  0  0  0  0  0  0
    8.0369    6.0069   25.6832 C   0  0  0  0  0  0  0  0  0  0  0  0
    7.1139    5.2916   23.6078 C   0  0  0  0  0  0  0  0  0  0  0  0
    8.0140   -2.1541   22.4331 C   0  0  0  0  0  0  0  0  0  0  0  0
    6.9866   -1.9366   21.3580 C   0  0  0  0  0  0  0  0  0  0  0  0
    7.8721   -0.1194   23.8831 C   0  0  0  0  0  0  0  0  0  0  0  0
    8.3207    5.0467   24.5217 C   0  0  0  0  0  0  0  0  0  0  0  0
    8.6238   -0.7606   22.6929 C   0  0  3  0  0  0  0  0  0  0  0  0
    8.3989    3.5937   24.9878 C   0  0  0  0  0  0  0  0  0  0  0  0
   10.5691    5.6914   23.2997 N   0  0  0  0  0  0  0  0  0  0  0  0
    6.3062    0.3769   17.3421 N   0  0  0  0  0  0  0  0  0  0  0  0
    7.2292   -0.6897   20.7790 N   0  0  0  0  0  0  0  0  0  0  0  0
    8.6609    1.0133   24.4995 N   0  0  1  0  0  0  0  0  0  0  0  0
    8.7572    1.0941   21.1350 O   0  0  0  0  0  0  0  0  0  0  0  0
    7.4202    2.5242   22.8140 O   0  0  0  0  0  0  0  0  0  0  0  0
    9.9275    2.7280   23.0534 O   0  0  0  0  0  0  0  0  0  0  0  0
    8.6198    2.4832   23.6217 S   0  0  0  0  0  0  0  0  0  0  0  0
   13.4275   -2.1421   21.1097 Cl  0  0  0  0  0  0  0  0  0  0  0  0
    2.5432    3.3510   20.6369 H   0  0  0  0  0  0  0  0  0  0  0  0
    3.5174    2.1137   22.5168 H   0  0  0  0  0  0  0  0  0  0  0  0
    3.3409    2.9743   18.3364 H   0  0  0  0  0  0  0  0  0  0  0  0
    5.3118    0.4895   22.1572 H   0  0  0  0  0  0  0  0  0  0  0  0
   12.5015    0.5938   24.9776 H   0  0  0  0  0  0  0  0  0  0  0  0
   13.9911   -0.5212   23.3814 H   0  0  0  0  0  0  0  0  0  0  0  0
   10.6037   -2.0228   21.2288 H   0  0  0  0  0  0  0  0  0  0  0  0
    4.9141    1.7511   16.7474 H   0  0  0  0  0  0  0  0  0  0  0  0
    7.6445   -0.9764   18.1043 H   0  0  0  0  0  0  0  0  0  0  0  0
    9.7581   -0.1287   25.8173 H   0  0  0  0  0  0  0  0  0  0  0  0
   10.4931    1.4391   25.3829 H   0  0  0  0  0  0  0  0  0  0  0  0
    8.2154    8.0059   24.8543 H   0  0  0  0  0  0  0  0  0  0  0  0
    6.6810    7.7112   25.6748 H   0  0  0  0  0  0  0  0  0  0  0  0
    5.7743    7.0092   23.6350 H   0  0  0  0  0  0  0  0  0  0  0  0
    7.3344    7.3218   22.8713 H   0  0  0  0  0  0  0  0  0  0  0  0
    8.9260    6.2506   26.2750 H   0  0  0  0  0  0  0  0  0  0  0  0
    7.2943    5.5750   26.3666 H   0  0  0  0  0  0  0  0  0  0  0  0
    6.2332    4.7523   23.9801 H   0  0  0  0  0  0  0  0  0  0  0  0
    7.2807    4.9755   22.5721 H   0  0  0  0  0  0  0  0  0  0  0  0
    7.5801   -2.6060   23.3366 H   0  0  0  0  0  0  0  0  0  0  0  0
    8.7749   -2.8608   22.0657 H   0  0  0  0  0  0  0  0  0  0  0  0
    7.0227   -2.7506   20.5953 H   0  0  0  0  0  0  0  0  0  0  0  0
    5.9554   -1.9484   21.7832 H   0  0  0  0  0  0  0  0  0  0  0  0
    6.8886    0.2769   23.5666 H   0  0  0  0  0  0  0  0  0  0  0  0
    7.6579   -0.8710   24.6633 H   0  0  0  0  0  0  0  0  0  0  0  0
    7.4791    3.2966   25.4992 H   0  0  0  0  0  0  0  0  0  0  0  0
    9.2447    3.4446   25.6645 H   0  0  0  0  0  0  0  0  0  0  0  0
  1 26  1  0  0  0  0
  1 29  3  0  0  0  0
  2  3  1  0  0  0  0
  2  4  2  0  0  0  0
  3  5  2  0  0  0  0
  4 11  1  0  0  0  0
  5 12  1  0  0  0  0
  6  7  1  0  0  0  0
  6 13  2  0  0  0  0
  7 16  2  0  0  0  0
  8 14  2  0  0  0  0
  8 16  1  0  0  0  0
  9 11  2  0  0  0  0
  9 30  1  0  0  0  0
 10 15  1  0  0  0  0
 10 30  2  0  0  0  0
 11 12  1  0  0  0  0
 12 15  2  0  0  0  0
 13 14  1  0  0  0  0
 13 18  1  0  0  0  0
 14 27  1  0  0  0  0
 15 31  1  0  0  0  0
 16 37  1  0  0  0  0
 17 27  1  0  0  0  0
 17 31  1  0  0  0  0
 17 33  2  0  0  0  0
 18 32  1  0  0  0  0
 19 20  1  0  0  0  0
 19 21  1  0  0  0  0
 20 22  1  0  0  0  0
 21 26  1  0  0  0  0
 22 26  1  0  0  0  0
 23 24  1  0  0  0  0
 23 27  1  0  0  0  0
 24 31  1  0  0  0  0
 25 27  1  0  0  0  0
 25 32  1  0  0  0  0
 26 28  1  0  0  0  0
 28 36  1  0  0  0  0
 32 36  1  1  0  0  0
 34 36  2  0  0  0  0
 35 36  2  0  0  0  0
  2 38  1  0  0  0  0
  3 39  1  0  0  0  0
  4 40  1  0  0  0  0
  5 41  1  0  0  0  0
  6 42  1  0  0  0  0
  7 43  1  0  0  0  0
  8 44  1  0  0  0  0
  9 45  1  0  0  0  0
 10 46  1  0  0  0  0
 18 47  1  0  0  0  0
 18 48  1  0  0  0  0
 19 49  1  0  0  0  0
 19 50  1  0  0  0  0
 20 51  1  0  0  0  0
 20 52  1  0  0  0  0
 21 53  1  0  0  0  0
 21 54  1  0  0  0  0
 22 55  1  0  0  0  0
 22 56  1  0  0  0  0
 23 57  1  0  0  0  0
 23 58  1  0  0  0  0
 24 59  1  0  0  0  0
 24 60  1  0  0  0  0
 25 61  1  0  0  0  0
 25 62  1  0  0  0  0
 28 63  1  0  0  0  0
 28 64  1  0  0  0  0
M  END
> <compound>
ALP-POS-ecbed2ba-15

> <compound_smiles>
c1ccc2c(c1)cncc2N3CCC4(C3=O)CN(Cc5c4cc(cc5)Cl)S(=O)(=O)CC6(CCCC6)C#N

> <enantiomer_smiles>
c1ccc2c(c1)cncc2N3CCC4(C3=O)C[N@@](Cc5c4cc(cc5)Cl)S(=O)(=O)CC6(CCCC6)C#N

> <scaffold>
tetrahydroisoquinoline-5spiro-isoquinoline

> <clash_score>
0

> <docking_score>
-8.996346473693848

> <overlap_score>
0.9701888561248779

> <MMFF_internal_energy>
80.61359918055071

> <docked_smiles>
c1ccc2c(c1)cncc2N3CC[C@@]4(C3=O)C[N@@](Cc5c4cc(cc5)Cl)S(=O)(=O)CC6(CCCC6)C#N

$$$$
ALP-POS-ecbed2ba-15_2
  -OEChem-12272114583D

 64 69  0     1  0  0  0  0  0999 V2000
    6.0505    4.3001   25.2203 C   0  0  0  0  0  0  0  0  0  0  0  0
    3.3432    2.6279   20.4411 C   0  0  0  0  0  0  0  0  0  0  0  0
    3.8960    1.9291   21.5050 C   0  0  0  0  0  0  0  0  0  0  0  0
    3.7865    2.4205   19.1660 C   0  0  0  0  0  0  0  0  0  0  0  0
    4.8973    1.0233   21.2988 C   0  0  0  0  0  0  0  0  0  0  0  0
   12.0765    0.0316   24.1541 C   0  0  0  0  0  0  0  0  0  0  0  0
   12.9132   -0.6032   23.2569 C   0  0  0  0  0  0  0  0  0  0  0  0
   10.9991   -1.4331   22.0443 C   0  0  0  0  0  0  0  0  0  0  0  0
    5.3278    1.2339   17.6066 C   0  0  0  0  0  0  0  0  0  0  0  0
    6.8438   -0.2892   18.3752 C   0  0  0  0  0  0  0  0  0  0  0  0
    4.8226    1.4906   18.9054 C   0  0  0  0  0  0  0  0  0  0  0  0
    5.3982    0.7733   19.9948 C   0  0  0  0  0  0  0  0  0  0  0  0
   10.7040   -0.0625   23.9898 C   0  0  0  0  0  0  0  0  0  0  0  0
   10.1406   -0.7765   22.9250 C   0  0  0  0  0  0  0  0  0  0  0  0
    6.4440   -0.1472   19.6979 C   0  0  0  0  0  0  0  0  0  0  0  0
   12.3683   -1.3298   22.2234 C   0  0  0  0  0  0  0  0  0  0  0  0
    8.2490    0.0169   21.4271 C   0  0  0  0  0  0  0  0  0  0  0  0
    9.9479    0.5589   24.9534 C   0  0  0  0  0  0  0  0  0  0  0  0
    7.1785    7.1418   25.4856 C   0  0  0  0  0  0  0  0  0  0  0  0
    7.1436    6.6109   26.9185 C   0  0  0  0  0  0  0  0  0  0  0  0
    7.7440    6.0116   24.6257 C   0  0  0  0  0  0  0  0  0  0  0  0
    7.6896    5.1843   26.8581 C   0  0  0  0  0  0  0  0  0  0  0  0
    8.0140   -2.1541   22.4331 C   0  0  0  0  0  0  0  0  0  0  0  0
    6.9866   -1.9366   21.3580 C   0  0  0  0  0  0  0  0  0  0  0  0
    7.8721   -0.1194   23.8831 C   0  0  0  0  0  0  0  0  0  0  0  0
    7.4527    4.7284   25.4133 C   0  0  0  0  0  0  0  0  0  0  0  0
    8.6238   -0.7606   22.6929 C   0  0  3  0  0  0  0  0  0  0  0  0
    8.3877    3.5880   25.0134 C   0  0  0  0  0  0  0  0  0  0  0  0
    4.9503    3.9641   25.0690 N   0  0  0  0  0  0  0  0  0  0  0  0
    6.3062    0.3769   17.3421 N   0  0  0  0  0  0  0  0  0  0  0  0
    7.2292   -0.6897   20.7790 N   0  0  0  0  0  0  0  0  0  0  0  0
    8.6609    1.0133   24.4995 N   0  0  2  0  0  0  0  0  0  0  0  0
    8.8299    1.0397   21.0799 O   0  0  0  0  0  0  0  0  0  0  0  0
    8.2396    1.8021   26.9149 O   0  0  0  0  0  0  0  0  0  0  0  0
    6.3656    1.9467   25.2260 O   0  0  0  0  0  0  0  0  0  0  0  0
    7.7708    2.0177   25.5632 S   0  0  0  0  0  0  0  0  0  0  0  0
   13.4272   -2.1411   21.1086 Cl  0  0  0  0  0  0  0  0  0  0  0  0
    2.5432    3.3510   20.6369 H   0  0  0  0  0  0  0  0  0  0  0  0
    3.5174    2.1137   22.5168 H   0  0  0  0  0  0  0  0  0  0  0  0
    3.3409    2.9743   18.3364 H   0  0  0  0  0  0  0  0  0  0  0  0
    5.3118    0.4895   22.1572 H   0  0  0  0  0  0  0  0  0  0  0  0
   12.5024    0.5995   24.9735 H   0  0  0  0  0  0  0  0  0  0  0  0
   13.9910   -0.5177   23.3793 H   0  0  0  0  0  0  0  0  0  0  0  0
   10.6036   -2.0162   21.2241 H   0  0  0  0  0  0  0  0  0  0  0  0
    4.9141    1.7511   16.7474 H   0  0  0  0  0  0  0  0  0  0  0  0
    7.6445   -0.9764   18.1043 H   0  0  0  0  0  0  0  0  0  0  0  0
    9.7849   -0.1194   25.8306 H   0  0  0  0  0  0  0  0  0  0  0  0
   10.4793    1.4568   25.3613 H   0  0  0  0  0  0  0  0  0  0  0  0
    6.1653    7.4036   25.1594 H   0  0  0  0  0  0  0  0  0  0  0  0
    7.7910    8.0455   25.4029 H   0  0  0  0  0  0  0  0  0  0  0  0
    7.7367    7.2332   27.5967 H   0  0  0  0  0  0  0  0  0  0  0  0
    6.1130    6.6123   27.2918 H   0  0  0  0  0  0  0  0  0  0  0  0
    7.3087    6.0148   23.6204 H   0  0  0  0  0  0  0  0  0  0  0  0
    8.8264    6.1585   24.5167 H   0  0  0  0  0  0  0  0  0  0  0  0
    8.7637    5.2071   27.0836 H   0  0  0  0  0  0  0  0  0  0  0  0
    7.2100    4.5392   27.6026 H   0  0  0  0  0  0  0  0  0  0  0  0
    7.5152   -2.5456   23.3338 H   0  0  0  0  0  0  0  0  0  0  0  0
    8.7649   -2.9030   22.1434 H   0  0  0  0  0  0  0  0  0  0  0  0
    7.0587   -2.7248   20.5721 H   0  0  0  0  0  0  0  0  0  0  0  0
    5.9518   -1.9952   21.7720 H   0  0  0  0  0  0  0  0  0  0  0  0
    6.8867    0.2641   23.5642 H   0  0  0  0  0  0  0  0  0  0  0  0
    7.6652   -0.8660   24.6733 H   0  0  0  0  0  0  0  0  0  0  0  0
    9.3778    3.7191   25.4587 H   0  0  0  0  0  0  0  0  0  0  0  0
    8.4926    3.5306   23.9266 H   0  0  0  0  0  0  0  0  0  0  0  0
  1 26  1  0  0  0  0
  1 29  3  0  0  0  0
  2  3  1  0  0  0  0
  2  4  2  0  0  0  0
  3  5  2  0  0  0  0
  4 11  1  0  0  0  0
  5 12  1  0  0  0  0
  6  7  1  0  0  0  0
  6 13  2  0  0  0  0
  7 16  2  0  0  0  0
  8 14  2  0  0  0  0
  8 16  1  0  0  0  0
  9 11  2  0  0  0  0
  9 30  1  0  0  0  0
 10 15  1  0  0  0  0
 10 30  2  0  0  0  0
 11 12  1  0  0  0  0
 12 15  2  0  0  0  0
 13 14  1  0  0  0  0
 13 18  1  0  0  0  0
 14 27  1  0  0  0  0
 15 31  1  0  0  0  0
 16 37  1  0  0  0  0
 17 27  1  0  0  0  0
 17 31  1  0  0  0  0
 17 33  2  0  0  0  0
 18 32  1  0  0  0  0
 19 20  1  0  0  0  0
 19 21  1  0  0  0  0
 20 22  1  0  0  0  0
 21 26  1  0  0  0  0
 22 26  1  0  0  0  0
 23 24  1  0  0  0  0
 23 27  1  0  0  0  0
 24 31  1  0  0  0  0
 25 27  1  0  0  0  0
 25 32  1  0  0  0  0
 26 28  1  0  0  0  0
 28 36  1  0  0  0  0
 32 36  1  6  0  0  0
 34 36  2  0  0  0  0
 35 36  2  0  0  0  0
  2 38  1  0  0  0  0
  3 39  1  0  0  0  0
  4 40  1  0  0  0  0
  5 41  1  0  0  0  0
  6 42  1  0  0  0  0
  7 43  1  0  0  0  0
  8 44  1  0  0  0  0
  9 45  1  0  0  0  0
 10 46  1  0  0  0  0
 18 47  1  0  0  0  0
 18 48  1  0  0  0  0
 19 49  1  0  0  0  0
 19 50  1  0  0  0  0
 20 51  1  0  0  0  0
 20 52  1  0  0  0  0
 21 53  1  0  0  0  0
 21 54  1  0  0  0  0
 22 55  1  0  0  0  0
 22 56  1  0  0  0  0
 23 57  1  0  0  0  0
 23 58  1  0  0  0  0
 24 59  1  0  0  0  0
 24 60  1  0  0  0  0
 25 61  1  0  0  0  0
 25 62  1  0  0  0  0
 28 63  1  0  0  0  0
 28 64  1  0  0  0  0
M  END
> <compound>
ALP-POS-ecbed2ba-15

> <compound_smiles>
c1ccc2c(c1)cncc2N3CCC4(C3=O)CN(Cc5c4cc(cc5)Cl)S(=O)(=O)CC6(CCCC6)C#N

> <enantiomer_smiles>
c1ccc2c(c1)cncc2N3CCC4(C3=O)C[N@](Cc5c4cc(cc5)Cl)S(=O)(=O)CC6(CCCC6)C#N

> <scaffold>
tetrahydroisoquinoline-5spiro-isoquinoline

> <clash_score>
0

> <docking_score>
-7.665847301483154

> <overlap_score>
0.9665325284004211

> <MMFF_internal_energy>
79.2312663672095

> <docked_smiles>
c1ccc2c(c1)cncc2N3CC[C@@]4(C3=O)C[N@](Cc5c4cc(cc5)Cl)S(=O)(=O)CC6(CCCC6)C#N

$$$$
ALP-POS-ecbed2ba-1_2
  -OEChem-12272114583D

 63 68  0     1  0  0  0  0  0999 V2000
    3.3432    2.6279   20.4411 C   0  0  0  0  0  0  0  0  0  0  0  0
    3.8960    1.9291   21.5050 C   0  0  0  0  0  0  0  0  0  0  0  0
    3.7865    2.4205   19.1660 C   0  0  0  0  0  0  0  0  0  0  0  0
    4.8973    1.0233   21.2988 C   0  0  0  0  0  0  0  0  0  0  0  0
   12.0765    0.0316   24.1541 C   0  0  0  0  0  0  0  0  0  0  0  0
   12.9132   -0.6032   23.2569 C   0  0  0  0  0  0  0  0  0  0  0  0
   10.9991   -1.4331   22.0443 C   0  0  0  0  0  0  0  0  0  0  0  0
    5.3278    1.2339   17.6066 C   0  0  0  0  0  0  0  0  0  0  0  0
    6.8438   -0.2892   18.3752 C   0  0  0  0  0  0  0  0  0  0  0  0
    4.8226    1.4906   18.9054 C   0  0  0  0  0  0  0  0  0  0  0  0
    5.3982    0.7733   19.9948 C   0  0  0  0  0  0  0  0  0  0  0  0
   10.7040   -0.0625   23.9898 C   0  0  0  0  0  0  0  0  0  0  0  0
   10.1406   -0.7765   22.9250 C   0  0  0  0  0  0  0  0  0  0  0  0
    6.4440   -0.1472   19.6979 C   0  0  0  0  0  0  0  0  0  0  0  0
   12.3683   -1.3298   22.2234 C   0  0  0  0  0  0  0  0  0  0  0  0
    8.2490    0.0169   21.4271 C   0  0  0  0  0  0  0  0  0  0  0  0
    9.9479    0.5589   24.9534 C   0  0  0  0  0  0  0  0  0  0  0  0
    8.0140   -2.1541   22.4331 C   0  0  0  0  0  0  0  0  0  0  0  0
    6.9866   -1.9366   21.3580 C   0  0  0  0  0  0  0  0  0  0  0  0
    7.8721   -0.1194   23.8831 C   0  0  0  0  0  0  0  0  0  0  0  0
    7.8134    5.5787   23.5170 C   0  0  0  0  0  0  0  0  0  0  0  0
    6.1488    4.1212   23.9016 C   0  0  0  0  0  0  0  0  0  0  0  0
    8.6238   -0.7606   22.6929 C   0  0  3  0  0  0  0  0  0  0  0  0
    7.6966    4.0430   23.7476 C   0  0  0  0  0  0  0  0  0  0  0  0
    8.1536    3.2051   22.5501 C   0  0  0  0  0  0  0  0  0  0  0  0
    8.3874    3.5882   25.0137 C   0  0  0  0  0  0  0  0  0  0  0  0
    6.3062    0.3769   17.3421 N   0  0  0  0  0  0  0  0  0  0  0  0
    7.2292   -0.6897   20.7790 N   0  0  0  0  0  0  0  0  0  0  0  0
    8.6609    1.0133   24.4995 N   0  0  1  0  0  0  0  0  0  0  0  0
    8.8299    1.0397   21.0799 O   0  0  0  0  0  0  0  0  0  0  0  0
    5.9042    5.5372   21.6526 O   0  0  0  0  0  0  0  0  0  0  0  0
    5.4155    6.6805   23.8703 O   0  0  0  0  0  0  0  0  0  0  0  0
    8.2407    1.8013   26.9144 O   0  0  0  0  0  0  0  0  0  0  0  0
    6.3653    1.9471   25.2271 O   0  0  0  0  0  0  0  0  0  0  0  0
    6.1049    5.6842   23.0785 S   0  0  0  0  0  0  0  0  0  0  0  0
    7.7708    2.0177   25.5632 S   0  0  0  0  0  0  0  0  0  0  0  0
   13.4272   -2.1411   21.1086 Cl  0  0  0  0  0  0  0  0  0  0  0  0
    2.5432    3.3510   20.6369 H   0  0  0  0  0  0  0  0  0  0  0  0
    3.5174    2.1137   22.5168 H   0  0  0  0  0  0  0  0  0  0  0  0
    3.3409    2.9743   18.3364 H   0  0  0  0  0  0  0  0  0  0  0  0
    5.3118    0.4895   22.1572 H   0  0  0  0  0  0  0  0  0  0  0  0
   12.5024    0.5995   24.9735 H   0  0  0  0  0  0  0  0  0  0  0  0
   13.9910   -0.5177   23.3793 H   0  0  0  0  0  0  0  0  0  0  0  0
   10.6036   -2.0162   21.2241 H   0  0  0  0  0  0  0  0  0  0  0  0
    4.9141    1.7511   16.7474 H   0  0  0  0  0  0  0  0  0  0  0  0
    7.6445   -0.9764   18.1043 H   0  0  0  0  0  0  0  0  0  0  0  0
    9.7849   -0.1194   25.8306 H   0  0  0  0  0  0  0  0  0  0  0  0
   10.4793    1.4568   25.3613 H   0  0  0  0  0  0  0  0  0  0  0  0
    7.5152   -2.5456   23.3338 H   0  0  0  0  0  0  0  0  0  0  0  0
    8.7649   -2.9030   22.1434 H   0  0  0  0  0  0  0  0  0  0  0  0
    7.0587   -2.7248   20.5721 H   0  0  0  0  0  0  0  0  0  0  0  0
    5.9518   -1.9952   21.7720 H   0  0  0  0  0  0  0  0  0  0  0  0
    6.8867    0.2641   23.5642 H   0  0  0  0  0  0  0  0  0  0  0  0
    7.6652   -0.8660   24.6733 H   0  0  0  0  0  0  0  0  0  0  0  0
    8.0364    6.1710   24.4110 H   0  0  0  0  0  0  0  0  0  0  0  0
    8.4886    5.8900   22.7145 H   0  0  0  0  0  0  0  0  0  0  0  0
    5.5788    3.3423   23.3866 H   0  0  0  0  0  0  0  0  0  0  0  0
    5.7840    4.1988   24.9315 H   0  0  0  0  0  0  0  0  0  0  0  0
    8.0447    2.1482   22.7812 H   0  0  0  0  0  0  0  0  0  0  0  0
    9.1968    3.4199   22.3312 H   0  0  0  0  0  0  0  0  0  0  0  0
    7.5461    3.4481   21.6815 H   0  0  0  0  0  0  0  0  0  0  0  0
    8.2236    4.3011   25.8267 H   0  0  0  0  0  0  0  0  0  0  0  0
    9.4629    3.4743   24.8536 H   0  0  0  0  0  0  0  0  0  0  0  0
  1  2  1  0  0  0  0
  1  3  2  0  0  0  0
  2  4  2  0  0  0  0
  3 10  1  0  0  0  0
  4 11  1  0  0  0  0
  5  6  2  0  0  0  0
  5 12  1  0  0  0  0
  6 15  1  0  0  0  0
  7 13  1  0  0  0  0
  7 15  2  0  0  0  0
  8 10  2  0  0  0  0
  8 27  1  0  0  0  0
  9 14  1  0  0  0  0
  9 27  2  0  0  0  0
 10 11  1  0  0  0  0
 11 14  2  0  0  0  0
 12 13  2  0  0  0  0
 12 17  1  0  0  0  0
 13 23  1  0  0  0  0
 14 28  1  0  0  0  0
 15 37  1  0  0  0  0
 16 23  1  0  0  0  0
 16 28  1  0  0  0  0
 16 30  2  0  0  0  0
 17 29  1  0  0  0  0
 18 19  1  0  0  0  0
 18 23  1  0  0  0  0
 19 28  1  0  0  0  0
 20 23  1  0  0  0  0
 20 29  1  0  0  0  0
 21 24  1  0  0  0  0
 21 35  1  0  0  0  0
 22 24  1  0  0  0  0
 22 35  1  0  0  0  0
 24 25  1  0  0  0  0
 24 26  1  0  0  0  0
 26 36  1  0  0  0  0
 29 36  1  6  0  0  0
 31 35  2  0  0  0  0
 32 35  2  0  0  0  0
 33 36  2  0  0  0  0
 34 36  2  0  0  0  0
  1 38  1  0  0  0  0
  2 39  1  0  0  0  0
  3 40  1  0  0  0  0
  4 41  1  0  0  0  0
  5 42  1  0  0  0  0
  6 43  1  0  0  0  0
  7 44  1  0  0  0  0
  8 45  1  0  0  0  0
  9 46  1  0  0  0  0
 17 47  1  0  0  0  0
 17 48  1  0  0  0  0
 18 49  1  0  0  0  0
 18 50  1  0  0  0  0
 19 51  1  0  0  0  0
 19 52  1  0  0  0  0
 20 53  1  0  0  0  0
 20 54  1  0  0  0  0
 21 55  1  0  0  0  0
 21 56  1  0  0  0  0
 22 57  1  0  0  0  0
 22 58  1  0  0  0  0
 25 59  1  0  0  0  0
 25 60  1  0  0  0  0
 25 61  1  0  0  0  0
 26 62  1  0  0  0  0
 26 63  1  0  0  0  0
M  END
> <compound>
ALP-POS-ecbed2ba-1

> <compound_smiles>
CC1(CS(=O)(=O)C1)CS(=O)(=O)N2Cc3ccc(cc3C4(C2)CCN(C4=O)c5cncc6c5cccc6)Cl

> <enantiomer_smiles>
CC1(CS(=O)(=O)C1)CS(=O)(=O)[N@]2Cc3ccc(cc3C4(C2)CCN(C4=O)c5cncc6c5cccc6)Cl

> <scaffold>
tetrahydroisoquinoline-5spiro-isoquinoline

> <clash_score>
0

> <docking_score>
-8.269107818603516

> <overlap_score>
0.9690442681312561

> <MMFF_internal_energy>
103.15909138038066

> <docked_smiles>
CC1(CS(=O)(=O)C1)CS(=O)(=O)[N@]2Cc3ccc(cc3[C@]4(C2)CCN(C4=O)c5cncc6c5cccc6)Cl

$$$$
MAT-POS-853c0ffa-8_2
  -OEChem-12272114583D

 61 66  0     1  0  0  0  0  0999 V2000
   12.0765    0.0316   24.1541 C   0  0  0  0  0  0  0  0  0  0  0  0
   12.9132   -0.6032   23.2569 C   0  0  0  0  0  0  0  0  0  0  0  0
    3.7865    2.4205   19.1660 C   0  0  0  0  0  0  0  0  0  0  0  0
   10.9991   -1.4331   22.0443 C   0  0  0  0  0  0  0  0  0  0  0  0
    3.8960    1.9291   21.5050 C   0  0  0  0  0  0  0  0  0  0  0  0
    5.3278    1.2339   17.6066 C   0  0  0  0  0  0  0  0  0  0  0  0
    6.8438   -0.2892   18.3752 C   0  0  0  0  0  0  0  0  0  0  0  0
    4.8226    1.4906   18.9054 C   0  0  0  0  0  0  0  0  0  0  0  0
    5.3982    0.7733   19.9948 C   0  0  0  0  0  0  0  0  0  0  0  0
   10.7040   -0.0625   23.9898 C   0  0  0  0  0  0  0  0  0  0  0  0
   10.1406   -0.7765   22.9250 C   0  0  0  0  0  0  0  0  0  0  0  0
    6.4440   -0.1472   19.6979 C   0  0  0  0  0  0  0  0  0  0  0  0
    3.3432    2.6279   20.4411 C   0  0  0  0  0  0  0  0  0  0  0  0
   12.3683   -1.3298   22.2234 C   0  0  0  0  0  0  0  0  0  0  0  0
    4.8973    1.0233   21.2988 C   0  0  0  0  0  0  0  0  0  0  0  0
    8.2490    0.0169   21.4271 C   0  0  0  0  0  0  0  0  0  0  0  0
    9.9479    0.5589   24.9534 C   0  0  0  0  0  0  0  0  0  0  0  0
    6.3968    5.2306   25.4276 C   0  0  0  0  0  0  0  0  0  0  0  0
    6.6062    4.4762   26.7113 C   0  0  0  0  0  0  0  0  0  0  0  0
    8.0140   -2.1541   22.4331 C   0  0  0  0  0  0  0  0  0  0  0  0
    6.9866   -1.9366   21.3580 C   0  0  0  0  0  0  0  0  0  0  0  0
    7.8721   -0.1194   23.8831 C   0  0  0  0  0  0  0  0  0  0  0  0
    8.6238   -0.7606   22.6929 C   0  0  3  0  0  0  0  0  0  0  0  0
    7.7686    4.7292   25.7898 C   0  0  0  0  0  0  0  0  0  0  0  0
    9.2684    6.4037   25.1046 C   0  0  0  0  0  0  0  0  0  0  0  0
    8.3874    3.5882   25.0137 C   0  0  0  0  0  0  0  0  0  0  0  0
    6.3062    0.3769   17.3421 N   0  0  0  0  0  0  0  0  0  0  0  0
    7.2292   -0.6897   20.7790 N   0  0  0  0  0  0  0  0  0  0  0  0
    8.6609    1.0133   24.4995 N   0  0  1  0  0  0  0  0  0  0  0  0
    8.8299    1.0397   21.0799 O   0  0  0  0  0  0  0  0  0  0  0  0
    8.2407    1.8013   26.9144 O   0  0  0  0  0  0  0  0  0  0  0  0
    6.3653    1.9471   25.2271 O   0  0  0  0  0  0  0  0  0  0  0  0
    8.7111    5.7271   26.2159 O   0  0  0  0  0  0  0  0  0  0  0  0
    2.3578    3.5185   20.6801 F   0  0  0  0  0  0  0  0  0  0  0  0
    7.7708    2.0177   25.5632 S   0  0  0  0  0  0  0  0  0  0  0  0
   13.4272   -2.1411   21.1086 Cl  0  0  0  0  0  0  0  0  0  0  0  0
    5.4641    0.2478   22.7523 Cl  0  0  0  0  0  0  0  0  0  0  0  0
   12.5024    0.5995   24.9735 H   0  0  0  0  0  0  0  0  0  0  0  0
   13.9910   -0.5177   23.3793 H   0  0  0  0  0  0  0  0  0  0  0  0
    3.3399    2.9748   18.3374 H   0  0  0  0  0  0  0  0  0  0  0  0
   10.6036   -2.0162   21.2241 H   0  0  0  0  0  0  0  0  0  0  0  0
    3.4981    2.1315   22.5077 H   0  0  0  0  0  0  0  0  0  0  0  0
    4.9136    1.7513   16.7477 H   0  0  0  0  0  0  0  0  0  0  0  0
    7.6458   -0.9737   18.1006 H   0  0  0  0  0  0  0  0  0  0  0  0
    9.7849   -0.1194   25.8306 H   0  0  0  0  0  0  0  0  0  0  0  0
   10.4793    1.4568   25.3613 H   0  0  0  0  0  0  0  0  0  0  0  0
    5.8551    4.7302   24.6340 H   0  0  0  0  0  0  0  0  0  0  0  0
    6.2057    6.2948   25.4948 H   0  0  0  0  0  0  0  0  0  0  0  0
    6.5550    5.0353   27.6379 H   0  0  0  0  0  0  0  0  0  0  0  0
    6.2048    3.4720   26.7745 H   0  0  0  0  0  0  0  0  0  0  0  0
    7.5152   -2.5456   23.3338 H   0  0  0  0  0  0  0  0  0  0  0  0
    8.7649   -2.9030   22.1434 H   0  0  0  0  0  0  0  0  0  0  0  0
    7.0587   -2.7248   20.5721 H   0  0  0  0  0  0  0  0  0  0  0  0
    5.9518   -1.9952   21.7720 H   0  0  0  0  0  0  0  0  0  0  0  0
    6.8867    0.2641   23.5642 H   0  0  0  0  0  0  0  0  0  0  0  0
    7.6652   -0.8660   24.6733 H   0  0  0  0  0  0  0  0  0  0  0  0
    9.9802    7.1555   25.4542 H   0  0  0  0  0  0  0  0  0  0  0  0
    8.4706    6.8812   24.5300 H   0  0  0  0  0  0  0  0  0  0  0  0
    9.7876    5.6802   24.4717 H   0  0  0  0  0  0  0  0  0  0  0  0
    9.4732    3.5710   25.1421 H   0  0  0  0  0  0  0  0  0  0  0  0
    8.1577    3.6698   23.9479 H   0  0  0  0  0  0  0  0  0  0  0  0
  1  2  2  0  0  0  0
  1 10  1  0  0  0  0
  2 14  1  0  0  0  0
  3  8  1  0  0  0  0
  3 13  2  0  0  0  0
  4 11  1  0  0  0  0
  4 14  2  0  0  0  0
  5 13  1  0  0  0  0
  5 15  2  0  0  0  0
  6  8  2  0  0  0  0
  6 27  1  0  0  0  0
  7 12  1  0  0  0  0
  7 27  2  0  0  0  0
  8  9  1  0  0  0  0
  9 12  2  0  0  0  0
  9 15  1  0  0  0  0
 10 11  2  0  0  0  0
 10 17  1  0  0  0  0
 11 23  1  0  0  0  0
 12 28  1  0  0  0  0
 13 34  1  0  0  0  0
 14 36  1  0  0  0  0
 15 37  1  0  0  0  0
 16 23  1  0  0  0  0
 16 28  1  0  0  0  0
 16 30  2  0  0  0  0
 17 29  1  0  0  0  0
 18 19  1  0  0  0  0
 18 24  1  0  0  0  0
 19 24  1  0  0  0  0
 20 21  1  0  0  0  0
 20 23  1  0  0  0  0
 21 28  1  0  0  0  0
 22 23  1  0  0  0  0
 22 29  1  0  0  0  0
 24 26  1  0  0  0  0
 24 33  1  0  0  0  0
 25 33  1  0  0  0  0
 26 35  1  0  0  0  0
 29 35  1  6  0  0  0
 31 35  2  0  0  0  0
 32 35  2  0  0  0  0
  1 38  1  0  0  0  0
  2 39  1  0  0  0  0
  3 40  1  0  0  0  0
  4 41  1  0  0  0  0
  5 42  1  0  0  0  0
  6 43  1  0  0  0  0
  7 44  1  0  0  0  0
 17 45  1  0  0  0  0
 17 46  1  0  0  0  0
 18 47  1  0  0  0  0
 18 48  1  0  0  0  0
 19 49  1  0  0  0  0
 19 50  1  0  0  0  0
 20 51  1  0  0  0  0
 20 52  1  0  0  0  0
 21 53  1  0  0  0  0
 21 54  1  0  0  0  0
 22 55  1  0  0  0  0
 22 56  1  0  0  0  0
 25 57  1  0  0  0  0
 25 58  1  0  0  0  0
 25 59  1  0  0  0  0
 26 60  1  0  0  0  0
 26 61  1  0  0  0  0
M  END
> <compound>
MAT-POS-853c0ffa-8

> <compound_smiles>
COC1(CC1)CS(=O)(=O)N2Cc3ccc(cc3C4(C2)CCN(C4=O)c5cncc6c5c(cc(c6)F)Cl)Cl

> <enantiomer_smiles>
COC1(CC1)CS(=O)(=O)[N@]2Cc3ccc(cc3C4(C2)CCN(C4=O)c5cncc6c5c(cc(c6)F)Cl)Cl

> <scaffold>
tetrahydroisoquinoline-5spiro-isoquinoline

> <clash_score>
0

> <docking_score>
-8.765137672424316

> <overlap_score>
0.9862878322601318

> <MMFF_internal_energy>
196.0285565801462

> <docked_smiles>
COC1(CC1)CS(=O)(=O)[N@]2Cc3ccc(cc3[C@]4(C2)CCN(C4=O)c5cncc6c5c(cc(c6)F)Cl)Cl

$$$$
MAT-POS-c2d406ed-2_1
  -OEChem-12272114583D

 59 64  0     1  0  0  0  0  0999 V2000
   10.0083    5.1169   23.7430 C   0  0  0  0  0  0  0  0  0  0  0  0
    3.3432    2.6279   20.4411 C   0  0  0  0  0  0  0  0  0  0  0  0
    3.8960    1.9291   21.5050 C   0  0  0  0  0  0  0  0  0  0  0  0
    3.7865    2.4205   19.1660 C   0  0  0  0  0  0  0  0  0  0  0  0
    4.8973    1.0233   21.2988 C   0  0  0  0  0  0  0  0  0  0  0  0
   12.0765    0.0316   24.1541 C   0  0  0  0  0  0  0  0  0  0  0  0
   12.9132   -0.6032   23.2569 C   0  0  0  0  0  0  0  0  0  0  0  0
   10.9991   -1.4331   22.0443 C   0  0  0  0  0  0  0  0  0  0  0  0
    5.3278    1.2339   17.6066 C   0  0  0  0  0  0  0  0  0  0  0  0
    6.8438   -0.2892   18.3752 C   0  0  0  0  0  0  0  0  0  0  0  0
    4.8226    1.4906   18.9054 C   0  0  0  0  0  0  0  0  0  0  0  0
    5.3982    0.7733   19.9948 C   0  0  0  0  0  0  0  0  0  0  0  0
   10.7040   -0.0625   23.9898 C   0  0  0  0  0  0  0  0  0  0  0  0
   10.1406   -0.7765   22.9250 C   0  0  0  0  0  0  0  0  0  0  0  0
    6.4440   -0.1472   19.6979 C   0  0  0  0  0  0  0  0  0  0  0  0
   12.3683   -1.3298   22.2234 C   0  0  0  0  0  0  0  0  0  0  0  0
    8.2490    0.0169   21.4271 C   0  0  0  0  0  0  0  0  0  0  0  0
    6.9866   -1.9366   21.3580 C   0  0  0  0  0  0  0  0  0  0  0  0
    9.9479    0.5589   24.9534 C   0  0  0  0  0  0  0  0  0  0  0  0
    8.5540    6.1557   25.5212 C   0  0  0  0  0  0  0  0  0  0  0  0
    7.7241    6.0407   24.2768 C   0  0  0  0  0  0  0  0  0  0  0  0
    7.8721   -0.1194   23.8831 C   0  0  0  0  0  0  0  0  0  0  0  0
    8.8162    5.0298   24.5463 C   0  0  0  0  0  0  0  0  0  0  0  0
    8.6238   -0.7606   22.6929 C   0  0  3  0  0  0  0  0  0  0  0  0
    8.4171   -3.3405   22.9664 C   0  0  0  0  0  0  0  0  0  0  0  0
    8.4075    3.6303   24.9484 C   0  0  0  0  0  0  0  0  0  0  0  0
   10.9686    5.1871   23.0958 N   0  0  0  0  0  0  0  0  0  0  0  0
    6.3062    0.3769   17.3421 N   0  0  0  0  0  0  0  0  0  0  0  0
    7.2292   -0.6897   20.7790 N   0  0  0  0  0  0  0  0  0  0  0  0
    8.0140   -2.1541   22.4331 N   0  0  0  0  0  0  0  0  0  0  0  0
    8.6609    1.0133   24.4995 N   0  0  1  0  0  0  0  0  0  0  0  0
    8.7630    1.0720   21.1180 O   0  0  0  0  0  0  0  0  0  0  0  0
    6.1592   -2.7831   21.0901 O   0  0  0  0  0  0  0  0  0  0  0  0
    7.4173    2.4897   22.8163 O   0  0  0  0  0  0  0  0  0  0  0  0
    9.9252    2.7159   23.0279 O   0  0  0  0  0  0  0  0  0  0  0  0
    8.6239    2.4808   23.6143 S   0  0  0  0  0  0  0  0  0  0  0  0
   13.4269   -2.1423   21.1095 Cl  0  0  0  0  0  0  0  0  0  0  0  0
    2.5432    3.3510   20.6369 H   0  0  0  0  0  0  0  0  0  0  0  0
    3.5174    2.1137   22.5168 H   0  0  0  0  0  0  0  0  0  0  0  0
    3.3409    2.9743   18.3364 H   0  0  0  0  0  0  0  0  0  0  0  0
    5.3118    0.4895   22.1572 H   0  0  0  0  0  0  0  0  0  0  0  0
   12.5022    0.5907   24.9797 H   0  0  0  0  0  0  0  0  0  0  0  0
   13.9909   -0.5235   23.3836 H   0  0  0  0  0  0  0  0  0  0  0  0
   10.6049   -2.0196   21.2256 H   0  0  0  0  0  0  0  0  0  0  0  0
    4.9141    1.7511   16.7474 H   0  0  0  0  0  0  0  0  0  0  0  0
    7.6445   -0.9764   18.1043 H   0  0  0  0  0  0  0  0  0  0  0  0
    9.7584   -0.1303   25.8178 H   0  0  0  0  0  0  0  0  0  0  0  0
   10.4944    1.4374   25.3881 H   0  0  0  0  0  0  0  0  0  0  0  0
    9.2608    6.9758   25.5794 H   0  0  0  0  0  0  0  0  0  0  0  0
    8.0778    5.9225   26.4665 H   0  0  0  0  0  0  0  0  0  0  0  0
    6.6914    5.7311   24.3888 H   0  0  0  0  0  0  0  0  0  0  0  0
    7.8751    6.7846   23.5028 H   0  0  0  0  0  0  0  0  0  0  0  0
    6.8958    0.2920   23.5719 H   0  0  0  0  0  0  0  0  0  0  0  0
    7.6749   -0.8745   24.6642 H   0  0  0  0  0  0  0  0  0  0  0  0
    9.2592   -3.7434   22.3845 H   0  0  0  0  0  0  0  0  0  0  0  0
    8.7350   -3.1780   24.0068 H   0  0  0  0  0  0  0  0  0  0  0  0
    7.5817   -4.0557   22.9456 H   0  0  0  0  0  0  0  0  0  0  0  0
    7.3525    3.5976   25.2342 H   0  0  0  0  0  0  0  0  0  0  0  0
    9.0127    3.2710   25.7850 H   0  0  0  0  0  0  0  0  0  0  0  0
  1 23  1  0  0  0  0
  1 27  3  0  0  0  0
  2  3  1  0  0  0  0
  2  4  2  0  0  0  0
  3  5  2  0  0  0  0
  4 11  1  0  0  0  0
  5 12  1  0  0  0  0
  6  7  1  0  0  0  0
  6 13  2  0  0  0  0
  7 16  2  0  0  0  0
  8 14  2  0  0  0  0
  8 16  1  0  0  0  0
  9 11  2  0  0  0  0
  9 28  1  0  0  0  0
 10 15  1  0  0  0  0
 10 28  2  0  0  0  0
 11 12  1  0  0  0  0
 12 15  2  0  0  0  0
 13 14  1  0  0  0  0
 13 19  1  0  0  0  0
 14 24  1  0  0  0  0
 15 29  1  0  0  0  0
 16 37  1  0  0  0  0
 17 24  1  0  0  0  0
 17 29  1  0  0  0  0
 17 32  2  0  0  0  0
 18 29  1  0  0  0  0
 18 30  1  0  0  0  0
 18 33  2  0  0  0  0
 19 31  1  0  0  0  0
 20 21  1  0  0  0  0
 20 23  1  0  0  0  0
 21 23  1  0  0  0  0
 22 24  1  0  0  0  0
 22 31  1  0  0  0  0
 23 26  1  0  0  0  0
 24 30  1  0  0  0  0
 25 30  1  0  0  0  0
 26 36  1  0  0  0  0
 31 36  1  1  0  0  0
 34 36  2  0  0  0  0
 35 36  2  0  0  0  0
  2 38  1  0  0  0  0
  3 39  1  0  0  0  0
  4 40  1  0  0  0  0
  5 41  1  0  0  0  0
  6 42  1  0  0  0  0
  7 43  1  0  0  0  0
  8 44  1  0  0  0  0
  9 45  1  0  0  0  0
 10 46  1  0  0  0  0
 19 47  1  0  0  0  0
 19 48  1  0  0  0  0
 20 49  1  0  0  0  0
 20 50  1  0  0  0  0
 21 51  1  0  0  0  0
 21 52  1  0  0  0  0
 22 53  1  0  0  0  0
 22 54  1  0  0  0  0
 25 55  1  0  0  0  0
 25 56  1  0  0  0  0
 25 57  1  0  0  0  0
 26 58  1  0  0  0  0
 26 59  1  0  0  0  0
M  END
> <compound>
MAT-POS-c2d406ed-2

> <compound_smiles>
CN1C(=O)N(C(=O)C12CN(Cc3c2cc(cc3)Cl)S(=O)(=O)CC4(CC4)C#N)c5cncc6c5cccc6

> <enantiomer_smiles>
CN1C(=O)N(C(=O)C12C[N@@](Cc3c2cc(cc3)Cl)S(=O)(=O)CC4(CC4)C#N)c5cncc6c5cccc6

> <scaffold>
tetrahydroisoquinoline-5spiro-isoquinoline

> <clash_score>
0

> <docking_score>
-8.711505889892578

> <overlap_score>
1.0

> <MMFF_internal_energy>
116.54143867703968

> <docked_smiles>
CN1C(=O)N(C(=O)[C@@]12C[N@@](Cc3c2cc(cc3)Cl)S(=O)(=O)CC4(CC4)C#N)c5cncc6c5cccc6

$$$$
MAT-POS-50a80394-2_1
  -OEChem-12272114583D

 64 69  0     1  0  0  0  0  0999 V2000
   10.0126    5.1147   23.7990 C   0  0  0  0  0  0  0  0  0  0  0  0
    3.3432    2.6279   20.4411 C   0  0  0  0  0  0  0  0  0  0  0  0
    3.8960    1.9291   21.5050 C   0  0  0  0  0  0  0  0  0  0  0  0
    3.7865    2.4205   19.1660 C   0  0  0  0  0  0  0  0  0  0  0  0
    4.8973    1.0233   21.2988 C   0  0  0  0  0  0  0  0  0  0  0  0
   12.0765    0.0316   24.1541 C   0  0  0  0  0  0  0  0  0  0  0  0
   12.9132   -0.6032   23.2569 C   0  0  0  0  0  0  0  0  0  0  0  0
   10.9991   -1.4331   22.0443 C   0  0  0  0  0  0  0  0  0  0  0  0
    5.3278    1.2339   17.6066 C   0  0  0  0  0  0  0  0  0  0  0  0
    6.8438   -0.2892   18.3752 C   0  0  0  0  0  0  0  0  0  0  0  0
    4.8226    1.4906   18.9054 C   0  0  0  0  0  0  0  0  0  0  0  0
    5.3982    0.7733   19.9948 C   0  0  0  0  0  0  0  0  0  0  0  0
   10.7040   -0.0625   23.9898 C   0  0  0  0  0  0  0  0  0  0  0  0
   10.1406   -0.7765   22.9250 C   0  0  0  0  0  0  0  0  0  0  0  0
    6.4440   -0.1472   19.6979 C   0  0  0  0  0  0  0  0  0  0  0  0
   12.3683   -1.3298   22.2234 C   0  0  0  0  0  0  0  0  0  0  0  0
    8.2490    0.0169   21.4271 C   0  0  0  0  0  0  0  0  0  0  0  0
    9.9479    0.5589   24.9534 C   0  0  0  0  0  0  0  0  0  0  0  0
    8.5601    6.1135   25.6014 C   0  0  0  0  0  0  0  0  0  0  0  0
    7.7290    6.0264   24.3554 C   0  0  0  0  0  0  0  0  0  0  0  0
    6.9866   -1.9366   21.3580 C   0  0  0  0  0  0  0  0  0  0  0  0
    7.8721   -0.1194   23.8831 C   0  0  0  0  0  0  0  0  0  0  0  0
    8.0140   -2.1541   22.4331 C   0  0  2  0  0  0  0  0  0  0  0  0
    8.8213    5.0097   24.6012 C   0  0  0  0  0  0  0  0  0  0  0  0
    8.6238   -0.7606   22.6929 C   0  0  3  0  0  0  0  0  0  0  0  0
    8.3090   -4.5640   21.7662 C   0  0  0  0  0  0  0  0  0  0  0  0
    9.0010   -3.2760   22.0773 C   0  0  0  0  0  0  0  0  0  0  0  0
    8.4129    3.6016   24.9722 C   0  0  0  0  0  0  0  0  0  0  0  0
   10.9724    5.1994   23.1527 N   0  0  0  0  0  0  0  0  0  0  0  0
    6.3062    0.3769   17.3421 N   0  0  0  0  0  0  0  0  0  0  0  0
    7.2292   -0.6897   20.7790 N   0  0  0  0  0  0  0  0  0  0  0  0
    8.6609    1.0133   24.4995 N   0  0  1  0  0  0  0  0  0  0  0  0
    8.7926    1.0477   21.0410 O   0  0  0  0  0  0  0  0  0  0  0  0
    7.4254    2.5191   22.8088 O   0  0  0  0  0  0  0  0  0  0  0  0
    9.9337    2.7223   23.0379 O   0  0  0  0  0  0  0  0  0  0  0  0
    8.6279    2.4822   23.6125 S   0  0  0  0  0  0  0  0  0  0  0  0
   13.4291   -2.1463   21.1151 Cl  0  0  0  0  0  0  0  0  0  0  0  0
    2.5432    3.3510   20.6369 H   0  0  0  0  0  0  0  0  0  0  0  0
    3.5174    2.1137   22.5168 H   0  0  0  0  0  0  0  0  0  0  0  0
    3.3409    2.9743   18.3364 H   0  0  0  0  0  0  0  0  0  0  0  0
    5.3118    0.4895   22.1572 H   0  0  0  0  0  0  0  0  0  0  0  0
   12.5035    0.5856   24.9819 H   0  0  0  0  0  0  0  0  0  0  0  0
   13.9916   -0.5306   23.3886 H   0  0  0  0  0  0  0  0  0  0  0  0
   10.6204   -2.0357   21.2359 H   0  0  0  0  0  0  0  0  0  0  0  0
    4.9141    1.7511   16.7474 H   0  0  0  0  0  0  0  0  0  0  0  0
    7.6445   -0.9764   18.1043 H   0  0  0  0  0  0  0  0  0  0  0  0
    9.7570   -0.1302   25.8192 H   0  0  0  0  0  0  0  0  0  0  0  0
   10.4946    1.4373   25.3913 H   0  0  0  0  0  0  0  0  0  0  0  0
    9.2670    6.9321   25.6772 H   0  0  0  0  0  0  0  0  0  0  0  0
    8.0847    5.8592   26.5416 H   0  0  0  0  0  0  0  0  0  0  0  0
    6.6964    5.7145   24.4614 H   0  0  0  0  0  0  0  0  0  0  0  0
    7.8793    6.7875   23.5981 H   0  0  0  0  0  0  0  0  0  0  0  0
    7.0339   -2.7222   20.5620 H   0  0  0  0  0  0  0  0  0  0  0  0
    5.9485   -1.9852   21.7748 H   0  0  0  0  0  0  0  0  0  0  0  0
    6.8962    0.2982   23.5778 H   0  0  0  0  0  0  0  0  0  0  0  0
    7.6688   -0.8624   24.6740 H   0  0  0  0  0  0  0  0  0  0  0  0
    7.4661   -2.5173   23.3215 H   0  0  0  0  0  0  0  0  0  0  0  0
    7.7103   -4.8801   22.6286 H   0  0  0  0  0  0  0  0  0  0  0  0
    9.0354   -5.3543   21.5492 H   0  0  0  0  0  0  0  0  0  0  0  0
    7.6362   -4.4477   20.9100 H   0  0  0  0  0  0  0  0  0  0  0  0
    9.5970   -2.9648   21.2138 H   0  0  0  0  0  0  0  0  0  0  0  0
    9.6883   -3.4250   22.9157 H   0  0  0  0  0  0  0  0  0  0  0  0
    7.3581    3.5625   25.2582 H   0  0  0  0  0  0  0  0  0  0  0  0
    9.0188    3.2236   25.8001 H   0  0  0  0  0  0  0  0  0  0  0  0
  1 24  1  0  0  0  0
  1 29  3  0  0  0  0
  2  3  1  0  0  0  0
  2  4  2  0  0  0  0
  3  5  2  0  0  0  0
  4 11  1  0  0  0  0
  5 12  1  0  0  0  0
  6  7  1  0  0  0  0
  6 13  2  0  0  0  0
  7 16  2  0  0  0  0
  8 14  2  0  0  0  0
  8 16  1  0  0  0  0
  9 11  2  0  0  0  0
  9 30  1  0  0  0  0
 10 15  1  0  0  0  0
 10 30  2  0  0  0  0
 11 12  1  0  0  0  0
 12 15  2  0  0  0  0
 13 14  1  0  0  0  0
 13 18  1  0  0  0  0
 14 25  1  0  0  0  0
 15 31  1  0  0  0  0
 16 37  1  0  0  0  0
 17 25  1  0  0  0  0
 17 31  1  0  0  0  0
 17 33  2  0  0  0  0
 18 32  1  0  0  0  0
 19 20  1  0  0  0  0
 19 24  1  0  0  0  0
 20 24  1  0  0  0  0
 21 23  1  0  0  0  0
 21 31  1  0  0  0  0
 22 25  1  0  0  0  0
 22 32  1  0  0  0  0
 23 25  1  0  0  0  0
 23 27  1  1  0  0  0
 24 28  1  0  0  0  0
 26 27  1  0  0  0  0
 28 36  1  0  0  0  0
 32 36  1  1  0  0  0
 34 36  2  0  0  0  0
 35 36  2  0  0  0  0
  2 38  1  0  0  0  0
  3 39  1  0  0  0  0
  4 40  1  0  0  0  0
  5 41  1  0  0  0  0
  6 42  1  0  0  0  0
  7 43  1  0  0  0  0
  8 44  1  0  0  0  0
  9 45  1  0  0  0  0
 10 46  1  0  0  0  0
 18 47  1  0  0  0  0
 18 48  1  0  0  0  0
 19 49  1  0  0  0  0
 19 50  1  0  0  0  0
 20 51  1  0  0  0  0
 20 52  1  0  0  0  0
 21 53  1  0  0  0  0
 21 54  1  0  0  0  0
 22 55  1  0  0  0  0
 22 56  1  0  0  0  0
 23 57  1  0  0  0  0
 26 58  1  0  0  0  0
 26 59  1  0  0  0  0
 26 60  1  0  0  0  0
 27 61  1  0  0  0  0
 27 62  1  0  0  0  0
 28 63  1  0  0  0  0
 28 64  1  0  0  0  0
M  END
> <compound>
MAT-POS-50a80394-2

> <compound_smiles>
CCC1CN(C(=O)C12CN(Cc3c2cc(cc3)Cl)S(=O)(=O)CC4(CC4)C#N)c5cncc6c5cccc6

> <enantiomer_smiles>
CC[C@@H]1CN(C(=O)C12C[N@@](Cc3c2cc(cc3)Cl)S(=O)(=O)CC4(CC4)C#N)c5cncc6c5cccc6

> <scaffold>
tetrahydroisoquinoline-5spiro-isoquinoline

> <clash_score>
0

> <docking_score>
-7.566555500030518

> <overlap_score>
0.9822293519973755

> <MMFF_internal_energy>
173.01743761344403

> <docked_smiles>
CC[C@@H]1CN(C(=O)[C@@]12C[N@@](Cc3c2cc(cc3)Cl)S(=O)(=O)CC4(CC4)C#N)c5cncc6c5cccc6

$$$$
MAT-POS-c2d406ed-2_2
  -OEChem-12272114583D

 59 64  0     1  0  0  0  0  0999 V2000
    7.3074    3.4363   22.7896 C   0  0  0  0  0  0  0  0  0  0  0  0
    3.3432    2.6279   20.4411 C   0  0  0  0  0  0  0  0  0  0  0  0
    3.8960    1.9291   21.5050 C   0  0  0  0  0  0  0  0  0  0  0  0
    3.7865    2.4205   19.1660 C   0  0  0  0  0  0  0  0  0  0  0  0
    4.8973    1.0233   21.2988 C   0  0  0  0  0  0  0  0  0  0  0  0
   12.0765    0.0316   24.1541 C   0  0  0  0  0  0  0  0  0  0  0  0
   12.9132   -0.6032   23.2569 C   0  0  0  0  0  0  0  0  0  0  0  0
   10.9991   -1.4331   22.0443 C   0  0  0  0  0  0  0  0  0  0  0  0
    5.3278    1.2339   17.6066 C   0  0  0  0  0  0  0  0  0  0  0  0
    6.8438   -0.2892   18.3752 C   0  0  0  0  0  0  0  0  0  0  0  0
    4.8226    1.4906   18.9054 C   0  0  0  0  0  0  0  0  0  0  0  0
    5.3982    0.7733   19.9948 C   0  0  0  0  0  0  0  0  0  0  0  0
   10.7040   -0.0625   23.9898 C   0  0  0  0  0  0  0  0  0  0  0  0
   10.1406   -0.7765   22.9250 C   0  0  0  0  0  0  0  0  0  0  0  0
    6.4440   -0.1472   19.6979 C   0  0  0  0  0  0  0  0  0  0  0  0
   12.3683   -1.3298   22.2234 C   0  0  0  0  0  0  0  0  0  0  0  0
    8.2490    0.0169   21.4271 C   0  0  0  0  0  0  0  0  0  0  0  0
    6.9866   -1.9366   21.3580 C   0  0  0  0  0  0  0  0  0  0  0  0
    9.9479    0.5589   24.9534 C   0  0  0  0  0  0  0  0  0  0  0  0
    9.8112    3.1755   22.9260 C   0  0  0  0  0  0  0  0  0  0  0  0
    9.5129    4.6453   22.9609 C   0  0  0  0  0  0  0  0  0  0  0  0
    7.8721   -0.1194   23.8831 C   0  0  0  0  0  0  0  0  0  0  0  0
    8.5170    3.6638   23.5371 C   0  0  0  0  0  0  0  0  0  0  0  0
    8.6238   -0.7606   22.6929 C   0  0  3  0  0  0  0  0  0  0  0  0
    8.2598   -3.3011   23.1247 C   0  0  0  0  0  0  0  0  0  0  0  0
    8.3706    3.5982   25.0409 C   0  0  0  0  0  0  0  0  0  0  0  0
    6.3328    3.2530   22.1873 N   0  0  0  0  0  0  0  0  0  0  0  0
    6.3062    0.3769   17.3421 N   0  0  0  0  0  0  0  0  0  0  0  0
    7.2292   -0.6897   20.7790 N   0  0  0  0  0  0  0  0  0  0  0  0
    8.0140   -2.1541   22.4331 N   0  0  0  0  0  0  0  0  0  0  0  0
    8.6609    1.0133   24.4995 N   0  0  2  0  0  0  0  0  0  0  0  0
    8.8033    1.0418   21.0877 O   0  0  0  0  0  0  0  0  0  0  0  0
    6.1123   -2.7500   21.1416 O   0  0  0  0  0  0  0  0  0  0  0  0
    8.2525    1.7766   26.9103 O   0  0  0  0  0  0  0  0  0  0  0  0
    6.3621    1.9388   25.2413 O   0  0  0  0  0  0  0  0  0  0  0  0
    7.7694    2.0141   25.5676 S   0  0  0  0  0  0  0  0  0  0  0  0
   13.4272   -2.1393   21.1076 Cl  0  0  0  0  0  0  0  0  0  0  0  0
    2.5432    3.3510   20.6369 H   0  0  0  0  0  0  0  0  0  0  0  0
    3.5174    2.1137   22.5168 H   0  0  0  0  0  0  0  0  0  0  0  0
    3.3409    2.9743   18.3364 H   0  0  0  0  0  0  0  0  0  0  0  0
    5.3118    0.4895   22.1572 H   0  0  0  0  0  0  0  0  0  0  0  0
   12.5021    0.6017   24.9722 H   0  0  0  0  0  0  0  0  0  0  0  0
   13.9909   -0.5140   23.3773 H   0  0  0  0  0  0  0  0  0  0  0  0
   10.6051   -2.0206   21.2263 H   0  0  0  0  0  0  0  0  0  0  0  0
    4.9141    1.7511   16.7474 H   0  0  0  0  0  0  0  0  0  0  0  0
    7.6445   -0.9764   18.1043 H   0  0  0  0  0  0  0  0  0  0  0  0
    9.7886   -0.1158   25.8360 H   0  0  0  0  0  0  0  0  0  0  0  0
   10.4811    1.4581   25.3598 H   0  0  0  0  0  0  0  0  0  0  0  0
    9.7832    2.6803   21.9619 H   0  0  0  0  0  0  0  0  0  0  0  0
   10.5878    2.8043   23.5847 H   0  0  0  0  0  0  0  0  0  0  0  0
   10.0906    5.2589   23.6426 H   0  0  0  0  0  0  0  0  0  0  0  0
    9.2863    5.1336   22.0199 H   0  0  0  0  0  0  0  0  0  0  0  0
    6.8946    0.2738   23.5526 H   0  0  0  0  0  0  0  0  0  0  0  0
    7.6748   -0.8555   24.6824 H   0  0  0  0  0  0  0  0  0  0  0  0
    9.0281   -3.8846   22.5964 H   0  0  0  0  0  0  0  0  0  0  0  0
    8.6196   -3.0496   24.1333 H   0  0  0  0  0  0  0  0  0  0  0  0
    7.3371   -3.8950   23.2021 H   0  0  0  0  0  0  0  0  0  0  0  0
    7.6590    4.3479   25.3979 H   0  0  0  0  0  0  0  0  0  0  0  0
    9.3325    3.7588   25.5353 H   0  0  0  0  0  0  0  0  0  0  0  0
  1 23  1  0  0  0  0
  1 27  3  0  0  0  0
  2  3  1  0  0  0  0
  2  4  2  0  0  0  0
  3  5  2  0  0  0  0
  4 11  1  0  0  0  0
  5 12  1  0  0  0  0
  6  7  1  0  0  0  0
  6 13  2  0  0  0  0
  7 16  2  0  0  0  0
  8 14  2  0  0  0  0
  8 16  1  0  0  0  0
  9 11  2  0  0  0  0
  9 28  1  0  0  0  0
 10 15  1  0  0  0  0
 10 28  2  0  0  0  0
 11 12  1  0  0  0  0
 12 15  2  0  0  0  0
 13 14  1  0  0  0  0
 13 19  1  0  0  0  0
 14 24  1  0  0  0  0
 15 29  1  0  0  0  0
 16 37  1  0  0  0  0
 17 24  1  0  0  0  0
 17 29  1  0  0  0  0
 17 32  2  0  0  0  0
 18 29  1  0  0  0  0
 18 30  1  0  0  0  0
 18 33  2  0  0  0  0
 19 31  1  0  0  0  0
 20 21  1  0  0  0  0
 20 23  1  0  0  0  0
 21 23  1  0  0  0  0
 22 24  1  0  0  0  0
 22 31  1  0  0  0  0
 23 26  1  0  0  0  0
 24 30  1  0  0  0  0
 25 30  1  0  0  0  0
 26 36  1  0  0  0  0
 31 36  1  6  0  0  0
 34 36  2  0  0  0  0
 35 36  2  0  0  0  0
  2 38  1  0  0  0  0
  3 39  1  0  0  0  0
  4 40  1  0  0  0  0
  5 41  1  0  0  0  0
  6 42  1  0  0  0  0
  7 43  1  0  0  0  0
  8 44  1  0  0  0  0
  9 45  1  0  0  0  0
 10 46  1  0  0  0  0
 19 47  1  0  0  0  0
 19 48  1  0  0  0  0
 20 49  1  0  0  0  0
 20 50  1  0  0  0  0
 21 51  1  0  0  0  0
 21 52  1  0  0  0  0
 22 53  1  0  0  0  0
 22 54  1  0  0  0  0
 25 55  1  0  0  0  0
 25 56  1  0  0  0  0
 25 57  1  0  0  0  0
 26 58  1  0  0  0  0
 26 59  1  0  0  0  0
M  END
> <compound>
MAT-POS-c2d406ed-2

> <compound_smiles>
CN1C(=O)N(C(=O)C12CN(Cc3c2cc(cc3)Cl)S(=O)(=O)CC4(CC4)C#N)c5cncc6c5cccc6

> <enantiomer_smiles>
CN1C(=O)N(C(=O)C12C[N@](Cc3c2cc(cc3)Cl)S(=O)(=O)CC4(CC4)C#N)c5cncc6c5cccc6

> <scaffold>
tetrahydroisoquinoline-5spiro-isoquinoline

> <clash_score>
0

> <docking_score>
-8.42799186706543

> <overlap_score>
1.0

> <MMFF_internal_energy>
104.53661143338203

> <docked_smiles>
CN1C(=O)N(C(=O)[C@@]12C[N@](Cc3c2cc(cc3)Cl)S(=O)(=O)CC4(CC4)C#N)c5cncc6c5cccc6

$$$$
MAT-POS-c2d406ed-4_1
  -OEChem-12272114583D

 59 64  0     1  0  0  0  0  0999 V2000
    7.0612    5.4485   23.9432 C   0  0  0  0  0  0  0  0  0  0  0  0
    3.3432    2.6279   20.4411 C   0  0  0  0  0  0  0  0  0  0  0  0
    3.8960    1.9291   21.5050 C   0  0  0  0  0  0  0  0  0  0  0  0
    3.7865    2.4205   19.1660 C   0  0  0  0  0  0  0  0  0  0  0  0
    4.8973    1.0233   21.2988 C   0  0  0  0  0  0  0  0  0  0  0  0
   12.0765    0.0316   24.1541 C   0  0  0  0  0  0  0  0  0  0  0  0
   12.9132   -0.6032   23.2569 C   0  0  0  0  0  0  0  0  0  0  0  0
   10.9991   -1.4331   22.0443 C   0  0  0  0  0  0  0  0  0  0  0  0
    5.3278    1.2339   17.6066 C   0  0  0  0  0  0  0  0  0  0  0  0
    6.8438   -0.2892   18.3752 C   0  0  0  0  0  0  0  0  0  0  0  0
    4.8226    1.4906   18.9054 C   0  0  0  0  0  0  0  0  0  0  0  0
    5.3982    0.7733   19.9948 C   0  0  0  0  0  0  0  0  0  0  0  0
   10.7040   -0.0625   23.9898 C   0  0  0  0  0  0  0  0  0  0  0  0
   10.1406   -0.7765   22.9250 C   0  0  0  0  0  0  0  0  0  0  0  0
    6.4440   -0.1472   19.6979 C   0  0  0  0  0  0  0  0  0  0  0  0
   12.3683   -1.3298   22.2234 C   0  0  0  0  0  0  0  0  0  0  0  0
    8.2490    0.0169   21.4271 C   0  0  0  0  0  0  0  0  0  0  0  0
    6.9866   -1.9366   21.3580 C   0  0  0  0  0  0  0  0  0  0  0  0
    9.9479    0.5589   24.9534 C   0  0  0  0  0  0  0  0  0  0  0  0
    9.5730    5.6504   23.8662 C   0  0  0  0  0  0  0  0  0  0  0  0
    9.1316    6.0879   25.2316 C   0  0  0  0  0  0  0  0  0  0  0  0
    7.8721   -0.1194   23.8831 C   0  0  0  0  0  0  0  0  0  0  0  0
    8.3331    5.0437   24.4838 C   0  0  0  0  0  0  0  0  0  0  0  0
    8.6238   -0.7606   22.6929 C   0  0  3  0  0  0  0  0  0  0  0  0
    8.5019   -3.3283   22.9661 C   0  0  0  0  0  0  0  0  0  0  0  0
    8.4054    3.6121   24.9658 C   0  0  0  0  0  0  0  0  0  0  0  0
    6.0365    5.7746   23.5075 N   0  0  0  0  0  0  0  0  0  0  0  0
    6.3062    0.3769   17.3421 N   0  0  0  0  0  0  0  0  0  0  0  0
    7.2292   -0.6897   20.7790 N   0  0  0  0  0  0  0  0  0  0  0  0
    8.0140   -2.1541   22.4331 N   0  0  0  0  0  0  0  0  0  0  0  0
    8.6609    1.0133   24.4995 N   0  0  1  0  0  0  0  0  0  0  0  0
    8.7580    1.0718   21.1099 O   0  0  0  0  0  0  0  0  0  0  0  0
    7.4299    2.5256   22.7990 O   0  0  0  0  0  0  0  0  0  0  0  0
    9.9377    2.7020   23.0549 O   0  0  0  0  0  0  0  0  0  0  0  0
    5.8681   -3.1089   20.9467 S   0  0  0  0  0  0  0  0  0  0  0  0
    8.6228    2.4813   23.6160 S   0  0  0  0  0  0  0  0  0  0  0  0
   13.4272   -2.1438   21.1109 Cl  0  0  0  0  0  0  0  0  0  0  0  0
    2.5432    3.3510   20.6369 H   0  0  0  0  0  0  0  0  0  0  0  0
    3.5174    2.1137   22.5168 H   0  0  0  0  0  0  0  0  0  0  0  0
    3.3409    2.9743   18.3364 H   0  0  0  0  0  0  0  0  0  0  0  0
    5.3118    0.4895   22.1572 H   0  0  0  0  0  0  0  0  0  0  0  0
   12.5015    0.5907   24.9801 H   0  0  0  0  0  0  0  0  0  0  0  0
   13.9908   -0.5229   23.3830 H   0  0  0  0  0  0  0  0  0  0  0  0
   10.6048   -2.0212   21.2266 H   0  0  0  0  0  0  0  0  0  0  0  0
    4.9141    1.7511   16.7474 H   0  0  0  0  0  0  0  0  0  0  0  0
    7.6445   -0.9764   18.1043 H   0  0  0  0  0  0  0  0  0  0  0  0
    9.7593   -0.1294   25.8187 H   0  0  0  0  0  0  0  0  0  0  0  0
   10.4945    1.4379   25.3866 H   0  0  0  0  0  0  0  0  0  0  0  0
    9.4624    6.3578   23.0520 H   0  0  0  0  0  0  0  0  0  0  0  0
   10.4682    5.0431   23.7977 H   0  0  0  0  0  0  0  0  0  0  0  0
    9.7320    5.7744   26.0778 H   0  0  0  0  0  0  0  0  0  0  0  0
    8.7265    7.0886   25.3309 H   0  0  0  0  0  0  0  0  0  0  0  0
    6.8947    0.2913   23.5732 H   0  0  0  0  0  0  0  0  0  0  0  0
    7.6759   -0.8747   24.6644 H   0  0  0  0  0  0  0  0  0  0  0  0
    9.3692   -3.6723   22.3835 H   0  0  0  0  0  0  0  0  0  0  0  0
    8.8065   -3.1540   24.0086 H   0  0  0  0  0  0  0  0  0  0  0  0
    7.7138   -4.0952   22.9377 H   0  0  0  0  0  0  0  0  0  0  0  0
    7.4844    3.3256   25.4811 H   0  0  0  0  0  0  0  0  0  0  0  0
    9.2504    3.4699   25.6449 H   0  0  0  0  0  0  0  0  0  0  0  0
  1 23  1  0  0  0  0
  1 27  3  0  0  0  0
  2  3  1  0  0  0  0
  2  4  2  0  0  0  0
  3  5  2  0  0  0  0
  4 11  1  0  0  0  0
  5 12  1  0  0  0  0
  6  7  1  0  0  0  0
  6 13  2  0  0  0  0
  7 16  2  0  0  0  0
  8 14  2  0  0  0  0
  8 16  1  0  0  0  0
  9 11  2  0  0  0  0
  9 28  1  0  0  0  0
 10 15  1  0  0  0  0
 10 28  2  0  0  0  0
 11 12  1  0  0  0  0
 12 15  2  0  0  0  0
 13 14  1  0  0  0  0
 13 19  1  0  0  0  0
 14 24  1  0  0  0  0
 15 29  1  0  0  0  0
 16 37  1  0  0  0  0
 17 24  1  0  0  0  0
 17 29  1  0  0  0  0
 17 32  2  0  0  0  0
 18 29  1  0  0  0  0
 18 30  1  0  0  0  0
 18 35  2  0  0  0  0
 19 31  1  0  0  0  0
 20 21  1  0  0  0  0
 20 23  1  0  0  0  0
 21 23  1  0  0  0  0
 22 24  1  0  0  0  0
 22 31  1  0  0  0  0
 23 26  1  0  0  0  0
 24 30  1  0  0  0  0
 25 30  1  0  0  0  0
 26 36  1  0  0  0  0
 31 36  1  1  0  0  0
 33 36  2  0  0  0  0
 34 36  2  0  0  0  0
  2 38  1  0  0  0  0
  3 39  1  0  0  0  0
  4 40  1  0  0  0  0
  5 41  1  0  0  0  0
  6 42  1  0  0  0  0
  7 43  1  0  0  0  0
  8 44  1  0  0  0  0
  9 45  1  0  0  0  0
 10 46  1  0  0  0  0
 19 47  1  0  0  0  0
 19 48  1  0  0  0  0
 20 49  1  0  0  0  0
 20 50  1  0  0  0  0
 21 51  1  0  0  0  0
 21 52  1  0  0  0  0
 22 53  1  0  0  0  0
 22 54  1  0  0  0  0
 25 55  1  0  0  0  0
 25 56  1  0  0  0  0
 25 57  1  0  0  0  0
 26 58  1  0  0  0  0
 26 59  1  0  0  0  0
M  END
> <compound>
MAT-POS-c2d406ed-4

> <compound_smiles>
CN1C(=S)N(C(=O)C12CN(Cc3c2cc(cc3)Cl)S(=O)(=O)CC4(CC4)C#N)c5cncc6c5cccc6

> <enantiomer_smiles>
CN1C(=S)N(C(=O)C12C[N@@](Cc3c2cc(cc3)Cl)S(=O)(=O)CC4(CC4)C#N)c5cncc6c5cccc6

> <scaffold>
tetrahydroisoquinoline-5spiro-isoquinoline

> <clash_score>
0

> <docking_score>
-8.32352352142334

> <overlap_score>
1.0

> <MMFF_internal_energy>
135.91662249996594

> <docked_smiles>
CN1C(=S)N(C(=O)[C@@]12C[N@@](Cc3c2cc(cc3)Cl)S(=O)(=O)CC4(CC4)C#N)c5cncc6c5cccc6

$$$$
MAT-POS-50a80394-2_3
  -OEChem-12272114583D

 64 69  0     1  0  0  0  0  0999 V2000
    7.3021    3.4444   22.7827 C   0  0  0  0  0  0  0  0  0  0  0  0
    3.3432    2.6279   20.4411 C   0  0  0  0  0  0  0  0  0  0  0  0
    3.8960    1.9291   21.5050 C   0  0  0  0  0  0  0  0  0  0  0  0
    3.7865    2.4205   19.1660 C   0  0  0  0  0  0  0  0  0  0  0  0
    4.8973    1.0233   21.2988 C   0  0  0  0  0  0  0  0  0  0  0  0
   12.0765    0.0316   24.1541 C   0  0  0  0  0  0  0  0  0  0  0  0
   12.9132   -0.6032   23.2569 C   0  0  0  0  0  0  0  0  0  0  0  0
   10.9991   -1.4331   22.0443 C   0  0  0  0  0  0  0  0  0  0  0  0
    5.3278    1.2339   17.6066 C   0  0  0  0  0  0  0  0  0  0  0  0
    6.8438   -0.2892   18.3752 C   0  0  0  0  0  0  0  0  0  0  0  0
    4.8226    1.4906   18.9054 C   0  0  0  0  0  0  0  0  0  0  0  0
    5.3982    0.7733   19.9948 C   0  0  0  0  0  0  0  0  0  0  0  0
   10.7040   -0.0625   23.9898 C   0  0  0  0  0  0  0  0  0  0  0  0
   10.1406   -0.7765   22.9250 C   0  0  0  0  0  0  0  0  0  0  0  0
    6.4440   -0.1472   19.6979 C   0  0  0  0  0  0  0  0  0  0  0  0
   12.3683   -1.3298   22.2234 C   0  0  0  0  0  0  0  0  0  0  0  0
    8.2490    0.0169   21.4271 C   0  0  0  0  0  0  0  0  0  0  0  0
    9.9479    0.5589   24.9534 C   0  0  0  0  0  0  0  0  0  0  0  0
    9.8076    3.2003   22.9200 C   0  0  0  0  0  0  0  0  0  0  0  0
    9.4994    4.6680   22.9571 C   0  0  0  0  0  0  0  0  0  0  0  0
    6.9866   -1.9366   21.3580 C   0  0  0  0  0  0  0  0  0  0  0  0
    7.8721   -0.1194   23.8831 C   0  0  0  0  0  0  0  0  0  0  0  0
    8.0140   -2.1541   22.4331 C   0  0  2  0  0  0  0  0  0  0  0  0
    8.5098    3.6789   23.5312 C   0  0  0  0  0  0  0  0  0  0  0  0
    8.6238   -0.7606   22.6929 C   0  0  3  0  0  0  0  0  0  0  0  0
    8.2744   -4.5636   21.7974 C   0  0  0  0  0  0  0  0  0  0  0  0
    8.9909   -3.2809   22.0742 C   0  0  0  0  0  0  0  0  0  0  0  0
    8.3630    3.6099   25.0348 C   0  0  0  0  0  0  0  0  0  0  0  0
    6.3291    3.2555   22.1796 N   0  0  0  0  0  0  0  0  0  0  0  0
    6.3062    0.3769   17.3421 N   0  0  0  0  0  0  0  0  0  0  0  0
    7.2292   -0.6897   20.7790 N   0  0  0  0  0  0  0  0  0  0  0  0
    8.6609    1.0133   24.4995 N   0  0  2  0  0  0  0  0  0  0  0  0
    8.8282    1.0393   21.0751 O   0  0  0  0  0  0  0  0  0  0  0  0
    8.2270    1.7999   26.9143 O   0  0  0  0  0  0  0  0  0  0  0  0
    6.3738    1.9237   25.2009 O   0  0  0  0  0  0  0  0  0  0  0  0
    7.7723    2.0208   25.5587 S   0  0  0  0  0  0  0  0  0  0  0  0
   13.4274   -2.1434   21.1105 Cl  0  0  0  0  0  0  0  0  0  0  0  0
    2.5432    3.3510   20.6369 H   0  0  0  0  0  0  0  0  0  0  0  0
    3.5174    2.1137   22.5168 H   0  0  0  0  0  0  0  0  0  0  0  0
    3.3409    2.9743   18.3364 H   0  0  0  0  0  0  0  0  0  0  0  0
    5.3118    0.4895   22.1572 H   0  0  0  0  0  0  0  0  0  0  0  0
   12.5025    0.5963   24.9751 H   0  0  0  0  0  0  0  0  0  0  0  0
   13.9912   -0.5180   23.3793 H   0  0  0  0  0  0  0  0  0  0  0  0
   10.6049   -2.0193   21.2265 H   0  0  0  0  0  0  0  0  0  0  0  0
    4.9141    1.7511   16.7474 H   0  0  0  0  0  0  0  0  0  0  0  0
    7.6445   -0.9764   18.1043 H   0  0  0  0  0  0  0  0  0  0  0  0
    9.7848   -0.1184   25.8317 H   0  0  0  0  0  0  0  0  0  0  0  0
   10.4795    1.4567   25.3619 H   0  0  0  0  0  0  0  0  0  0  0  0
    9.7835    2.7064   21.9551 H   0  0  0  0  0  0  0  0  0  0  0  0
   10.5864    2.8332   23.5785 H   0  0  0  0  0  0  0  0  0  0  0  0
   10.0726    5.2843   23.6401 H   0  0  0  0  0  0  0  0  0  0  0  0
    9.2700    5.1562   22.0167 H   0  0  0  0  0  0  0  0  0  0  0  0
    7.0378   -2.7208   20.5626 H   0  0  0  0  0  0  0  0  0  0  0  0
    5.9498   -1.9850   21.7745 H   0  0  0  0  0  0  0  0  0  0  0  0
    6.8879    0.2595   23.5690 H   0  0  0  0  0  0  0  0  0  0  0  0
    7.6762   -0.8602   24.6766 H   0  0  0  0  0  0  0  0  0  0  0  0
    7.4776   -2.4981   23.3384 H   0  0  0  0  0  0  0  0  0  0  0  0
    7.6965   -4.8631   22.6796 H   0  0  0  0  0  0  0  0  0  0  0  0
    8.9848   -5.3652   21.5687 H   0  0  0  0  0  0  0  0  0  0  0  0
    7.5792   -4.4481   20.9591 H   0  0  0  0  0  0  0  0  0  0  0  0
    9.5658   -2.9871   21.1904 H   0  0  0  0  0  0  0  0  0  0  0  0
    9.7008   -3.4304   22.8938 H   0  0  0  0  0  0  0  0  0  0  0  0
    7.6463    4.3542   25.3927 H   0  0  0  0  0  0  0  0  0  0  0  0
    9.3236    3.7761   25.5300 H   0  0  0  0  0  0  0  0  0  0  0  0
  1 24  1  0  0  0  0
  1 29  3  0  0  0  0
  2  3  1  0  0  0  0
  2  4  2  0  0  0  0
  3  5  2  0  0  0  0
  4 11  1  0  0  0  0
  5 12  1  0  0  0  0
  6  7  1  0  0  0  0
  6 13  2  0  0  0  0
  7 16  2  0  0  0  0
  8 14  2  0  0  0  0
  8 16  1  0  0  0  0
  9 11  2  0  0  0  0
  9 30  1  0  0  0  0
 10 15  1  0  0  0  0
 10 30  2  0  0  0  0
 11 12  1  0  0  0  0
 12 15  2  0  0  0  0
 13 14  1  0  0  0  0
 13 18  1  0  0  0  0
 14 25  1  0  0  0  0
 15 31  1  0  0  0  0
 16 37  1  0  0  0  0
 17 25  1  0  0  0  0
 17 31  1  0  0  0  0
 17 33  2  0  0  0  0
 18 32  1  0  0  0  0
 19 20  1  0  0  0  0
 19 24  1  0  0  0  0
 20 24  1  0  0  0  0
 21 23  1  0  0  0  0
 21 31  1  0  0  0  0
 22 25  1  0  0  0  0
 22 32  1  0  0  0  0
 23 25  1  0  0  0  0
 23 27  1  1  0  0  0
 24 28  1  0  0  0  0
 26 27  1  0  0  0  0
 28 36  1  0  0  0  0
 32 36  1  6  0  0  0
 34 36  2  0  0  0  0
 35 36  2  0  0  0  0
  2 38  1  0  0  0  0
  3 39  1  0  0  0  0
  4 40  1  0  0  0  0
  5 41  1  0  0  0  0
  6 42  1  0  0  0  0
  7 43  1  0  0  0  0
  8 44  1  0  0  0  0
  9 45  1  0  0  0  0
 10 46  1  0  0  0  0
 18 47  1  0  0  0  0
 18 48  1  0  0  0  0
 19 49  1  0  0  0  0
 19 50  1  0  0  0  0
 20 51  1  0  0  0  0
 20 52  1  0  0  0  0
 21 53  1  0  0  0  0
 21 54  1  0  0  0  0
 22 55  1  0  0  0  0
 22 56  1  0  0  0  0
 23 57  1  0  0  0  0
 26 58  1  0  0  0  0
 26 59  1  0  0  0  0
 26 60  1  0  0  0  0
 27 61  1  0  0  0  0
 27 62  1  0  0  0  0
 28 63  1  0  0  0  0
 28 64  1  0  0  0  0
M  END
> <compound>
MAT-POS-50a80394-2

> <compound_smiles>
CCC1CN(C(=O)C12CN(Cc3c2cc(cc3)Cl)S(=O)(=O)CC4(CC4)C#N)c5cncc6c5cccc6

> <enantiomer_smiles>
CC[C@@H]1CN(C(=O)C12C[N@](Cc3c2cc(cc3)Cl)S(=O)(=O)CC4(CC4)C#N)c5cncc6c5cccc6

> <scaffold>
tetrahydroisoquinoline-5spiro-isoquinoline

> <clash_score>
0

> <docking_score>
-7.147648811340332

> <overlap_score>
0.9827978610992432

> <MMFF_internal_energy>
155.16027422420396

> <docked_smiles>
CC[C@@H]1CN(C(=O)[C@@]12C[N@](Cc3c2cc(cc3)Cl)S(=O)(=O)CC4(CC4)C#N)c5cncc6c5cccc6

$$$$
MAT-POS-50a80394-8_2
  -OEChem-12272114583D

 64 69  0     1  0  0  0  0  0999 V2000
    9.7295    2.9952   22.9490 C   0  0  0  0  0  0  0  0  0  0  0  0
    3.3432    2.6279   20.4411 C   0  0  0  0  0  0  0  0  0  0  0  0
    3.8960    1.9291   21.5050 C   0  0  0  0  0  0  0  0  0  0  0  0
    3.7865    2.4205   19.1660 C   0  0  0  0  0  0  0  0  0  0  0  0
    4.8973    1.0233   21.2988 C   0  0  0  0  0  0  0  0  0  0  0  0
   12.0765    0.0316   24.1541 C   0  0  0  0  0  0  0  0  0  0  0  0
   12.9132   -0.6032   23.2569 C   0  0  0  0  0  0  0  0  0  0  0  0
   10.9991   -1.4331   22.0443 C   0  0  0  0  0  0  0  0  0  0  0  0
    5.3278    1.2339   17.6066 C   0  0  0  0  0  0  0  0  0  0  0  0
    6.8438   -0.2892   18.3752 C   0  0  0  0  0  0  0  0  0  0  0  0
    4.8226    1.4906   18.9054 C   0  0  0  0  0  0  0  0  0  0  0  0
    5.3982    0.7733   19.9948 C   0  0  0  0  0  0  0  0  0  0  0  0
   10.7040   -0.0625   23.9898 C   0  0  0  0  0  0  0  0  0  0  0  0
   10.1406   -0.7765   22.9250 C   0  0  0  0  0  0  0  0  0  0  0  0
    6.4440   -0.1472   19.6979 C   0  0  0  0  0  0  0  0  0  0  0  0
   12.3683   -1.3298   22.2234 C   0  0  0  0  0  0  0  0  0  0  0  0
    8.2490    0.0169   21.4271 C   0  0  0  0  0  0  0  0  0  0  0  0
    9.9479    0.5589   24.9534 C   0  0  0  0  0  0  0  0  0  0  0  0
    8.0085    4.8222   22.7123 C   0  0  0  0  0  0  0  0  0  0  0  0
    7.2833    3.5118   22.6255 C   0  0  0  0  0  0  0  0  0  0  0  0
    7.8721   -0.1194   23.8831 C   0  0  0  0  0  0  0  0  0  0  0  0
    6.9866   -1.9366   21.3580 C   0  0  0  0  0  0  0  0  0  0  0  0
    8.5383    3.6206   23.4624 C   0  0  0  0  0  0  0  0  0  0  0  0
    8.6238   -0.7606   22.6929 C   0  0  3  0  0  0  0  0  0  0  0  0
    8.0140   -2.1541   22.4331 C   0  0  0  0  0  0  0  0  0  0  0  0
    9.0552   -3.1959   21.8974 C   0  0  0  0  0  0  0  0  0  0  0  0
    7.3479   -2.8320   23.6679 C   0  0  0  0  0  0  0  0  0  0  0  0
    8.3942    3.6007   24.9677 C   0  0  0  0  0  0  0  0  0  0  0  0
   10.6893    2.4913   22.5353 N   0  0  0  0  0  0  0  0  0  0  0  0
    6.3062    0.3769   17.3421 N   0  0  0  0  0  0  0  0  0  0  0  0
    7.2292   -0.6897   20.7790 N   0  0  0  0  0  0  0  0  0  0  0  0
    8.6609    1.0133   24.4995 N   0  0  2  0  0  0  0  0  0  0  0  0
    8.7469    1.0972   21.1313 O   0  0  0  0  0  0  0  0  0  0  0  0
    8.2571    1.8399   26.8932 O   0  0  0  0  0  0  0  0  0  0  0  0
    6.3692    1.9685   25.2185 O   0  0  0  0  0  0  0  0  0  0  0  0
    7.7782    2.0385   25.5419 S   0  0  0  0  0  0  0  0  0  0  0  0
   13.4288   -2.1399   21.1100 Cl  0  0  0  0  0  0  0  0  0  0  0  0
    2.5432    3.3510   20.6369 H   0  0  0  0  0  0  0  0  0  0  0  0
    3.5174    2.1137   22.5168 H   0  0  0  0  0  0  0  0  0  0  0  0
    3.3409    2.9743   18.3364 H   0  0  0  0  0  0  0  0  0  0  0  0
    5.3118    0.4895   22.1572 H   0  0  0  0  0  0  0  0  0  0  0  0
   12.5031    0.5926   24.9773 H   0  0  0  0  0  0  0  0  0  0  0  0
   13.9913   -0.5215   23.3823 H   0  0  0  0  0  0  0  0  0  0  0  0
   10.6194   -2.0198   21.2236 H   0  0  0  0  0  0  0  0  0  0  0  0
    4.9141    1.7511   16.7474 H   0  0  0  0  0  0  0  0  0  0  0  0
    7.6445   -0.9764   18.1043 H   0  0  0  0  0  0  0  0  0  0  0  0
    9.7776   -0.1233   25.8218 H   0  0  0  0  0  0  0  0  0  0  0  0
   10.4771    1.4542   25.3606 H   0  0  0  0  0  0  0  0  0  0  0  0
    8.5351    5.1641   21.8285 H   0  0  0  0  0  0  0  0  0  0  0  0
    7.5395    5.6199   23.2766 H   0  0  0  0  0  0  0  0  0  0  0  0
    6.3278    3.4322   23.1310 H   0  0  0  0  0  0  0  0  0  0  0  0
    7.3241    2.9776   21.6830 H   0  0  0  0  0  0  0  0  0  0  0  0
    6.8749    0.2487   23.5824 H   0  0  0  0  0  0  0  0  0  0  0  0
    7.6673   -0.8621   24.6804 H   0  0  0  0  0  0  0  0  0  0  0  0
    7.0020   -2.7375   20.5760 H   0  0  0  0  0  0  0  0  0  0  0  0
    5.9440   -1.9421   21.7620 H   0  0  0  0  0  0  0  0  0  0  0  0
    9.7964   -3.3867   22.6620 H   0  0  0  0  0  0  0  0  0  0  0  0
    9.5254   -2.7722   21.0200 H   0  0  0  0  0  0  0  0  0  0  0  0
    8.5413   -4.1123   21.6393 H   0  0  0  0  0  0  0  0  0  0  0  0
    8.0932   -3.0083   24.4367 H   0  0  0  0  0  0  0  0  0  0  0  0
    6.9000   -3.7746   23.3707 H   0  0  0  0  0  0  0  0  0  0  0  0
    6.5799   -2.1670   24.0496 H   0  0  0  0  0  0  0  0  0  0  0  0
    7.6908    4.3677   25.3037 H   0  0  0  0  0  0  0  0  0  0  0  0
    9.3586    3.7661   25.4554 H   0  0  0  0  0  0  0  0  0  0  0  0
  1 23  1  0  0  0  0
  1 29  3  0  0  0  0
  2  3  1  0  0  0  0
  2  4  2  0  0  0  0
  3  5  2  0  0  0  0
  4 11  1  0  0  0  0
  5 12  1  0  0  0  0
  6  7  1  0  0  0  0
  6 13  2  0  0  0  0
  7 16  2  0  0  0  0
  8 14  2  0  0  0  0
  8 16  1  0  0  0  0
  9 11  2  0  0  0  0
  9 30  1  0  0  0  0
 10 15  1  0  0  0  0
 10 30  2  0  0  0  0
 11 12  1  0  0  0  0
 12 15  2  0  0  0  0
 13 14  1  0  0  0  0
 13 18  1  0  0  0  0
 14 24  1  0  0  0  0
 15 31  1  0  0  0  0
 16 37  1  0  0  0  0
 17 24  1  0  0  0  0
 17 31  1  0  0  0  0
 17 33  2  0  0  0  0
 18 32  1  0  0  0  0
 19 20  1  0  0  0  0
 19 23  1  0  0  0  0
 20 23  1  0  0  0  0
 21 24  1  0  0  0  0
 21 32  1  0  0  0  0
 22 25  1  0  0  0  0
 22 31  1  0  0  0  0
 23 28  1  0  0  0  0
 24 25  1  0  0  0  0
 25 26  1  0  0  0  0
 25 27  1  0  0  0  0
 28 36  1  0  0  0  0
 32 36  1  6  0  0  0
 34 36  2  0  0  0  0
 35 36  2  0  0  0  0
  2 38  1  0  0  0  0
  3 39  1  0  0  0  0
  4 40  1  0  0  0  0
  5 41  1  0  0  0  0
  6 42  1  0  0  0  0
  7 43  1  0  0  0  0
  8 44  1  0  0  0  0
  9 45  1  0  0  0  0
 10 46  1  0  0  0  0
 18 47  1  0  0  0  0
 18 48  1  0  0  0  0
 19 49  1  0  0  0  0
 19 50  1  0  0  0  0
 20 51  1  0  0  0  0
 20 52  1  0  0  0  0
 21 53  1  0  0  0  0
 21 54  1  0  0  0  0
 22 55  1  0  0  0  0
 22 56  1  0  0  0  0
 26 57  1  0  0  0  0
 26 58  1  0  0  0  0
 26 59  1  0  0  0  0
 27 60  1  0  0  0  0
 27 61  1  0  0  0  0
 27 62  1  0  0  0  0
 28 63  1  0  0  0  0
 28 64  1  0  0  0  0
M  END
> <compound>
MAT-POS-50a80394-8

> <compound_smiles>
CC1(CN(C(=O)C12CN(Cc3c2cc(cc3)Cl)S(=O)(=O)CC4(CC4)C#N)c5cncc6c5cccc6)C

> <enantiomer_smiles>
CC1(CN(C(=O)C12C[N@](Cc3c2cc(cc3)Cl)S(=O)(=O)CC4(CC4)C#N)c5cncc6c5cccc6)C

> <scaffold>
tetrahydroisoquinoline-5spiro-isoquinoline

> <clash_score>
0

> <docking_score>
-8.221510887145996

> <overlap_score>
0.9909545183181763

> <MMFF_internal_energy>
180.20179985835117

> <docked_smiles>
CC1(CN(C(=O)[C@@]12C[N@](Cc3c2cc(cc3)Cl)S(=O)(=O)CC4(CC4)C#N)c5cncc6c5cccc6)C

$$$$
MAT-POS-c2d406ed-4_2
  -OEChem-12272114583D

 59 64  0     1  0  0  0  0  0999 V2000
    7.2952    3.4630   22.8062 C   0  0  0  0  0  0  0  0  0  0  0  0
    3.3432    2.6279   20.4411 C   0  0  0  0  0  0  0  0  0  0  0  0
    3.8960    1.9291   21.5050 C   0  0  0  0  0  0  0  0  0  0  0  0
    3.7865    2.4205   19.1660 C   0  0  0  0  0  0  0  0  0  0  0  0
    4.8973    1.0233   21.2988 C   0  0  0  0  0  0  0  0  0  0  0  0
   12.0765    0.0316   24.1541 C   0  0  0  0  0  0  0  0  0  0  0  0
   12.9132   -0.6032   23.2569 C   0  0  0  0  0  0  0  0  0  0  0  0
   10.9991   -1.4331   22.0443 C   0  0  0  0  0  0  0  0  0  0  0  0
    5.3278    1.2339   17.6066 C   0  0  0  0  0  0  0  0  0  0  0  0
    6.8438   -0.2892   18.3752 C   0  0  0  0  0  0  0  0  0  0  0  0
    4.8226    1.4906   18.9054 C   0  0  0  0  0  0  0  0  0  0  0  0
    5.3982    0.7733   19.9948 C   0  0  0  0  0  0  0  0  0  0  0  0
   10.7040   -0.0625   23.9898 C   0  0  0  0  0  0  0  0  0  0  0  0
   10.1406   -0.7765   22.9250 C   0  0  0  0  0  0  0  0  0  0  0  0
    6.4440   -0.1472   19.6979 C   0  0  0  0  0  0  0  0  0  0  0  0
   12.3683   -1.3298   22.2234 C   0  0  0  0  0  0  0  0  0  0  0  0
    8.2490    0.0169   21.4271 C   0  0  0  0  0  0  0  0  0  0  0  0
    6.9866   -1.9366   21.3580 C   0  0  0  0  0  0  0  0  0  0  0  0
    9.9479    0.5589   24.9534 C   0  0  0  0  0  0  0  0  0  0  0  0
    9.8014    3.2261   22.9423 C   0  0  0  0  0  0  0  0  0  0  0  0
    9.4881    4.6923   22.9940 C   0  0  0  0  0  0  0  0  0  0  0  0
    7.8721   -0.1194   23.8831 C   0  0  0  0  0  0  0  0  0  0  0  0
    8.5017    3.6941   23.5577 C   0  0  0  0  0  0  0  0  0  0  0  0
    8.6238   -0.7606   22.6929 C   0  0  3  0  0  0  0  0  0  0  0  0
    8.2667   -3.2695   23.2031 C   0  0  0  0  0  0  0  0  0  0  0  0
    8.3544    3.6095   25.0604 C   0  0  0  0  0  0  0  0  0  0  0  0
    6.3231    3.2767   22.2008 N   0  0  0  0  0  0  0  0  0  0  0  0
    6.3062    0.3769   17.3421 N   0  0  0  0  0  0  0  0  0  0  0  0
    7.2292   -0.6897   20.7790 N   0  0  0  0  0  0  0  0  0  0  0  0
    8.0140   -2.1541   22.4331 N   0  0  0  0  0  0  0  0  0  0  0  0
    8.6609    1.0133   24.4995 N   0  0  2  0  0  0  0  0  0  0  0  0
    8.7972    1.0424   21.0800 O   0  0  0  0  0  0  0  0  0  0  0  0
    8.2358    1.7739   26.9161 O   0  0  0  0  0  0  0  0  0  0  0  0
    6.3680    1.9195   25.2204 O   0  0  0  0  0  0  0  0  0  0  0  0
    5.7503   -3.0259   21.0755 S   0  0  0  0  0  0  0  0  0  0  0  0
    7.7690    2.0134   25.5680 S   0  0  0  0  0  0  0  0  0  0  0  0
   13.4268   -2.1437   21.1106 Cl  0  0  0  0  0  0  0  0  0  0  0  0
    2.5432    3.3510   20.6369 H   0  0  0  0  0  0  0  0  0  0  0  0
    3.5174    2.1137   22.5168 H   0  0  0  0  0  0  0  0  0  0  0  0
    3.3409    2.9743   18.3364 H   0  0  0  0  0  0  0  0  0  0  0  0
    5.3118    0.4895   22.1572 H   0  0  0  0  0  0  0  0  0  0  0  0
   12.5022    0.6004   24.9730 H   0  0  0  0  0  0  0  0  0  0  0  0
   13.9909   -0.5152   23.3776 H   0  0  0  0  0  0  0  0  0  0  0  0
   10.6049   -2.0202   21.2260 H   0  0  0  0  0  0  0  0  0  0  0  0
    4.9141    1.7511   16.7474 H   0  0  0  0  0  0  0  0  0  0  0  0
    7.6445   -0.9764   18.1043 H   0  0  0  0  0  0  0  0  0  0  0  0
    9.7884   -0.1170   25.8347 H   0  0  0  0  0  0  0  0  0  0  0  0
   10.4807    1.4579   25.3605 H   0  0  0  0  0  0  0  0  0  0  0  0
    9.7794    2.7419   21.9725 H   0  0  0  0  0  0  0  0  0  0  0  0
   10.5812    2.8552   23.5975 H   0  0  0  0  0  0  0  0  0  0  0  0
   10.0588    5.3038   23.6834 H   0  0  0  0  0  0  0  0  0  0  0  0
    9.2574    5.1891   22.0584 H   0  0  0  0  0  0  0  0  0  0  0  0
    6.8945    0.2735   23.5524 H   0  0  0  0  0  0  0  0  0  0  0  0
    7.6745   -0.8556   24.6824 H   0  0  0  0  0  0  0  0  0  0  0  0
    9.0217   -3.8910   22.6993 H   0  0  0  0  0  0  0  0  0  0  0  0
    8.6448   -2.9605   24.1888 H   0  0  0  0  0  0  0  0  0  0  0  0
    7.3407   -3.8493   23.3309 H   0  0  0  0  0  0  0  0  0  0  0  0
    7.6349    4.3477   25.4254 H   0  0  0  0  0  0  0  0  0  0  0  0
    9.3142    3.7741   25.5577 H   0  0  0  0  0  0  0  0  0  0  0  0
  1 23  1  0  0  0  0
  1 27  3  0  0  0  0
  2  3  1  0  0  0  0
  2  4  2  0  0  0  0
  3  5  2  0  0  0  0
  4 11  1  0  0  0  0
  5 12  1  0  0  0  0
  6  7  1  0  0  0  0
  6 13  2  0  0  0  0
  7 16  2  0  0  0  0
  8 14  2  0  0  0  0
  8 16  1  0  0  0  0
  9 11  2  0  0  0  0
  9 28  1  0  0  0  0
 10 15  1  0  0  0  0
 10 28  2  0  0  0  0
 11 12  1  0  0  0  0
 12 15  2  0  0  0  0
 13 14  1  0  0  0  0
 13 19  1  0  0  0  0
 14 24  1  0  0  0  0
 15 29  1  0  0  0  0
 16 37  1  0  0  0  0
 17 24  1  0  0  0  0
 17 29  1  0  0  0  0
 17 32  2  0  0  0  0
 18 29  1  0  0  0  0
 18 30  1  0  0  0  0
 18 35  2  0  0  0  0
 19 31  1  0  0  0  0
 20 21  1  0  0  0  0
 20 23  1  0  0  0  0
 21 23  1  0  0  0  0
 22 24  1  0  0  0  0
 22 31  1  0  0  0  0
 23 26  1  0  0  0  0
 24 30  1  0  0  0  0
 25 30  1  0  0  0  0
 26 36  1  0  0  0  0
 31 36  1  6  0  0  0
 33 36  2  0  0  0  0
 34 36  2  0  0  0  0
  2 38  1  0  0  0  0
  3 39  1  0  0  0  0
  4 40  1  0  0  0  0
  5 41  1  0  0  0  0
  6 42  1  0  0  0  0
  7 43  1  0  0  0  0
  8 44  1  0  0  0  0
  9 45  1  0  0  0  0
 10 46  1  0  0  0  0
 19 47  1  0  0  0  0
 19 48  1  0  0  0  0
 20 49  1  0  0  0  0
 20 50  1  0  0  0  0
 21 51  1  0  0  0  0
 21 52  1  0  0  0  0
 22 53  1  0  0  0  0
 22 54  1  0  0  0  0
 25 55  1  0  0  0  0
 25 56  1  0  0  0  0
 25 57  1  0  0  0  0
 26 58  1  0  0  0  0
 26 59  1  0  0  0  0
M  END
> <compound>
MAT-POS-c2d406ed-4

> <compound_smiles>
CN1C(=S)N(C(=O)C12CN(Cc3c2cc(cc3)Cl)S(=O)(=O)CC4(CC4)C#N)c5cncc6c5cccc6

> <enantiomer_smiles>
CN1C(=S)N(C(=O)C12C[N@](Cc3c2cc(cc3)Cl)S(=O)(=O)CC4(CC4)C#N)c5cncc6c5cccc6

> <scaffold>
tetrahydroisoquinoline-5spiro-isoquinoline

> <clash_score>
0

> <docking_score>
-8.467297554016113

> <overlap_score>
1.0

> <MMFF_internal_energy>
133.03908755539578

> <docked_smiles>
CN1C(=S)N(C(=O)[C@@]12C[N@](Cc3c2cc(cc3)Cl)S(=O)(=O)CC4(CC4)C#N)c5cncc6c5cccc6

$$$$
MAT-POS-50a80394-2_2
  -OEChem-12272114583D

 64 69  0     1  0  0  0  0  0999 V2000
    9.9899    5.1261   23.7595 C   0  0  0  0  0  0  0  0  0  0  0  0
    3.3432    2.6279   20.4411 C   0  0  0  0  0  0  0  0  0  0  0  0
    3.8960    1.9291   21.5050 C   0  0  0  0  0  0  0  0  0  0  0  0
    3.7865    2.4205   19.1660 C   0  0  0  0  0  0  0  0  0  0  0  0
    4.8973    1.0233   21.2988 C   0  0  0  0  0  0  0  0  0  0  0  0
   12.0765    0.0316   24.1541 C   0  0  0  0  0  0  0  0  0  0  0  0
   12.9132   -0.6032   23.2569 C   0  0  0  0  0  0  0  0  0  0  0  0
   10.9991   -1.4331   22.0443 C   0  0  0  0  0  0  0  0  0  0  0  0
    5.3278    1.2339   17.6066 C   0  0  0  0  0  0  0  0  0  0  0  0
    6.8438   -0.2892   18.3752 C   0  0  0  0  0  0  0  0  0  0  0  0
    4.8226    1.4906   18.9054 C   0  0  0  0  0  0  0  0  0  0  0  0
    5.3982    0.7733   19.9948 C   0  0  0  0  0  0  0  0  0  0  0  0
   10.7040   -0.0625   23.9898 C   0  0  0  0  0  0  0  0  0  0  0  0
   10.1406   -0.7765   22.9250 C   0  0  0  0  0  0  0  0  0  0  0  0
    6.4440   -0.1472   19.6979 C   0  0  0  0  0  0  0  0  0  0  0  0
   12.3683   -1.3298   22.2234 C   0  0  0  0  0  0  0  0  0  0  0  0
    8.2490    0.0169   21.4271 C   0  0  0  0  0  0  0  0  0  0  0  0
    9.9479    0.5589   24.9534 C   0  0  0  0  0  0  0  0  0  0  0  0
    8.5281    6.1569   25.5361 C   0  0  0  0  0  0  0  0  0  0  0  0
    7.7007    6.0392   24.2902 C   0  0  0  0  0  0  0  0  0  0  0  0
    6.9866   -1.9366   21.3580 C   0  0  0  0  0  0  0  0  0  0  0  0
    7.8721   -0.1194   23.8831 C   0  0  0  0  0  0  0  0  0  0  0  0
    8.0140   -2.1541   22.4331 C   0  0  1  0  0  0  0  0  0  0  0  0
    8.7969    5.0330   24.5607 C   0  0  0  0  0  0  0  0  0  0  0  0
    8.6238   -0.7606   22.6929 C   0  0  3  0  0  0  0  0  0  0  0  0
    6.8239   -4.2024   23.2605 C   0  0  0  0  0  0  0  0  0  0  0  0
    7.4299   -2.8908   23.6451 C   0  0  0  0  0  0  0  0  0  0  0  0
    8.3938    3.6314   24.9609 C   0  0  0  0  0  0  0  0  0  0  0  0
   10.9510    5.2012   23.1140 N   0  0  0  0  0  0  0  0  0  0  0  0
    6.3062    0.3769   17.3421 N   0  0  0  0  0  0  0  0  0  0  0  0
    7.2292   -0.6897   20.7790 N   0  0  0  0  0  0  0  0  0  0  0  0
    8.6609    1.0133   24.4995 N   0  0  1  0  0  0  0  0  0  0  0  0
    8.7540    1.0949   21.1312 O   0  0  0  0  0  0  0  0  0  0  0  0
    7.4193    2.5019   22.8158 O   0  0  0  0  0  0  0  0  0  0  0  0
    9.9262    2.7134   23.0538 O   0  0  0  0  0  0  0  0  0  0  0  0
    8.6175    2.4839   23.6263 S   0  0  0  0  0  0  0  0  0  0  0  0
   13.4271   -2.1406   21.1083 Cl  0  0  0  0  0  0  0  0  0  0  0  0
    2.5432    3.3510   20.6369 H   0  0  0  0  0  0  0  0  0  0  0  0
    3.5174    2.1137   22.5168 H   0  0  0  0  0  0  0  0  0  0  0  0
    3.3409    2.9743   18.3364 H   0  0  0  0  0  0  0  0  0  0  0  0
    5.3118    0.4895   22.1572 H   0  0  0  0  0  0  0  0  0  0  0  0
   12.5026    0.5939   24.9767 H   0  0  0  0  0  0  0  0  0  0  0  0
   13.9911   -0.5201   23.3811 H   0  0  0  0  0  0  0  0  0  0  0  0
   10.6049   -2.0193   21.2265 H   0  0  0  0  0  0  0  0  0  0  0  0
    4.9141    1.7511   16.7474 H   0  0  0  0  0  0  0  0  0  0  0  0
    7.6445   -0.9764   18.1043 H   0  0  0  0  0  0  0  0  0  0  0  0
    9.7589   -0.1287   25.8179 H   0  0  0  0  0  0  0  0  0  0  0  0
   10.4929    1.4385   25.3837 H   0  0  0  0  0  0  0  0  0  0  0  0
    9.2310    6.9802   25.5960 H   0  0  0  0  0  0  0  0  0  0  0  0
    8.0513    5.9208   26.4804 H   0  0  0  0  0  0  0  0  0  0  0  0
    6.6692    5.7249   24.4002 H   0  0  0  0  0  0  0  0  0  0  0  0
    7.8497    6.7844   23.5170 H   0  0  0  0  0  0  0  0  0  0  0  0
    7.0302   -2.7464   20.5879 H   0  0  0  0  0  0  0  0  0  0  0  0
    5.9444   -1.9500   21.7629 H   0  0  0  0  0  0  0  0  0  0  0  0
    6.8971    0.2879   23.5658 H   0  0  0  0  0  0  0  0  0  0  0  0
    7.6525   -0.8675   24.6597 H   0  0  0  0  0  0  0  0  0  0  0  0
    8.7896   -2.8266   22.0174 H   0  0  0  0  0  0  0  0  0  0  0  0
    6.0362   -4.0423   22.5150 H   0  0  0  0  0  0  0  0  0  0  0  0
    6.3739   -4.6934   24.1299 H   0  0  0  0  0  0  0  0  0  0  0  0
    7.5772   -4.8654   22.8218 H   0  0  0  0  0  0  0  0  0  0  0  0
    8.2152   -3.0570   24.3893 H   0  0  0  0  0  0  0  0  0  0  0  0
    6.6656   -2.2591   24.1088 H   0  0  0  0  0  0  0  0  0  0  0  0
    7.3385    3.5937   25.2450 H   0  0  0  0  0  0  0  0  0  0  0  0
    8.9992    3.2741   25.7983 H   0  0  0  0  0  0  0  0  0  0  0  0
  1 24  1  0  0  0  0
  1 29  3  0  0  0  0
  2  3  1  0  0  0  0
  2  4  2  0  0  0  0
  3  5  2  0  0  0  0
  4 11  1  0  0  0  0
  5 12  1  0  0  0  0
  6  7  1  0  0  0  0
  6 13  2  0  0  0  0
  7 16  2  0  0  0  0
  8 14  2  0  0  0  0
  8 16  1  0  0  0  0
  9 11  2  0  0  0  0
  9 30  1  0  0  0  0
 10 15  1  0  0  0  0
 10 30  2  0  0  0  0
 11 12  1  0  0  0  0
 12 15  2  0  0  0  0
 13 14  1  0  0  0  0
 13 18  1  0  0  0  0
 14 25  1  0  0  0  0
 15 31  1  0  0  0  0
 16 37  1  0  0  0  0
 17 25  1  0  0  0  0
 17 31  1  0  0  0  0
 17 33  2  0  0  0  0
 18 32  1  0  0  0  0
 19 20  1  0  0  0  0
 19 24  1  0  0  0  0
 20 24  1  0  0  0  0
 21 23  1  0  0  0  0
 21 31  1  0  0  0  0
 22 25  1  0  0  0  0
 22 32  1  0  0  0  0
 23 25  1  0  0  0  0
 23 27  1  6  0  0  0
 24 28  1  0  0  0  0
 26 27  1  0  0  0  0
 28 36  1  0  0  0  0
 32 36  1  1  0  0  0
 34 36  2  0  0  0  0
 35 36  2  0  0  0  0
  2 38  1  0  0  0  0
  3 39  1  0  0  0  0
  4 40  1  0  0  0  0
  5 41  1  0  0  0  0
  6 42  1  0  0  0  0
  7 43  1  0  0  0  0
  8 44  1  0  0  0  0
  9 45  1  0  0  0  0
 10 46  1  0  0  0  0
 18 47  1  0  0  0  0
 18 48  1  0  0  0  0
 19 49  1  0  0  0  0
 19 50  1  0  0  0  0
 20 51  1  0  0  0  0
 20 52  1  0  0  0  0
 21 53  1  0  0  0  0
 21 54  1  0  0  0  0
 22 55  1  0  0  0  0
 22 56  1  0  0  0  0
 23 57  1  0  0  0  0
 26 58  1  0  0  0  0
 26 59  1  0  0  0  0
 26 60  1  0  0  0  0
 27 61  1  0  0  0  0
 27 62  1  0  0  0  0
 28 63  1  0  0  0  0
 28 64  1  0  0  0  0
M  END
> <compound>
MAT-POS-50a80394-2

> <compound_smiles>
CCC1CN(C(=O)C12CN(Cc3c2cc(cc3)Cl)S(=O)(=O)CC4(CC4)C#N)c5cncc6c5cccc6

> <enantiomer_smiles>
CC[C@H]1CN(C(=O)C12C[N@@](Cc3c2cc(cc3)Cl)S(=O)(=O)CC4(CC4)C#N)c5cncc6c5cccc6

> <scaffold>
tetrahydroisoquinoline-5spiro-isoquinoline

> <clash_score>
0

> <docking_score>
-9.752692222595215

> <overlap_score>
0.9820701479911804

> <MMFF_internal_energy>
145.89897529267304

> <docked_smiles>
CC[C@H]1CN(C(=O)[C@@]12C[N@@](Cc3c2cc(cc3)Cl)S(=O)(=O)CC4(CC4)C#N)c5cncc6c5cccc6

$$$$
EDJ-MED-5cd3920d-6_2
  -OEChem-12272114583D

 60 65  0     1  0  0  0  0  0999 V2000
    3.3432    2.6279   20.4411 C   0  0  0  0  0  0  0  0  0  0  0  0
    3.8960    1.9291   21.5050 C   0  0  0  0  0  0  0  0  0  0  0  0
    3.7865    2.4205   19.1660 C   0  0  0  0  0  0  0  0  0  0  0  0
    4.8973    1.0233   21.2988 C   0  0  0  0  0  0  0  0  0  0  0  0
   12.0765    0.0316   24.1541 C   0  0  0  0  0  0  0  0  0  0  0  0
   12.9132   -0.6032   23.2569 C   0  0  0  0  0  0  0  0  0  0  0  0
   10.9991   -1.4331   22.0443 C   0  0  0  0  0  0  0  0  0  0  0  0
    5.3278    1.2339   17.6066 C   0  0  0  0  0  0  0  0  0  0  0  0
    6.8438   -0.2892   18.3752 C   0  0  0  0  0  0  0  0  0  0  0  0
    4.8226    1.4906   18.9054 C   0  0  0  0  0  0  0  0  0  0  0  0
    5.3982    0.7733   19.9948 C   0  0  0  0  0  0  0  0  0  0  0  0
   10.7040   -0.0625   23.9898 C   0  0  0  0  0  0  0  0  0  0  0  0
   10.1406   -0.7765   22.9250 C   0  0  0  0  0  0  0  0  0  0  0  0
    6.4440   -0.1472   19.6979 C   0  0  0  0  0  0  0  0  0  0  0  0
   12.3683   -1.3298   22.2234 C   0  0  0  0  0  0  0  0  0  0  0  0
    8.2490    0.0169   21.4271 C   0  0  0  0  0  0  0  0  0  0  0  0
    9.9479    0.5589   24.9534 C   0  0  0  0  0  0  0  0  0  0  0  0
    7.1814    4.9201   26.8804 C   0  0  0  0  0  0  0  0  0  0  0  0
    8.0558    5.8953   26.1452 C   0  0  0  0  0  0  0  0  0  0  0  0
    8.0140   -2.1541   22.4331 C   0  0  0  0  0  0  0  0  0  0  0  0
    6.9866   -1.9366   21.3580 C   0  0  0  0  0  0  0  0  0  0  0  0
    7.8721   -0.1194   23.8831 C   0  0  0  0  0  0  0  0  0  0  0  0
    8.6238   -0.7606   22.6929 C   0  0  3  0  0  0  0  0  0  0  0  0
    7.4618    4.7167   25.4097 C   0  0  0  0  0  0  0  0  0  0  0  0
    8.3874    3.5882   25.0137 C   0  0  0  0  0  0  0  0  0  0  0  0
    6.3470    4.9825   24.4358 C   0  0  0  0  0  0  0  0  0  0  0  0
    6.3062    0.3769   17.3421 N   0  0  0  0  0  0  0  0  0  0  0  0
    7.2292   -0.6897   20.7790 N   0  0  0  0  0  0  0  0  0  0  0  0
    8.6609    1.0133   24.4995 N   0  0  2  0  0  0  0  0  0  0  0  0
    8.8299    1.0397   21.0799 O   0  0  0  0  0  0  0  0  0  0  0  0
    8.2407    1.8013   26.9144 O   0  0  0  0  0  0  0  0  0  0  0  0
    6.3653    1.9471   25.2271 O   0  0  0  0  0  0  0  0  0  0  0  0
    5.9287    6.2633   24.5181 F   0  0  0  0  0  0  0  0  0  0  0  0
    6.7497    4.7573   23.1674 F   0  0  0  0  0  0  0  0  0  0  0  0
    5.2881    4.1829   24.6839 F   0  0  0  0  0  0  0  0  0  0  0  0
    7.7708    2.0177   25.5632 S   0  0  0  0  0  0  0  0  0  0  0  0
   13.4272   -2.1411   21.1086 Cl  0  0  0  0  0  0  0  0  0  0  0  0
    2.5432    3.3510   20.6369 H   0  0  0  0  0  0  0  0  0  0  0  0
    3.5174    2.1137   22.5168 H   0  0  0  0  0  0  0  0  0  0  0  0
    3.3409    2.9743   18.3364 H   0  0  0  0  0  0  0  0  0  0  0  0
    5.3118    0.4895   22.1572 H   0  0  0  0  0  0  0  0  0  0  0  0
   12.5024    0.5995   24.9735 H   0  0  0  0  0  0  0  0  0  0  0  0
   13.9910   -0.5177   23.3793 H   0  0  0  0  0  0  0  0  0  0  0  0
   10.6036   -2.0162   21.2241 H   0  0  0  0  0  0  0  0  0  0  0  0
    4.9141    1.7511   16.7474 H   0  0  0  0  0  0  0  0  0  0  0  0
    7.6445   -0.9764   18.1043 H   0  0  0  0  0  0  0  0  0  0  0  0
    9.7849   -0.1194   25.8306 H   0  0  0  0  0  0  0  0  0  0  0  0
   10.4793    1.4568   25.3613 H   0  0  0  0  0  0  0  0  0  0  0  0
    7.6563    4.2589   27.5956 H   0  0  0  0  0  0  0  0  0  0  0  0
    6.1953    5.2551   27.1795 H   0  0  0  0  0  0  0  0  0  0  0  0
    7.6551    6.8834   25.9521 H   0  0  0  0  0  0  0  0  0  0  0  0
    9.1161    5.8873   26.3682 H   0  0  0  0  0  0  0  0  0  0  0  0
    7.5152   -2.5456   23.3338 H   0  0  0  0  0  0  0  0  0  0  0  0
    8.7649   -2.9030   22.1434 H   0  0  0  0  0  0  0  0  0  0  0  0
    7.0587   -2.7248   20.5721 H   0  0  0  0  0  0  0  0  0  0  0  0
    5.9518   -1.9952   21.7720 H   0  0  0  0  0  0  0  0  0  0  0  0
    6.8867    0.2641   23.5642 H   0  0  0  0  0  0  0  0  0  0  0  0
    7.6652   -0.8660   24.6733 H   0  0  0  0  0  0  0  0  0  0  0  0
    9.3774    3.7195   25.4591 H   0  0  0  0  0  0  0  0  0  0  0  0
    8.4924    3.5311   23.9269 H   0  0  0  0  0  0  0  0  0  0  0  0
  1  2  1  0  0  0  0
  1  3  2  0  0  0  0
  2  4  2  0  0  0  0
  3 10  1  0  0  0  0
  4 11  1  0  0  0  0
  5  6  1  0  0  0  0
  5 12  2  0  0  0  0
  6 15  2  0  0  0  0
  7 13  2  0  0  0  0
  7 15  1  0  0  0  0
  8 10  2  0  0  0  0
  8 27  1  0  0  0  0
  9 14  1  0  0  0  0
  9 27  2  0  0  0  0
 10 11  1  0  0  0  0
 11 14  2  0  0  0  0
 12 13  1  0  0  0  0
 12 17  1  0  0  0  0
 13 23  1  0  0  0  0
 14 28  1  0  0  0  0
 15 37  1  0  0  0  0
 16 23  1  0  0  0  0
 16 28  1  0  0  0  0
 16 30  2  0  0  0  0
 17 29  1  0  0  0  0
 18 19  1  0  0  0  0
 18 24  1  0  0  0  0
 19 24  1  0  0  0  0
 20 21  1  0  0  0  0
 20 23  1  0  0  0  0
 21 28  1  0  0  0  0
 22 23  1  0  0  0  0
 22 29  1  0  0  0  0
 24 25  1  0  0  0  0
 24 26  1  0  0  0  0
 25 36  1  0  0  0  0
 26 33  1  0  0  0  0
 26 34  1  0  0  0  0
 26 35  1  0  0  0  0
 29 36  1  6  0  0  0
 31 36  2  0  0  0  0
 32 36  2  0  0  0  0
  1 38  1  0  0  0  0
  2 39  1  0  0  0  0
  3 40  1  0  0  0  0
  4 41  1  0  0  0  0
  5 42  1  0  0  0  0
  6 43  1  0  0  0  0
  7 44  1  0  0  0  0
  8 45  1  0  0  0  0
  9 46  1  0  0  0  0
 17 47  1  0  0  0  0
 17 48  1  0  0  0  0
 18 49  1  0  0  0  0
 18 50  1  0  0  0  0
 19 51  1  0  0  0  0
 19 52  1  0  0  0  0
 20 53  1  0  0  0  0
 20 54  1  0  0  0  0
 21 55  1  0  0  0  0
 21 56  1  0  0  0  0
 22 57  1  0  0  0  0
 22 58  1  0  0  0  0
 25 59  1  0  0  0  0
 25 60  1  0  0  0  0
M  END
> <compound>
EDJ-MED-5cd3920d-6

> <compound_smiles>
c1ccc2c(c1)cncc2N3CCC4(C3=O)CN(Cc5c4cc(cc5)Cl)S(=O)(=O)CC6(CC6)C(F)(F)F

> <enantiomer_smiles>
c1ccc2c(c1)cncc2N3CCC4(C3=O)C[N@](Cc5c4cc(cc5)Cl)S(=O)(=O)CC6(CC6)C(F)(F)F

> <scaffold>
tetrahydroisoquinoline-5spiro-isoquinoline

> <clash_score>
0

> <docking_score>
-7.860902309417725

> <overlap_score>
0.9661125540733337

> <MMFF_internal_energy>
124.33999480985216

> <docked_smiles>
c1ccc2c(c1)cncc2N3CC[C@@]4(C3=O)C[N@](Cc5c4cc(cc5)Cl)S(=O)(=O)CC6(CC6)C(F)(F)F

$$$$
MAT-POS-50a80394-8_1
  -OEChem-12272114583D

 64 69  0     1  0  0  0  0  0999 V2000
    9.9465    5.1462   23.8694 C   0  0  0  0  0  0  0  0  0  0  0  0
    3.3432    2.6279   20.4411 C   0  0  0  0  0  0  0  0  0  0  0  0
    3.8960    1.9291   21.5050 C   0  0  0  0  0  0  0  0  0  0  0  0
    3.7865    2.4205   19.1660 C   0  0  0  0  0  0  0  0  0  0  0  0
    4.8973    1.0233   21.2988 C   0  0  0  0  0  0  0  0  0  0  0  0
   12.0765    0.0316   24.1541 C   0  0  0  0  0  0  0  0  0  0  0  0
   12.9132   -0.6032   23.2569 C   0  0  0  0  0  0  0  0  0  0  0  0
   10.9991   -1.4331   22.0443 C   0  0  0  0  0  0  0  0  0  0  0  0
    5.3278    1.2339   17.6066 C   0  0  0  0  0  0  0  0  0  0  0  0
    6.8438   -0.2892   18.3752 C   0  0  0  0  0  0  0  0  0  0  0  0
    4.8226    1.4906   18.9054 C   0  0  0  0  0  0  0  0  0  0  0  0
    5.3982    0.7733   19.9948 C   0  0  0  0  0  0  0  0  0  0  0  0
   10.7040   -0.0625   23.9898 C   0  0  0  0  0  0  0  0  0  0  0  0
   10.1406   -0.7765   22.9250 C   0  0  0  0  0  0  0  0  0  0  0  0
    6.4440   -0.1472   19.6979 C   0  0  0  0  0  0  0  0  0  0  0  0
   12.3683   -1.3298   22.2234 C   0  0  0  0  0  0  0  0  0  0  0  0
    8.2490    0.0169   21.4271 C   0  0  0  0  0  0  0  0  0  0  0  0
    9.9479    0.5589   24.9534 C   0  0  0  0  0  0  0  0  0  0  0  0
    8.4706    6.1030   25.6755 C   0  0  0  0  0  0  0  0  0  0  0  0
    7.6462    6.0153   24.4252 C   0  0  0  0  0  0  0  0  0  0  0  0
    7.8721   -0.1194   23.8831 C   0  0  0  0  0  0  0  0  0  0  0  0
    6.9866   -1.9366   21.3580 C   0  0  0  0  0  0  0  0  0  0  0  0
    8.7537    5.0138   24.6653 C   0  0  0  0  0  0  0  0  0  0  0  0
    8.6238   -0.7606   22.6929 C   0  0  3  0  0  0  0  0  0  0  0  0
    8.0140   -2.1541   22.4331 C   0  0  0  0  0  0  0  0  0  0  0  0
    9.0240   -3.2511   21.9811 C   0  0  0  0  0  0  0  0  0  0  0  0
    7.2810   -2.7524   23.6825 C   0  0  0  0  0  0  0  0  0  0  0  0
    8.3666    3.5956   25.0202 C   0  0  0  0  0  0  0  0  0  0  0  0
   10.9076    5.2528   23.2281 N   0  0  0  0  0  0  0  0  0  0  0  0
    6.3062    0.3769   17.3421 N   0  0  0  0  0  0  0  0  0  0  0  0
    7.2292   -0.6897   20.7790 N   0  0  0  0  0  0  0  0  0  0  0  0
    8.6609    1.0133   24.4995 N   0  0  1  0  0  0  0  0  0  0  0  0
    8.8293    1.0353   21.0690 O   0  0  0  0  0  0  0  0  0  0  0  0
    7.3990    2.5082   22.8503 O   0  0  0  0  0  0  0  0  0  0  0  0
    9.9021    2.7748   23.0718 O   0  0  0  0  0  0  0  0  0  0  0  0
    8.6053    2.4935   23.6499 S   0  0  0  0  0  0  0  0  0  0  0  0
   13.4286   -2.1426   21.1119 Cl  0  0  0  0  0  0  0  0  0  0  0  0
    2.5432    3.3510   20.6369 H   0  0  0  0  0  0  0  0  0  0  0  0
    3.5174    2.1137   22.5168 H   0  0  0  0  0  0  0  0  0  0  0  0
    3.3409    2.9743   18.3364 H   0  0  0  0  0  0  0  0  0  0  0  0
    5.3118    0.4895   22.1572 H   0  0  0  0  0  0  0  0  0  0  0  0
   12.5032    0.5981   24.9735 H   0  0  0  0  0  0  0  0  0  0  0  0
   13.9913   -0.5173   23.3792 H   0  0  0  0  0  0  0  0  0  0  0  0
   10.6195   -2.0221   21.2251 H   0  0  0  0  0  0  0  0  0  0  0  0
    4.9141    1.7511   16.7474 H   0  0  0  0  0  0  0  0  0  0  0  0
    7.6445   -0.9764   18.1043 H   0  0  0  0  0  0  0  0  0  0  0  0
    9.7600   -0.1238   25.8170 H   0  0  0  0  0  0  0  0  0  0  0  0
   10.4898    1.4430   25.3693 H   0  0  0  0  0  0  0  0  0  0  0  0
    9.1638    6.9320   25.7627 H   0  0  0  0  0  0  0  0  0  0  0  0
    7.9954    5.8314   26.6111 H   0  0  0  0  0  0  0  0  0  0  0  0
    6.6183    5.6857   24.5235 H   0  0  0  0  0  0  0  0  0  0  0  0
    7.7874    6.7864   23.6763 H   0  0  0  0  0  0  0  0  0  0  0  0
    6.8880    0.2843   23.5705 H   0  0  0  0  0  0  0  0  0  0  0  0
    7.6323   -0.8662   24.6610 H   0  0  0  0  0  0  0  0  0  0  0  0
    7.0408   -2.7150   20.5571 H   0  0  0  0  0  0  0  0  0  0  0  0
    5.9376   -1.9871   21.7456 H   0  0  0  0  0  0  0  0  0  0  0  0
    9.7543   -3.4238   22.7652 H   0  0  0  0  0  0  0  0  0  0  0  0
    9.5269   -2.9040   21.0843 H   0  0  0  0  0  0  0  0  0  0  0  0
    8.4924   -4.1730   21.7680 H   0  0  0  0  0  0  0  0  0  0  0  0
    8.0034   -2.9385   24.4661 H   0  0  0  0  0  0  0  0  0  0  0  0
    6.7915   -3.6749   23.4001 H   0  0  0  0  0  0  0  0  0  0  0  0
    6.5490   -2.0283   24.0146 H   0  0  0  0  0  0  0  0  0  0  0  0
    7.3114    3.5366   25.3012 H   0  0  0  0  0  0  0  0  0  0  0  0
    8.9751    3.2189   25.8468 H   0  0  0  0  0  0  0  0  0  0  0  0
  1 23  1  0  0  0  0
  1 29  3  0  0  0  0
  2  3  1  0  0  0  0
  2  4  2  0  0  0  0
  3  5  2  0  0  0  0
  4 11  1  0  0  0  0
  5 12  1  0  0  0  0
  6  7  1  0  0  0  0
  6 13  2  0  0  0  0
  7 16  2  0  0  0  0
  8 14  2  0  0  0  0
  8 16  1  0  0  0  0
  9 11  2  0  0  0  0
  9 30  1  0  0  0  0
 10 15  1  0  0  0  0
 10 30  2  0  0  0  0
 11 12  1  0  0  0  0
 12 15  2  0  0  0  0
 13 14  1  0  0  0  0
 13 18  1  0  0  0  0
 14 24  1  0  0  0  0
 15 31  1  0  0  0  0
 16 37  1  0  0  0  0
 17 24  1  0  0  0  0
 17 31  1  0  0  0  0
 17 33  2  0  0  0  0
 18 32  1  0  0  0  0
 19 20  1  0  0  0  0
 19 23  1  0  0  0  0
 20 23  1  0  0  0  0
 21 24  1  0  0  0  0
 21 32  1  0  0  0  0
 22 25  1  0  0  0  0
 22 31  1  0  0  0  0
 23 28  1  0  0  0  0
 24 25  1  0  0  0  0
 25 26  1  0  0  0  0
 25 27  1  0  0  0  0
 28 36  1  0  0  0  0
 32 36  1  1  0  0  0
 34 36  2  0  0  0  0
 35 36  2  0  0  0  0
  2 38  1  0  0  0  0
  3 39  1  0  0  0  0
  4 40  1  0  0  0  0
  5 41  1  0  0  0  0
  6 42  1  0  0  0  0
  7 43  1  0  0  0  0
  8 44  1  0  0  0  0
  9 45  1  0  0  0  0
 10 46  1  0  0  0  0
 18 47  1  0  0  0  0
 18 48  1  0  0  0  0
 19 49  1  0  0  0  0
 19 50  1  0  0  0  0
 20 51  1  0  0  0  0
 20 52  1  0  0  0  0
 21 53  1  0  0  0  0
 21 54  1  0  0  0  0
 22 55  1  0  0  0  0
 22 56  1  0  0  0  0
 26 57  1  0  0  0  0
 26 58  1  0  0  0  0
 26 59  1  0  0  0  0
 27 60  1  0  0  0  0
 27 61  1  0  0  0  0
 27 62  1  0  0  0  0
 28 63  1  0  0  0  0
 28 64  1  0  0  0  0
M  END
> <compound>
MAT-POS-50a80394-8

> <compound_smiles>
CC1(CN(C(=O)C12CN(Cc3c2cc(cc3)Cl)S(=O)(=O)CC4(CC4)C#N)c5cncc6c5cccc6)C

> <enantiomer_smiles>
CC1(CN(C(=O)C12C[N@@](Cc3c2cc(cc3)Cl)S(=O)(=O)CC4(CC4)C#N)c5cncc6c5cccc6)C

> <scaffold>
tetrahydroisoquinoline-5spiro-isoquinoline

> <clash_score>
0

> <docking_score>
-8.681124687194824

> <overlap_score>
0.9891626834869385

> <MMFF_internal_energy>
188.55261961735243

> <docked_smiles>
CC1(CN(C(=O)[C@@]12C[N@@](Cc3c2cc(cc3)Cl)S(=O)(=O)CC4(CC4)C#N)c5cncc6c5cccc6)C

$$$$
EDJ-MED-b6c6ee2b-3_1
  -OEChem-12272114583D

 62 67  0     1  0  0  0  0  0999 V2000
    9.9899    5.1222   23.8236 C   0  0  0  0  0  0  0  0  0  0  0  0
    3.7865    2.4205   19.1660 C   0  0  0  0  0  0  0  0  0  0  0  0
   12.0765    0.0316   24.1541 C   0  0  0  0  0  0  0  0  0  0  0  0
    3.3432    2.6279   20.4411 C   0  0  0  0  0  0  0  0  0  0  0  0
   12.9132   -0.6032   23.2569 C   0  0  0  0  0  0  0  0  0  0  0  0
    4.8973    1.0233   21.2988 C   0  0  0  0  0  0  0  0  0  0  0  0
   10.9991   -1.4331   22.0443 C   0  0  0  0  0  0  0  0  0  0  0  0
    5.3278    1.2339   17.6066 C   0  0  0  0  0  0  0  0  0  0  0  0
    6.8438   -0.2892   18.3752 C   0  0  0  0  0  0  0  0  0  0  0  0
    4.8226    1.4906   18.9054 C   0  0  0  0  0  0  0  0  0  0  0  0
    5.3982    0.7733   19.9948 C   0  0  0  0  0  0  0  0  0  0  0  0
   10.7040   -0.0625   23.9898 C   0  0  0  0  0  0  0  0  0  0  0  0
   10.1406   -0.7765   22.9250 C   0  0  0  0  0  0  0  0  0  0  0  0
    6.4440   -0.1472   19.6979 C   0  0  0  0  0  0  0  0  0  0  0  0
    3.8960    1.9291   21.5050 C   0  0  0  0  0  0  0  0  0  0  0  0
   12.3683   -1.3298   22.2234 C   0  0  0  0  0  0  0  0  0  0  0  0
    8.2490    0.0169   21.4271 C   0  0  0  0  0  0  0  0  0  0  0  0
    9.9479    0.5589   24.9534 C   0  0  0  0  0  0  0  0  0  0  0  0
    8.5324    6.1021   25.6323 C   0  0  0  0  0  0  0  0  0  0  0  0
    7.7014    6.0179   24.3861 C   0  0  0  0  0  0  0  0  0  0  0  0
    8.0140   -2.1541   22.4331 C   0  0  0  0  0  0  0  0  0  0  0  0
    6.9866   -1.9366   21.3580 C   0  0  0  0  0  0  0  0  0  0  0  0
    7.8721   -0.1194   23.8831 C   0  0  0  0  0  0  0  0  0  0  0  0
    8.7994    5.0058   24.6255 C   0  0  0  0  0  0  0  0  0  0  0  0
    8.6238   -0.7606   22.6929 C   0  0  3  0  0  0  0  0  0  0  0  0
    4.0184    1.4190   23.8362 C   0  0  0  0  0  0  0  0  0  0  0  0
    8.3989    3.5932   24.9882 C   0  0  0  0  0  0  0  0  0  0  0  0
   10.9490    5.2161   23.1776 N   0  0  0  0  0  0  0  0  0  0  0  0
    6.3062    0.3769   17.3421 N   0  0  0  0  0  0  0  0  0  0  0  0
    7.2292   -0.6897   20.7790 N   0  0  0  0  0  0  0  0  0  0  0  0
    8.6609    1.0133   24.4995 N   0  0  1  0  0  0  0  0  0  0  0  0
    8.7572    1.0941   21.1350 O   0  0  0  0  0  0  0  0  0  0  0  0
    7.4179    2.5201   22.8172 O   0  0  0  0  0  0  0  0  0  0  0  0
    9.9251    2.7322   23.0499 O   0  0  0  0  0  0  0  0  0  0  0  0
    3.4227    2.1582   22.7714 O   0  0  0  0  0  0  0  0  0  0  0  0
    8.6198    2.4832   23.6217 S   0  0  0  0  0  0  0  0  0  0  0  0
   13.4275   -2.1421   21.1097 Cl  0  0  0  0  0  0  0  0  0  0  0  0
    3.3406    2.9746   18.3368 H   0  0  0  0  0  0  0  0  0  0  0  0
   12.5015    0.5938   24.9776 H   0  0  0  0  0  0  0  0  0  0  0  0
    2.5407    3.3506   20.6306 H   0  0  0  0  0  0  0  0  0  0  0  0
   13.9911   -0.5212   23.3814 H   0  0  0  0  0  0  0  0  0  0  0  0
    5.3162    0.4858   22.1535 H   0  0  0  0  0  0  0  0  0  0  0  0
   10.6037   -2.0228   21.2288 H   0  0  0  0  0  0  0  0  0  0  0  0
    4.9131    1.7514   16.7479 H   0  0  0  0  0  0  0  0  0  0  0  0
    7.6448   -0.9758   18.1041 H   0  0  0  0  0  0  0  0  0  0  0  0
    9.7581   -0.1287   25.8173 H   0  0  0  0  0  0  0  0  0  0  0  0
   10.4931    1.4391   25.3829 H   0  0  0  0  0  0  0  0  0  0  0  0
    9.2347    6.9241   25.7129 H   0  0  0  0  0  0  0  0  0  0  0  0
    8.0587    5.8395   26.5712 H   0  0  0  0  0  0  0  0  0  0  0  0
    6.6706    5.6996   24.4905 H   0  0  0  0  0  0  0  0  0  0  0  0
    7.8473    6.7843   23.6333 H   0  0  0  0  0  0  0  0  0  0  0  0
    7.5801   -2.6060   23.3366 H   0  0  0  0  0  0  0  0  0  0  0  0
    8.7749   -2.8608   22.0657 H   0  0  0  0  0  0  0  0  0  0  0  0
    7.0227   -2.7506   20.5953 H   0  0  0  0  0  0  0  0  0  0  0  0
    5.9554   -1.9484   21.7832 H   0  0  0  0  0  0  0  0  0  0  0  0
    6.8886    0.2769   23.5666 H   0  0  0  0  0  0  0  0  0  0  0  0
    7.6579   -0.8710   24.6633 H   0  0  0  0  0  0  0  0  0  0  0  0
    3.5453    1.6951   24.7817 H   0  0  0  0  0  0  0  0  0  0  0  0
    5.0892    1.6342   23.8759 H   0  0  0  0  0  0  0  0  0  0  0  0
    3.8697    0.3519   23.6549 H   0  0  0  0  0  0  0  0  0  0  0  0
    7.3445    3.5466   25.2742 H   0  0  0  0  0  0  0  0  0  0  0  0
    9.0072    3.2136   25.8136 H   0  0  0  0  0  0  0  0  0  0  0  0
  1 24  1  0  0  0  0
  1 28  3  0  0  0  0
  2  4  2  0  0  0  0
  2 10  1  0  0  0  0
  3  5  1  0  0  0  0
  3 12  2  0  0  0  0
  4 15  1  0  0  0  0
  5 16  2  0  0  0  0
  6 11  1  0  0  0  0
  6 15  2  0  0  0  0
  7 13  2  0  0  0  0
  7 16  1  0  0  0  0
  8 10  1  0  0  0  0
  8 29  2  0  0  0  0
  9 14  2  0  0  0  0
  9 29  1  0  0  0  0
 10 11  2  0  0  0  0
 11 14  1  0  0  0  0
 12 13  1  0  0  0  0
 12 18  1  0  0  0  0
 13 25  1  0  0  0  0
 14 30  1  0  0  0  0
 15 35  1  0  0  0  0
 16 37  1  0  0  0  0
 17 25  1  0  0  0  0
 17 30  1  0  0  0  0
 17 32  2  0  0  0  0
 18 31  1  0  0  0  0
 19 20  1  0  0  0  0
 19 24  1  0  0  0  0
 20 24  1  0  0  0  0
 21 22  1  0  0  0  0
 21 25  1  0  0  0  0
 22 30  1  0  0  0  0
 23 25  1  0  0  0  0
 23 31  1  0  0  0  0
 24 27  1  0  0  0  0
 26 35  1  0  0  0  0
 27 36  1  0  0  0  0
 31 36  1  1  0  0  0
 33 36  2  0  0  0  0
 34 36  2  0  0  0  0
  2 38  1  0  0  0  0
  3 39  1  0  0  0  0
  4 40  1  0  0  0  0
  5 41  1  0  0  0  0
  6 42  1  0  0  0  0
  7 43  1  0  0  0  0
  8 44  1  0  0  0  0
  9 45  1  0  0  0  0
 18 46  1  0  0  0  0
 18 47  1  0  0  0  0
 19 48  1  0  0  0  0
 19 49  1  0  0  0  0
 20 50  1  0  0  0  0
 20 51  1  0  0  0  0
 21 52  1  0  0  0  0
 21 53  1  0  0  0  0
 22 54  1  0  0  0  0
 22 55  1  0  0  0  0
 23 56  1  0  0  0  0
 23 57  1  0  0  0  0
 26 58  1  0  0  0  0
 26 59  1  0  0  0  0
 26 60  1  0  0  0  0
 27 61  1  0  0  0  0
 27 62  1  0  0  0  0
M  END
> <compound>
EDJ-MED-b6c6ee2b-3

> <compound_smiles>
COc1ccc2cncc(c2c1)N3CCC4(C3=O)CN(Cc5c4cc(cc5)Cl)S(=O)(=O)CC6(CC6)C#N

> <enantiomer_smiles>
COc1ccc2cncc(c2c1)N3CCC4(C3=O)C[N@@](Cc5c4cc(cc5)Cl)S(=O)(=O)CC6(CC6)C#N

> <scaffold>
tetrahydroisoquinoline-5spiro-isoquinoline

> <clash_score>
0

> <docking_score>
-8.869606971740723

> <overlap_score>
0.9827956557273865

> <MMFF_internal_energy>
139.79205955015973

> <docked_smiles>
COc1ccc2cncc(c2c1)N3CC[C@@]4(C3=O)C[N@@](Cc5c4cc(cc5)Cl)S(=O)(=O)CC6(CC6)C#N

$$$$
EDJ-MED-7e491f08-1_1
  -OEChem-12272114583D

 58 63  0     1  0  0  0  0  0999 V2000
    9.4757    5.5316   23.7833 C   0  0  0  0  0  0  0  0  0  0  0  0
    3.3432    2.6279   20.4411 C   0  0  0  0  0  0  0  0  0  0  0  0
    3.8960    1.9291   21.5050 C   0  0  0  0  0  0  0  0  0  0  0  0
    3.7865    2.4205   19.1660 C   0  0  0  0  0  0  0  0  0  0  0  0
    4.8973    1.0233   21.2988 C   0  0  0  0  0  0  0  0  0  0  0  0
   12.0765    0.0316   24.1541 C   0  0  0  0  0  0  0  0  0  0  0  0
   12.9132   -0.6032   23.2569 C   0  0  0  0  0  0  0  0  0  0  0  0
   10.9991   -1.4331   22.0443 C   0  0  0  0  0  0  0  0  0  0  0  0
    5.3278    1.2339   17.6066 C   0  0  0  0  0  0  0  0  0  0  0  0
    6.8438   -0.2892   18.3752 C   0  0  0  0  0  0  0  0  0  0  0  0
    4.8226    1.4906   18.9054 C   0  0  0  0  0  0  0  0  0  0  0  0
    5.3982    0.7733   19.9948 C   0  0  0  0  0  0  0  0  0  0  0  0
   10.7040   -0.0625   23.9898 C   0  0  0  0  0  0  0  0  0  0  0  0
   10.1406   -0.7765   22.9250 C   0  0  0  0  0  0  0  0  0  0  0  0
    6.4440   -0.1472   19.6979 C   0  0  0  0  0  0  0  0  0  0  0  0
   12.3683   -1.3298   22.2234 C   0  0  0  0  0  0  0  0  0  0  0  0
    8.2490    0.0169   21.4271 C   0  0  0  0  0  0  0  0  0  0  0  0
    9.9479    0.5589   24.9534 C   0  0  0  0  0  0  0  0  0  0  0  0
    7.5411    6.0563   25.3123 C   0  0  0  0  0  0  0  0  0  0  0  0
    6.9655    5.5748   24.0133 C   0  0  0  0  0  0  0  0  0  0  0  0
    7.8721   -0.1194   23.8831 C   0  0  0  0  0  0  0  0  0  0  0  0
    6.9866   -1.9366   21.3580 C   0  0  0  0  0  0  0  0  0  0  0  0
    8.3076    5.0549   24.4777 C   0  0  0  0  0  0  0  0  0  0  0  0
    8.6238   -0.7606   22.6929 C   0  0  1  0  0  0  0  0  0  0  0  0
    8.0140   -2.1541   22.4331 C   0  0  0  0  0  0  0  0  0  0  0  0
    8.3860    3.6278   24.9721 C   0  0  0  0  0  0  0  0  0  0  0  0
   10.4167    5.9157   23.2238 N   0  0  0  0  0  0  0  0  0  0  0  0
    6.3062    0.3769   17.3421 N   0  0  0  0  0  0  0  0  0  0  0  0
    7.2292   -0.6897   20.7790 N   0  0  0  0  0  0  0  0  0  0  0  0
    8.6609    1.0133   24.4995 N   0  0  1  0  0  0  0  0  0  0  0  0
    8.7521    1.0985   21.1370 O   0  0  0  0  0  0  0  0  0  0  0  0
    7.4183    2.5096   22.8180 O   0  0  0  0  0  0  0  0  0  0  0  0
    9.9244    2.7197   23.0651 O   0  0  0  0  0  0  0  0  0  0  0  0
    7.4685   -2.6964   23.5385 F   0  0  0  0  0  0  0  0  0  0  0  0
    8.9441   -3.0272   21.9748 F   0  0  0  0  0  0  0  0  0  0  0  0
    8.6139    2.4867   23.6325 S   0  0  0  0  0  0  0  0  0  0  0  0
   13.4273   -2.1422   21.1097 Cl  0  0  0  0  0  0  0  0  0  0  0  0
    2.5432    3.3510   20.6369 H   0  0  0  0  0  0  0  0  0  0  0  0
    3.5174    2.1137   22.5168 H   0  0  0  0  0  0  0  0  0  0  0  0
    3.3409    2.9743   18.3364 H   0  0  0  0  0  0  0  0  0  0  0  0
    5.3118    0.4895   22.1572 H   0  0  0  0  0  0  0  0  0  0  0  0
   12.5022    0.5953   24.9762 H   0  0  0  0  0  0  0  0  0  0  0  0
   13.9911   -0.5207   23.3814 H   0  0  0  0  0  0  0  0  0  0  0  0
   10.6046   -2.0231   21.2295 H   0  0  0  0  0  0  0  0  0  0  0  0
    4.9141    1.7511   16.7474 H   0  0  0  0  0  0  0  0  0  0  0  0
    7.6445   -0.9764   18.1043 H   0  0  0  0  0  0  0  0  0  0  0  0
    9.7591   -0.1277   25.8170 H   0  0  0  0  0  0  0  0  0  0  0  0
   10.4923    1.4399   25.3792 H   0  0  0  0  0  0  0  0  0  0  0  0
    7.8917    7.0812   25.3569 H   0  0  0  0  0  0  0  0  0  0  0  0
    7.0706    5.7160   26.2276 H   0  0  0  0  0  0  0  0  0  0  0  0
    6.1086    4.9125   24.0585 H   0  0  0  0  0  0  0  0  0  0  0  0
    6.9303    6.2781   23.1891 H   0  0  0  0  0  0  0  0  0  0  0  0
    6.8889    0.2791   23.5677 H   0  0  0  0  0  0  0  0  0  0  0  0
    7.6560   -0.8680   24.6659 H   0  0  0  0  0  0  0  0  0  0  0  0
    7.0372   -2.7448   20.5869 H   0  0  0  0  0  0  0  0  0  0  0  0
    5.9494   -1.9623   21.7745 H   0  0  0  0  0  0  0  0  0  0  0  0
    7.4649    3.3407   25.4868 H   0  0  0  0  0  0  0  0  0  0  0  0
    9.2295    3.4959   25.6551 H   0  0  0  0  0  0  0  0  0  0  0  0
  1 23  1  0  0  0  0
  1 27  3  0  0  0  0
  2  3  1  0  0  0  0
  2  4  2  0  0  0  0
  3  5  2  0  0  0  0
  4 11  1  0  0  0  0
  5 12  1  0  0  0  0
  6  7  1  0  0  0  0
  6 13  2  0  0  0  0
  7 16  2  0  0  0  0
  8 14  2  0  0  0  0
  8 16  1  0  0  0  0
  9 11  2  0  0  0  0
  9 28  1  0  0  0  0
 10 15  1  0  0  0  0
 10 28  2  0  0  0  0
 11 12  1  0  0  0  0
 12 15  2  0  0  0  0
 13 14  1  0  0  0  0
 13 18  1  0  0  0  0
 14 24  1  6  0  0  0
 15 29  1  0  0  0  0
 16 37  1  0  0  0  0
 17 24  1  1  0  0  0
 17 29  1  0  0  0  0
 17 31  2  0  0  0  0
 18 30  1  0  0  0  0
 19 20  1  0  0  0  0
 19 23  1  0  0  0  0
 20 23  1  0  0  0  0
 21 24  1  6  0  0  0
 21 30  1  0  0  0  0
 22 25  1  0  0  0  0
 22 29  1  0  0  0  0
 23 26  1  0  0  0  0
 24 25  1  1  0  0  0
 25 34  1  0  0  0  0
 25 35  1  0  0  0  0
 26 36  1  0  0  0  0
 30 36  1  1  0  0  0
 32 36  2  0  0  0  0
 33 36  2  0  0  0  0
  2 38  1  0  0  0  0
  3 39  1  0  0  0  0
  4 40  1  0  0  0  0
  5 41  1  0  0  0  0
  6 42  1  0  0  0  0
  7 43  1  0  0  0  0
  8 44  1  0  0  0  0
  9 45  1  0  0  0  0
 10 46  1  0  0  0  0
 18 47  1  0  0  0  0
 18 48  1  0  0  0  0
 19 49  1  0  0  0  0
 19 50  1  0  0  0  0
 20 51  1  0  0  0  0
 20 52  1  0  0  0  0
 21 53  1  0  0  0  0
 21 54  1  0  0  0  0
 22 55  1  0  0  0  0
 22 56  1  0  0  0  0
 26 57  1  0  0  0  0
 26 58  1  0  0  0  0
M  END
> <compound>
EDJ-MED-7e491f08-1

> <compound_smiles>
c1ccc2c(c1)cncc2N3CC([C@@]4(C3=O)CN(Cc5c4cc(cc5)Cl)S(=O)(=O)CC6(CC6)C#N)(F)F

> <enantiomer_smiles>
c1ccc2c(c1)cncc2N3CC([C@@]4(C3=O)C[N@@](Cc5c4cc(cc5)Cl)S(=O)(=O)CC6(CC6)C#N)(F)F

> <scaffold>
tetrahydroisoquinoline-5spiro-isoquinoline

> <clash_score>
0

> <docking_score>
-8.467572212219238

> <overlap_score>
1.0

> <MMFF_internal_energy>
131.67120399041417

> <docked_smiles>
c1ccc2c(c1)cncc2N3CC([C@@]4(C3=O)C[N@@](Cc5c4cc(cc5)Cl)S(=O)(=O)CC6(CC6)C#N)(F)F

$$$$
MAT-POS-50a80394-2_4
  -OEChem-12272114583D

 64 69  0     1  0  0  0  0  0999 V2000
    7.2934    3.4695   22.8199 C   0  0  0  0  0  0  0  0  0  0  0  0
    3.3432    2.6279   20.4411 C   0  0  0  0  0  0  0  0  0  0  0  0
    3.8960    1.9291   21.5050 C   0  0  0  0  0  0  0  0  0  0  0  0
    3.7865    2.4205   19.1660 C   0  0  0  0  0  0  0  0  0  0  0  0
    4.8973    1.0233   21.2988 C   0  0  0  0  0  0  0  0  0  0  0  0
   12.0765    0.0316   24.1541 C   0  0  0  0  0  0  0  0  0  0  0  0
   12.9132   -0.6032   23.2569 C   0  0  0  0  0  0  0  0  0  0  0  0
   10.9991   -1.4331   22.0443 C   0  0  0  0  0  0  0  0  0  0  0  0
    5.3278    1.2339   17.6066 C   0  0  0  0  0  0  0  0  0  0  0  0
    6.8438   -0.2892   18.3752 C   0  0  0  0  0  0  0  0  0  0  0  0
    4.8226    1.4906   18.9054 C   0  0  0  0  0  0  0  0  0  0  0  0
    5.3982    0.7733   19.9948 C   0  0  0  0  0  0  0  0  0  0  0  0
   10.7040   -0.0625   23.9898 C   0  0  0  0  0  0  0  0  0  0  0  0
   10.1406   -0.7765   22.9250 C   0  0  0  0  0  0  0  0  0  0  0  0
    6.4440   -0.1472   19.6979 C   0  0  0  0  0  0  0  0  0  0  0  0
   12.3683   -1.3298   22.2234 C   0  0  0  0  0  0  0  0  0  0  0  0
    8.2490    0.0169   21.4271 C   0  0  0  0  0  0  0  0  0  0  0  0
    9.9479    0.5589   24.9534 C   0  0  0  0  0  0  0  0  0  0  0  0
    9.7994    3.2286   22.9513 C   0  0  0  0  0  0  0  0  0  0  0  0
    9.4883    4.6951   23.0087 C   0  0  0  0  0  0  0  0  0  0  0  0
    6.9866   -1.9366   21.3580 C   0  0  0  0  0  0  0  0  0  0  0  0
    7.8721   -0.1194   23.8831 C   0  0  0  0  0  0  0  0  0  0  0  0
    8.0140   -2.1541   22.4331 C   0  0  1  0  0  0  0  0  0  0  0  0
    8.5013    3.6962   23.5703 C   0  0  0  0  0  0  0  0  0  0  0  0
    8.6238   -0.7606   22.6929 C   0  0  3  0  0  0  0  0  0  0  0  0
    6.7979   -4.1863   23.2880 C   0  0  0  0  0  0  0  0  0  0  0  0
    7.4346   -2.8843   23.6541 C   0  0  0  0  0  0  0  0  0  0  0  0
    8.3562    3.6065   25.0730 C   0  0  0  0  0  0  0  0  0  0  0  0
    6.3201    3.2868   22.2153 N   0  0  0  0  0  0  0  0  0  0  0  0
    6.3062    0.3769   17.3421 N   0  0  0  0  0  0  0  0  0  0  0  0
    7.2292   -0.6897   20.7790 N   0  0  0  0  0  0  0  0  0  0  0  0
    8.6609    1.0133   24.4995 N   0  0  2  0  0  0  0  0  0  0  0  0
    8.7548    1.0947   21.1285 O   0  0  0  0  0  0  0  0  0  0  0  0
    8.2293    1.7690   26.9262 O   0  0  0  0  0  0  0  0  0  0  0  0
    6.3700    1.9152   25.2212 O   0  0  0  0  0  0  0  0  0  0  0  0
    7.7693    2.0094   25.5758 S   0  0  0  0  0  0  0  0  0  0  0  0
   13.4294   -2.1351   21.1073 Cl  0  0  0  0  0  0  0  0  0  0  0  0
    2.5432    3.3510   20.6369 H   0  0  0  0  0  0  0  0  0  0  0  0
    3.5174    2.1137   22.5168 H   0  0  0  0  0  0  0  0  0  0  0  0
    3.3409    2.9743   18.3364 H   0  0  0  0  0  0  0  0  0  0  0  0
    5.3118    0.4895   22.1572 H   0  0  0  0  0  0  0  0  0  0  0  0
   12.5038    0.6047   24.9687 H   0  0  0  0  0  0  0  0  0  0  0  0
   13.9917   -0.5071   23.3722 H   0  0  0  0  0  0  0  0  0  0  0  0
   10.6206   -2.0052   21.2139 H   0  0  0  0  0  0  0  0  0  0  0  0
    4.9141    1.7511   16.7474 H   0  0  0  0  0  0  0  0  0  0  0  0
    7.6445   -0.9764   18.1043 H   0  0  0  0  0  0  0  0  0  0  0  0
    9.7895   -0.1145   25.8388 H   0  0  0  0  0  0  0  0  0  0  0  0
   10.4796    1.4599   25.3606 H   0  0  0  0  0  0  0  0  0  0  0  0
    9.7753    2.7479   21.9799 H   0  0  0  0  0  0  0  0  0  0  0  0
   10.5797    2.8543   23.6040 H   0  0  0  0  0  0  0  0  0  0  0  0
   10.0609    5.3033   23.6994 H   0  0  0  0  0  0  0  0  0  0  0  0
    9.2569    5.1955   22.0752 H   0  0  0  0  0  0  0  0  0  0  0  0
    7.0304   -2.7474   20.5869 H   0  0  0  0  0  0  0  0  0  0  0  0
    5.9424   -1.9535   21.7612 H   0  0  0  0  0  0  0  0  0  0  0  0
    6.8920    0.2795   23.5685 H   0  0  0  0  0  0  0  0  0  0  0  0
    7.6771   -0.8498   24.6885 H   0  0  0  0  0  0  0  0  0  0  0  0
    8.7685   -2.8428   22.0112 H   0  0  0  0  0  0  0  0  0  0  0  0
    5.9927   -4.0139   22.5642 H   0  0  0  0  0  0  0  0  0  0  0  0
    6.3639   -4.6695   24.1698 H   0  0  0  0  0  0  0  0  0  0  0  0
    7.5280   -4.8616   22.8295 H   0  0  0  0  0  0  0  0  0  0  0  0
    8.2373   -3.0617   24.3764 H   0  0  0  0  0  0  0  0  0  0  0  0
    6.6937   -2.2394   24.1364 H   0  0  0  0  0  0  0  0  0  0  0  0
    7.6384    4.3445   25.4416 H   0  0  0  0  0  0  0  0  0  0  0  0
    9.3170    3.7680   25.5693 H   0  0  0  0  0  0  0  0  0  0  0  0
  1 24  1  0  0  0  0
  1 29  3  0  0  0  0
  2  3  1  0  0  0  0
  2  4  2  0  0  0  0
  3  5  2  0  0  0  0
  4 11  1  0  0  0  0
  5 12  1  0  0  0  0
  6  7  1  0  0  0  0
  6 13  2  0  0  0  0
  7 16  2  0  0  0  0
  8 14  2  0  0  0  0
  8 16  1  0  0  0  0
  9 11  2  0  0  0  0
  9 30  1  0  0  0  0
 10 15  1  0  0  0  0
 10 30  2  0  0  0  0
 11 12  1  0  0  0  0
 12 15  2  0  0  0  0
 13 14  1  0  0  0  0
 13 18  1  0  0  0  0
 14 25  1  0  0  0  0
 15 31  1  0  0  0  0
 16 37  1  0  0  0  0
 17 25  1  0  0  0  0
 17 31  1  0  0  0  0
 17 33  2  0  0  0  0
 18 32  1  0  0  0  0
 19 20  1  0  0  0  0
 19 24  1  0  0  0  0
 20 24  1  0  0  0  0
 21 23  1  0  0  0  0
 21 31  1  0  0  0  0
 22 25  1  0  0  0  0
 22 32  1  0  0  0  0
 23 25  1  0  0  0  0
 23 27  1  6  0  0  0
 24 28  1  0  0  0  0
 26 27  1  0  0  0  0
 28 36  1  0  0  0  0
 32 36  1  6  0  0  0
 34 36  2  0  0  0  0
 35 36  2  0  0  0  0
  2 38  1  0  0  0  0
  3 39  1  0  0  0  0
  4 40  1  0  0  0  0
  5 41  1  0  0  0  0
  6 42  1  0  0  0  0
  7 43  1  0  0  0  0
  8 44  1  0  0  0  0
  9 45  1  0  0  0  0
 10 46  1  0  0  0  0
 18 47  1  0  0  0  0
 18 48  1  0  0  0  0
 19 49  1  0  0  0  0
 19 50  1  0  0  0  0
 20 51  1  0  0  0  0
 20 52  1  0  0  0  0
 21 53  1  0  0  0  0
 21 54  1  0  0  0  0
 22 55  1  0  0  0  0
 22 56  1  0  0  0  0
 23 57  1  0  0  0  0
 26 58  1  0  0  0  0
 26 59  1  0  0  0  0
 26 60  1  0  0  0  0
 27 61  1  0  0  0  0
 27 62  1  0  0  0  0
 28 63  1  0  0  0  0
 28 64  1  0  0  0  0
M  END
> <compound>
MAT-POS-50a80394-2

> <compound_smiles>
CCC1CN(C(=O)C12CN(Cc3c2cc(cc3)Cl)S(=O)(=O)CC4(CC4)C#N)c5cncc6c5cccc6

> <enantiomer_smiles>
CC[C@H]1CN(C(=O)C12C[N@](Cc3c2cc(cc3)Cl)S(=O)(=O)CC4(CC4)C#N)c5cncc6c5cccc6

> <scaffold>
tetrahydroisoquinoline-5spiro-isoquinoline

> <clash_score>
0

> <docking_score>
-9.308015823364258

> <overlap_score>
0.9822101593017578

> <MMFF_internal_energy>
129.20331872139175

> <docked_smiles>
CC[C@H]1CN(C(=O)[C@@]12C[N@](Cc3c2cc(cc3)Cl)S(=O)(=O)CC4(CC4)C#N)c5cncc6c5cccc6

$$$$
EDJ-MED-5cd3920d-6_1
  -OEChem-12272114583D

 60 65  0     1  0  0  0  0  0999 V2000
    3.3432    2.6279   20.4411 C   0  0  0  0  0  0  0  0  0  0  0  0
    3.8960    1.9291   21.5050 C   0  0  0  0  0  0  0  0  0  0  0  0
    3.7865    2.4205   19.1660 C   0  0  0  0  0  0  0  0  0  0  0  0
    4.8973    1.0233   21.2988 C   0  0  0  0  0  0  0  0  0  0  0  0
   12.0765    0.0316   24.1541 C   0  0  0  0  0  0  0  0  0  0  0  0
   12.9132   -0.6032   23.2569 C   0  0  0  0  0  0  0  0  0  0  0  0
   10.9991   -1.4331   22.0443 C   0  0  0  0  0  0  0  0  0  0  0  0
    5.3278    1.2339   17.6066 C   0  0  0  0  0  0  0  0  0  0  0  0
    6.8438   -0.2892   18.3752 C   0  0  0  0  0  0  0  0  0  0  0  0
    4.8226    1.4906   18.9054 C   0  0  0  0  0  0  0  0  0  0  0  0
    5.3982    0.7733   19.9948 C   0  0  0  0  0  0  0  0  0  0  0  0
   10.7040   -0.0625   23.9898 C   0  0  0  0  0  0  0  0  0  0  0  0
   10.1406   -0.7765   22.9250 C   0  0  0  0  0  0  0  0  0  0  0  0
    6.4440   -0.1472   19.6979 C   0  0  0  0  0  0  0  0  0  0  0  0
   12.3683   -1.3298   22.2234 C   0  0  0  0  0  0  0  0  0  0  0  0
    8.2490    0.0169   21.4271 C   0  0  0  0  0  0  0  0  0  0  0  0
    9.9479    0.5589   24.9534 C   0  0  0  0  0  0  0  0  0  0  0  0
    7.5824    5.4848   24.9826 C   0  0  0  0  0  0  0  0  0  0  0  0
    8.7731    5.9096   25.7936 C   0  0  0  0  0  0  0  0  0  0  0  0
    8.0140   -2.1541   22.4331 C   0  0  0  0  0  0  0  0  0  0  0  0
    6.9866   -1.9366   21.3580 C   0  0  0  0  0  0  0  0  0  0  0  0
    7.8721   -0.1194   23.8831 C   0  0  0  0  0  0  0  0  0  0  0  0
    8.6238   -0.7606   22.6929 C   0  0  3  0  0  0  0  0  0  0  0  0
    8.9615    4.9975   24.6040 C   0  0  0  0  0  0  0  0  0  0  0  0
    9.2986    3.5472   24.8688 C   0  0  0  0  0  0  0  0  0  0  0  0
    9.5982    5.5723   23.3686 C   0  0  0  0  0  0  0  0  0  0  0  0
    6.3062    0.3769   17.3421 N   0  0  0  0  0  0  0  0  0  0  0  0
    7.2292   -0.6897   20.7790 N   0  0  0  0  0  0  0  0  0  0  0  0
    8.6609    1.0133   24.4995 N   0  0  1  0  0  0  0  0  0  0  0  0
    8.7572    1.0941   21.1350 O   0  0  0  0  0  0  0  0  0  0  0  0
    7.2416    2.8679   23.4078 O   0  0  0  0  0  0  0  0  0  0  0  0
    9.5672    2.4121   22.5306 O   0  0  0  0  0  0  0  0  0  0  0  0
    9.7389    6.9105   23.4756 F   0  0  0  0  0  0  0  0  0  0  0  0
   10.8219    5.0407   23.1638 F   0  0  0  0  0  0  0  0  0  0  0  0
    8.8470    5.3195   22.2760 F   0  0  0  0  0  0  0  0  0  0  0  0
    8.6198    2.4832   23.6217 S   0  0  0  0  0  0  0  0  0  0  0  0
   13.4275   -2.1421   21.1097 Cl  0  0  0  0  0  0  0  0  0  0  0  0
    2.5432    3.3510   20.6369 H   0  0  0  0  0  0  0  0  0  0  0  0
    3.5174    2.1137   22.5168 H   0  0  0  0  0  0  0  0  0  0  0  0
    3.3409    2.9743   18.3364 H   0  0  0  0  0  0  0  0  0  0  0  0
    5.3118    0.4895   22.1572 H   0  0  0  0  0  0  0  0  0  0  0  0
   12.5015    0.5938   24.9776 H   0  0  0  0  0  0  0  0  0  0  0  0
   13.9911   -0.5212   23.3814 H   0  0  0  0  0  0  0  0  0  0  0  0
   10.6037   -2.0228   21.2288 H   0  0  0  0  0  0  0  0  0  0  0  0
    4.9141    1.7511   16.7474 H   0  0  0  0  0  0  0  0  0  0  0  0
    7.6445   -0.9764   18.1043 H   0  0  0  0  0  0  0  0  0  0  0  0
    9.7581   -0.1287   25.8173 H   0  0  0  0  0  0  0  0  0  0  0  0
   10.4931    1.4391   25.3829 H   0  0  0  0  0  0  0  0  0  0  0  0
    6.8903    4.7842   25.4345 H   0  0  0  0  0  0  0  0  0  0  0  0
    7.1063    6.2319   24.3587 H   0  0  0  0  0  0  0  0  0  0  0  0
    9.0943    6.9414   25.7128 H   0  0  0  0  0  0  0  0  0  0  0  0
    8.8783    5.4937   26.7886 H   0  0  0  0  0  0  0  0  0  0  0  0
    7.5801   -2.6060   23.3366 H   0  0  0  0  0  0  0  0  0  0  0  0
    8.7749   -2.8608   22.0657 H   0  0  0  0  0  0  0  0  0  0  0  0
    7.0227   -2.7506   20.5953 H   0  0  0  0  0  0  0  0  0  0  0  0
    5.9554   -1.9484   21.7832 H   0  0  0  0  0  0  0  0  0  0  0  0
    6.8886    0.2769   23.5666 H   0  0  0  0  0  0  0  0  0  0  0  0
    7.6579   -0.8710   24.6633 H   0  0  0  0  0  0  0  0  0  0  0  0
    8.8906    3.2195   25.8290 H   0  0  0  0  0  0  0  0  0  0  0  0
   10.3808    3.3910   24.8718 H   0  0  0  0  0  0  0  0  0  0  0  0
  1  2  1  0  0  0  0
  1  3  2  0  0  0  0
  2  4  2  0  0  0  0
  3 10  1  0  0  0  0
  4 11  1  0  0  0  0
  5  6  1  0  0  0  0
  5 12  2  0  0  0  0
  6 15  2  0  0  0  0
  7 13  2  0  0  0  0
  7 15  1  0  0  0  0
  8 10  2  0  0  0  0
  8 27  1  0  0  0  0
  9 14  1  0  0  0  0
  9 27  2  0  0  0  0
 10 11  1  0  0  0  0
 11 14  2  0  0  0  0
 12 13  1  0  0  0  0
 12 17  1  0  0  0  0
 13 23  1  0  0  0  0
 14 28  1  0  0  0  0
 15 37  1  0  0  0  0
 16 23  1  0  0  0  0
 16 28  1  0  0  0  0
 16 30  2  0  0  0  0
 17 29  1  0  0  0  0
 18 19  1  0  0  0  0
 18 24  1  0  0  0  0
 19 24  1  0  0  0  0
 20 21  1  0  0  0  0
 20 23  1  0  0  0  0
 21 28  1  0  0  0  0
 22 23  1  0  0  0  0
 22 29  1  0  0  0  0
 24 25  1  0  0  0  0
 24 26  1  0  0  0  0
 25 36  1  0  0  0  0
 26 33  1  0  0  0  0
 26 34  1  0  0  0  0
 26 35  1  0  0  0  0
 29 36  1  1  0  0  0
 31 36  2  0  0  0  0
 32 36  2  0  0  0  0
  1 38  1  0  0  0  0
  2 39  1  0  0  0  0
  3 40  1  0  0  0  0
  4 41  1  0  0  0  0
  5 42  1  0  0  0  0
  6 43  1  0  0  0  0
  7 44  1  0  0  0  0
  8 45  1  0  0  0  0
  9 46  1  0  0  0  0
 17 47  1  0  0  0  0
 17 48  1  0  0  0  0
 18 49  1  0  0  0  0
 18 50  1  0  0  0  0
 19 51  1  0  0  0  0
 19 52  1  0  0  0  0
 20 53  1  0  0  0  0
 20 54  1  0  0  0  0
 21 55  1  0  0  0  0
 21 56  1  0  0  0  0
 22 57  1  0  0  0  0
 22 58  1  0  0  0  0
 25 59  1  0  0  0  0
 25 60  1  0  0  0  0
M  END
> <compound>
EDJ-MED-5cd3920d-6

> <compound_smiles>
c1ccc2c(c1)cncc2N3CCC4(C3=O)CN(Cc5c4cc(cc5)Cl)S(=O)(=O)CC6(CC6)C(F)(F)F

> <enantiomer_smiles>
c1ccc2c(c1)cncc2N3CCC4(C3=O)C[N@@](Cc5c4cc(cc5)Cl)S(=O)(=O)CC6(CC6)C(F)(F)F

> <scaffold>
tetrahydroisoquinoline-5spiro-isoquinoline

> <clash_score>
0

> <docking_score>
-8.384526252746582

> <overlap_score>
0.9703106880187988

> <MMFF_internal_energy>
152.25147083994204

> <docked_smiles>
c1ccc2c(c1)cncc2N3CC[C@@]4(C3=O)C[N@@](Cc5c4cc(cc5)Cl)S(=O)(=O)CC6(CC6)C(F)(F)F

$$$$
EDJ-MED-7e491f08-1_2
  -OEChem-12272114583D

 58 63  0     1  0  0  0  0  0999 V2000
    7.3002    3.4600   22.8316 C   0  0  0  0  0  0  0  0  0  0  0  0
    3.3432    2.6279   20.4411 C   0  0  0  0  0  0  0  0  0  0  0  0
    3.8960    1.9291   21.5050 C   0  0  0  0  0  0  0  0  0  0  0  0
    3.7865    2.4205   19.1660 C   0  0  0  0  0  0  0  0  0  0  0  0
    4.8973    1.0233   21.2988 C   0  0  0  0  0  0  0  0  0  0  0  0
   12.0765    0.0316   24.1541 C   0  0  0  0  0  0  0  0  0  0  0  0
   12.9132   -0.6032   23.2569 C   0  0  0  0  0  0  0  0  0  0  0  0
   10.9991   -1.4331   22.0443 C   0  0  0  0  0  0  0  0  0  0  0  0
    5.3278    1.2339   17.6066 C   0  0  0  0  0  0  0  0  0  0  0  0
    6.8438   -0.2892   18.3752 C   0  0  0  0  0  0  0  0  0  0  0  0
    4.8226    1.4906   18.9054 C   0  0  0  0  0  0  0  0  0  0  0  0
    5.3982    0.7733   19.9948 C   0  0  0  0  0  0  0  0  0  0  0  0
   10.7040   -0.0625   23.9898 C   0  0  0  0  0  0  0  0  0  0  0  0
   10.1406   -0.7765   22.9250 C   0  0  0  0  0  0  0  0  0  0  0  0
    6.4440   -0.1472   19.6979 C   0  0  0  0  0  0  0  0  0  0  0  0
   12.3683   -1.3298   22.2234 C   0  0  0  0  0  0  0  0  0  0  0  0
    8.2490    0.0169   21.4271 C   0  0  0  0  0  0  0  0  0  0  0  0
    9.9479    0.5589   24.9534 C   0  0  0  0  0  0  0  0  0  0  0  0
    9.8043    3.1988   22.9626 C   0  0  0  0  0  0  0  0  0  0  0  0
    9.5051    4.6677   23.0196 C   0  0  0  0  0  0  0  0  0  0  0  0
    7.8721   -0.1194   23.8831 C   0  0  0  0  0  0  0  0  0  0  0  0
    6.9866   -1.9366   21.3580 C   0  0  0  0  0  0  0  0  0  0  0  0
    8.5102    3.6771   23.5817 C   0  0  0  0  0  0  0  0  0  0  0  0
    8.6238   -0.7606   22.6929 C   0  0  1  0  0  0  0  0  0  0  0  0
    8.0140   -2.1541   22.4331 C   0  0  0  0  0  0  0  0  0  0  0  0
    8.3646    3.5891   25.0844 C   0  0  0  0  0  0  0  0  0  0  0  0
    6.3254    3.2850   22.2272 N   0  0  0  0  0  0  0  0  0  0  0  0
    6.3062    0.3769   17.3421 N   0  0  0  0  0  0  0  0  0  0  0  0
    7.2292   -0.6897   20.7790 N   0  0  0  0  0  0  0  0  0  0  0  0
    8.6609    1.0133   24.4995 N   0  0  2  0  0  0  0  0  0  0  0  0
    8.7544    1.0970   21.1348 O   0  0  0  0  0  0  0  0  0  0  0  0
    8.2149    1.7570   26.9413 O   0  0  0  0  0  0  0  0  0  0  0  0
    6.3679    1.9094   25.2235 O   0  0  0  0  0  0  0  0  0  0  0  0
    8.9165   -3.0558   21.9796 F   0  0  0  0  0  0  0  0  0  0  0  0
    7.4597   -2.6878   23.5436 F   0  0  0  0  0  0  0  0  0  0  0  0
    7.7649    1.9971   25.5879 S   0  0  0  0  0  0  0  0  0  0  0  0
   13.4291   -2.1335   21.1051 Cl  0  0  0  0  0  0  0  0  0  0  0  0
    2.5432    3.3510   20.6369 H   0  0  0  0  0  0  0  0  0  0  0  0
    3.5174    2.1137   22.5168 H   0  0  0  0  0  0  0  0  0  0  0  0
    3.3409    2.9743   18.3364 H   0  0  0  0  0  0  0  0  0  0  0  0
    5.3118    0.4895   22.1572 H   0  0  0  0  0  0  0  0  0  0  0  0
   12.5044    0.6096   24.9651 H   0  0  0  0  0  0  0  0  0  0  0  0
   13.9918   -0.5019   23.3685 H   0  0  0  0  0  0  0  0  0  0  0  0
   10.6172   -2.0016   21.2135 H   0  0  0  0  0  0  0  0  0  0  0  0
    4.9141    1.7511   16.7474 H   0  0  0  0  0  0  0  0  0  0  0  0
    7.6445   -0.9764   18.1043 H   0  0  0  0  0  0  0  0  0  0  0  0
    9.7949   -0.1115   25.8462 H   0  0  0  0  0  0  0  0  0  0  0  0
   10.4820    1.4620   25.3623 H   0  0  0  0  0  0  0  0  0  0  0  0
    9.7761    2.7179   21.9913 H   0  0  0  0  0  0  0  0  0  0  0  0
   10.5815    2.8183   23.6153 H   0  0  0  0  0  0  0  0  0  0  0  0
   10.0828    5.2715   23.7099 H   0  0  0  0  0  0  0  0  0  0  0  0
    9.2776    5.1697   22.0860 H   0  0  0  0  0  0  0  0  0  0  0  0
    6.8925    0.2805   23.5746 H   0  0  0  0  0  0  0  0  0  0  0  0
    7.6791   -0.8550   24.6825 H   0  0  0  0  0  0  0  0  0  0  0  0
    7.0372   -2.7450   20.5862 H   0  0  0  0  0  0  0  0  0  0  0  0
    5.9482   -1.9637   21.7731 H   0  0  0  0  0  0  0  0  0  0  0  0
    7.6528    4.3330   25.4530 H   0  0  0  0  0  0  0  0  0  0  0  0
    9.3267    3.7429   25.5806 H   0  0  0  0  0  0  0  0  0  0  0  0
  1 23  1  0  0  0  0
  1 27  3  0  0  0  0
  2  3  1  0  0  0  0
  2  4  2  0  0  0  0
  3  5  2  0  0  0  0
  4 11  1  0  0  0  0
  5 12  1  0  0  0  0
  6  7  1  0  0  0  0
  6 13  2  0  0  0  0
  7 16  2  0  0  0  0
  8 14  2  0  0  0  0
  8 16  1  0  0  0  0
  9 11  2  0  0  0  0
  9 28  1  0  0  0  0
 10 15  1  0  0  0  0
 10 28  2  0  0  0  0
 11 12  1  0  0  0  0
 12 15  2  0  0  0  0
 13 14  1  0  0  0  0
 13 18  1  0  0  0  0
 14 24  1  6  0  0  0
 15 29  1  0  0  0  0
 16 37  1  0  0  0  0
 17 24  1  1  0  0  0
 17 29  1  0  0  0  0
 17 31  2  0  0  0  0
 18 30  1  0  0  0  0
 19 20  1  0  0  0  0
 19 23  1  0  0  0  0
 20 23  1  0  0  0  0
 21 24  1  6  0  0  0
 21 30  1  0  0  0  0
 22 25  1  0  0  0  0
 22 29  1  0  0  0  0
 23 26  1  0  0  0  0
 24 25  1  1  0  0  0
 25 34  1  0  0  0  0
 25 35  1  0  0  0  0
 26 36  1  0  0  0  0
 30 36  1  6  0  0  0
 32 36  2  0  0  0  0
 33 36  2  0  0  0  0
  2 38  1  0  0  0  0
  3 39  1  0  0  0  0
  4 40  1  0  0  0  0
  5 41  1  0  0  0  0
  6 42  1  0  0  0  0
  7 43  1  0  0  0  0
  8 44  1  0  0  0  0
  9 45  1  0  0  0  0
 10 46  1  0  0  0  0
 18 47  1  0  0  0  0
 18 48  1  0  0  0  0
 19 49  1  0  0  0  0
 19 50  1  0  0  0  0
 20 51  1  0  0  0  0
 20 52  1  0  0  0  0
 21 53  1  0  0  0  0
 21 54  1  0  0  0  0
 22 55  1  0  0  0  0
 22 56  1  0  0  0  0
 26 57  1  0  0  0  0
 26 58  1  0  0  0  0
M  END
> <compound>
EDJ-MED-7e491f08-1

> <compound_smiles>
c1ccc2c(c1)cncc2N3CC([C@@]4(C3=O)CN(Cc5c4cc(cc5)Cl)S(=O)(=O)CC6(CC6)C#N)(F)F

> <enantiomer_smiles>
c1ccc2c(c1)cncc2N3CC([C@@]4(C3=O)C[N@](Cc5c4cc(cc5)Cl)S(=O)(=O)CC6(CC6)C#N)(F)F

> <scaffold>
tetrahydroisoquinoline-5spiro-isoquinoline

> <clash_score>
0

> <docking_score>
-8.320039749145508

> <overlap_score>
1.0

> <MMFF_internal_energy>
126.35402619471665

> <docked_smiles>
c1ccc2c(c1)cncc2N3CC([C@@]4(C3=O)C[N@](Cc5c4cc(cc5)Cl)S(=O)(=O)CC6(CC6)C#N)(F)F

$$$$
EDJ-MED-b6c6ee2b-3_2
  -OEChem-12272114583D

 62 67  0     1  0  0  0  0  0999 V2000
    7.3205    3.4054   22.7658 C   0  0  0  0  0  0  0  0  0  0  0  0
    3.7865    2.4205   19.1660 C   0  0  0  0  0  0  0  0  0  0  0  0
   12.0765    0.0316   24.1541 C   0  0  0  0  0  0  0  0  0  0  0  0
    3.3432    2.6279   20.4411 C   0  0  0  0  0  0  0  0  0  0  0  0
   12.9132   -0.6032   23.2569 C   0  0  0  0  0  0  0  0  0  0  0  0
    4.8973    1.0233   21.2988 C   0  0  0  0  0  0  0  0  0  0  0  0
   10.9991   -1.4331   22.0443 C   0  0  0  0  0  0  0  0  0  0  0  0
    5.3278    1.2339   17.6066 C   0  0  0  0  0  0  0  0  0  0  0  0
    6.8438   -0.2892   18.3752 C   0  0  0  0  0  0  0  0  0  0  0  0
    4.8226    1.4906   18.9054 C   0  0  0  0  0  0  0  0  0  0  0  0
    5.3982    0.7733   19.9948 C   0  0  0  0  0  0  0  0  0  0  0  0
   10.7040   -0.0625   23.9898 C   0  0  0  0  0  0  0  0  0  0  0  0
   10.1406   -0.7765   22.9250 C   0  0  0  0  0  0  0  0  0  0  0  0
    6.4440   -0.1472   19.6979 C   0  0  0  0  0  0  0  0  0  0  0  0
    3.8960    1.9291   21.5050 C   0  0  0  0  0  0  0  0  0  0  0  0
   12.3683   -1.3298   22.2234 C   0  0  0  0  0  0  0  0  0  0  0  0
    8.2490    0.0169   21.4271 C   0  0  0  0  0  0  0  0  0  0  0  0
    9.9479    0.5589   24.9534 C   0  0  0  0  0  0  0  0  0  0  0  0
    9.8217    3.1213   22.9038 C   0  0  0  0  0  0  0  0  0  0  0  0
    9.5383    4.5944   22.9183 C   0  0  0  0  0  0  0  0  0  0  0  0
    8.0140   -2.1541   22.4331 C   0  0  0  0  0  0  0  0  0  0  0  0
    6.9866   -1.9366   21.3580 C   0  0  0  0  0  0  0  0  0  0  0  0
    7.8721   -0.1194   23.8831 C   0  0  0  0  0  0  0  0  0  0  0  0
    8.5331    3.6312   23.5091 C   0  0  0  0  0  0  0  0  0  0  0  0
    8.6238   -0.7606   22.6929 C   0  0  3  0  0  0  0  0  0  0  0  0
    2.3754    3.1173   22.9069 C   0  0  0  0  0  0  0  0  0  0  0  0
    8.3874    3.5882   25.0137 C   0  0  0  0  0  0  0  0  0  0  0  0
    6.3436    3.2234   22.1669 N   0  0  0  0  0  0  0  0  0  0  0  0
    6.3062    0.3769   17.3421 N   0  0  0  0  0  0  0  0  0  0  0  0
    7.2292   -0.6897   20.7790 N   0  0  0  0  0  0  0  0  0  0  0  0
    8.6609    1.0133   24.4995 N   0  0  2  0  0  0  0  0  0  0  0  0
    8.8299    1.0397   21.0799 O   0  0  0  0  0  0  0  0  0  0  0  0
    8.2407    1.8013   26.9144 O   0  0  0  0  0  0  0  0  0  0  0  0
    6.3653    1.9471   25.2271 O   0  0  0  0  0  0  0  0  0  0  0  0
    3.4227    2.1582   22.7714 O   0  0  0  0  0  0  0  0  0  0  0  0
    7.7708    2.0177   25.5632 S   0  0  0  0  0  0  0  0  0  0  0  0
   13.4272   -2.1411   21.1086 Cl  0  0  0  0  0  0  0  0  0  0  0  0
    3.3406    2.9746   18.3368 H   0  0  0  0  0  0  0  0  0  0  0  0
   12.5024    0.5995   24.9735 H   0  0  0  0  0  0  0  0  0  0  0  0
    2.5407    3.3506   20.6306 H   0  0  0  0  0  0  0  0  0  0  0  0
   13.9910   -0.5177   23.3793 H   0  0  0  0  0  0  0  0  0  0  0  0
    5.3162    0.4858   22.1535 H   0  0  0  0  0  0  0  0  0  0  0  0
   10.6036   -2.0162   21.2241 H   0  0  0  0  0  0  0  0  0  0  0  0
    4.9131    1.7514   16.7479 H   0  0  0  0  0  0  0  0  0  0  0  0
    7.6448   -0.9758   18.1041 H   0  0  0  0  0  0  0  0  0  0  0  0
    9.7849   -0.1194   25.8306 H   0  0  0  0  0  0  0  0  0  0  0  0
   10.4793    1.4568   25.3613 H   0  0  0  0  0  0  0  0  0  0  0  0
    9.7878    2.6129   21.9468 H   0  0  0  0  0  0  0  0  0  0  0  0
   10.5952    2.7515   23.5670 H   0  0  0  0  0  0  0  0  0  0  0  0
   10.1228    5.2116   23.5908 H   0  0  0  0  0  0  0  0  0  0  0  0
    9.3157    5.0716   21.9707 H   0  0  0  0  0  0  0  0  0  0  0  0
    7.5152   -2.5456   23.3338 H   0  0  0  0  0  0  0  0  0  0  0  0
    8.7649   -2.9030   22.1434 H   0  0  0  0  0  0  0  0  0  0  0  0
    7.0587   -2.7248   20.5721 H   0  0  0  0  0  0  0  0  0  0  0  0
    5.9518   -1.9952   21.7720 H   0  0  0  0  0  0  0  0  0  0  0  0
    6.8867    0.2641   23.5642 H   0  0  0  0  0  0  0  0  0  0  0  0
    7.6652   -0.8660   24.6733 H   0  0  0  0  0  0  0  0  0  0  0  0
    2.0884    3.1985   23.9582 H   0  0  0  0  0  0  0  0  0  0  0  0
    1.5164    2.8074   22.3065 H   0  0  0  0  0  0  0  0  0  0  0  0
    2.7337    4.0871   22.5534 H   0  0  0  0  0  0  0  0  0  0  0  0
    7.6838    4.3500   25.3607 H   0  0  0  0  0  0  0  0  0  0  0  0
    9.3513    3.7460   25.5050 H   0  0  0  0  0  0  0  0  0  0  0  0
  1 24  1  0  0  0  0
  1 28  3  0  0  0  0
  2  4  2  0  0  0  0
  2 10  1  0  0  0  0
  3  5  1  0  0  0  0
  3 12  2  0  0  0  0
  4 15  1  0  0  0  0
  5 16  2  0  0  0  0
  6 11  1  0  0  0  0
  6 15  2  0  0  0  0
  7 13  2  0  0  0  0
  7 16  1  0  0  0  0
  8 10  1  0  0  0  0
  8 29  2  0  0  0  0
  9 14  2  0  0  0  0
  9 29  1  0  0  0  0
 10 11  2  0  0  0  0
 11 14  1  0  0  0  0
 12 13  1  0  0  0  0
 12 18  1  0  0  0  0
 13 25  1  0  0  0  0
 14 30  1  0  0  0  0
 15 35  1  0  0  0  0
 16 37  1  0  0  0  0
 17 25  1  0  0  0  0
 17 30  1  0  0  0  0
 17 32  2  0  0  0  0
 18 31  1  0  0  0  0
 19 20  1  0  0  0  0
 19 24  1  0  0  0  0
 20 24  1  0  0  0  0
 21 22  1  0  0  0  0
 21 25  1  0  0  0  0
 22 30  1  0  0  0  0
 23 25  1  0  0  0  0
 23 31  1  0  0  0  0
 24 27  1  0  0  0  0
 26 35  1  0  0  0  0
 27 36  1  0  0  0  0
 31 36  1  6  0  0  0
 33 36  2  0  0  0  0
 34 36  2  0  0  0  0
  2 38  1  0  0  0  0
  3 39  1  0  0  0  0
  4 40  1  0  0  0  0
  5 41  1  0  0  0  0
  6 42  1  0  0  0  0
  7 43  1  0  0  0  0
  8 44  1  0  0  0  0
  9 45  1  0  0  0  0
 18 46  1  0  0  0  0
 18 47  1  0  0  0  0
 19 48  1  0  0  0  0
 19 49  1  0  0  0  0
 20 50  1  0  0  0  0
 20 51  1  0  0  0  0
 21 52  1  0  0  0  0
 21 53  1  0  0  0  0
 22 54  1  0  0  0  0
 22 55  1  0  0  0  0
 23 56  1  0  0  0  0
 23 57  1  0  0  0  0
 26 58  1  0  0  0  0
 26 59  1  0  0  0  0
 26 60  1  0  0  0  0
 27 61  1  0  0  0  0
 27 62  1  0  0  0  0
M  END
> <compound>
EDJ-MED-b6c6ee2b-3

> <compound_smiles>
COc1ccc2cncc(c2c1)N3CCC4(C3=O)CN(Cc5c4cc(cc5)Cl)S(=O)(=O)CC6(CC6)C#N

> <enantiomer_smiles>
COc1ccc2cncc(c2c1)N3CCC4(C3=O)C[N@](Cc5c4cc(cc5)Cl)S(=O)(=O)CC6(CC6)C#N

> <scaffold>
tetrahydroisoquinoline-5spiro-isoquinoline

> <clash_score>
0

> <docking_score>
-8.148048400878906

> <overlap_score>
0.9837092161178589

> <MMFF_internal_energy>
129.75238060127603

> <docked_smiles>
COc1ccc2cncc(c2c1)N3CC[C@@]4(C3=O)C[N@](Cc5c4cc(cc5)Cl)S(=O)(=O)CC6(CC6)C#N

$$$$
EDJ-MED-5cd3920d-4_1
  -OEChem-12272114583D

 60 65  0     1  0  0  0  0  0999 V2000
    3.7865    2.4205   19.1660 C   0  0  0  0  0  0  0  0  0  0  0  0
   12.0765    0.0316   24.1541 C   0  0  0  0  0  0  0  0  0  0  0  0
    3.3432    2.6279   20.4411 C   0  0  0  0  0  0  0  0  0  0  0  0
   12.9132   -0.6032   23.2569 C   0  0  0  0  0  0  0  0  0  0  0  0
    4.8973    1.0233   21.2988 C   0  0  0  0  0  0  0  0  0  0  0  0
   10.9991   -1.4331   22.0443 C   0  0  0  0  0  0  0  0  0  0  0  0
    5.3278    1.2339   17.6066 C   0  0  0  0  0  0  0  0  0  0  0  0
    6.8438   -0.2892   18.3752 C   0  0  0  0  0  0  0  0  0  0  0  0
    4.8226    1.4906   18.9054 C   0  0  0  0  0  0  0  0  0  0  0  0
    5.3982    0.7733   19.9948 C   0  0  0  0  0  0  0  0  0  0  0  0
   10.7040   -0.0625   23.9898 C   0  0  0  0  0  0  0  0  0  0  0  0
   10.1406   -0.7765   22.9250 C   0  0  0  0  0  0  0  0  0  0  0  0
    3.8960    1.9291   21.5050 C   0  0  0  0  0  0  0  0  0  0  0  0
    6.4440   -0.1472   19.6979 C   0  0  0  0  0  0  0  0  0  0  0  0
   12.3683   -1.3298   22.2234 C   0  0  0  0  0  0  0  0  0  0  0  0
    9.9479    0.5589   24.9534 C   0  0  0  0  0  0  0  0  0  0  0  0
    8.2490    0.0169   21.4271 C   0  0  0  0  0  0  0  0  0  0  0  0
    8.4330    3.2597   23.7801 C   0  0  0  0  0  0  0  0  0  0  0  0
    7.9387    2.6608   26.2131 C   0  0  0  0  0  0  0  0  0  0  0  0
    6.7298    2.2855   25.4149 C   0  0  0  0  0  0  0  0  0  0  0  0
    8.0140   -2.1541   22.4331 C   0  0  0  0  0  0  0  0  0  0  0  0
    6.9866   -1.9366   21.3580 C   0  0  0  0  0  0  0  0  0  0  0  0
    7.8721   -0.1194   23.8831 C   0  0  0  0  0  0  0  0  0  0  0  0
    8.6238   -0.7606   22.6929 C   0  0  3  0  0  0  0  0  0  0  0  0
    8.1001    2.2206   24.7728 C   0  0  0  0  0  0  0  0  0  0  0  0
   10.1385    4.9678   23.1833 C   0  0  0  0  0  0  0  0  0  0  0  0
    3.3796    2.1809   22.8922 C   0  0  0  0  0  0  0  0  0  0  0  0
    6.3062    0.3769   17.3421 N   0  0  0  0  0  0  0  0  0  0  0  0
    7.2292   -0.6897   20.7790 N   0  0  0  0  0  0  0  0  0  0  0  0
    8.6609    1.0133   24.4995 N   0  0  0  0  0  0  0  0  0  0  0  0
    9.6227    3.9165   24.0305 N   0  0  0  0  0  0  0  0  0  0  0  0
   10.3189    0.7351   26.1117 O   0  0  0  0  0  0  0  0  0  0  0  0
    8.7583    1.0935   21.1353 O   0  0  0  0  0  0  0  0  0  0  0  0
    7.6723    3.4643   22.8414 O   0  0  0  0  0  0  0  0  0  0  0  0
    3.4667    1.0613   23.6574 F   0  0  0  0  0  0  0  0  0  0  0  0
    2.0647    2.5217   22.8562 F   0  0  0  0  0  0  0  0  0  0  0  0
   13.4277   -2.1397   21.1088 Cl  0  0  0  0  0  0  0  0  0  0  0  0
    3.3419    2.9747   18.3362 H   0  0  0  0  0  0  0  0  0  0  0  0
   12.5170    0.5914   24.9756 H   0  0  0  0  0  0  0  0  0  0  0  0
    2.5411    3.3529   20.6267 H   0  0  0  0  0  0  0  0  0  0  0  0
   13.9904   -0.5162   23.3783 H   0  0  0  0  0  0  0  0  0  0  0  0
    5.3175    0.4836   22.1518 H   0  0  0  0  0  0  0  0  0  0  0  0
   10.6131   -2.0184   21.2223 H   0  0  0  0  0  0  0  0  0  0  0  0
    4.9134    1.7510   16.7475 H   0  0  0  0  0  0  0  0  0  0  0  0
    7.6450   -0.9758   18.1044 H   0  0  0  0  0  0  0  0  0  0  0  0
    8.0776    3.7082   26.4542 H   0  0  0  0  0  0  0  0  0  0  0  0
    8.2534    1.9826   26.9978 H   0  0  0  0  0  0  0  0  0  0  0  0
    6.2323    1.3552   25.6629 H   0  0  0  0  0  0  0  0  0  0  0  0
    6.0552    3.0805   25.1192 H   0  0  0  0  0  0  0  0  0  0  0  0
    7.5778   -2.6152   23.3309 H   0  0  0  0  0  0  0  0  0  0  0  0
    8.7844   -2.8455   22.0573 H   0  0  0  0  0  0  0  0  0  0  0  0
    7.0224   -2.7504   20.5947 H   0  0  0  0  0  0  0  0  0  0  0  0
    5.9553   -1.9483   21.7835 H   0  0  0  0  0  0  0  0  0  0  0  0
    6.8937    0.2571   23.5799 H   0  0  0  0  0  0  0  0  0  0  0  0
    7.7158   -0.8401   24.6911 H   0  0  0  0  0  0  0  0  0  0  0  0
   10.7778    4.5299   22.4026 H   0  0  0  0  0  0  0  0  0  0  0  0
    9.3008    5.5039   22.7132 H   0  0  0  0  0  0  0  0  0  0  0  0
   10.7293    5.6703   23.7895 H   0  0  0  0  0  0  0  0  0  0  0  0
    3.9205    2.9800   23.4023 H   0  0  0  0  0  0  0  0  0  0  0  0
   10.1604    3.6476   24.8490 H   0  0  0  0  0  0  0  0  0  0  0  0
  1  3  2  0  0  0  0
  1  9  1  0  0  0  0
  2  4  2  0  0  0  0
  2 11  1  0  0  0  0
  3 13  1  0  0  0  0
  4 15  1  0  0  0  0
  5 10  1  0  0  0  0
  5 13  2  0  0  0  0
  6 12  1  0  0  0  0
  6 15  2  0  0  0  0
  7  9  2  0  0  0  0
  7 28  1  0  0  0  0
  8 14  1  0  0  0  0
  8 28  2  0  0  0  0
  9 10  1  0  0  0  0
 10 14  2  0  0  0  0
 11 12  2  0  0  0  0
 11 16  1  0  0  0  0
 12 24  1  0  0  0  0
 13 27  1  0  0  0  0
 14 29  1  0  0  0  0
 15 37  1  0  0  0  0
 16 30  1  0  0  0  0
 16 32  2  0  0  0  0
 17 24  1  0  0  0  0
 17 29  1  0  0  0  0
 17 33  2  0  0  0  0
 18 25  1  0  0  0  0
 18 31  1  0  0  0  0
 18 34  2  0  0  0  0
 19 20  1  0  0  0  0
 19 25  1  0  0  0  0
 20 25  1  0  0  0  0
 21 22  1  0  0  0  0
 21 24  1  0  0  0  0
 22 29  1  0  0  0  0
 23 24  1  0  0  0  0
 23 30  1  0  0  0  0
 25 30  1  0  0  0  0
 26 31  1  0  0  0  0
 27 35  1  0  0  0  0
 27 36  1  0  0  0  0
  1 38  1  0  0  0  0
  2 39  1  0  0  0  0
  3 40  1  0  0  0  0
  4 41  1  0  0  0  0
  5 42  1  0  0  0  0
  6 43  1  0  0  0  0
  7 44  1  0  0  0  0
  8 45  1  0  0  0  0
 19 46  1  0  0  0  0
 19 47  1  0  0  0  0
 20 48  1  0  0  0  0
 20 49  1  0  0  0  0
 21 50  1  0  0  0  0
 21 51  1  0  0  0  0
 22 52  1  0  0  0  0
 22 53  1  0  0  0  0
 23 54  1  0  0  0  0
 23 55  1  0  0  0  0
 26 56  1  0  0  0  0
 26 57  1  0  0  0  0
 26 58  1  0  0  0  0
 27 59  1  0  0  0  0
 31 60  1  0  0  0  0
M  END
> <compound>
EDJ-MED-5cd3920d-4

> <compound_smiles>
CNC(=O)C1(CC1)N2CC3(CCN(C3=O)c4cncc5c4cc(cc5)C(F)F)c6cc(ccc6C2=O)Cl

> <enantiomer_smiles>
CNC(=O)C1(CC1)N2CC3(CCN(C3=O)c4cncc5c4cc(cc5)C(F)F)c6cc(ccc6C2=O)Cl

> <scaffold>
tetrahydroisoquinoline-5spiro-isoquinoline

> <clash_score>
0

> <docking_score>
-9.350645065307617

> <overlap_score>
1.0

> <MMFF_internal_energy>
167.5214377203605

> <docked_smiles>
CNC(=O)C1(CC1)N2C[C@]3(CCN(C3=O)c4cncc5c4cc(cc5)C(F)F)c6cc(ccc6C2=O)Cl

$$$$
MAT-POS-38eb6498-3_1
  -OEChem-12272114583D

 71 75  0     1  0  0  0  0  0999 V2000
    3.7865    2.4205   19.1660 C   0  0  0  0  0  0  0  0  0  0  0  0
   12.0765    0.0316   24.1541 C   0  0  0  0  0  0  0  0  0  0  0  0
    3.3432    2.6279   20.4411 C   0  0  0  0  0  0  0  0  0  0  0  0
   12.9132   -0.6032   23.2569 C   0  0  0  0  0  0  0  0  0  0  0  0
    4.8973    1.0233   21.2988 C   0  0  0  0  0  0  0  0  0  0  0  0
   10.9991   -1.4331   22.0443 C   0  0  0  0  0  0  0  0  0  0  0  0
    5.3278    1.2339   17.6066 C   0  0  0  0  0  0  0  0  0  0  0  0
    6.8438   -0.2892   18.3752 C   0  0  0  0  0  0  0  0  0  0  0  0
    4.8226    1.4906   18.9054 C   0  0  0  0  0  0  0  0  0  0  0  0
    5.3982    0.7733   19.9948 C   0  0  0  0  0  0  0  0  0  0  0  0
   10.7040   -0.0625   23.9898 C   0  0  0  0  0  0  0  0  0  0  0  0
   10.1406   -0.7765   22.9250 C   0  0  0  0  0  0  0  0  0  0  0  0
    6.4440   -0.1472   19.6979 C   0  0  0  0  0  0  0  0  0  0  0  0
    3.8960    1.9291   21.5050 C   0  0  0  0  0  0  0  0  0  0  0  0
   12.3683   -1.3298   22.2234 C   0  0  0  0  0  0  0  0  0  0  0  0
    8.2490    0.0169   21.4271 C   0  0  0  0  0  0  0  0  0  0  0  0
    7.3800    2.6707   23.1135 C   0  0  0  0  0  0  0  0  0  0  0  0
    9.9479    0.5589   24.9534 C   0  0  0  0  0  0  0  0  0  0  0  0
    8.0140   -2.1541   22.4331 C   0  0  0  0  0  0  0  0  0  0  0  0
    6.9866   -1.9366   21.3580 C   0  0  0  0  0  0  0  0  0  0  0  0
    7.8721   -0.1194   23.8831 C   0  0  0  0  0  0  0  0  0  0  0  0
    8.6238   -0.7606   22.6929 C   0  0  3  0  0  0  0  0  0  0  0  0
    6.3064    4.4181   21.7238 C   0  0  0  0  0  0  0  0  0  0  0  0
    0.6704    0.8033   24.2525 C   0  0  0  0  0  0  0  0  0  0  0  0
    0.8977    2.3879   26.1600 C   0  0  0  0  0  0  0  0  0  0  0  0
    8.7403    2.1972   23.5605 C   0  0  0  0  0  0  0  0  0  0  0  0
    2.9314    1.4990   25.0310 C   0  0  0  0  0  0  0  0  0  0  0  0
    3.4836    1.0660   23.6872 C   0  0  0  0  0  0  0  0  0  0  0  0
    6.3062    0.3769   17.3421 N   0  0  0  0  0  0  0  0  0  0  0  0
    7.2292   -0.6897   20.7790 N   0  0  0  0  0  0  0  0  0  0  0  0
    7.4727    3.7787   22.2847 N   0  0  0  0  0  0  0  0  0  0  0  0
    8.6609    1.0133   24.4995 N   0  3  2  0  0  0  0  0  0  0  0  0
    1.5090    1.8938   24.8722 N   0  3  0  0  0  0  0  0  0  0  0  0
    8.7573    1.0936   21.1337 O   0  0  0  0  0  0  0  0  0  0  0  0
    6.3322    2.1271   23.4522 O   0  0  0  0  0  0  0  0  0  0  0  0
    3.4227    2.1582   22.7714 O   0  0  0  0  0  0  0  0  0  0  0  0
   13.4273   -2.1424   21.1098 Cl  0  0  0  0  0  0  0  0  0  0  0  0
    3.3406    2.9746   18.3368 H   0  0  0  0  0  0  0  0  0  0  0  0
   12.5019    0.5946   24.9768 H   0  0  0  0  0  0  0  0  0  0  0  0
    2.5407    3.3506   20.6306 H   0  0  0  0  0  0  0  0  0  0  0  0
   13.9911   -0.5203   23.3811 H   0  0  0  0  0  0  0  0  0  0  0  0
    5.3162    0.4858   22.1535 H   0  0  0  0  0  0  0  0  0  0  0  0
   10.6042   -2.0222   21.2286 H   0  0  0  0  0  0  0  0  0  0  0  0
    4.9131    1.7514   16.7479 H   0  0  0  0  0  0  0  0  0  0  0  0
    7.6448   -0.9758   18.1041 H   0  0  0  0  0  0  0  0  0  0  0  0
    9.7388   -0.1131   25.8254 H   0  0  0  0  0  0  0  0  0  0  0  0
   10.4771    1.4544   25.3711 H   0  0  0  0  0  0  0  0  0  0  0  0
    7.5768   -2.6110   23.3318 H   0  0  0  0  0  0  0  0  0  0  0  0
    8.7734   -2.8622   22.0653 H   0  0  0  0  0  0  0  0  0  0  0  0
    7.0225   -2.7503   20.5949 H   0  0  0  0  0  0  0  0  0  0  0  0
    5.9552   -1.9477   21.7830 H   0  0  0  0  0  0  0  0  0  0  0  0
    6.8958    0.3004   23.5785 H   0  0  0  0  0  0  0  0  0  0  0  0
    7.6733   -0.8520   24.6844 H   0  0  0  0  0  0  0  0  0  0  0  0
    6.0820    3.9763   20.7417 H   0  0  0  0  0  0  0  0  0  0  0  0
    5.4486    4.2710   22.3965 H   0  0  0  0  0  0  0  0  0  0  0  0
    6.4995    5.4946   21.6059 H   0  0  0  0  0  0  0  0  0  0  0  0
    0.6876   -0.0549   24.9267 H   0  0  0  0  0  0  0  0  0  0  0  0
   -0.3439    1.1888   24.1334 H   0  0  0  0  0  0  0  0  0  0  0  0
    1.1108    0.5518   23.2858 H   0  0  0  0  0  0  0  0  0  0  0  0
    0.9200    1.5654   26.8773 H   0  0  0  0  0  0  0  0  0  0  0  0
    1.4948    3.2315   26.5112 H   0  0  0  0  0  0  0  0  0  0  0  0
   -0.1280    2.6947   25.9467 H   0  0  0  0  0  0  0  0  0  0  0  0
    9.2580    2.9867   24.1123 H   0  0  0  0  0  0  0  0  0  0  0  0
    9.3353    1.8814   22.6991 H   0  0  0  0  0  0  0  0  0  0  0  0
    3.4520    2.3752   25.4275 H   0  0  0  0  0  0  0  0  0  0  0  0
    2.9512    0.6831   25.7583 H   0  0  0  0  0  0  0  0  0  0  0  0
    4.5327    0.7728   23.7935 H   0  0  0  0  0  0  0  0  0  0  0  0
    2.9228    0.2221   23.2724 H   0  0  0  0  0  0  0  0  0  0  0  0
    8.3848    4.1756   22.0775 H   0  0  0  0  0  0  0  0  0  0  0  0
    8.1123    1.3501   25.3127 H   0  0  0  0  0  0  0  0  0  0  0  0
    1.4744    2.6908   24.2142 H   0  0  0  0  0  0  0  0  0  0  0  0
  1  3  2  0  0  0  0
  1  9  1  0  0  0  0
  2  4  2  0  0  0  0
  2 11  1  0  0  0  0
  3 14  1  0  0  0  0
  4 15  1  0  0  0  0
  5 10  1  0  0  0  0
  5 14  2  0  0  0  0
  6 12  1  0  0  0  0
  6 15  2  0  0  0  0
  7  9  2  0  0  0  0
  7 29  1  0  0  0  0
  8 13  1  0  0  0  0
  8 29  2  0  0  0  0
  9 10  1  0  0  0  0
 10 13  2  0  0  0  0
 11 12  2  0  0  0  0
 11 18  1  0  0  0  0
 12 22  1  0  0  0  0
 13 30  1  0  0  0  0
 14 36  1  0  0  0  0
 15 37  1  0  0  0  0
 16 22  1  0  0  0  0
 16 30  1  0  0  0  0
 16 34  2  0  0  0  0
 17 26  1  0  0  0  0
 17 31  1  0  0  0  0
 17 35  2  0  0  0  0
 18 32  1  0  0  0  0
 19 20  1  0  0  0  0
 19 22  1  0  0  0  0
 20 30  1  0  0  0  0
 21 22  1  0  0  0  0
 21 32  1  0  0  0  0
 23 31  1  0  0  0  0
 24 33  1  0  0  0  0
 25 33  1  0  0  0  0
 26 32  1  1  0  0  0
 27 28  1  0  0  0  0
 27 33  1  0  0  0  0
 28 36  1  0  0  0  0
  1 38  1  0  0  0  0
  2 39  1  0  0  0  0
  3 40  1  0  0  0  0
  4 41  1  0  0  0  0
  5 42  1  0  0  0  0
  6 43  1  0  0  0  0
  7 44  1  0  0  0  0
  8 45  1  0  0  0  0
 18 46  1  0  0  0  0
 18 47  1  0  0  0  0
 19 48  1  0  0  0  0
 19 49  1  0  0  0  0
 20 50  1  0  0  0  0
 20 51  1  0  0  0  0
 21 52  1  0  0  0  0
 21 53  1  0  0  0  0
 23 54  1  0  0  0  0
 23 55  1  0  0  0  0
 23 56  1  0  0  0  0
 24 57  1  0  0  0  0
 24 58  1  0  0  0  0
 24 59  1  0  0  0  0
 25 60  1  0  0  0  0
 25 61  1  0  0  0  0
 25 62  1  0  0  0  0
 26 63  1  0  0  0  0
 26 64  1  0  0  0  0
 27 65  1  0  0  0  0
 27 66  1  0  0  0  0
 28 67  1  0  0  0  0
 28 68  1  0  0  0  0
 31 69  1  0  0  0  0
 32 70  1  0  0  0  0
 33 71  1  0  0  0  0
M  CHG  2  32   1  33   1
M  END
> <compound>
MAT-POS-38eb6498-3

> <compound_smiles>
CNC(=O)CN1Cc2ccc(cc2C3(C1)CCN(C3=O)c4cncc5c4cc(cc5)OCCN(C)C)Cl

> <enantiomer_smiles>
CNC(=O)C[N@@]1Cc2ccc(cc2C3(C1)CCN(C3=O)c4cncc5c4cc(cc5)OCCN(C)C)Cl

> <scaffold>
tetrahydroisoquinoline-5spiro-isoquinoline

> <clash_score>
0

> <docking_score>
-8.62500286102295

> <overlap_score>
0.9847329258918762

> <MMFF_internal_energy>
244.15478507090523

> <docked_smiles>
CNC(=O)C[N@@H+]1Cc2ccc(cc2[C@]3(C1)CCN(C3=O)c4cncc5c4cc(cc5)OCC[NH+](C)C)Cl

$$$$
PET-UNK-94036022-6_1
  -OEChem-12272114583D

 58 63  0     1  0  0  0  0  0999 V2000
   10.0002    5.1171   23.8040 C   0  0  0  0  0  0  0  0  0  0  0  0
    3.3432    2.6279   20.4411 C   0  0  0  0  0  0  0  0  0  0  0  0
    3.8960    1.9291   21.5050 C   0  0  0  0  0  0  0  0  0  0  0  0
    3.7865    2.4205   19.1660 C   0  0  0  0  0  0  0  0  0  0  0  0
    4.8973    1.0233   21.2988 C   0  0  0  0  0  0  0  0  0  0  0  0
   12.0765    0.0316   24.1541 C   0  0  0  0  0  0  0  0  0  0  0  0
   12.9132   -0.6032   23.2569 C   0  0  0  0  0  0  0  0  0  0  0  0
   10.9991   -1.4331   22.0443 C   0  0  0  0  0  0  0  0  0  0  0  0
    5.3278    1.2339   17.6066 C   0  0  0  0  0  0  0  0  0  0  0  0
    6.8438   -0.2892   18.3752 C   0  0  0  0  0  0  0  0  0  0  0  0
    4.8226    1.4906   18.9054 C   0  0  0  0  0  0  0  0  0  0  0  0
    5.3982    0.7733   19.9948 C   0  0  0  0  0  0  0  0  0  0  0  0
   10.7040   -0.0625   23.9898 C   0  0  0  0  0  0  0  0  0  0  0  0
   10.1406   -0.7765   22.9250 C   0  0  0  0  0  0  0  0  0  0  0  0
    6.4440   -0.1472   19.6979 C   0  0  0  0  0  0  0  0  0  0  0  0
   12.3683   -1.3298   22.2234 C   0  0  0  0  0  0  0  0  0  0  0  0
    6.9866   -1.9366   21.3580 C   0  0  0  0  0  0  0  0  0  0  0  0
    8.0140   -2.1541   22.4331 C   0  0  0  0  0  0  0  0  0  0  0  0
    8.2490    0.0169   21.4271 C   0  0  0  0  0  0  0  0  0  0  0  0
    6.0109   -2.8147   21.1726 C   0  0  0  0  0  0  0  0  0  0  0  0
    9.9479    0.5589   24.9534 C   0  0  0  0  0  0  0  0  0  0  0  0
    8.5463    6.1101   25.6084 C   0  0  0  0  0  0  0  0  0  0  0  0
    7.7145    6.0218   24.3630 C   0  0  0  0  0  0  0  0  0  0  0  0
    7.8721   -0.1194   23.8831 C   0  0  0  0  0  0  0  0  0  0  0  0
    8.8099    5.0079   24.6070 C   0  0  0  0  0  0  0  0  0  0  0  0
    8.6238   -0.7606   22.6929 C   0  0  1  0  0  0  0  0  0  0  0  0
    8.4058    3.5983   24.9770 C   0  0  0  0  0  0  0  0  0  0  0  0
   10.9593    5.2051   23.1570 N   0  0  0  0  0  0  0  0  0  0  0  0
    6.3062    0.3769   17.3421 N   0  0  0  0  0  0  0  0  0  0  0  0
    7.2292   -0.6897   20.7790 N   0  0  0  0  0  0  0  0  0  0  0  0
    8.6609    1.0133   24.4995 N   0  0  1  0  0  0  0  0  0  0  0  0
    8.2876   -3.1795   22.9740 O   0  0  0  0  0  0  0  0  0  0  0  0
    8.8183    1.0532   21.0843 O   0  0  0  0  0  0  0  0  0  0  0  0
    7.4181    2.5120   22.8156 O   0  0  0  0  0  0  0  0  0  0  0  0
    9.9259    2.7284   23.0380 O   0  0  0  0  0  0  0  0  0  0  0  0
    8.6230    2.4807   23.6160 S   0  0  0  0  0  0  0  0  0  0  0  0
   13.4267   -2.1443   21.1108 Cl  0  0  0  0  0  0  0  0  0  0  0  0
    2.5432    3.3510   20.6369 H   0  0  0  0  0  0  0  0  0  0  0  0
    3.5174    2.1137   22.5168 H   0  0  0  0  0  0  0  0  0  0  0  0
    3.3409    2.9743   18.3364 H   0  0  0  0  0  0  0  0  0  0  0  0
    5.3118    0.4895   22.1572 H   0  0  0  0  0  0  0  0  0  0  0  0
   12.5024    0.5907   24.9796 H   0  0  0  0  0  0  0  0  0  0  0  0
   13.9910   -0.5223   23.3824 H   0  0  0  0  0  0  0  0  0  0  0  0
   10.6046   -2.0214   21.2268 H   0  0  0  0  0  0  0  0  0  0  0  0
    4.9141    1.7511   16.7474 H   0  0  0  0  0  0  0  0  0  0  0  0
    7.6445   -0.9764   18.1043 H   0  0  0  0  0  0  0  0  0  0  0  0
    5.2693   -2.6581   20.3975 H   0  0  0  0  0  0  0  0  0  0  0  0
    5.9353   -3.7031   21.7890 H   0  0  0  0  0  0  0  0  0  0  0  0
    9.7586   -0.1296   25.8180 H   0  0  0  0  0  0  0  0  0  0  0  0
   10.4941    1.4381   25.3860 H   0  0  0  0  0  0  0  0  0  0  0  0
    9.2508    6.9306   25.6845 H   0  0  0  0  0  0  0  0  0  0  0  0
    8.0723    5.8535   26.5488 H   0  0  0  0  0  0  0  0  0  0  0  0
    6.6828    5.7068   24.4695 H   0  0  0  0  0  0  0  0  0  0  0  0
    7.8621    6.7839   23.6063 H   0  0  0  0  0  0  0  0  0  0  0  0
    6.8887    0.2751   23.5713 H   0  0  0  0  0  0  0  0  0  0  0  0
    7.6738   -0.8761   24.6616 H   0  0  0  0  0  0  0  0  0  0  0  0
    7.3514    3.5559   25.2638 H   0  0  0  0  0  0  0  0  0  0  0  0
    9.0134    3.2213   25.8041 H   0  0  0  0  0  0  0  0  0  0  0  0
  1 25  1  0  0  0  0
  1 28  3  0  0  0  0
  2  3  1  0  0  0  0
  2  4  2  0  0  0  0
  3  5  2  0  0  0  0
  4 11  1  0  0  0  0
  5 12  1  0  0  0  0
  6  7  1  0  0  0  0
  6 13  2  0  0  0  0
  7 16  2  0  0  0  0
  8 14  2  0  0  0  0
  8 16  1  0  0  0  0
  9 11  2  0  0  0  0
  9 29  1  0  0  0  0
 10 15  1  0  0  0  0
 10 29  2  0  0  0  0
 11 12  1  0  0  0  0
 12 15  2  0  0  0  0
 13 14  1  0  0  0  0
 13 21  1  0  0  0  0
 14 26  1  1  0  0  0
 15 30  1  0  0  0  0
 16 37  1  0  0  0  0
 17 18  1  0  0  0  0
 17 20  2  0  0  0  0
 17 30  1  0  0  0  0
 18 26  1  6  0  0  0
 18 32  2  0  0  0  0
 19 26  1  1  0  0  0
 19 30  1  0  0  0  0
 19 33  2  0  0  0  0
 21 31  1  0  0  0  0
 22 23  1  0  0  0  0
 22 25  1  0  0  0  0
 23 25  1  0  0  0  0
 24 26  1  6  0  0  0
 24 31  1  0  0  0  0
 25 27  1  0  0  0  0
 27 36  1  0  0  0  0
 31 36  1  1  0  0  0
 34 36  2  0  0  0  0
 35 36  2  0  0  0  0
  2 38  1  0  0  0  0
  3 39  1  0  0  0  0
  4 40  1  0  0  0  0
  5 41  1  0  0  0  0
  6 42  1  0  0  0  0
  7 43  1  0  0  0  0
  8 44  1  0  0  0  0
  9 45  1  0  0  0  0
 10 46  1  0  0  0  0
 20 47  1  0  0  0  0
 20 48  1  0  0  0  0
 21 49  1  0  0  0  0
 21 50  1  0  0  0  0
 22 51  1  0  0  0  0
 22 52  1  0  0  0  0
 23 53  1  0  0  0  0
 23 54  1  0  0  0  0
 24 55  1  0  0  0  0
 24 56  1  0  0  0  0
 27 57  1  0  0  0  0
 27 58  1  0  0  0  0
M  END
> <compound>
PET-UNK-94036022-6

> <compound_smiles>
C=C1C(=O)[C@]2(CN(Cc3c2cc(cc3)Cl)S(=O)(=O)CC4(CC4)C#N)C(=O)N1c5cncc6c5cccc6

> <enantiomer_smiles>
C=C1C(=O)[C@]2(C[N@@](Cc3c2cc(cc3)Cl)S(=O)(=O)CC4(CC4)C#N)C(=O)N1c5cncc6c5cccc6

> <scaffold>
tetrahydroisoquinoline-5spiro-isoquinoline

> <clash_score>
0

> <docking_score>
-7.8618693351745605

> <overlap_score>
1.0

> <MMFF_internal_energy>
148.0016650384613

> <docked_smiles>
C=C1C(=O)[C@]2(C[N@@](Cc3c2cc(cc3)Cl)S(=O)(=O)CC4(CC4)C#N)C(=O)N1c5cncc6c5cccc6

$$$$
ALP-POS-ecbed2ba-11_1
  -OEChem-12272114583D

 65 70  0     1  0  0  0  0  0999 V2000
    6.3770    4.8034   24.3021 C   0  0  0  0  0  0  0  0  0  0  0  0
    3.3432    2.6279   20.4411 C   0  0  0  0  0  0  0  0  0  0  0  0
    3.8960    1.9291   21.5050 C   0  0  0  0  0  0  0  0  0  0  0  0
    3.7865    2.4205   19.1660 C   0  0  0  0  0  0  0  0  0  0  0  0
    4.8973    1.0233   21.2988 C   0  0  0  0  0  0  0  0  0  0  0  0
   12.0765    0.0316   24.1541 C   0  0  0  0  0  0  0  0  0  0  0  0
   12.9132   -0.6032   23.2569 C   0  0  0  0  0  0  0  0  0  0  0  0
   10.9991   -1.4331   22.0443 C   0  0  0  0  0  0  0  0  0  0  0  0
    5.3278    1.2339   17.6066 C   0  0  0  0  0  0  0  0  0  0  0  0
    6.8438   -0.2892   18.3752 C   0  0  0  0  0  0  0  0  0  0  0  0
    4.8226    1.4906   18.9054 C   0  0  0  0  0  0  0  0  0  0  0  0
    5.3982    0.7733   19.9948 C   0  0  0  0  0  0  0  0  0  0  0  0
   10.7040   -0.0625   23.9898 C   0  0  0  0  0  0  0  0  0  0  0  0
   10.1406   -0.7765   22.9250 C   0  0  0  0  0  0  0  0  0  0  0  0
    6.4440   -0.1472   19.6979 C   0  0  0  0  0  0  0  0  0  0  0  0
   12.3683   -1.3298   22.2234 C   0  0  0  0  0  0  0  0  0  0  0  0
    8.2490    0.0169   21.4271 C   0  0  0  0  0  0  0  0  0  0  0  0
    9.9479    0.5589   24.9534 C   0  0  0  0  0  0  0  0  0  0  0  0
    8.0140   -2.1541   22.4331 C   0  0  0  0  0  0  0  0  0  0  0  0
    8.0815    6.0473   25.5767 C   0  0  0  0  0  0  0  0  0  0  0  0
    8.5108    5.3526   23.1733 C   0  0  0  0  0  0  0  0  0  0  0  0
    6.9866   -1.9366   21.3580 C   0  0  0  0  0  0  0  0  0  0  0  0
    7.8721   -0.1194   23.8831 C   0  0  0  0  0  0  0  0  0  0  0  0
    9.3668    6.8151   25.2926 C   0  0  0  0  0  0  0  0  0  0  0  0
    8.5643    6.8687   23.0188 C   0  0  0  0  0  0  0  0  0  0  0  0
    7.8364    4.9562   24.5077 C   0  0  0  0  0  0  0  0  0  0  0  0
    8.6238   -0.7606   22.6929 C   0  0  3  0  0  0  0  0  0  0  0  0
    8.3988    3.6046   24.9788 C   0  0  0  0  0  0  0  0  0  0  0  0
    5.2342    4.6837   24.1411 N   0  0  0  0  0  0  0  0  0  0  0  0
    6.3062    0.3769   17.3421 N   0  0  0  0  0  0  0  0  0  0  0  0
    7.2292   -0.6897   20.7790 N   0  0  0  0  0  0  0  0  0  0  0  0
    8.6609    1.0133   24.4995 N   0  0  1  0  0  0  0  0  0  0  0  0
    8.7572    1.0941   21.1350 O   0  0  0  0  0  0  0  0  0  0  0  0
    7.4117    2.5012   22.8259 O   0  0  0  0  0  0  0  0  0  0  0  0
    9.9185    2.7384   23.0377 O   0  0  0  0  0  0  0  0  0  0  0  0
    9.3318    7.5031   24.0422 O   0  0  0  0  0  0  0  0  0  0  0  0
    8.6198    2.4832   23.6217 S   0  0  0  0  0  0  0  0  0  0  0  0
   13.4275   -2.1421   21.1097 Cl  0  0  0  0  0  0  0  0  0  0  0  0
    2.5432    3.3510   20.6369 H   0  0  0  0  0  0  0  0  0  0  0  0
    3.5174    2.1137   22.5168 H   0  0  0  0  0  0  0  0  0  0  0  0
    3.3409    2.9743   18.3364 H   0  0  0  0  0  0  0  0  0  0  0  0
    5.3118    0.4895   22.1572 H   0  0  0  0  0  0  0  0  0  0  0  0
   12.5015    0.5938   24.9776 H   0  0  0  0  0  0  0  0  0  0  0  0
   13.9911   -0.5212   23.3814 H   0  0  0  0  0  0  0  0  0  0  0  0
   10.6037   -2.0228   21.2288 H   0  0  0  0  0  0  0  0  0  0  0  0
    4.9141    1.7511   16.7474 H   0  0  0  0  0  0  0  0  0  0  0  0
    7.6445   -0.9764   18.1043 H   0  0  0  0  0  0  0  0  0  0  0  0
    9.7581   -0.1287   25.8173 H   0  0  0  0  0  0  0  0  0  0  0  0
   10.4931    1.4391   25.3829 H   0  0  0  0  0  0  0  0  0  0  0  0
    7.5801   -2.6060   23.3366 H   0  0  0  0  0  0  0  0  0  0  0  0
    8.7749   -2.8608   22.0657 H   0  0  0  0  0  0  0  0  0  0  0  0
    8.1135    5.6163   26.5784 H   0  0  0  0  0  0  0  0  0  0  0  0
    7.2503    6.7580   25.5538 H   0  0  0  0  0  0  0  0  0  0  0  0
    7.9223    4.9487   22.3455 H   0  0  0  0  0  0  0  0  0  0  0  0
    9.5133    4.9308   23.0984 H   0  0  0  0  0  0  0  0  0  0  0  0
    7.0227   -2.7506   20.5953 H   0  0  0  0  0  0  0  0  0  0  0  0
    5.9554   -1.9484   21.7832 H   0  0  0  0  0  0  0  0  0  0  0  0
    6.8886    0.2769   23.5666 H   0  0  0  0  0  0  0  0  0  0  0  0
    7.6579   -0.8710   24.6633 H   0  0  0  0  0  0  0  0  0  0  0  0
    9.5246    7.5719   26.0785 H   0  0  0  0  0  0  0  0  0  0  0  0
   10.2524    6.1568   25.3204 H   0  0  0  0  0  0  0  0  0  0  0  0
    8.9591    7.1663   22.0312 H   0  0  0  0  0  0  0  0  0  0  0  0
    7.5422    7.2798   23.0736 H   0  0  0  0  0  0  0  0  0  0  0  0
    7.7190    3.1233   25.6873 H   0  0  0  0  0  0  0  0  0  0  0  0
    9.3750    3.7313   25.4546 H   0  0  0  0  0  0  0  0  0  0  0  0
  1 26  1  0  0  0  0
  1 29  3  0  0  0  0
  2  3  1  0  0  0  0
  2  4  2  0  0  0  0
  3  5  2  0  0  0  0
  4 11  1  0  0  0  0
  5 12  1  0  0  0  0
  6  7  1  0  0  0  0
  6 13  2  0  0  0  0
  7 16  2  0  0  0  0
  8 14  2  0  0  0  0
  8 16  1  0  0  0  0
  9 11  2  0  0  0  0
  9 30  1  0  0  0  0
 10 15  1  0  0  0  0
 10 30  2  0  0  0  0
 11 12  1  0  0  0  0
 12 15  2  0  0  0  0
 13 14  1  0  0  0  0
 13 18  1  0  0  0  0
 14 27  1  0  0  0  0
 15 31  1  0  0  0  0
 16 38  1  0  0  0  0
 17 27  1  0  0  0  0
 17 31  1  0  0  0  0
 17 33  2  0  0  0  0
 18 32  1  0  0  0  0
 19 22  1  0  0  0  0
 19 27  1  0  0  0  0
 20 24  1  0  0  0  0
 20 26  1  0  0  0  0
 21 25  1  0  0  0  0
 21 26  1  0  0  0  0
 22 31  1  0  0  0  0
 23 27  1  0  0  0  0
 23 32  1  0  0  0  0
 24 36  1  0  0  0  0
 25 36  1  0  0  0  0
 26 28  1  0  0  0  0
 28 37  1  0  0  0  0
 32 37  1  1  0  0  0
 34 37  2  0  0  0  0
 35 37  2  0  0  0  0
  2 39  1  0  0  0  0
  3 40  1  0  0  0  0
  4 41  1  0  0  0  0
  5 42  1  0  0  0  0
  6 43  1  0  0  0  0
  7 44  1  0  0  0  0
  8 45  1  0  0  0  0
  9 46  1  0  0  0  0
 10 47  1  0  0  0  0
 18 48  1  0  0  0  0
 18 49  1  0  0  0  0
 19 50  1  0  0  0  0
 19 51  1  0  0  0  0
 20 52  1  0  0  0  0
 20 53  1  0  0  0  0
 21 54  1  0  0  0  0
 21 55  1  0  0  0  0
 22 56  1  0  0  0  0
 22 57  1  0  0  0  0
 23 58  1  0  0  0  0
 23 59  1  0  0  0  0
 24 60  1  0  0  0  0
 24 61  1  0  0  0  0
 25 62  1  0  0  0  0
 25 63  1  0  0  0  0
 28 64  1  0  0  0  0
 28 65  1  0  0  0  0
M  END
> <compound>
ALP-POS-ecbed2ba-11

> <compound_smiles>
c1ccc2c(c1)cncc2N3CCC4(C3=O)CN(Cc5c4cc(cc5)Cl)S(=O)(=O)CC6(CCOCC6)C#N

> <enantiomer_smiles>
c1ccc2c(c1)cncc2N3CCC4(C3=O)C[N@@](Cc5c4cc(cc5)Cl)S(=O)(=O)CC6(CCOCC6)C#N

> <scaffold>
tetrahydroisoquinoline-5spiro-isoquinoline

> <clash_score>
0

> <docking_score>
-8.895600318908691

> <overlap_score>
0.9685983657836914

> <MMFF_internal_energy>
77.66152567327322

> <docked_smiles>
c1ccc2c(c1)cncc2N3CC[C@@]4(C3=O)C[N@@](Cc5c4cc(cc5)Cl)S(=O)(=O)CC6(CCOCC6)C#N

$$$$
PET-UNK-94036022-6_2
  -OEChem-12272114583D

 58 63  0     1  0  0  0  0  0999 V2000
    7.3140    3.4212   22.7779 C   0  0  0  0  0  0  0  0  0  0  0  0
    3.3432    2.6279   20.4411 C   0  0  0  0  0  0  0  0  0  0  0  0
    3.8960    1.9291   21.5050 C   0  0  0  0  0  0  0  0  0  0  0  0
    3.7865    2.4205   19.1660 C   0  0  0  0  0  0  0  0  0  0  0  0
    4.8973    1.0233   21.2988 C   0  0  0  0  0  0  0  0  0  0  0  0
   12.0765    0.0316   24.1541 C   0  0  0  0  0  0  0  0  0  0  0  0
   12.9132   -0.6032   23.2569 C   0  0  0  0  0  0  0  0  0  0  0  0
   10.9991   -1.4331   22.0443 C   0  0  0  0  0  0  0  0  0  0  0  0
    5.3278    1.2339   17.6066 C   0  0  0  0  0  0  0  0  0  0  0  0
    6.8438   -0.2892   18.3752 C   0  0  0  0  0  0  0  0  0  0  0  0
    4.8226    1.4906   18.9054 C   0  0  0  0  0  0  0  0  0  0  0  0
    5.3982    0.7733   19.9948 C   0  0  0  0  0  0  0  0  0  0  0  0
   10.7040   -0.0625   23.9898 C   0  0  0  0  0  0  0  0  0  0  0  0
   10.1406   -0.7765   22.9250 C   0  0  0  0  0  0  0  0  0  0  0  0
    6.4440   -0.1472   19.6979 C   0  0  0  0  0  0  0  0  0  0  0  0
   12.3683   -1.3298   22.2234 C   0  0  0  0  0  0  0  0  0  0  0  0
    6.9866   -1.9366   21.3580 C   0  0  0  0  0  0  0  0  0  0  0  0
    8.0140   -2.1541   22.4331 C   0  0  0  0  0  0  0  0  0  0  0  0
    8.2490    0.0169   21.4271 C   0  0  0  0  0  0  0  0  0  0  0  0
    6.0110   -2.8149   21.1721 C   0  0  0  0  0  0  0  0  0  0  0  0
    9.9479    0.5589   24.9534 C   0  0  0  0  0  0  0  0  0  0  0  0
    9.8166    3.1496   22.9161 C   0  0  0  0  0  0  0  0  0  0  0  0
    9.5251    4.6210   22.9414 C   0  0  0  0  0  0  0  0  0  0  0  0
    7.8721   -0.1194   23.8831 C   0  0  0  0  0  0  0  0  0  0  0  0
    8.5247    3.6479   23.5240 C   0  0  0  0  0  0  0  0  0  0  0  0
    8.6238   -0.7606   22.6929 C   0  0  1  0  0  0  0  0  0  0  0  0
    8.3779    3.5929   25.0282 C   0  0  0  0  0  0  0  0  0  0  0  0
    6.3386    3.2384   22.1768 N   0  0  0  0  0  0  0  0  0  0  0  0
    6.3062    0.3769   17.3421 N   0  0  0  0  0  0  0  0  0  0  0  0
    7.2292   -0.6897   20.7790 N   0  0  0  0  0  0  0  0  0  0  0  0
    8.6609    1.0133   24.4995 N   0  0  2  0  0  0  0  0  0  0  0  0
    8.2872   -3.1785   22.9760 O   0  0  0  0  0  0  0  0  0  0  0  0
    8.8164    1.0540   21.0830 O   0  0  0  0  0  0  0  0  0  0  0  0
    8.2186    1.8016   26.9237 O   0  0  0  0  0  0  0  0  0  0  0  0
    6.3713    1.9286   25.2042 O   0  0  0  0  0  0  0  0  0  0  0  0
    7.7694    2.0152   25.5653 S   0  0  0  0  0  0  0  0  0  0  0  0
   13.4269   -2.1410   21.1085 Cl  0  0  0  0  0  0  0  0  0  0  0  0
    2.5432    3.3510   20.6369 H   0  0  0  0  0  0  0  0  0  0  0  0
    3.5174    2.1137   22.5168 H   0  0  0  0  0  0  0  0  0  0  0  0
    3.3409    2.9743   18.3364 H   0  0  0  0  0  0  0  0  0  0  0  0
    5.3118    0.4895   22.1572 H   0  0  0  0  0  0  0  0  0  0  0  0
   12.5023    0.6001   24.9733 H   0  0  0  0  0  0  0  0  0  0  0  0
   13.9909   -0.5152   23.3777 H   0  0  0  0  0  0  0  0  0  0  0  0
   10.6043   -2.0186   21.2251 H   0  0  0  0  0  0  0  0  0  0  0  0
    4.9141    1.7511   16.7474 H   0  0  0  0  0  0  0  0  0  0  0  0
    7.6445   -0.9764   18.1043 H   0  0  0  0  0  0  0  0  0  0  0  0
    5.2695   -2.6583   20.3970 H   0  0  0  0  0  0  0  0  0  0  0  0
    5.9356   -3.7036   21.7883 H   0  0  0  0  0  0  0  0  0  0  0  0
    9.7874   -0.1162   25.8353 H   0  0  0  0  0  0  0  0  0  0  0  0
   10.4804    1.4582   25.3605 H   0  0  0  0  0  0  0  0  0  0  0  0
    9.7863    2.6482   21.9553 H   0  0  0  0  0  0  0  0  0  0  0  0
   10.5914    2.7791   23.5773 H   0  0  0  0  0  0  0  0  0  0  0  0
   10.1057    5.2363   23.6190 H   0  0  0  0  0  0  0  0  0  0  0  0
    9.3008    5.1040   21.9971 H   0  0  0  0  0  0  0  0  0  0  0  0
    6.8948    0.2717   23.5512 H   0  0  0  0  0  0  0  0  0  0  0  0
    7.6618   -0.8619   24.6732 H   0  0  0  0  0  0  0  0  0  0  0  0
    7.6699    4.3483   25.3802 H   0  0  0  0  0  0  0  0  0  0  0  0
    9.3405    3.7523   25.5215 H   0  0  0  0  0  0  0  0  0  0  0  0
  1 25  1  0  0  0  0
  1 28  3  0  0  0  0
  2  3  1  0  0  0  0
  2  4  2  0  0  0  0
  3  5  2  0  0  0  0
  4 11  1  0  0  0  0
  5 12  1  0  0  0  0
  6  7  1  0  0  0  0
  6 13  2  0  0  0  0
  7 16  2  0  0  0  0
  8 14  2  0  0  0  0
  8 16  1  0  0  0  0
  9 11  2  0  0  0  0
  9 29  1  0  0  0  0
 10 15  1  0  0  0  0
 10 29  2  0  0  0  0
 11 12  1  0  0  0  0
 12 15  2  0  0  0  0
 13 14  1  0  0  0  0
 13 21  1  0  0  0  0
 14 26  1  1  0  0  0
 15 30  1  0  0  0  0
 16 37  1  0  0  0  0
 17 18  1  0  0  0  0
 17 20  2  0  0  0  0
 17 30  1  0  0  0  0
 18 26  1  6  0  0  0
 18 32  2  0  0  0  0
 19 26  1  1  0  0  0
 19 30  1  0  0  0  0
 19 33  2  0  0  0  0
 21 31  1  0  0  0  0
 22 23  1  0  0  0  0
 22 25  1  0  0  0  0
 23 25  1  0  0  0  0
 24 26  1  6  0  0  0
 24 31  1  0  0  0  0
 25 27  1  0  0  0  0
 27 36  1  0  0  0  0
 31 36  1  6  0  0  0
 34 36  2  0  0  0  0
 35 36  2  0  0  0  0
  2 38  1  0  0  0  0
  3 39  1  0  0  0  0
  4 40  1  0  0  0  0
  5 41  1  0  0  0  0
  6 42  1  0  0  0  0
  7 43  1  0  0  0  0
  8 44  1  0  0  0  0
  9 45  1  0  0  0  0
 10 46  1  0  0  0  0
 20 47  1  0  0  0  0
 20 48  1  0  0  0  0
 21 49  1  0  0  0  0
 21 50  1  0  0  0  0
 22 51  1  0  0  0  0
 22 52  1  0  0  0  0
 23 53  1  0  0  0  0
 23 54  1  0  0  0  0
 24 55  1  0  0  0  0
 24 56  1  0  0  0  0
 27 57  1  0  0  0  0
 27 58  1  0  0  0  0
M  END
> <compound>
PET-UNK-94036022-6

> <compound_smiles>
C=C1C(=O)[C@]2(CN(Cc3c2cc(cc3)Cl)S(=O)(=O)CC4(CC4)C#N)C(=O)N1c5cncc6c5cccc6

> <enantiomer_smiles>
C=C1C(=O)[C@]2(C[N@](Cc3c2cc(cc3)Cl)S(=O)(=O)CC4(CC4)C#N)C(=O)N1c5cncc6c5cccc6

> <scaffold>
tetrahydroisoquinoline-5spiro-isoquinoline

> <clash_score>
0

> <docking_score>
-7.414346218109131

> <overlap_score>
1.0

> <MMFF_internal_energy>
136.33495905437377

> <docked_smiles>
C=C1C(=O)[C@]2(C[N@](Cc3c2cc(cc3)Cl)S(=O)(=O)CC4(CC4)C#N)C(=O)N1c5cncc6c5cccc6

$$$$
EDJ-MED-b6c6ee2b-1_1
  -OEChem-12272114583D

 71 75  0     1  0  0  0  0  0999 V2000
    3.7865    2.4205   19.1660 C   0  0  0  0  0  0  0  0  0  0  0  0
   12.0765    0.0316   24.1541 C   0  0  0  0  0  0  0  0  0  0  0  0
    3.3432    2.6279   20.4411 C   0  0  0  0  0  0  0  0  0  0  0  0
   12.9132   -0.6032   23.2569 C   0  0  0  0  0  0  0  0  0  0  0  0
    4.8973    1.0233   21.2988 C   0  0  0  0  0  0  0  0  0  0  0  0
   10.9991   -1.4331   22.0443 C   0  0  0  0  0  0  0  0  0  0  0  0
    5.3278    1.2339   17.6066 C   0  0  0  0  0  0  0  0  0  0  0  0
    6.8438   -0.2892   18.3752 C   0  0  0  0  0  0  0  0  0  0  0  0
    4.8226    1.4906   18.9054 C   0  0  0  0  0  0  0  0  0  0  0  0
    5.3982    0.7733   19.9948 C   0  0  0  0  0  0  0  0  0  0  0  0
   10.7040   -0.0625   23.9898 C   0  0  0  0  0  0  0  0  0  0  0  0
   10.1406   -0.7765   22.9250 C   0  0  0  0  0  0  0  0  0  0  0  0
    6.4440   -0.1472   19.6979 C   0  0  0  0  0  0  0  0  0  0  0  0
    3.8960    1.9291   21.5050 C   0  0  0  0  0  0  0  0  0  0  0  0
   12.3683   -1.3298   22.2234 C   0  0  0  0  0  0  0  0  0  0  0  0
    8.2490    0.0169   21.4271 C   0  0  0  0  0  0  0  0  0  0  0  0
    7.3800    2.6707   23.1135 C   0  0  0  0  0  0  0  0  0  0  0  0
    9.9479    0.5589   24.9534 C   0  0  0  0  0  0  0  0  0  0  0  0
    8.0140   -2.1541   22.4331 C   0  0  0  0  0  0  0  0  0  0  0  0
    6.9866   -1.9366   21.3580 C   0  0  0  0  0  0  0  0  0  0  0  0
    7.8721   -0.1194   23.8831 C   0  0  0  0  0  0  0  0  0  0  0  0
    8.6238   -0.7606   22.6929 C   0  0  3  0  0  0  0  0  0  0  0  0
    6.3064    4.4181   21.7238 C   0  0  0  0  0  0  0  0  0  0  0  0
    0.6704    0.8033   24.2525 C   0  0  0  0  0  0  0  0  0  0  0  0
    0.8977    2.3879   26.1600 C   0  0  0  0  0  0  0  0  0  0  0  0
    8.7403    2.1972   23.5605 C   0  0  0  0  0  0  0  0  0  0  0  0
    2.9314    1.4990   25.0310 C   0  0  0  0  0  0  0  0  0  0  0  0
    3.4836    1.0660   23.6872 C   0  0  0  0  0  0  0  0  0  0  0  0
    6.3062    0.3769   17.3421 N   0  0  0  0  0  0  0  0  0  0  0  0
    7.2292   -0.6897   20.7790 N   0  0  0  0  0  0  0  0  0  0  0  0
    7.4727    3.7787   22.2847 N   0  0  0  0  0  0  0  0  0  0  0  0
    8.6609    1.0133   24.4995 N   0  3  2  0  0  0  0  0  0  0  0  0
    1.5090    1.8938   24.8722 N   0  3  0  0  0  0  0  0  0  0  0  0
    8.7573    1.0936   21.1337 O   0  0  0  0  0  0  0  0  0  0  0  0
    6.3322    2.1271   23.4522 O   0  0  0  0  0  0  0  0  0  0  0  0
    3.4227    2.1582   22.7714 O   0  0  0  0  0  0  0  0  0  0  0  0
   13.4273   -2.1424   21.1098 Cl  0  0  0  0  0  0  0  0  0  0  0  0
    3.3406    2.9746   18.3368 H   0  0  0  0  0  0  0  0  0  0  0  0
   12.5019    0.5946   24.9768 H   0  0  0  0  0  0  0  0  0  0  0  0
    2.5407    3.3506   20.6306 H   0  0  0  0  0  0  0  0  0  0  0  0
   13.9911   -0.5203   23.3811 H   0  0  0  0  0  0  0  0  0  0  0  0
    5.3162    0.4858   22.1535 H   0  0  0  0  0  0  0  0  0  0  0  0
   10.6042   -2.0222   21.2286 H   0  0  0  0  0  0  0  0  0  0  0  0
    4.9131    1.7514   16.7479 H   0  0  0  0  0  0  0  0  0  0  0  0
    7.6448   -0.9758   18.1041 H   0  0  0  0  0  0  0  0  0  0  0  0
    9.7388   -0.1131   25.8254 H   0  0  0  0  0  0  0  0  0  0  0  0
   10.4771    1.4544   25.3711 H   0  0  0  0  0  0  0  0  0  0  0  0
    7.5768   -2.6110   23.3318 H   0  0  0  0  0  0  0  0  0  0  0  0
    8.7734   -2.8622   22.0653 H   0  0  0  0  0  0  0  0  0  0  0  0
    7.0225   -2.7503   20.5949 H   0  0  0  0  0  0  0  0  0  0  0  0
    5.9552   -1.9477   21.7830 H   0  0  0  0  0  0  0  0  0  0  0  0
    6.8958    0.3004   23.5785 H   0  0  0  0  0  0  0  0  0  0  0  0
    7.6733   -0.8520   24.6844 H   0  0  0  0  0  0  0  0  0  0  0  0
    6.0820    3.9763   20.7417 H   0  0  0  0  0  0  0  0  0  0  0  0
    5.4486    4.2710   22.3965 H   0  0  0  0  0  0  0  0  0  0  0  0
    6.4995    5.4946   21.6059 H   0  0  0  0  0  0  0  0  0  0  0  0
    0.6876   -0.0549   24.9267 H   0  0  0  0  0  0  0  0  0  0  0  0
   -0.3439    1.1888   24.1334 H   0  0  0  0  0  0  0  0  0  0  0  0
    1.1108    0.5518   23.2858 H   0  0  0  0  0  0  0  0  0  0  0  0
    0.9200    1.5654   26.8773 H   0  0  0  0  0  0  0  0  0  0  0  0
    1.4948    3.2315   26.5112 H   0  0  0  0  0  0  0  0  0  0  0  0
   -0.1280    2.6947   25.9467 H   0  0  0  0  0  0  0  0  0  0  0  0
    9.2580    2.9867   24.1123 H   0  0  0  0  0  0  0  0  0  0  0  0
    9.3353    1.8814   22.6991 H   0  0  0  0  0  0  0  0  0  0  0  0
    3.4520    2.3752   25.4275 H   0  0  0  0  0  0  0  0  0  0  0  0
    2.9512    0.6831   25.7583 H   0  0  0  0  0  0  0  0  0  0  0  0
    4.5327    0.7728   23.7935 H   0  0  0  0  0  0  0  0  0  0  0  0
    2.9228    0.2221   23.2724 H   0  0  0  0  0  0  0  0  0  0  0  0
    8.3848    4.1756   22.0775 H   0  0  0  0  0  0  0  0  0  0  0  0
    8.1123    1.3501   25.3127 H   0  0  0  0  0  0  0  0  0  0  0  0
    1.4744    2.6908   24.2142 H   0  0  0  0  0  0  0  0  0  0  0  0
  1  3  2  0  0  0  0
  1  9  1  0  0  0  0
  2  4  2  0  0  0  0
  2 11  1  0  0  0  0
  3 14  1  0  0  0  0
  4 15  1  0  0  0  0
  5 10  1  0  0  0  0
  5 14  2  0  0  0  0
  6 12  1  0  0  0  0
  6 15  2  0  0  0  0
  7  9  2  0  0  0  0
  7 29  1  0  0  0  0
  8 13  1  0  0  0  0
  8 29  2  0  0  0  0
  9 10  1  0  0  0  0
 10 13  2  0  0  0  0
 11 12  2  0  0  0  0
 11 18  1  0  0  0  0
 12 22  1  0  0  0  0
 13 30  1  0  0  0  0
 14 36  1  0  0  0  0
 15 37  1  0  0  0  0
 16 22  1  0  0  0  0
 16 30  1  0  0  0  0
 16 34  2  0  0  0  0
 17 26  1  0  0  0  0
 17 31  1  0  0  0  0
 17 35  2  0  0  0  0
 18 32  1  0  0  0  0
 19 20  1  0  0  0  0
 19 22  1  0  0  0  0
 20 30  1  0  0  0  0
 21 22  1  0  0  0  0
 21 32  1  0  0  0  0
 23 31  1  0  0  0  0
 24 33  1  0  0  0  0
 25 33  1  0  0  0  0
 26 32  1  1  0  0  0
 27 28  1  0  0  0  0
 27 33  1  0  0  0  0
 28 36  1  0  0  0  0
  1 38  1  0  0  0  0
  2 39  1  0  0  0  0
  3 40  1  0  0  0  0
  4 41  1  0  0  0  0
  5 42  1  0  0  0  0
  6 43  1  0  0  0  0
  7 44  1  0  0  0  0
  8 45  1  0  0  0  0
 18 46  1  0  0  0  0
 18 47  1  0  0  0  0
 19 48  1  0  0  0  0
 19 49  1  0  0  0  0
 20 50  1  0  0  0  0
 20 51  1  0  0  0  0
 21 52  1  0  0  0  0
 21 53  1  0  0  0  0
 23 54  1  0  0  0  0
 23 55  1  0  0  0  0
 23 56  1  0  0  0  0
 24 57  1  0  0  0  0
 24 58  1  0  0  0  0
 24 59  1  0  0  0  0
 25 60  1  0  0  0  0
 25 61  1  0  0  0  0
 25 62  1  0  0  0  0
 26 63  1  0  0  0  0
 26 64  1  0  0  0  0
 27 65  1  0  0  0  0
 27 66  1  0  0  0  0
 28 67  1  0  0  0  0
 28 68  1  0  0  0  0
 31 69  1  0  0  0  0
 32 70  1  0  0  0  0
 33 71  1  0  0  0  0
M  CHG  2  32   1  33   1
M  END
> <compound>
EDJ-MED-b6c6ee2b-1

> <compound_smiles>
CNC(=O)CN1Cc2ccc(cc2C3(C1)CCN(C3=O)c4cncc5c4cc(cc5)OCCN(C)C)Cl

> <enantiomer_smiles>
CNC(=O)C[N@@]1Cc2ccc(cc2C3(C1)CCN(C3=O)c4cncc5c4cc(cc5)OCCN(C)C)Cl

> <scaffold>
tetrahydroisoquinoline-5spiro-isoquinoline

> <clash_score>
0

> <docking_score>
-8.62500286102295

> <overlap_score>
0.9847329258918762

> <MMFF_internal_energy>
244.15478507090523

> <docked_smiles>
CNC(=O)C[N@@H+]1Cc2ccc(cc2[C@]3(C1)CCN(C3=O)c4cncc5c4cc(cc5)OCC[NH+](C)C)Cl

$$$$
PET-UNK-94036022-13_1
  -OEChem-12272114583D

 58 63  0     1  0  0  0  0  0999 V2000
    9.9959    5.1189   23.8063 C   0  0  0  0  0  0  0  0  0  0  0  0
    3.3432    2.6279   20.4411 C   0  0  0  0  0  0  0  0  0  0  0  0
    3.8960    1.9291   21.5050 C   0  0  0  0  0  0  0  0  0  0  0  0
    3.7865    2.4205   19.1660 C   0  0  0  0  0  0  0  0  0  0  0  0
    4.8973    1.0233   21.2988 C   0  0  0  0  0  0  0  0  0  0  0  0
   12.0765    0.0316   24.1541 C   0  0  0  0  0  0  0  0  0  0  0  0
   12.9132   -0.6032   23.2569 C   0  0  0  0  0  0  0  0  0  0  0  0
   10.9991   -1.4331   22.0443 C   0  0  0  0  0  0  0  0  0  0  0  0
    5.3278    1.2339   17.6066 C   0  0  0  0  0  0  0  0  0  0  0  0
    6.8438   -0.2892   18.3752 C   0  0  0  0  0  0  0  0  0  0  0  0
    4.8226    1.4906   18.9054 C   0  0  0  0  0  0  0  0  0  0  0  0
    5.3982    0.7733   19.9948 C   0  0  0  0  0  0  0  0  0  0  0  0
   10.7040   -0.0625   23.9898 C   0  0  0  0  0  0  0  0  0  0  0  0
   10.1406   -0.7765   22.9250 C   0  0  0  0  0  0  0  0  0  0  0  0
    6.4440   -0.1472   19.6979 C   0  0  0  0  0  0  0  0  0  0  0  0
   12.3683   -1.3298   22.2234 C   0  0  0  0  0  0  0  0  0  0  0  0
    6.9866   -1.9366   21.3580 C   0  0  0  0  0  0  0  0  0  0  0  0
    8.0140   -2.1541   22.4331 C   0  0  0  0  0  0  0  0  0  0  0  0
    8.2490    0.0169   21.4271 C   0  0  0  0  0  0  0  0  0  0  0  0
    6.0523   -2.8232   21.0506 C   0  0  0  0  0  0  0  0  0  0  0  0
    9.9479    0.5589   24.9534 C   0  0  0  0  0  0  0  0  0  0  0  0
    8.5410    6.1098   25.6110 C   0  0  0  0  0  0  0  0  0  0  0  0
    7.7093    6.0210   24.3656 C   0  0  0  0  0  0  0  0  0  0  0  0
    7.8721   -0.1194   23.8831 C   0  0  0  0  0  0  0  0  0  0  0  0
    8.8057    5.0083   24.6093 C   0  0  0  0  0  0  0  0  0  0  0  0
    8.6238   -0.7606   22.6929 C   0  0  3  0  0  0  0  0  0  0  0  0
    8.4030    3.5982   24.9788 C   0  0  0  0  0  0  0  0  0  0  0  0
   10.9549    5.2080   23.1593 N   0  0  0  0  0  0  0  0  0  0  0  0
    6.3062    0.3769   17.3421 N   0  0  0  0  0  0  0  0  0  0  0  0
    7.2292   -0.6897   20.7790 N   0  0  0  0  0  0  0  0  0  0  0  0
    8.6609    1.0133   24.4995 N   0  0  1  0  0  0  0  0  0  0  0  0
    8.2835   -3.1826   22.9696 O   0  0  0  0  0  0  0  0  0  0  0  0
    8.7713    1.0744   21.0765 O   0  0  0  0  0  0  0  0  0  0  0  0
    7.4155    2.5091   22.8188 O   0  0  0  0  0  0  0  0  0  0  0  0
    9.9231    2.7315   23.0382 O   0  0  0  0  0  0  0  0  0  0  0  0
    8.6213    2.4812   23.6176 S   0  0  0  0  0  0  0  0  0  0  0  0
   13.4269   -2.1435   21.1103 Cl  0  0  0  0  0  0  0  0  0  0  0  0
    2.5432    3.3510   20.6369 H   0  0  0  0  0  0  0  0  0  0  0  0
    3.5174    2.1137   22.5168 H   0  0  0  0  0  0  0  0  0  0  0  0
    3.3409    2.9743   18.3364 H   0  0  0  0  0  0  0  0  0  0  0  0
    5.3118    0.4895   22.1572 H   0  0  0  0  0  0  0  0  0  0  0  0
   12.5017    0.5916   24.9795 H   0  0  0  0  0  0  0  0  0  0  0  0
   13.9909   -0.5226   23.3831 H   0  0  0  0  0  0  0  0  0  0  0  0
   10.6043   -2.0213   21.2269 H   0  0  0  0  0  0  0  0  0  0  0  0
    4.9141    1.7511   16.7474 H   0  0  0  0  0  0  0  0  0  0  0  0
    7.6445   -0.9764   18.1043 H   0  0  0  0  0  0  0  0  0  0  0  0
    5.3340   -2.6169   20.2654 H   0  0  0  0  0  0  0  0  0  0  0  0
    5.9870   -3.7692   21.5760 H   0  0  0  0  0  0  0  0  0  0  0  0
    9.7597   -0.1287   25.8189 H   0  0  0  0  0  0  0  0  0  0  0  0
   10.4945    1.4383   25.3849 H   0  0  0  0  0  0  0  0  0  0  0  0
    9.2447    6.9311   25.6873 H   0  0  0  0  0  0  0  0  0  0  0  0
    8.0673    5.8525   26.5513 H   0  0  0  0  0  0  0  0  0  0  0  0
    6.6779    5.7050   24.4720 H   0  0  0  0  0  0  0  0  0  0  0  0
    7.8561    6.7836   23.6091 H   0  0  0  0  0  0  0  0  0  0  0  0
    6.8884    0.2753   23.5720 H   0  0  0  0  0  0  0  0  0  0  0  0
    7.6747   -0.8762   24.6621 H   0  0  0  0  0  0  0  0  0  0  0  0
    7.3487    3.5546   25.2656 H   0  0  0  0  0  0  0  0  0  0  0  0
    9.0111    3.2214   25.8058 H   0  0  0  0  0  0  0  0  0  0  0  0
  1 25  1  0  0  0  0
  1 28  3  0  0  0  0
  2  3  1  0  0  0  0
  2  4  2  0  0  0  0
  3  5  2  0  0  0  0
  4 11  1  0  0  0  0
  5 12  1  0  0  0  0
  6  7  1  0  0  0  0
  6 13  2  0  0  0  0
  7 16  2  0  0  0  0
  8 14  2  0  0  0  0
  8 16  1  0  0  0  0
  9 11  2  0  0  0  0
  9 29  1  0  0  0  0
 10 15  1  0  0  0  0
 10 29  2  0  0  0  0
 11 12  1  0  0  0  0
 12 15  2  0  0  0  0
 13 14  1  0  0  0  0
 13 21  1  0  0  0  0
 14 26  1  0  0  0  0
 15 30  1  0  0  0  0
 16 37  1  0  0  0  0
 17 18  1  0  0  0  0
 17 20  2  0  0  0  0
 17 30  1  0  0  0  0
 18 26  1  0  0  0  0
 18 32  2  0  0  0  0
 19 26  1  0  0  0  0
 19 30  1  0  0  0  0
 19 33  2  0  0  0  0
 21 31  1  0  0  0  0
 22 23  1  0  0  0  0
 22 25  1  0  0  0  0
 23 25  1  0  0  0  0
 24 26  1  0  0  0  0
 24 31  1  0  0  0  0
 25 27  1  0  0  0  0
 27 36  1  0  0  0  0
 31 36  1  1  0  0  0
 34 36  2  0  0  0  0
 35 36  2  0  0  0  0
  2 38  1  0  0  0  0
  3 39  1  0  0  0  0
  4 40  1  0  0  0  0
  5 41  1  0  0  0  0
  6 42  1  0  0  0  0
  7 43  1  0  0  0  0
  8 44  1  0  0  0  0
  9 45  1  0  0  0  0
 10 46  1  0  0  0  0
 20 47  1  0  0  0  0
 20 48  1  0  0  0  0
 21 49  1  0  0  0  0
 21 50  1  0  0  0  0
 22 51  1  0  0  0  0
 22 52  1  0  0  0  0
 23 53  1  0  0  0  0
 23 54  1  0  0  0  0
 24 55  1  0  0  0  0
 24 56  1  0  0  0  0
 27 57  1  0  0  0  0
 27 58  1  0  0  0  0
M  END
> <compound>
PET-UNK-94036022-13

> <compound_smiles>
C=C1C(=O)C2(CN(Cc3c2cc(cc3)Cl)S(=O)(=O)CC4(CC4)C#N)C(=O)N1c5cncc6c5cccc6

> <enantiomer_smiles>
C=C1C(=O)C2(C[N@@](Cc3c2cc(cc3)Cl)S(=O)(=O)CC4(CC4)C#N)C(=O)N1c5cncc6c5cccc6

> <scaffold>
tetrahydroisoquinoline-5spiro-isoquinoline

> <clash_score>
0

> <docking_score>
-7.852850914001465

> <overlap_score>
1.0

> <MMFF_internal_energy>
146.77150140688644

> <docked_smiles>
C=C1C(=O)[C@]2(C[N@@](Cc3c2cc(cc3)Cl)S(=O)(=O)CC4(CC4)C#N)C(=O)N1c5cncc6c5cccc6

$$$$
MAT-POS-50a80394-3_1
  -OEChem-12272114583D

 67 72  0     1  0  0  0  0  0999 V2000
   10.0126    5.1147   23.7990 C   0  0  0  0  0  0  0  0  0  0  0  0
    3.3432    2.6279   20.4411 C   0  0  0  0  0  0  0  0  0  0  0  0
    3.8960    1.9291   21.5050 C   0  0  0  0  0  0  0  0  0  0  0  0
    3.7865    2.4205   19.1660 C   0  0  0  0  0  0  0  0  0  0  0  0
    4.8973    1.0233   21.2988 C   0  0  0  0  0  0  0  0  0  0  0  0
   12.0765    0.0316   24.1541 C   0  0  0  0  0  0  0  0  0  0  0  0
   12.9132   -0.6032   23.2569 C   0  0  0  0  0  0  0  0  0  0  0  0
   10.9991   -1.4331   22.0443 C   0  0  0  0  0  0  0  0  0  0  0  0
    5.3278    1.2339   17.6066 C   0  0  0  0  0  0  0  0  0  0  0  0
    6.8438   -0.2892   18.3752 C   0  0  0  0  0  0  0  0  0  0  0  0
    4.8226    1.4906   18.9054 C   0  0  0  0  0  0  0  0  0  0  0  0
    5.3982    0.7733   19.9948 C   0  0  0  0  0  0  0  0  0  0  0  0
   10.7040   -0.0625   23.9898 C   0  0  0  0  0  0  0  0  0  0  0  0
   10.1406   -0.7765   22.9250 C   0  0  0  0  0  0  0  0  0  0  0  0
    6.4440   -0.1472   19.6979 C   0  0  0  0  0  0  0  0  0  0  0  0
   12.3683   -1.3298   22.2234 C   0  0  0  0  0  0  0  0  0  0  0  0
    8.2490    0.0169   21.4271 C   0  0  0  0  0  0  0  0  0  0  0  0
    9.9479    0.5589   24.9534 C   0  0  0  0  0  0  0  0  0  0  0  0
    8.5601    6.1135   25.6014 C   0  0  0  0  0  0  0  0  0  0  0  0
    7.7290    6.0264   24.3554 C   0  0  0  0  0  0  0  0  0  0  0  0
    6.9866   -1.9366   21.3580 C   0  0  0  0  0  0  0  0  0  0  0  0
    7.8721   -0.1194   23.8831 C   0  0  0  0  0  0  0  0  0  0  0  0
    8.0140   -2.1541   22.4331 C   0  0  2  0  0  0  0  0  0  0  0  0
    8.8213    5.0097   24.6012 C   0  0  0  0  0  0  0  0  0  0  0  0
    8.6238   -0.7606   22.6929 C   0  0  3  0  0  0  0  0  0  0  0  0
    9.7183   -3.7689   23.3336 C   0  0  0  0  0  0  0  0  0  0  0  0
    8.2915   -4.4348   21.3780 C   0  0  0  0  0  0  0  0  0  0  0  0
    8.4129    3.6016   24.9722 C   0  0  0  0  0  0  0  0  0  0  0  0
    9.0010   -3.2760   22.0773 C   0  0  0  0  0  0  0  0  0  0  0  0
   10.9724    5.1994   23.1527 N   0  0  0  0  0  0  0  0  0  0  0  0
    6.3062    0.3769   17.3421 N   0  0  0  0  0  0  0  0  0  0  0  0
    7.2292   -0.6897   20.7790 N   0  0  0  0  0  0  0  0  0  0  0  0
    8.6609    1.0133   24.4995 N   0  0  1  0  0  0  0  0  0  0  0  0
    8.7926    1.0477   21.0410 O   0  0  0  0  0  0  0  0  0  0  0  0
    7.4254    2.5191   22.8088 O   0  0  0  0  0  0  0  0  0  0  0  0
    9.9337    2.7223   23.0379 O   0  0  0  0  0  0  0  0  0  0  0  0
    8.6279    2.4822   23.6125 S   0  0  0  0  0  0  0  0  0  0  0  0
   13.4291   -2.1463   21.1151 Cl  0  0  0  0  0  0  0  0  0  0  0  0
    2.5432    3.3510   20.6369 H   0  0  0  0  0  0  0  0  0  0  0  0
    3.5174    2.1137   22.5168 H   0  0  0  0  0  0  0  0  0  0  0  0
    3.3409    2.9743   18.3364 H   0  0  0  0  0  0  0  0  0  0  0  0
    5.3118    0.4895   22.1572 H   0  0  0  0  0  0  0  0  0  0  0  0
   12.5035    0.5856   24.9819 H   0  0  0  0  0  0  0  0  0  0  0  0
   13.9916   -0.5306   23.3886 H   0  0  0  0  0  0  0  0  0  0  0  0
   10.6204   -2.0357   21.2359 H   0  0  0  0  0  0  0  0  0  0  0  0
    4.9141    1.7511   16.7474 H   0  0  0  0  0  0  0  0  0  0  0  0
    7.6445   -0.9764   18.1043 H   0  0  0  0  0  0  0  0  0  0  0  0
    9.7570   -0.1302   25.8192 H   0  0  0  0  0  0  0  0  0  0  0  0
   10.4946    1.4373   25.3913 H   0  0  0  0  0  0  0  0  0  0  0  0
    9.2670    6.9321   25.6772 H   0  0  0  0  0  0  0  0  0  0  0  0
    8.0847    5.8592   26.5416 H   0  0  0  0  0  0  0  0  0  0  0  0
    6.6964    5.7145   24.4614 H   0  0  0  0  0  0  0  0  0  0  0  0
    7.8793    6.7875   23.5981 H   0  0  0  0  0  0  0  0  0  0  0  0
    7.0339   -2.7222   20.5620 H   0  0  0  0  0  0  0  0  0  0  0  0
    5.9485   -1.9852   21.7748 H   0  0  0  0  0  0  0  0  0  0  0  0
    6.8962    0.2982   23.5778 H   0  0  0  0  0  0  0  0  0  0  0  0
    7.6688   -0.8624   24.6740 H   0  0  0  0  0  0  0  0  0  0  0  0
    7.4661   -2.5173   23.3215 H   0  0  0  0  0  0  0  0  0  0  0  0
    9.0100   -4.1861   24.0578 H   0  0  0  0  0  0  0  0  0  0  0  0
   10.2558   -2.9483   23.8201 H   0  0  0  0  0  0  0  0  0  0  0  0
   10.4480   -4.5473   23.0868 H   0  0  0  0  0  0  0  0  0  0  0  0
    7.5253   -4.8791   22.0227 H   0  0  0  0  0  0  0  0  0  0  0  0
    9.0030   -5.2216   21.1059 H   0  0  0  0  0  0  0  0  0  0  0  0
    7.8037   -4.0926   20.4591 H   0  0  0  0  0  0  0  0  0  0  0  0
    7.3581    3.5625   25.2582 H   0  0  0  0  0  0  0  0  0  0  0  0
    9.0188    3.2236   25.8001 H   0  0  0  0  0  0  0  0  0  0  0  0
    9.7544   -2.8702   21.3895 H   0  0  0  0  0  0  0  0  0  0  0  0
  1 24  1  0  0  0  0
  1 30  3  0  0  0  0
  2  3  1  0  0  0  0
  2  4  2  0  0  0  0
  3  5  2  0  0  0  0
  4 11  1  0  0  0  0
  5 12  1  0  0  0  0
  6  7  1  0  0  0  0
  6 13  2  0  0  0  0
  7 16  2  0  0  0  0
  8 14  2  0  0  0  0
  8 16  1  0  0  0  0
  9 11  2  0  0  0  0
  9 31  1  0  0  0  0
 10 15  1  0  0  0  0
 10 31  2  0  0  0  0
 11 12  1  0  0  0  0
 12 15  2  0  0  0  0
 13 14  1  0  0  0  0
 13 18  1  0  0  0  0
 14 25  1  0  0  0  0
 15 32  1  0  0  0  0
 16 38  1  0  0  0  0
 17 25  1  0  0  0  0
 17 32  1  0  0  0  0
 17 34  2  0  0  0  0
 18 33  1  0  0  0  0
 19 20  1  0  0  0  0
 19 24  1  0  0  0  0
 20 24  1  0  0  0  0
 21 23  1  0  0  0  0
 21 32  1  0  0  0  0
 22 25  1  0  0  0  0
 22 33  1  0  0  0  0
 23 25  1  0  0  0  0
 23 29  1  1  0  0  0
 24 28  1  0  0  0  0
 26 29  1  0  0  0  0
 27 29  1  0  0  0  0
 28 37  1  0  0  0  0
 33 37  1  1  0  0  0
 35 37  2  0  0  0  0
 36 37  2  0  0  0  0
  2 39  1  0  0  0  0
  3 40  1  0  0  0  0
  4 41  1  0  0  0  0
  5 42  1  0  0  0  0
  6 43  1  0  0  0  0
  7 44  1  0  0  0  0
  8 45  1  0  0  0  0
  9 46  1  0  0  0  0
 10 47  1  0  0  0  0
 18 48  1  0  0  0  0
 18 49  1  0  0  0  0
 19 50  1  0  0  0  0
 19 51  1  0  0  0  0
 20 52  1  0  0  0  0
 20 53  1  0  0  0  0
 21 54  1  0  0  0  0
 21 55  1  0  0  0  0
 22 56  1  0  0  0  0
 22 57  1  0  0  0  0
 23 58  1  0  0  0  0
 26 59  1  0  0  0  0
 26 60  1  0  0  0  0
 26 61  1  0  0  0  0
 27 62  1  0  0  0  0
 27 63  1  0  0  0  0
 27 64  1  0  0  0  0
 28 65  1  0  0  0  0
 28 66  1  0  0  0  0
 29 67  1  0  0  0  0
M  END
> <compound>
MAT-POS-50a80394-3

> <compound_smiles>
CC(C)C1CN(C(=O)C12CN(Cc3c2cc(cc3)Cl)S(=O)(=O)CC4(CC4)C#N)c5cncc6c5cccc6

> <enantiomer_smiles>
CC(C)[C@@H]1CN(C(=O)C12C[N@@](Cc3c2cc(cc3)Cl)S(=O)(=O)CC4(CC4)C#N)c5cncc6c5cccc6

> <scaffold>
tetrahydroisoquinoline-5spiro-isoquinoline

> <clash_score>
0.6914549778473194

> <docking_score>
-6.839376926422119

> <overlap_score>
0.983232855796814

> <MMFF_internal_energy>
221.16250305752695

> <docked_smiles>
CC(C)[C@@H]1CN(C(=O)[C@@]12C[N@@](Cc3c2cc(cc3)Cl)S(=O)(=O)CC4(CC4)C#N)c5cncc6c5cccc6

$$$$
PET-UNK-94036022-13_2
  -OEChem-12272114583D

 58 63  0     1  0  0  0  0  0999 V2000
    7.3006    3.4507   22.7958 C   0  0  0  0  0  0  0  0  0  0  0  0
    3.3432    2.6279   20.4411 C   0  0  0  0  0  0  0  0  0  0  0  0
    3.8960    1.9291   21.5050 C   0  0  0  0  0  0  0  0  0  0  0  0
    3.7865    2.4205   19.1660 C   0  0  0  0  0  0  0  0  0  0  0  0
    4.8973    1.0233   21.2988 C   0  0  0  0  0  0  0  0  0  0  0  0
   12.0765    0.0316   24.1541 C   0  0  0  0  0  0  0  0  0  0  0  0
   12.9132   -0.6032   23.2569 C   0  0  0  0  0  0  0  0  0  0  0  0
   10.9991   -1.4331   22.0443 C   0  0  0  0  0  0  0  0  0  0  0  0
    5.3278    1.2339   17.6066 C   0  0  0  0  0  0  0  0  0  0  0  0
    6.8438   -0.2892   18.3752 C   0  0  0  0  0  0  0  0  0  0  0  0
    4.8226    1.4906   18.9054 C   0  0  0  0  0  0  0  0  0  0  0  0
    5.3982    0.7733   19.9948 C   0  0  0  0  0  0  0  0  0  0  0  0
   10.7040   -0.0625   23.9898 C   0  0  0  0  0  0  0  0  0  0  0  0
   10.1406   -0.7765   22.9250 C   0  0  0  0  0  0  0  0  0  0  0  0
    6.4440   -0.1472   19.6979 C   0  0  0  0  0  0  0  0  0  0  0  0
   12.3683   -1.3298   22.2234 C   0  0  0  0  0  0  0  0  0  0  0  0
    6.9866   -1.9366   21.3580 C   0  0  0  0  0  0  0  0  0  0  0  0
    8.0140   -2.1541   22.4331 C   0  0  0  0  0  0  0  0  0  0  0  0
    8.2490    0.0169   21.4271 C   0  0  0  0  0  0  0  0  0  0  0  0
    6.0315   -2.8086   21.0735 C   0  0  0  0  0  0  0  0  0  0  0  0
    9.9479    0.5589   24.9534 C   0  0  0  0  0  0  0  0  0  0  0  0
    9.8060    3.2060   22.9342 C   0  0  0  0  0  0  0  0  0  0  0  0
    9.4976    4.6735   22.9778 C   0  0  0  0  0  0  0  0  0  0  0  0
    7.8721   -0.1194   23.8831 C   0  0  0  0  0  0  0  0  0  0  0  0
    8.5076    3.6817   23.5465 C   0  0  0  0  0  0  0  0  0  0  0  0
    8.6238   -0.7606   22.6929 C   0  0  3  0  0  0  0  0  0  0  0  0
    8.3595    3.6057   25.0496 C   0  0  0  0  0  0  0  0  0  0  0  0
    6.3282    3.2644   22.1910 N   0  0  0  0  0  0  0  0  0  0  0  0
    6.3062    0.3769   17.3421 N   0  0  0  0  0  0  0  0  0  0  0  0
    7.2292   -0.6897   20.7790 N   0  0  0  0  0  0  0  0  0  0  0  0
    8.6609    1.0133   24.4995 N   0  0  2  0  0  0  0  0  0  0  0  0
    8.2970   -3.1856   22.9565 O   0  0  0  0  0  0  0  0  0  0  0  0
    8.7759    1.0709   21.0729 O   0  0  0  0  0  0  0  0  0  0  0  0
    8.2201    1.7877   26.9211 O   0  0  0  0  0  0  0  0  0  0  0  0
    6.3713    1.9172   25.2033 O   0  0  0  0  0  0  0  0  0  0  0  0
    7.7684    2.0143   25.5656 S   0  0  0  0  0  0  0  0  0  0  0  0
   13.4267   -2.1381   21.1063 Cl  0  0  0  0  0  0  0  0  0  0  0  0
    2.5432    3.3510   20.6369 H   0  0  0  0  0  0  0  0  0  0  0  0
    3.5174    2.1137   22.5168 H   0  0  0  0  0  0  0  0  0  0  0  0
    3.3409    2.9743   18.3364 H   0  0  0  0  0  0  0  0  0  0  0  0
    5.3118    0.4895   22.1572 H   0  0  0  0  0  0  0  0  0  0  0  0
   12.5021    0.6000   24.9735 H   0  0  0  0  0  0  0  0  0  0  0  0
   13.9910   -0.5160   23.3780 H   0  0  0  0  0  0  0  0  0  0  0  0
   10.6047   -2.0181   21.2244 H   0  0  0  0  0  0  0  0  0  0  0  0
    4.9141    1.7511   16.7474 H   0  0  0  0  0  0  0  0  0  0  0  0
    7.6445   -0.9764   18.1043 H   0  0  0  0  0  0  0  0  0  0  0  0
    5.3142   -2.6029   20.2872 H   0  0  0  0  0  0  0  0  0  0  0  0
    5.9481   -3.7418   21.6187 H   0  0  0  0  0  0  0  0  0  0  0  0
    9.7863   -0.1173   25.8338 H   0  0  0  0  0  0  0  0  0  0  0  0
   10.4804    1.4578   25.3605 H   0  0  0  0  0  0  0  0  0  0  0  0
    9.7827    2.7166   21.9670 H   0  0  0  0  0  0  0  0  0  0  0  0
   10.5842    2.8360   23.5917 H   0  0  0  0  0  0  0  0  0  0  0  0
   10.0702    5.2867   23.6642 H   0  0  0  0  0  0  0  0  0  0  0  0
    9.2690    5.1660   22.0395 H   0  0  0  0  0  0  0  0  0  0  0  0
    6.8939    0.2704   23.5521 H   0  0  0  0  0  0  0  0  0  0  0  0
    7.6623   -0.8627   24.6729 H   0  0  0  0  0  0  0  0  0  0  0  0
    7.6424    4.3484   25.4103 H   0  0  0  0  0  0  0  0  0  0  0  0
    9.3196    3.7697   25.5463 H   0  0  0  0  0  0  0  0  0  0  0  0
  1 25  1  0  0  0  0
  1 28  3  0  0  0  0
  2  3  1  0  0  0  0
  2  4  2  0  0  0  0
  3  5  2  0  0  0  0
  4 11  1  0  0  0  0
  5 12  1  0  0  0  0
  6  7  1  0  0  0  0
  6 13  2  0  0  0  0
  7 16  2  0  0  0  0
  8 14  2  0  0  0  0
  8 16  1  0  0  0  0
  9 11  2  0  0  0  0
  9 29  1  0  0  0  0
 10 15  1  0  0  0  0
 10 29  2  0  0  0  0
 11 12  1  0  0  0  0
 12 15  2  0  0  0  0
 13 14  1  0  0  0  0
 13 21  1  0  0  0  0
 14 26  1  0  0  0  0
 15 30  1  0  0  0  0
 16 37  1  0  0  0  0
 17 18  1  0  0  0  0
 17 20  2  0  0  0  0
 17 30  1  0  0  0  0
 18 26  1  0  0  0  0
 18 32  2  0  0  0  0
 19 26  1  0  0  0  0
 19 30  1  0  0  0  0
 19 33  2  0  0  0  0
 21 31  1  0  0  0  0
 22 23  1  0  0  0  0
 22 25  1  0  0  0  0
 23 25  1  0  0  0  0
 24 26  1  0  0  0  0
 24 31  1  0  0  0  0
 25 27  1  0  0  0  0
 27 36  1  0  0  0  0
 31 36  1  6  0  0  0
 34 36  2  0  0  0  0
 35 36  2  0  0  0  0
  2 38  1  0  0  0  0
  3 39  1  0  0  0  0
  4 40  1  0  0  0  0
  5 41  1  0  0  0  0
  6 42  1  0  0  0  0
  7 43  1  0  0  0  0
  8 44  1  0  0  0  0
  9 45  1  0  0  0  0
 10 46  1  0  0  0  0
 20 47  1  0  0  0  0
 20 48  1  0  0  0  0
 21 49  1  0  0  0  0
 21 50  1  0  0  0  0
 22 51  1  0  0  0  0
 22 52  1  0  0  0  0
 23 53  1  0  0  0  0
 23 54  1  0  0  0  0
 24 55  1  0  0  0  0
 24 56  1  0  0  0  0
 27 57  1  0  0  0  0
 27 58  1  0  0  0  0
M  END
> <compound>
PET-UNK-94036022-13

> <compound_smiles>
C=C1C(=O)C2(CN(Cc3c2cc(cc3)Cl)S(=O)(=O)CC4(CC4)C#N)C(=O)N1c5cncc6c5cccc6

> <enantiomer_smiles>
C=C1C(=O)C2(C[N@](Cc3c2cc(cc3)Cl)S(=O)(=O)CC4(CC4)C#N)C(=O)N1c5cncc6c5cccc6

> <scaffold>
tetrahydroisoquinoline-5spiro-isoquinoline

> <clash_score>
0

> <docking_score>
-7.430450439453125

> <overlap_score>
1.0

> <MMFF_internal_energy>
133.14980299174056

> <docked_smiles>
C=C1C(=O)[C@]2(C[N@](Cc3c2cc(cc3)Cl)S(=O)(=O)CC4(CC4)C#N)C(=O)N1c5cncc6c5cccc6

$$$$
MAT-POS-853c0ffa-22_1
  -OEChem-12272114583D

 66 71  0     1  0  0  0  0  0999 V2000
    4.8973    1.0233   21.2988 C   0  0  0  0  0  0  0  0  0  0  0  0
   12.0765    0.0316   24.1541 C   0  0  0  0  0  0  0  0  0  0  0  0
    3.8960    1.9291   21.5050 C   0  0  0  0  0  0  0  0  0  0  0  0
   12.9132   -0.6032   23.2569 C   0  0  0  0  0  0  0  0  0  0  0  0
    3.7865    2.4205   19.1660 C   0  0  0  0  0  0  0  0  0  0  0  0
   10.9991   -1.4331   22.0443 C   0  0  0  0  0  0  0  0  0  0  0  0
    5.3278    1.2339   17.6066 C   0  0  0  0  0  0  0  0  0  0  0  0
    6.8438   -0.2892   18.3752 C   0  0  0  0  0  0  0  0  0  0  0  0
    5.3982    0.7733   19.9948 C   0  0  0  0  0  0  0  0  0  0  0  0
    4.8226    1.4906   18.9054 C   0  0  0  0  0  0  0  0  0  0  0  0
   10.7040   -0.0625   23.9898 C   0  0  0  0  0  0  0  0  0  0  0  0
   10.1406   -0.7765   22.9250 C   0  0  0  0  0  0  0  0  0  0  0  0
    6.4440   -0.1472   19.6979 C   0  0  0  0  0  0  0  0  0  0  0  0
    3.3432    2.6279   20.4411 C   0  0  0  0  0  0  0  0  0  0  0  0
   12.3683   -1.3298   22.2234 C   0  0  0  0  0  0  0  0  0  0  0  0
    8.2490    0.0169   21.4271 C   0  0  0  0  0  0  0  0  0  0  0  0
    9.9479    0.5589   24.9534 C   0  0  0  0  0  0  0  0  0  0  0  0
    9.6162    5.7503   24.2277 C   0  0  0  0  0  0  0  0  0  0  0  0
    8.8345    6.1030   25.4609 C   0  0  0  0  0  0  0  0  0  0  0  0
    8.0140   -2.1541   22.4331 C   0  0  0  0  0  0  0  0  0  0  0  0
    6.9866   -1.9366   21.3580 C   0  0  0  0  0  0  0  0  0  0  0  0
    7.8721   -0.1194   23.8831 C   0  0  0  0  0  0  0  0  0  0  0  0
    8.6238   -0.7606   22.6929 C   0  0  3  0  0  0  0  0  0  0  0  0
    8.3214    5.0316   24.5273 C   0  0  0  0  0  0  0  0  0  0  0  0
    7.1236    5.3522   23.6762 C   0  0  0  0  0  0  0  0  0  0  0  0
    0.5685    2.8306   20.6203 C   0  0  0  0  0  0  0  0  0  0  0  0
    8.3989    3.5932   24.9882 C   0  0  0  0  0  0  0  0  0  0  0  0
    6.3062    0.3769   17.3421 N   0  0  0  0  0  0  0  0  0  0  0  0
    7.2292   -0.6897   20.7790 N   0  0  0  0  0  0  0  0  0  0  0  0
    8.6609    1.0133   24.4995 N   0  0  2  0  0  0  0  0  0  0  0  0
    8.7572    1.0941   21.1350 O   0  0  0  0  0  0  0  0  0  0  0  0
    2.1867    4.2374   22.1293 O   0  0  0  0  0  0  0  0  0  0  0  0
    2.0337    4.7660   19.6710 O   0  0  0  0  0  0  0  0  0  0  0  0
    7.4179    2.5201   22.8172 O   0  0  0  0  0  0  0  0  0  0  0  0
    9.9251    2.7322   23.0499 O   0  0  0  0  0  0  0  0  0  0  0  0
    2.0618    3.7881   20.7501 S   0  0  0  0  0  0  0  0  0  0  0  0
    8.6198    2.4832   23.6217 S   0  0  0  0  0  0  0  0  0  0  0  0
   13.4275   -2.1421   21.1097 Cl  0  0  0  0  0  0  0  0  0  0  0  0
    5.3114    0.4892   22.1572 H   0  0  0  0  0  0  0  0  0  0  0  0
   12.5015    0.5938   24.9776 H   0  0  0  0  0  0  0  0  0  0  0  0
    3.5259    2.1069   22.5217 H   0  0  0  0  0  0  0  0  0  0  0  0
   13.9911   -0.5212   23.3814 H   0  0  0  0  0  0  0  0  0  0  0  0
    3.3486    2.9706   18.3290 H   0  0  0  0  0  0  0  0  0  0  0  0
   10.6037   -2.0228   21.2288 H   0  0  0  0  0  0  0  0  0  0  0  0
    4.9146    1.7518   16.7474 H   0  0  0  0  0  0  0  0  0  0  0  0
    7.6451   -0.9755   18.1042 H   0  0  0  0  0  0  0  0  0  0  0  0
    9.7581   -0.1287   25.8173 H   0  0  0  0  0  0  0  0  0  0  0  0
   10.4931    1.4391   25.3829 H   0  0  0  0  0  0  0  0  0  0  0  0
    9.6341    6.4725   23.4201 H   0  0  0  0  0  0  0  0  0  0  0  0
   10.5494    5.2157   24.3596 H   0  0  0  0  0  0  0  0  0  0  0  0
    9.2443    5.8046   26.4185 H   0  0  0  0  0  0  0  0  0  0  0  0
    8.3290    7.0613   25.4790 H   0  0  0  0  0  0  0  0  0  0  0  0
    7.5801   -2.6060   23.3366 H   0  0  0  0  0  0  0  0  0  0  0  0
    8.7749   -2.8608   22.0657 H   0  0  0  0  0  0  0  0  0  0  0  0
    7.0227   -2.7506   20.5953 H   0  0  0  0  0  0  0  0  0  0  0  0
    5.9554   -1.9484   21.7832 H   0  0  0  0  0  0  0  0  0  0  0  0
    6.8886    0.2769   23.5666 H   0  0  0  0  0  0  0  0  0  0  0  0
    7.6579   -0.8710   24.6633 H   0  0  0  0  0  0  0  0  0  0  0  0
    6.2503    4.7682   23.9918 H   0  0  0  0  0  0  0  0  0  0  0  0
    7.3194    5.1238   22.6214 H   0  0  0  0  0  0  0  0  0  0  0  0
    6.8636    6.4153   23.7493 H   0  0  0  0  0  0  0  0  0  0  0  0
   -0.2808    3.4905   20.8042 H   0  0  0  0  0  0  0  0  0  0  0  0
    0.5154    2.4100   19.6150 H   0  0  0  0  0  0  0  0  0  0  0  0
    0.6035    2.0354   21.3665 H   0  0  0  0  0  0  0  0  0  0  0  0
    7.4792    3.2960   25.4995 H   0  0  0  0  0  0  0  0  0  0  0  0
    9.2447    3.4440   25.6648 H   0  0  0  0  0  0  0  0  0  0  0  0
  1  3  2  0  0  0  0
  1  9  1  0  0  0  0
  2  4  2  0  0  0  0
  2 11  1  0  0  0  0
  3 14  1  0  0  0  0
  4 15  1  0  0  0  0
  5 10  1  0  0  0  0
  5 14  2  0  0  0  0
  6 12  1  0  0  0  0
  6 15  2  0  0  0  0
  7 10  2  0  0  0  0
  7 28  1  0  0  0  0
  8 13  1  0  0  0  0
  8 28  2  0  0  0  0
  9 10  1  0  0  0  0
  9 13  2  0  0  0  0
 11 12  2  0  0  0  0
 11 17  1  0  0  0  0
 12 23  1  0  0  0  0
 13 29  1  0  0  0  0
 14 36  1  0  0  0  0
 15 38  1  0  0  0  0
 16 23  1  0  0  0  0
 16 29  1  0  0  0  0
 16 31  2  0  0  0  0
 17 30  1  0  0  0  0
 18 19  1  0  0  0  0
 18 24  1  0  0  0  0
 19 24  1  0  0  0  0
 20 21  1  0  0  0  0
 20 23  1  0  0  0  0
 21 29  1  0  0  0  0
 22 23  1  0  0  0  0
 22 30  1  0  0  0  0
 24 25  1  0  0  0  0
 24 27  1  0  0  0  0
 26 36  1  0  0  0  0
 27 37  1  0  0  0  0
 30 37  1  1  0  0  0
 32 36  2  0  0  0  0
 33 36  2  0  0  0  0
 34 37  2  0  0  0  0
 35 37  2  0  0  0  0
  1 39  1  0  0  0  0
  2 40  1  0  0  0  0
  3 41  1  0  0  0  0
  4 42  1  0  0  0  0
  5 43  1  0  0  0  0
  6 44  1  0  0  0  0
  7 45  1  0  0  0  0
  8 46  1  0  0  0  0
 17 47  1  0  0  0  0
 17 48  1  0  0  0  0
 18 49  1  0  0  0  0
 18 50  1  0  0  0  0
 19 51  1  0  0  0  0
 19 52  1  0  0  0  0
 20 53  1  0  0  0  0
 20 54  1  0  0  0  0
 21 55  1  0  0  0  0
 21 56  1  0  0  0  0
 22 57  1  0  0  0  0
 22 58  1  0  0  0  0
 25 59  1  0  0  0  0
 25 60  1  0  0  0  0
 25 61  1  0  0  0  0
 26 62  1  0  0  0  0
 26 63  1  0  0  0  0
 26 64  1  0  0  0  0
 27 65  1  0  0  0  0
 27 66  1  0  0  0  0
M  END
> <compound>
MAT-POS-853c0ffa-22

> <compound_smiles>
CC1(CC1)CS(=O)(=O)N2Cc3ccc(cc3C4(C2)CCN(C4=O)c5cncc6c5ccc(c6)S(=O)(=O)C)Cl

> <enantiomer_smiles>
CC1(CC1)CS(=O)(=O)[N@@]2Cc3ccc(cc3C4(C2)CCN(C4=O)c5cncc6c5ccc(c6)S(=O)(=O)C)Cl

> <scaffold>
tetrahydroisoquinoline-5spiro-isoquinoline

> <clash_score>
0

> <docking_score>
-9.135056495666504

> <overlap_score>
0.9792150855064392

> <MMFF_internal_energy>
175.77550979649786

> <docked_smiles>
CC1(CC1)CS(=O)(=O)[N@@]2Cc3ccc(cc3[C@]4(C2)CCN(C4=O)c5cncc6c5ccc(c6)S(=O)(=O)C)Cl

$$$$
ALP-POS-ecbed2ba-11_2
  -OEChem-12272114583D

 65 70  0     1  0  0  0  0  0999 V2000
    7.0601    4.7636   26.2530 C   0  0  0  0  0  0  0  0  0  0  0  0
    3.3432    2.6279   20.4411 C   0  0  0  0  0  0  0  0  0  0  0  0
    3.8960    1.9291   21.5050 C   0  0  0  0  0  0  0  0  0  0  0  0
    3.7865    2.4205   19.1660 C   0  0  0  0  0  0  0  0  0  0  0  0
    4.8973    1.0233   21.2988 C   0  0  0  0  0  0  0  0  0  0  0  0
   12.0765    0.0316   24.1541 C   0  0  0  0  0  0  0  0  0  0  0  0
   12.9132   -0.6032   23.2569 C   0  0  0  0  0  0  0  0  0  0  0  0
   10.9991   -1.4331   22.0443 C   0  0  0  0  0  0  0  0  0  0  0  0
    5.3278    1.2339   17.6066 C   0  0  0  0  0  0  0  0  0  0  0  0
    6.8438   -0.2892   18.3752 C   0  0  0  0  0  0  0  0  0  0  0  0
    4.8226    1.4906   18.9054 C   0  0  0  0  0  0  0  0  0  0  0  0
    5.3982    0.7733   19.9948 C   0  0  0  0  0  0  0  0  0  0  0  0
   10.7040   -0.0625   23.9898 C   0  0  0  0  0  0  0  0  0  0  0  0
   10.1406   -0.7765   22.9250 C   0  0  0  0  0  0  0  0  0  0  0  0
    6.4440   -0.1472   19.6979 C   0  0  0  0  0  0  0  0  0  0  0  0
   12.3683   -1.3298   22.2234 C   0  0  0  0  0  0  0  0  0  0  0  0
    8.2490    0.0169   21.4271 C   0  0  0  0  0  0  0  0  0  0  0  0
    9.9479    0.5589   24.9534 C   0  0  0  0  0  0  0  0  0  0  0  0
    8.0140   -2.1541   22.4331 C   0  0  0  0  0  0  0  0  0  0  0  0
    8.3621    6.1175   24.5744 C   0  0  0  0  0  0  0  0  0  0  0  0
    6.3734    4.7703   23.8238 C   0  0  0  0  0  0  0  0  0  0  0  0
    6.9866   -1.9366   21.3580 C   0  0  0  0  0  0  0  0  0  0  0  0
    7.8721   -0.1194   23.8831 C   0  0  0  0  0  0  0  0  0  0  0  0
    8.8013    6.2858   23.1153 C   0  0  0  0  0  0  0  0  0  0  0  0
    6.6098    5.5868   22.5513 C   0  0  0  0  0  0  0  0  0  0  0  0
    7.5680    4.8206   24.8046 C   0  0  0  0  0  0  0  0  0  0  0  0
    8.6238   -0.7606   22.6929 C   0  0  3  0  0  0  0  0  0  0  0  0
    8.4545    3.6526   24.5823 C   0  0  0  0  0  0  0  0  0  0  0  0
    6.6764    4.7205   27.3471 N   0  0  0  0  0  0  0  0  0  0  0  0
    6.3062    0.3769   17.3421 N   0  0  0  0  0  0  0  0  0  0  0  0
    7.2292   -0.6897   20.7790 N   0  0  0  0  0  0  0  0  0  0  0  0
    8.6609    1.0133   24.4995 N   0  0  2  0  0  0  0  0  0  0  0  0
    8.8155    1.0486   21.0818 O   0  0  0  0  0  0  0  0  0  0  0  0
    8.3208    2.1791   26.7359 O   0  0  0  0  0  0  0  0  0  0  0  0
    6.4105    2.1039   25.0835 O   0  0  0  0  0  0  0  0  0  0  0  0
    7.9841    5.5687   22.1895 O   0  0  0  0  0  0  0  0  0  0  0  0
    7.8242    2.1967   25.3770 S   0  0  0  0  0  0  0  0  0  0  0  0
   13.4272   -2.1411   21.1086 Cl  0  0  0  0  0  0  0  0  0  0  0  0
    2.5432    3.3510   20.6369 H   0  0  0  0  0  0  0  0  0  0  0  0
    3.5174    2.1137   22.5168 H   0  0  0  0  0  0  0  0  0  0  0  0
    3.3409    2.9743   18.3364 H   0  0  0  0  0  0  0  0  0  0  0  0
    5.3118    0.4895   22.1572 H   0  0  0  0  0  0  0  0  0  0  0  0
   12.5024    0.5995   24.9735 H   0  0  0  0  0  0  0  0  0  0  0  0
   13.9910   -0.5177   23.3793 H   0  0  0  0  0  0  0  0  0  0  0  0
   10.6036   -2.0162   21.2241 H   0  0  0  0  0  0  0  0  0  0  0  0
    4.9141    1.7511   16.7474 H   0  0  0  0  0  0  0  0  0  0  0  0
    7.6445   -0.9764   18.1043 H   0  0  0  0  0  0  0  0  0  0  0  0
    9.7851   -0.1194   25.8306 H   0  0  0  0  0  0  0  0  0  0  0  0
   10.4794    1.4567   25.3613 H   0  0  0  0  0  0  0  0  0  0  0  0
    7.5152   -2.5456   23.3338 H   0  0  0  0  0  0  0  0  0  0  0  0
    8.7649   -2.9030   22.1434 H   0  0  0  0  0  0  0  0  0  0  0  0
    9.2391    6.1702   25.2322 H   0  0  0  0  0  0  0  0  0  0  0  0
    7.7276    6.9782   24.8311 H   0  0  0  0  0  0  0  0  0  0  0  0
    5.4843    5.1824   24.3257 H   0  0  0  0  0  0  0  0  0  0  0  0
    6.1245    3.7328   23.5593 H   0  0  0  0  0  0  0  0  0  0  0  0
    7.0587   -2.7248   20.5720 H   0  0  0  0  0  0  0  0  0  0  0  0
    5.9518   -1.9952   21.7720 H   0  0  0  0  0  0  0  0  0  0  0  0
    6.8867    0.2642   23.5644 H   0  0  0  0  0  0  0  0  0  0  0  0
    7.6652   -0.8658   24.6734 H   0  0  0  0  0  0  0  0  0  0  0  0
    8.7492    7.3544   22.8407 H   0  0  0  0  0  0  0  0  0  0  0  0
    9.8579    5.9905   22.9732 H   0  0  0  0  0  0  0  0  0  0  0  0
    6.0013    5.2235   21.7162 H   0  0  0  0  0  0  0  0  0  0  0  0
    6.3252    6.6286   22.7300 H   0  0  0  0  0  0  0  0  0  0  0  0
    9.4527    3.8356   24.9897 H   0  0  0  0  0  0  0  0  0  0  0  0
    8.5429    3.4255   23.5164 H   0  0  0  0  0  0  0  0  0  0  0  0
  1 26  1  0  0  0  0
  1 29  3  0  0  0  0
  2  3  1  0  0  0  0
  2  4  2  0  0  0  0
  3  5  2  0  0  0  0
  4 11  1  0  0  0  0
  5 12  1  0  0  0  0
  6  7  1  0  0  0  0
  6 13  2  0  0  0  0
  7 16  2  0  0  0  0
  8 14  2  0  0  0  0
  8 16  1  0  0  0  0
  9 11  2  0  0  0  0
  9 30  1  0  0  0  0
 10 15  1  0  0  0  0
 10 30  2  0  0  0  0
 11 12  1  0  0  0  0
 12 15  2  0  0  0  0
 13 14  1  0  0  0  0
 13 18  1  0  0  0  0
 14 27  1  0  0  0  0
 15 31  1  0  0  0  0
 16 38  1  0  0  0  0
 17 27  1  0  0  0  0
 17 31  1  0  0  0  0
 17 33  2  0  0  0  0
 18 32  1  0  0  0  0
 19 22  1  0  0  0  0
 19 27  1  0  0  0  0
 20 24  1  0  0  0  0
 20 26  1  0  0  0  0
 21 25  1  0  0  0  0
 21 26  1  0  0  0  0
 22 31  1  0  0  0  0
 23 27  1  0  0  0  0
 23 32  1  0  0  0  0
 24 36  1  0  0  0  0
 25 36  1  0  0  0  0
 26 28  1  0  0  0  0
 28 37  1  0  0  0  0
 32 37  1  6  0  0  0
 34 37  2  0  0  0  0
 35 37  2  0  0  0  0
  2 39  1  0  0  0  0
  3 40  1  0  0  0  0
  4 41  1  0  0  0  0
  5 42  1  0  0  0  0
  6 43  1  0  0  0  0
  7 44  1  0  0  0  0
  8 45  1  0  0  0  0
  9 46  1  0  0  0  0
 10 47  1  0  0  0  0
 18 48  1  0  0  0  0
 18 49  1  0  0  0  0
 19 50  1  0  0  0  0
 19 51  1  0  0  0  0
 20 52  1  0  0  0  0
 20 53  1  0  0  0  0
 21 54  1  0  0  0  0
 21 55  1  0  0  0  0
 22 56  1  0  0  0  0
 22 57  1  0  0  0  0
 23 58  1  0  0  0  0
 23 59  1  0  0  0  0
 24 60  1  0  0  0  0
 24 61  1  0  0  0  0
 25 62  1  0  0  0  0
 25 63  1  0  0  0  0
 28 64  1  0  0  0  0
 28 65  1  0  0  0  0
M  END
> <compound>
ALP-POS-ecbed2ba-11

> <compound_smiles>
c1ccc2c(c1)cncc2N3CCC4(C3=O)CN(Cc5c4cc(cc5)Cl)S(=O)(=O)CC6(CCOCC6)C#N

> <enantiomer_smiles>
c1ccc2c(c1)cncc2N3CCC4(C3=O)C[N@](Cc5c4cc(cc5)Cl)S(=O)(=O)CC6(CCOCC6)C#N

> <scaffold>
tetrahydroisoquinoline-5spiro-isoquinoline

> <clash_score>
0

> <docking_score>
-7.96803092956543

> <overlap_score>
0.9649856686592102

> <MMFF_internal_energy>
67.39700475609357

> <docked_smiles>
c1ccc2c(c1)cncc2N3CC[C@@]4(C3=O)C[N@](Cc5c4cc(cc5)Cl)S(=O)(=O)CC6(CCOCC6)C#N

$$$$
MAT-POS-853c0ffa-22_2
  -OEChem-12272114583D

 66 71  0     1  0  0  0  0  0999 V2000
    4.8973    1.0233   21.2988 C   0  0  0  0  0  0  0  0  0  0  0  0
   12.0765    0.0316   24.1541 C   0  0  0  0  0  0  0  0  0  0  0  0
    3.8960    1.9291   21.5050 C   0  0  0  0  0  0  0  0  0  0  0  0
   12.9132   -0.6032   23.2569 C   0  0  0  0  0  0  0  0  0  0  0  0
    3.7865    2.4205   19.1660 C   0  0  0  0  0  0  0  0  0  0  0  0
   10.9991   -1.4331   22.0443 C   0  0  0  0  0  0  0  0  0  0  0  0
    5.3278    1.2339   17.6066 C   0  0  0  0  0  0  0  0  0  0  0  0
    6.8438   -0.2892   18.3752 C   0  0  0  0  0  0  0  0  0  0  0  0
    5.3982    0.7733   19.9948 C   0  0  0  0  0  0  0  0  0  0  0  0
    4.8226    1.4906   18.9054 C   0  0  0  0  0  0  0  0  0  0  0  0
   10.7040   -0.0625   23.9898 C   0  0  0  0  0  0  0  0  0  0  0  0
   10.1406   -0.7765   22.9250 C   0  0  0  0  0  0  0  0  0  0  0  0
    6.4440   -0.1472   19.6979 C   0  0  0  0  0  0  0  0  0  0  0  0
    3.3432    2.6279   20.4411 C   0  0  0  0  0  0  0  0  0  0  0  0
   12.3683   -1.3298   22.2234 C   0  0  0  0  0  0  0  0  0  0  0  0
    8.2490    0.0169   21.4271 C   0  0  0  0  0  0  0  0  0  0  0  0
    9.9479    0.5589   24.9534 C   0  0  0  0  0  0  0  0  0  0  0  0
    9.7623    3.0001   22.8980 C   0  0  0  0  0  0  0  0  0  0  0  0
    9.6273    4.4957   22.9278 C   0  0  0  0  0  0  0  0  0  0  0  0
    8.0140   -2.1541   22.4331 C   0  0  0  0  0  0  0  0  0  0  0  0
    6.9866   -1.9366   21.3580 C   0  0  0  0  0  0  0  0  0  0  0  0
    7.8721   -0.1194   23.8831 C   0  0  0  0  0  0  0  0  0  0  0  0
    8.6238   -0.7606   22.6929 C   0  0  3  0  0  0  0  0  0  0  0  0
    8.5331    3.6312   23.5091 C   0  0  0  0  0  0  0  0  0  0  0  0
    7.2376    3.5293   22.7519 C   0  0  0  0  0  0  0  0  0  0  0  0
    0.5684    2.8307   20.6204 C   0  0  0  0  0  0  0  0  0  0  0  0
    8.3874    3.5882   25.0137 C   0  0  0  0  0  0  0  0  0  0  0  0
    6.3062    0.3769   17.3421 N   0  0  0  0  0  0  0  0  0  0  0  0
    7.2292   -0.6897   20.7790 N   0  0  0  0  0  0  0  0  0  0  0  0
    8.6609    1.0133   24.4995 N   0  0  1  0  0  0  0  0  0  0  0  0
    8.8299    1.0397   21.0799 O   0  0  0  0  0  0  0  0  0  0  0  0
    2.1837    4.2424   22.1279 O   0  0  0  0  0  0  0  0  0  0  0  0
    2.0366    4.7621   19.6674 O   0  0  0  0  0  0  0  0  0  0  0  0
    8.2407    1.8013   26.9144 O   0  0  0  0  0  0  0  0  0  0  0  0
    6.3653    1.9471   25.2271 O   0  0  0  0  0  0  0  0  0  0  0  0
    2.0618    3.7881   20.7501 S   0  0  0  0  0  0  0  0  0  0  0  0
    7.7708    2.0177   25.5632 S   0  0  0  0  0  0  0  0  0  0  0  0
   13.4272   -2.1411   21.1086 Cl  0  0  0  0  0  0  0  0  0  0  0  0
    5.3114    0.4892   22.1572 H   0  0  0  0  0  0  0  0  0  0  0  0
   12.5024    0.5995   24.9735 H   0  0  0  0  0  0  0  0  0  0  0  0
    3.5259    2.1069   22.5217 H   0  0  0  0  0  0  0  0  0  0  0  0
   13.9910   -0.5177   23.3793 H   0  0  0  0  0  0  0  0  0  0  0  0
    3.3486    2.9706   18.3290 H   0  0  0  0  0  0  0  0  0  0  0  0
   10.6036   -2.0162   21.2241 H   0  0  0  0  0  0  0  0  0  0  0  0
    4.9146    1.7518   16.7474 H   0  0  0  0  0  0  0  0  0  0  0  0
    7.6451   -0.9755   18.1042 H   0  0  0  0  0  0  0  0  0  0  0  0
    9.7849   -0.1194   25.8306 H   0  0  0  0  0  0  0  0  0  0  0  0
   10.4793    1.4568   25.3613 H   0  0  0  0  0  0  0  0  0  0  0  0
    9.6694    2.5059   21.9381 H   0  0  0  0  0  0  0  0  0  0  0  0
   10.4953    2.5480   23.5555 H   0  0  0  0  0  0  0  0  0  0  0  0
   10.2701    5.0451   23.6055 H   0  0  0  0  0  0  0  0  0  0  0  0
    9.4442    5.0031   21.9880 H   0  0  0  0  0  0  0  0  0  0  0  0
    7.5152   -2.5456   23.3338 H   0  0  0  0  0  0  0  0  0  0  0  0
    8.7649   -2.9030   22.1434 H   0  0  0  0  0  0  0  0  0  0  0  0
    7.0587   -2.7248   20.5721 H   0  0  0  0  0  0  0  0  0  0  0  0
    5.9518   -1.9952   21.7720 H   0  0  0  0  0  0  0  0  0  0  0  0
    6.8867    0.2641   23.5642 H   0  0  0  0  0  0  0  0  0  0  0  0
    7.6652   -0.8660   24.6733 H   0  0  0  0  0  0  0  0  0  0  0  0
    6.4245    4.0240   23.2971 H   0  0  0  0  0  0  0  0  0  0  0  0
    6.9534    2.4809   22.5997 H   0  0  0  0  0  0  0  0  0  0  0  0
    7.3209    4.0034   21.7662 H   0  0  0  0  0  0  0  0  0  0  0  0
   -0.2810    3.4917   20.7998 H   0  0  0  0  0  0  0  0  0  0  0  0
    0.5175    2.4065   19.6165 H   0  0  0  0  0  0  0  0  0  0  0  0
    0.6014    2.0383   21.3695 H   0  0  0  0  0  0  0  0  0  0  0  0
    7.6838    4.3500   25.3607 H   0  0  0  0  0  0  0  0  0  0  0  0
    9.3513    3.7460   25.5050 H   0  0  0  0  0  0  0  0  0  0  0  0
  1  3  2  0  0  0  0
  1  9  1  0  0  0  0
  2  4  2  0  0  0  0
  2 11  1  0  0  0  0
  3 14  1  0  0  0  0
  4 15  1  0  0  0  0
  5 10  1  0  0  0  0
  5 14  2  0  0  0  0
  6 12  1  0  0  0  0
  6 15  2  0  0  0  0
  7 10  2  0  0  0  0
  7 28  1  0  0  0  0
  8 13  1  0  0  0  0
  8 28  2  0  0  0  0
  9 10  1  0  0  0  0
  9 13  2  0  0  0  0
 11 12  2  0  0  0  0
 11 17  1  0  0  0  0
 12 23  1  0  0  0  0
 13 29  1  0  0  0  0
 14 36  1  0  0  0  0
 15 38  1  0  0  0  0
 16 23  1  0  0  0  0
 16 29  1  0  0  0  0
 16 31  2  0  0  0  0
 17 30  1  0  0  0  0
 18 19  1  0  0  0  0
 18 24  1  0  0  0  0
 19 24  1  0  0  0  0
 20 21  1  0  0  0  0
 20 23  1  0  0  0  0
 21 29  1  0  0  0  0
 22 23  1  0  0  0  0
 22 30  1  0  0  0  0
 24 25  1  0  0  0  0
 24 27  1  0  0  0  0
 26 36  1  0  0  0  0
 27 37  1  0  0  0  0
 30 37  1  6  0  0  0
 32 36  2  0  0  0  0
 33 36  2  0  0  0  0
 34 37  2  0  0  0  0
 35 37  2  0  0  0  0
  1 39  1  0  0  0  0
  2 40  1  0  0  0  0
  3 41  1  0  0  0  0
  4 42  1  0  0  0  0
  5 43  1  0  0  0  0
  6 44  1  0  0  0  0
  7 45  1  0  0  0  0
  8 46  1  0  0  0  0
 17 47  1  0  0  0  0
 17 48  1  0  0  0  0
 18 49  1  0  0  0  0
 18 50  1  0  0  0  0
 19 51  1  0  0  0  0
 19 52  1  0  0  0  0
 20 53  1  0  0  0  0
 20 54  1  0  0  0  0
 21 55  1  0  0  0  0
 21 56  1  0  0  0  0
 22 57  1  0  0  0  0
 22 58  1  0  0  0  0
 25 59  1  0  0  0  0
 25 60  1  0  0  0  0
 25 61  1  0  0  0  0
 26 62  1  0  0  0  0
 26 63  1  0  0  0  0
 26 64  1  0  0  0  0
 27 65  1  0  0  0  0
 27 66  1  0  0  0  0
M  END
> <compound>
MAT-POS-853c0ffa-22

> <compound_smiles>
CC1(CC1)CS(=O)(=O)N2Cc3ccc(cc3C4(C2)CCN(C4=O)c5cncc6c5ccc(c6)S(=O)(=O)C)Cl

> <enantiomer_smiles>
CC1(CC1)CS(=O)(=O)[N@]2Cc3ccc(cc3C4(C2)CCN(C4=O)c5cncc6c5ccc(c6)S(=O)(=O)C)Cl

> <scaffold>
tetrahydroisoquinoline-5spiro-isoquinoline

> <clash_score>
0

> <docking_score>
-8.71006965637207

> <overlap_score>
0.9786322116851807

> <MMFF_internal_energy>
175.6164631171672

> <docked_smiles>
CC1(CC1)CS(=O)(=O)[N@]2Cc3ccc(cc3[C@]4(C2)CCN(C4=O)c5cncc6c5ccc(c6)S(=O)(=O)C)Cl

$$$$
MAT-POS-38eb6498-3_2
  -OEChem-12272114583D

 71 75  0     1  0  0  0  0  0999 V2000
    3.7865    2.4205   19.1660 C   0  0  0  0  0  0  0  0  0  0  0  0
   12.0765    0.0316   24.1541 C   0  0  0  0  0  0  0  0  0  0  0  0
    3.3432    2.6279   20.4411 C   0  0  0  0  0  0  0  0  0  0  0  0
   12.9132   -0.6032   23.2569 C   0  0  0  0  0  0  0  0  0  0  0  0
    4.8973    1.0233   21.2988 C   0  0  0  0  0  0  0  0  0  0  0  0
   10.9991   -1.4331   22.0443 C   0  0  0  0  0  0  0  0  0  0  0  0
    5.3278    1.2339   17.6066 C   0  0  0  0  0  0  0  0  0  0  0  0
    6.8438   -0.2892   18.3752 C   0  0  0  0  0  0  0  0  0  0  0  0
    4.8226    1.4906   18.9054 C   0  0  0  0  0  0  0  0  0  0  0  0
    5.3982    0.7733   19.9948 C   0  0  0  0  0  0  0  0  0  0  0  0
   10.7040   -0.0625   23.9898 C   0  0  0  0  0  0  0  0  0  0  0  0
   10.1406   -0.7765   22.9250 C   0  0  0  0  0  0  0  0  0  0  0  0
    6.4440   -0.1472   19.6979 C   0  0  0  0  0  0  0  0  0  0  0  0
    3.8960    1.9291   21.5050 C   0  0  0  0  0  0  0  0  0  0  0  0
   12.3683   -1.3298   22.2234 C   0  0  0  0  0  0  0  0  0  0  0  0
    8.2490    0.0169   21.4271 C   0  0  0  0  0  0  0  0  0  0  0  0
    6.7919    2.5950   24.9761 C   0  0  0  0  0  0  0  0  0  0  0  0
    9.9479    0.5589   24.9534 C   0  0  0  0  0  0  0  0  0  0  0  0
    8.0140   -2.1541   22.4331 C   0  0  0  0  0  0  0  0  0  0  0  0
    6.9866   -1.9366   21.3580 C   0  0  0  0  0  0  0  0  0  0  0  0
    7.8721   -0.1194   23.8831 C   0  0  0  0  0  0  0  0  0  0  0  0
    8.6238   -0.7606   22.6929 C   0  0  3  0  0  0  0  0  0  0  0  0
    5.5330    4.6801   25.4293 C   0  0  0  0  0  0  0  0  0  0  0  0
    3.0824   -0.0622   26.3115 C   0  0  0  0  0  0  0  0  0  0  0  0
    0.7938   -0.7929   25.6564 C   0  0  0  0  0  0  0  0  0  0  0  0
    7.8596    1.7144   25.5749 C   0  0  0  0  0  0  0  0  0  0  0  0
    2.0827    0.7396   24.1762 C   0  0  0  0  0  0  0  0  0  0  0  0
    3.4808    1.0700   23.6920 C   0  0  0  0  0  0  0  0  0  0  0  0
    6.3062    0.3769   17.3421 N   0  0  0  0  0  0  0  0  0  0  0  0
    7.2292   -0.6897   20.7790 N   0  0  0  0  0  0  0  0  0  0  0  0
    6.5187    3.6875   25.7856 N   0  0  0  0  0  0  0  0  0  0  0  0
    8.6609    1.0133   24.4995 N   0  3  1  0  0  0  0  0  0  0  0  0
    2.1545   -0.3683   25.1619 N   0  3  0  0  0  0  0  0  0  0  0  0
    8.8286    1.0402   21.0803 O   0  0  0  0  0  0  0  0  0  0  0  0
    6.2454    2.3568   23.9023 O   0  0  0  0  0  0  0  0  0  0  0  0
    3.4227    2.1582   22.7714 O   0  0  0  0  0  0  0  0  0  0  0  0
   13.4270   -2.1443   21.1108 Cl  0  0  0  0  0  0  0  0  0  0  0  0
    3.3406    2.9746   18.3368 H   0  0  0  0  0  0  0  0  0  0  0  0
   12.5021    0.5962   24.9756 H   0  0  0  0  0  0  0  0  0  0  0  0
    2.5407    3.3506   20.6306 H   0  0  0  0  0  0  0  0  0  0  0  0
   13.9911   -0.5171   23.3786 H   0  0  0  0  0  0  0  0  0  0  0  0
    5.3162    0.4858   22.1535 H   0  0  0  0  0  0  0  0  0  0  0  0
   10.6045   -2.0170   21.2248 H   0  0  0  0  0  0  0  0  0  0  0  0
    4.9131    1.7514   16.7479 H   0  0  0  0  0  0  0  0  0  0  0  0
    7.6448   -0.9758   18.1041 H   0  0  0  0  0  0  0  0  0  0  0  0
    9.7608   -0.1211   25.8247 H   0  0  0  0  0  0  0  0  0  0  0  0
   10.4565    1.4661   25.3705 H   0  0  0  0  0  0  0  0  0  0  0  0
    7.5144   -2.5472   23.3327 H   0  0  0  0  0  0  0  0  0  0  0  0
    8.7599   -2.9065   22.1418 H   0  0  0  0  0  0  0  0  0  0  0  0
    7.0582   -2.7244   20.5716 H   0  0  0  0  0  0  0  0  0  0  0  0
    5.9516   -1.9958   21.7713 H   0  0  0  0  0  0  0  0  0  0  0  0
    6.8955    0.2929   23.5757 H   0  0  0  0  0  0  0  0  0  0  0  0
    7.6774   -0.8491   24.6905 H   0  0  0  0  0  0  0  0  0  0  0  0
    6.0171    5.4939   24.8695 H   0  0  0  0  0  0  0  0  0  0  0  0
    4.7557    4.2168   24.8038 H   0  0  0  0  0  0  0  0  0  0  0  0
    5.0747    5.0860   26.3431 H   0  0  0  0  0  0  0  0  0  0  0  0
    2.6846    0.8063   26.8395 H   0  0  0  0  0  0  0  0  0  0  0  0
    3.1092   -0.9387   26.9618 H   0  0  0  0  0  0  0  0  0  0  0  0
    4.0698    0.1491   25.8967 H   0  0  0  0  0  0  0  0  0  0  0  0
    0.3442    0.0591   26.1696 H   0  0  0  0  0  0  0  0  0  0  0  0
    0.1998   -1.0868   24.7889 H   0  0  0  0  0  0  0  0  0  0  0  0
    0.9337   -1.6331   26.3393 H   0  0  0  0  0  0  0  0  0  0  0  0
    7.4105    0.9495   26.2145 H   0  0  0  0  0  0  0  0  0  0  0  0
    8.5738    2.3157   26.1441 H   0  0  0  0  0  0  0  0  0  0  0  0
    1.4378    0.3894   23.3653 H   0  0  0  0  0  0  0  0  0  0  0  0
    1.6218    1.5873   24.6900 H   0  0  0  0  0  0  0  0  0  0  0  0
    4.1043    1.3762   24.5378 H   0  0  0  0  0  0  0  0  0  0  0  0
    3.9517    0.2125   23.2002 H   0  0  0  0  0  0  0  0  0  0  0  0
    7.0058    3.7901   26.6713 H   0  0  0  0  0  0  0  0  0  0  0  0
    8.7930    1.7233   23.7554 H   0  0  0  0  0  0  0  0  0  0  0  0
    2.5550   -1.1922   24.6819 H   0  0  0  0  0  0  0  0  0  0  0  0
  1  3  2  0  0  0  0
  1  9  1  0  0  0  0
  2  4  2  0  0  0  0
  2 11  1  0  0  0  0
  3 14  1  0  0  0  0
  4 15  1  0  0  0  0
  5 10  1  0  0  0  0
  5 14  2  0  0  0  0
  6 12  1  0  0  0  0
  6 15  2  0  0  0  0
  7  9  2  0  0  0  0
  7 29  1  0  0  0  0
  8 13  1  0  0  0  0
  8 29  2  0  0  0  0
  9 10  1  0  0  0  0
 10 13  2  0  0  0  0
 11 12  2  0  0  0  0
 11 18  1  0  0  0  0
 12 22  1  0  0  0  0
 13 30  1  0  0  0  0
 14 36  1  0  0  0  0
 15 37  1  0  0  0  0
 16 22  1  0  0  0  0
 16 30  1  0  0  0  0
 16 34  2  0  0  0  0
 17 26  1  0  0  0  0
 17 31  1  0  0  0  0
 17 35  2  0  0  0  0
 18 32  1  0  0  0  0
 19 20  1  0  0  0  0
 19 22  1  0  0  0  0
 20 30  1  0  0  0  0
 21 22  1  0  0  0  0
 21 32  1  0  0  0  0
 23 31  1  0  0  0  0
 24 33  1  0  0  0  0
 25 33  1  0  0  0  0
 26 32  1  6  0  0  0
 27 28  1  0  0  0  0
 27 33  1  0  0  0  0
 28 36  1  0  0  0  0
  1 38  1  0  0  0  0
  2 39  1  0  0  0  0
  3 40  1  0  0  0  0
  4 41  1  0  0  0  0
  5 42  1  0  0  0  0
  6 43  1  0  0  0  0
  7 44  1  0  0  0  0
  8 45  1  0  0  0  0
 18 46  1  0  0  0  0
 18 47  1  0  0  0  0
 19 48  1  0  0  0  0
 19 49  1  0  0  0  0
 20 50  1  0  0  0  0
 20 51  1  0  0  0  0
 21 52  1  0  0  0  0
 21 53  1  0  0  0  0
 23 54  1  0  0  0  0
 23 55  1  0  0  0  0
 23 56  1  0  0  0  0
 24 57  1  0  0  0  0
 24 58  1  0  0  0  0
 24 59  1  0  0  0  0
 25 60  1  0  0  0  0
 25 61  1  0  0  0  0
 25 62  1  0  0  0  0
 26 63  1  0  0  0  0
 26 64  1  0  0  0  0
 27 65  1  0  0  0  0
 27 66  1  0  0  0  0
 28 67  1  0  0  0  0
 28 68  1  0  0  0  0
 31 69  1  0  0  0  0
 32 70  1  0  0  0  0
 33 71  1  0  0  0  0
M  CHG  2  32   1  33   1
M  END
> <compound>
MAT-POS-38eb6498-3

> <compound_smiles>
CNC(=O)CN1Cc2ccc(cc2C3(C1)CCN(C3=O)c4cncc5c4cc(cc5)OCCN(C)C)Cl

> <enantiomer_smiles>
CNC(=O)C[N@]1Cc2ccc(cc2C3(C1)CCN(C3=O)c4cncc5c4cc(cc5)OCCN(C)C)Cl

> <scaffold>
tetrahydroisoquinoline-5spiro-isoquinoline

> <clash_score>
0

> <docking_score>
-8.15192985534668

> <overlap_score>
0.9808136224746704

> <MMFF_internal_energy>
253.37517642172884

> <docked_smiles>
CNC(=O)C[N@H+]1Cc2ccc(cc2[C@]3(C1)CCN(C3=O)c4cncc5c4cc(cc5)OCC[NH+](C)C)Cl

$$$$
MAT-POS-853c0ffa-20_1
  -OEChem-12272114583D

 70 75  0     1  0  0  0  0  0999 V2000
    3.7865    2.4205   19.1660 C   0  0  0  0  0  0  0  0  0  0  0  0
   12.0765    0.0316   24.1541 C   0  0  0  0  0  0  0  0  0  0  0  0
    3.3432    2.6279   20.4411 C   0  0  0  0  0  0  0  0  0  0  0  0
   12.9132   -0.6032   23.2569 C   0  0  0  0  0  0  0  0  0  0  0  0
    4.8973    1.0233   21.2988 C   0  0  0  0  0  0  0  0  0  0  0  0
   10.9991   -1.4331   22.0443 C   0  0  0  0  0  0  0  0  0  0  0  0
    5.3278    1.2339   17.6066 C   0  0  0  0  0  0  0  0  0  0  0  0
    6.8438   -0.2892   18.3752 C   0  0  0  0  0  0  0  0  0  0  0  0
    4.8226    1.4906   18.9054 C   0  0  0  0  0  0  0  0  0  0  0  0
    5.3982    0.7733   19.9948 C   0  0  0  0  0  0  0  0  0  0  0  0
   10.7040   -0.0625   23.9898 C   0  0  0  0  0  0  0  0  0  0  0  0
   10.1406   -0.7765   22.9250 C   0  0  0  0  0  0  0  0  0  0  0  0
    3.8960    1.9291   21.5050 C   0  0  0  0  0  0  0  0  0  0  0  0
    6.4440   -0.1472   19.6979 C   0  0  0  0  0  0  0  0  0  0  0  0
   12.3683   -1.3298   22.2234 C   0  0  0  0  0  0  0  0  0  0  0  0
    8.2490    0.0169   21.4271 C   0  0  0  0  0  0  0  0  0  0  0  0
    9.9479    0.5589   24.9534 C   0  0  0  0  0  0  0  0  0  0  0  0
    9.6162    5.7503   24.2277 C   0  0  0  0  0  0  0  0  0  0  0  0
    8.8345    6.1030   25.4609 C   0  0  0  0  0  0  0  0  0  0  0  0
    8.0140   -2.1541   22.4331 C   0  0  0  0  0  0  0  0  0  0  0  0
    6.9866   -1.9366   21.3580 C   0  0  0  0  0  0  0  0  0  0  0  0
    7.8721   -0.1194   23.8831 C   0  0  0  0  0  0  0  0  0  0  0  0
    8.6238   -0.7606   22.6929 C   0  0  3  0  0  0  0  0  0  0  0  0
    8.3214    5.0316   24.5273 C   0  0  0  0  0  0  0  0  0  0  0  0
    7.1236    5.3522   23.6762 C   0  0  0  0  0  0  0  0  0  0  0  0
    4.0713    1.3444   23.9987 C   0  0  0  0  0  0  0  0  0  0  0  0
    1.8550    1.9400   22.9655 C   0  0  0  0  0  0  0  0  0  0  0  0
    8.3989    3.5932   24.9882 C   0  0  0  0  0  0  0  0  0  0  0  0
    3.3796    2.1809   22.8922 C   0  0  0  0  0  0  0  0  0  0  0  0
    6.3062    0.3769   17.3421 N   0  0  0  0  0  0  0  0  0  0  0  0
    7.2292   -0.6897   20.7790 N   0  0  0  0  0  0  0  0  0  0  0  0
    8.6609    1.0133   24.4995 N   0  0  2  0  0  0  0  0  0  0  0  0
    8.7572    1.0941   21.1350 O   0  0  0  0  0  0  0  0  0  0  0  0
    7.4179    2.5201   22.8172 O   0  0  0  0  0  0  0  0  0  0  0  0
    9.9251    2.7322   23.0499 O   0  0  0  0  0  0  0  0  0  0  0  0
    3.6020    3.5570   23.2770 O   0  0  0  0  0  0  0  0  0  0  0  0
    8.6198    2.4832   23.6217 S   0  0  0  0  0  0  0  0  0  0  0  0
   13.4275   -2.1421   21.1097 Cl  0  0  0  0  0  0  0  0  0  0  0  0
    3.3419    2.9747   18.3362 H   0  0  0  0  0  0  0  0  0  0  0  0
   12.5015    0.5938   24.9776 H   0  0  0  0  0  0  0  0  0  0  0  0
    2.5411    3.3529   20.6267 H   0  0  0  0  0  0  0  0  0  0  0  0
   13.9911   -0.5212   23.3814 H   0  0  0  0  0  0  0  0  0  0  0  0
    5.3175    0.4836   22.1518 H   0  0  0  0  0  0  0  0  0  0  0  0
   10.6037   -2.0228   21.2288 H   0  0  0  0  0  0  0  0  0  0  0  0
    4.9134    1.7510   16.7475 H   0  0  0  0  0  0  0  0  0  0  0  0
    7.6450   -0.9758   18.1044 H   0  0  0  0  0  0  0  0  0  0  0  0
    9.7581   -0.1287   25.8173 H   0  0  0  0  0  0  0  0  0  0  0  0
   10.4931    1.4391   25.3829 H   0  0  0  0  0  0  0  0  0  0  0  0
    9.6341    6.4725   23.4201 H   0  0  0  0  0  0  0  0  0  0  0  0
   10.5494    5.2157   24.3596 H   0  0  0  0  0  0  0  0  0  0  0  0
    9.2443    5.8046   26.4185 H   0  0  0  0  0  0  0  0  0  0  0  0
    8.3290    7.0613   25.4790 H   0  0  0  0  0  0  0  0  0  0  0  0
    7.5801   -2.6060   23.3366 H   0  0  0  0  0  0  0  0  0  0  0  0
    8.7749   -2.8608   22.0657 H   0  0  0  0  0  0  0  0  0  0  0  0
    7.0227   -2.7506   20.5953 H   0  0  0  0  0  0  0  0  0  0  0  0
    5.9554   -1.9484   21.7832 H   0  0  0  0  0  0  0  0  0  0  0  0
    6.8886    0.2769   23.5666 H   0  0  0  0  0  0  0  0  0  0  0  0
    7.6579   -0.8710   24.6633 H   0  0  0  0  0  0  0  0  0  0  0  0
    6.2503    4.7682   23.9918 H   0  0  0  0  0  0  0  0  0  0  0  0
    7.3194    5.1238   22.6214 H   0  0  0  0  0  0  0  0  0  0  0  0
    6.8636    6.4153   23.7493 H   0  0  0  0  0  0  0  0  0  0  0  0
    3.6621    1.5606   24.9931 H   0  0  0  0  0  0  0  0  0  0  0  0
    3.9688    0.2682   23.8273 H   0  0  0  0  0  0  0  0  0  0  0  0
    5.1395    1.5875   24.0446 H   0  0  0  0  0  0  0  0  0  0  0  0
    1.4570    2.1130   23.9721 H   0  0  0  0  0  0  0  0  0  0  0  0
    1.6000    0.9177   22.6657 H   0  0  0  0  0  0  0  0  0  0  0  0
    1.3246    2.6326   22.3011 H   0  0  0  0  0  0  0  0  0  0  0  0
    7.4792    3.2960   25.4995 H   0  0  0  0  0  0  0  0  0  0  0  0
    9.2447    3.4440   25.6648 H   0  0  0  0  0  0  0  0  0  0  0  0
    3.2499    3.6322   24.1712 H   0  0  0  0  0  0  0  0  0  0  0  0
  1  3  2  0  0  0  0
  1  9  1  0  0  0  0
  2  4  2  0  0  0  0
  2 11  1  0  0  0  0
  3 13  1  0  0  0  0
  4 15  1  0  0  0  0
  5 10  1  0  0  0  0
  5 13  2  0  0  0  0
  6 12  1  0  0  0  0
  6 15  2  0  0  0  0
  7  9  2  0  0  0  0
  7 30  1  0  0  0  0
  8 14  1  0  0  0  0
  8 30  2  0  0  0  0
  9 10  1  0  0  0  0
 10 14  2  0  0  0  0
 11 12  2  0  0  0  0
 11 17  1  0  0  0  0
 12 23  1  0  0  0  0
 13 29  1  0  0  0  0
 14 31  1  0  0  0  0
 15 38  1  0  0  0  0
 16 23  1  0  0  0  0
 16 31  1  0  0  0  0
 16 33  2  0  0  0  0
 17 32  1  0  0  0  0
 18 19  1  0  0  0  0
 18 24  1  0  0  0  0
 19 24  1  0  0  0  0
 20 21  1  0  0  0  0
 20 23  1  0  0  0  0
 21 31  1  0  0  0  0
 22 23  1  0  0  0  0
 22 32  1  0  0  0  0
 24 25  1  0  0  0  0
 24 28  1  0  0  0  0
 26 29  1  0  0  0  0
 27 29  1  0  0  0  0
 28 37  1  0  0  0  0
 29 36  1  0  0  0  0
 32 37  1  1  0  0  0
 34 37  2  0  0  0  0
 35 37  2  0  0  0  0
  1 39  1  0  0  0  0
  2 40  1  0  0  0  0
  3 41  1  0  0  0  0
  4 42  1  0  0  0  0
  5 43  1  0  0  0  0
  6 44  1  0  0  0  0
  7 45  1  0  0  0  0
  8 46  1  0  0  0  0
 17 47  1  0  0  0  0
 17 48  1  0  0  0  0
 18 49  1  0  0  0  0
 18 50  1  0  0  0  0
 19 51  1  0  0  0  0
 19 52  1  0  0  0  0
 20 53  1  0  0  0  0
 20 54  1  0  0  0  0
 21 55  1  0  0  0  0
 21 56  1  0  0  0  0
 22 57  1  0  0  0  0
 22 58  1  0  0  0  0
 25 59  1  0  0  0  0
 25 60  1  0  0  0  0
 25 61  1  0  0  0  0
 26 62  1  0  0  0  0
 26 63  1  0  0  0  0
 26 64  1  0  0  0  0
 27 65  1  0  0  0  0
 27 66  1  0  0  0  0
 27 67  1  0  0  0  0
 28 68  1  0  0  0  0
 28 69  1  0  0  0  0
 36 70  1  0  0  0  0
M  END
> <compound>
MAT-POS-853c0ffa-20

> <compound_smiles>
CC1(CC1)CS(=O)(=O)N2Cc3ccc(cc3C4(C2)CCN(C4=O)c5cncc6c5cc(cc6)C(C)(C)O)Cl

> <enantiomer_smiles>
CC1(CC1)CS(=O)(=O)[N@@]2Cc3ccc(cc3C4(C2)CCN(C4=O)c5cncc6c5cc(cc6)C(C)(C)O)Cl

> <scaffold>
tetrahydroisoquinoline-5spiro-isoquinoline

> <clash_score>
0

> <docking_score>
-8.690442085266113

> <overlap_score>
0.9828739762306213

> <MMFF_internal_energy>
172.03710762503292

> <docked_smiles>
CC1(CC1)CS(=O)(=O)[N@@]2Cc3ccc(cc3[C@]4(C2)CCN(C4=O)c5cncc6c5cc(cc6)C(C)(C)O)Cl

$$$$
MAT-POS-853c0ffa-20_2
  -OEChem-12272114583D

 70 75  0     1  0  0  0  0  0999 V2000
    3.7865    2.4205   19.1660 C   0  0  0  0  0  0  0  0  0  0  0  0
   12.0765    0.0316   24.1541 C   0  0  0  0  0  0  0  0  0  0  0  0
    3.3432    2.6279   20.4411 C   0  0  0  0  0  0  0  0  0  0  0  0
   12.9132   -0.6032   23.2569 C   0  0  0  0  0  0  0  0  0  0  0  0
    4.8973    1.0233   21.2988 C   0  0  0  0  0  0  0  0  0  0  0  0
   10.9991   -1.4331   22.0443 C   0  0  0  0  0  0  0  0  0  0  0  0
    5.3278    1.2339   17.6066 C   0  0  0  0  0  0  0  0  0  0  0  0
    6.8438   -0.2892   18.3752 C   0  0  0  0  0  0  0  0  0  0  0  0
    4.8226    1.4906   18.9054 C   0  0  0  0  0  0  0  0  0  0  0  0
    5.3982    0.7733   19.9948 C   0  0  0  0  0  0  0  0  0  0  0  0
   10.7040   -0.0625   23.9898 C   0  0  0  0  0  0  0  0  0  0  0  0
   10.1406   -0.7765   22.9250 C   0  0  0  0  0  0  0  0  0  0  0  0
    3.8960    1.9291   21.5050 C   0  0  0  0  0  0  0  0  0  0  0  0
    6.4440   -0.1472   19.6979 C   0  0  0  0  0  0  0  0  0  0  0  0
   12.3683   -1.3298   22.2234 C   0  0  0  0  0  0  0  0  0  0  0  0
    8.2490    0.0169   21.4271 C   0  0  0  0  0  0  0  0  0  0  0  0
    9.9479    0.5589   24.9534 C   0  0  0  0  0  0  0  0  0  0  0  0
    6.3891    5.1949   25.3860 C   0  0  0  0  0  0  0  0  0  0  0  0
    7.5851    6.0507   25.0808 C   0  0  0  0  0  0  0  0  0  0  0  0
    8.0140   -2.1541   22.4331 C   0  0  0  0  0  0  0  0  0  0  0  0
    6.9866   -1.9366   21.3580 C   0  0  0  0  0  0  0  0  0  0  0  0
    7.8721   -0.1194   23.8831 C   0  0  0  0  0  0  0  0  0  0  0  0
    8.6238   -0.7606   22.6929 C   0  0  3  0  0  0  0  0  0  0  0  0
    7.7686    4.7292   25.7898 C   0  0  0  0  0  0  0  0  0  0  0  0
    8.1223    4.7562   27.2513 C   0  0  0  0  0  0  0  0  0  0  0  0
    3.4646    0.9680   23.8537 C   0  0  0  0  0  0  0  0  0  0  0  0
    1.9163    2.6749   22.8418 C   0  0  0  0  0  0  0  0  0  0  0  0
    8.3874    3.5882   25.0137 C   0  0  0  0  0  0  0  0  0  0  0  0
    3.3796    2.1809   22.8922 C   0  0  0  0  0  0  0  0  0  0  0  0
    6.3062    0.3769   17.3421 N   0  0  0  0  0  0  0  0  0  0  0  0
    7.2292   -0.6897   20.7790 N   0  0  0  0  0  0  0  0  0  0  0  0
    8.6609    1.0133   24.4995 N   0  0  1  0  0  0  0  0  0  0  0  0
    8.8299    1.0397   21.0799 O   0  0  0  0  0  0  0  0  0  0  0  0
    8.2407    1.8013   26.9144 O   0  0  0  0  0  0  0  0  0  0  0  0
    6.3653    1.9471   25.2271 O   0  0  0  0  0  0  0  0  0  0  0  0
    4.1472    3.2205   23.5413 O   0  0  0  0  0  0  0  0  0  0  0  0
    7.7708    2.0177   25.5632 S   0  0  0  0  0  0  0  0  0  0  0  0
   13.4272   -2.1411   21.1086 Cl  0  0  0  0  0  0  0  0  0  0  0  0
    3.3419    2.9747   18.3362 H   0  0  0  0  0  0  0  0  0  0  0  0
   12.5024    0.5995   24.9735 H   0  0  0  0  0  0  0  0  0  0  0  0
    2.5411    3.3529   20.6267 H   0  0  0  0  0  0  0  0  0  0  0  0
   13.9910   -0.5177   23.3793 H   0  0  0  0  0  0  0  0  0  0  0  0
    5.3175    0.4836   22.1518 H   0  0  0  0  0  0  0  0  0  0  0  0
   10.6036   -2.0162   21.2241 H   0  0  0  0  0  0  0  0  0  0  0  0
    4.9134    1.7510   16.7475 H   0  0  0  0  0  0  0  0  0  0  0  0
    7.6450   -0.9758   18.1044 H   0  0  0  0  0  0  0  0  0  0  0  0
    9.7849   -0.1194   25.8306 H   0  0  0  0  0  0  0  0  0  0  0  0
   10.4793    1.4568   25.3613 H   0  0  0  0  0  0  0  0  0  0  0  0
    5.7100    5.5368   26.1581 H   0  0  0  0  0  0  0  0  0  0  0  0
    5.8975    4.7028   24.5552 H   0  0  0  0  0  0  0  0  0  0  0  0
    7.8943    6.1318   24.0454 H   0  0  0  0  0  0  0  0  0  0  0  0
    7.7069    6.9657   25.6483 H   0  0  0  0  0  0  0  0  0  0  0  0
    7.5152   -2.5456   23.3338 H   0  0  0  0  0  0  0  0  0  0  0  0
    8.7649   -2.9030   22.1434 H   0  0  0  0  0  0  0  0  0  0  0  0
    7.0587   -2.7248   20.5721 H   0  0  0  0  0  0  0  0  0  0  0  0
    5.9518   -1.9952   21.7720 H   0  0  0  0  0  0  0  0  0  0  0  0
    6.8867    0.2641   23.5642 H   0  0  0  0  0  0  0  0  0  0  0  0
    7.6652   -0.8660   24.6733 H   0  0  0  0  0  0  0  0  0  0  0  0
    9.1455    4.3961   27.4142 H   0  0  0  0  0  0  0  0  0  0  0  0
    7.4436    4.1188   27.8311 H   0  0  0  0  0  0  0  0  0  0  0  0
    8.0547    5.7748   27.6527 H   0  0  0  0  0  0  0  0  0  0  0  0
    3.0698    1.2048   24.8491 H   0  0  0  0  0  0  0  0  0  0  0  0
    2.9102    0.1029   23.4767 H   0  0  0  0  0  0  0  0  0  0  0  0
    4.5106    0.6727   23.9984 H   0  0  0  0  0  0  0  0  0  0  0  0
    1.5102    2.8670   23.8417 H   0  0  0  0  0  0  0  0  0  0  0  0
    1.2688    1.9467   22.3414 H   0  0  0  0  0  0  0  0  0  0  0  0
    1.8499    3.6229   22.2948 H   0  0  0  0  0  0  0  0  0  0  0  0
    9.4732    3.5710   25.1421 H   0  0  0  0  0  0  0  0  0  0  0  0
    8.1577    3.6698   23.9479 H   0  0  0  0  0  0  0  0  0  0  0  0
    3.7522    3.3219   24.4147 H   0  0  0  0  0  0  0  0  0  0  0  0
  1  3  2  0  0  0  0
  1  9  1  0  0  0  0
  2  4  2  0  0  0  0
  2 11  1  0  0  0  0
  3 13  1  0  0  0  0
  4 15  1  0  0  0  0
  5 10  1  0  0  0  0
  5 13  2  0  0  0  0
  6 12  1  0  0  0  0
  6 15  2  0  0  0  0
  7  9  2  0  0  0  0
  7 30  1  0  0  0  0
  8 14  1  0  0  0  0
  8 30  2  0  0  0  0
  9 10  1  0  0  0  0
 10 14  2  0  0  0  0
 11 12  2  0  0  0  0
 11 17  1  0  0  0  0
 12 23  1  0  0  0  0
 13 29  1  0  0  0  0
 14 31  1  0  0  0  0
 15 38  1  0  0  0  0
 16 23  1  0  0  0  0
 16 31  1  0  0  0  0
 16 33  2  0  0  0  0
 17 32  1  0  0  0  0
 18 19  1  0  0  0  0
 18 24  1  0  0  0  0
 19 24  1  0  0  0  0
 20 21  1  0  0  0  0
 20 23  1  0  0  0  0
 21 31  1  0  0  0  0
 22 23  1  0  0  0  0
 22 32  1  0  0  0  0
 24 25  1  0  0  0  0
 24 28  1  0  0  0  0
 26 29  1  0  0  0  0
 27 29  1  0  0  0  0
 28 37  1  0  0  0  0
 29 36  1  0  0  0  0
 32 37  1  6  0  0  0
 34 37  2  0  0  0  0
 35 37  2  0  0  0  0
  1 39  1  0  0  0  0
  2 40  1  0  0  0  0
  3 41  1  0  0  0  0
  4 42  1  0  0  0  0
  5 43  1  0  0  0  0
  6 44  1  0  0  0  0
  7 45  1  0  0  0  0
  8 46  1  0  0  0  0
 17 47  1  0  0  0  0
 17 48  1  0  0  0  0
 18 49  1  0  0  0  0
 18 50  1  0  0  0  0
 19 51  1  0  0  0  0
 19 52  1  0  0  0  0
 20 53  1  0  0  0  0
 20 54  1  0  0  0  0
 21 55  1  0  0  0  0
 21 56  1  0  0  0  0
 22 57  1  0  0  0  0
 22 58  1  0  0  0  0
 25 59  1  0  0  0  0
 25 60  1  0  0  0  0
 25 61  1  0  0  0  0
 26 62  1  0  0  0  0
 26 63  1  0  0  0  0
 26 64  1  0  0  0  0
 27 65  1  0  0  0  0
 27 66  1  0  0  0  0
 27 67  1  0  0  0  0
 28 68  1  0  0  0  0
 28 69  1  0  0  0  0
 36 70  1  0  0  0  0
M  END
> <compound>
MAT-POS-853c0ffa-20

> <compound_smiles>
CC1(CC1)CS(=O)(=O)N2Cc3ccc(cc3C4(C2)CCN(C4=O)c5cncc6c5cc(cc6)C(C)(C)O)Cl

> <enantiomer_smiles>
CC1(CC1)CS(=O)(=O)[N@]2Cc3ccc(cc3C4(C2)CCN(C4=O)c5cncc6c5cc(cc6)C(C)(C)O)Cl

> <scaffold>
tetrahydroisoquinoline-5spiro-isoquinoline

> <clash_score>
0

> <docking_score>
-8.038116455078125

> <overlap_score>
0.979346752166748

> <MMFF_internal_energy>
160.50613356601195

> <docked_smiles>
CC1(CC1)CS(=O)(=O)[N@]2Cc3ccc(cc3[C@]4(C2)CCN(C4=O)c5cncc6c5cc(cc6)C(C)(C)O)Cl

$$$$
MAT-POS-50a80394-3_2
  -OEChem-12272114583D

 67 72  0     1  0  0  0  0  0999 V2000
    9.9899    5.1261   23.7595 C   0  0  0  0  0  0  0  0  0  0  0  0
    3.3432    2.6279   20.4411 C   0  0  0  0  0  0  0  0  0  0  0  0
    3.8960    1.9291   21.5050 C   0  0  0  0  0  0  0  0  0  0  0  0
    3.7865    2.4205   19.1660 C   0  0  0  0  0  0  0  0  0  0  0  0
    4.8973    1.0233   21.2988 C   0  0  0  0  0  0  0  0  0  0  0  0
   12.0765    0.0316   24.1541 C   0  0  0  0  0  0  0  0  0  0  0  0
   12.9132   -0.6032   23.2569 C   0  0  0  0  0  0  0  0  0  0  0  0
   10.9991   -1.4331   22.0443 C   0  0  0  0  0  0  0  0  0  0  0  0
    5.3278    1.2339   17.6066 C   0  0  0  0  0  0  0  0  0  0  0  0
    6.8438   -0.2892   18.3752 C   0  0  0  0  0  0  0  0  0  0  0  0
    4.8226    1.4906   18.9054 C   0  0  0  0  0  0  0  0  0  0  0  0
    5.3982    0.7733   19.9948 C   0  0  0  0  0  0  0  0  0  0  0  0
   10.7040   -0.0625   23.9898 C   0  0  0  0  0  0  0  0  0  0  0  0
   10.1406   -0.7765   22.9250 C   0  0  0  0  0  0  0  0  0  0  0  0
    6.4440   -0.1472   19.6979 C   0  0  0  0  0  0  0  0  0  0  0  0
   12.3683   -1.3298   22.2234 C   0  0  0  0  0  0  0  0  0  0  0  0
    8.2490    0.0169   21.4271 C   0  0  0  0  0  0  0  0  0  0  0  0
    9.9479    0.5589   24.9534 C   0  0  0  0  0  0  0  0  0  0  0  0
    8.5281    6.1569   25.5361 C   0  0  0  0  0  0  0  0  0  0  0  0
    7.7007    6.0392   24.2902 C   0  0  0  0  0  0  0  0  0  0  0  0
    6.9866   -1.9366   21.3580 C   0  0  0  0  0  0  0  0  0  0  0  0
    7.8721   -0.1194   23.8831 C   0  0  0  0  0  0  0  0  0  0  0  0
    8.0140   -2.1541   22.4331 C   0  0  1  0  0  0  0  0  0  0  0  0
    8.7969    5.0330   24.5607 C   0  0  0  0  0  0  0  0  0  0  0  0
    8.6238   -0.7606   22.6929 C   0  0  3  0  0  0  0  0  0  0  0  0
    6.8559   -4.2443   23.2269 C   0  0  0  0  0  0  0  0  0  0  0  0
    8.4806   -3.0723   24.7402 C   0  0  0  0  0  0  0  0  0  0  0  0
    8.3938    3.6314   24.9609 C   0  0  0  0  0  0  0  0  0  0  0  0
    7.4299   -2.8908   23.6451 C   0  0  0  0  0  0  0  0  0  0  0  0
   10.9510    5.2012   23.1140 N   0  0  0  0  0  0  0  0  0  0  0  0
    6.3062    0.3769   17.3421 N   0  0  0  0  0  0  0  0  0  0  0  0
    7.2292   -0.6897   20.7790 N   0  0  0  0  0  0  0  0  0  0  0  0
    8.6609    1.0133   24.4995 N   0  0  1  0  0  0  0  0  0  0  0  0
    8.7540    1.0949   21.1312 O   0  0  0  0  0  0  0  0  0  0  0  0
    7.4193    2.5019   22.8158 O   0  0  0  0  0  0  0  0  0  0  0  0
    9.9262    2.7134   23.0538 O   0  0  0  0  0  0  0  0  0  0  0  0
    8.6175    2.4839   23.6263 S   0  0  0  0  0  0  0  0  0  0  0  0
   13.4271   -2.1406   21.1083 Cl  0  0  0  0  0  0  0  0  0  0  0  0
    2.5432    3.3510   20.6369 H   0  0  0  0  0  0  0  0  0  0  0  0
    3.5174    2.1137   22.5168 H   0  0  0  0  0  0  0  0  0  0  0  0
    3.3409    2.9743   18.3364 H   0  0  0  0  0  0  0  0  0  0  0  0
    5.3118    0.4895   22.1572 H   0  0  0  0  0  0  0  0  0  0  0  0
   12.5026    0.5939   24.9767 H   0  0  0  0  0  0  0  0  0  0  0  0
   13.9911   -0.5201   23.3811 H   0  0  0  0  0  0  0  0  0  0  0  0
   10.6049   -2.0193   21.2265 H   0  0  0  0  0  0  0  0  0  0  0  0
    4.9141    1.7511   16.7474 H   0  0  0  0  0  0  0  0  0  0  0  0
    7.6445   -0.9764   18.1043 H   0  0  0  0  0  0  0  0  0  0  0  0
    9.7589   -0.1287   25.8179 H   0  0  0  0  0  0  0  0  0  0  0  0
   10.4929    1.4385   25.3837 H   0  0  0  0  0  0  0  0  0  0  0  0
    9.2310    6.9802   25.5960 H   0  0  0  0  0  0  0  0  0  0  0  0
    8.0513    5.9208   26.4804 H   0  0  0  0  0  0  0  0  0  0  0  0
    6.6692    5.7249   24.4002 H   0  0  0  0  0  0  0  0  0  0  0  0
    7.8497    6.7844   23.5170 H   0  0  0  0  0  0  0  0  0  0  0  0
    7.0302   -2.7464   20.5879 H   0  0  0  0  0  0  0  0  0  0  0  0
    5.9444   -1.9500   21.7629 H   0  0  0  0  0  0  0  0  0  0  0  0
    6.8971    0.2879   23.5658 H   0  0  0  0  0  0  0  0  0  0  0  0
    7.6525   -0.8675   24.6597 H   0  0  0  0  0  0  0  0  0  0  0  0
    8.7896   -2.8266   22.0174 H   0  0  0  0  0  0  0  0  0  0  0  0
    7.6334   -4.8939   22.8101 H   0  0  0  0  0  0  0  0  0  0  0  0
    6.0780   -4.1169   22.4667 H   0  0  0  0  0  0  0  0  0  0  0  0
    6.4067   -4.7598   24.0823 H   0  0  0  0  0  0  0  0  0  0  0  0
    9.3245   -3.6739   24.3855 H   0  0  0  0  0  0  0  0  0  0  0  0
    8.0517   -3.5728   25.6148 H   0  0  0  0  0  0  0  0  0  0  0  0
    8.8703   -2.1025   25.0675 H   0  0  0  0  0  0  0  0  0  0  0  0
    7.3385    3.5937   25.2450 H   0  0  0  0  0  0  0  0  0  0  0  0
    8.9992    3.2741   25.7983 H   0  0  0  0  0  0  0  0  0  0  0  0
    6.6112   -2.2834   24.0536 H   0  0  0  0  0  0  0  0  0  0  0  0
  1 24  1  0  0  0  0
  1 30  3  0  0  0  0
  2  3  1  0  0  0  0
  2  4  2  0  0  0  0
  3  5  2  0  0  0  0
  4 11  1  0  0  0  0
  5 12  1  0  0  0  0
  6  7  1  0  0  0  0
  6 13  2  0  0  0  0
  7 16  2  0  0  0  0
  8 14  2  0  0  0  0
  8 16  1  0  0  0  0
  9 11  2  0  0  0  0
  9 31  1  0  0  0  0
 10 15  1  0  0  0  0
 10 31  2  0  0  0  0
 11 12  1  0  0  0  0
 12 15  2  0  0  0  0
 13 14  1  0  0  0  0
 13 18  1  0  0  0  0
 14 25  1  0  0  0  0
 15 32  1  0  0  0  0
 16 38  1  0  0  0  0
 17 25  1  0  0  0  0
 17 32  1  0  0  0  0
 17 34  2  0  0  0  0
 18 33  1  0  0  0  0
 19 20  1  0  0  0  0
 19 24  1  0  0  0  0
 20 24  1  0  0  0  0
 21 23  1  0  0  0  0
 21 32  1  0  0  0  0
 22 25  1  0  0  0  0
 22 33  1  0  0  0  0
 23 25  1  0  0  0  0
 23 29  1  6  0  0  0
 24 28  1  0  0  0  0
 26 29  1  0  0  0  0
 27 29  1  0  0  0  0
 28 37  1  0  0  0  0
 33 37  1  1  0  0  0
 35 37  2  0  0  0  0
 36 37  2  0  0  0  0
  2 39  1  0  0  0  0
  3 40  1  0  0  0  0
  4 41  1  0  0  0  0
  5 42  1  0  0  0  0
  6 43  1  0  0  0  0
  7 44  1  0  0  0  0
  8 45  1  0  0  0  0
  9 46  1  0  0  0  0
 10 47  1  0  0  0  0
 18 48  1  0  0  0  0
 18 49  1  0  0  0  0
 19 50  1  0  0  0  0
 19 51  1  0  0  0  0
 20 52  1  0  0  0  0
 20 53  1  0  0  0  0
 21 54  1  0  0  0  0
 21 55  1  0  0  0  0
 22 56  1  0  0  0  0
 22 57  1  0  0  0  0
 23 58  1  0  0  0  0
 26 59  1  0  0  0  0
 26 60  1  0  0  0  0
 26 61  1  0  0  0  0
 27 62  1  0  0  0  0
 27 63  1  0  0  0  0
 27 64  1  0  0  0  0
 28 65  1  0  0  0  0
 28 66  1  0  0  0  0
 29 67  1  0  0  0  0
M  END
> <compound>
MAT-POS-50a80394-3

> <compound_smiles>
CC(C)C1CN(C(=O)C12CN(Cc3c2cc(cc3)Cl)S(=O)(=O)CC4(CC4)C#N)c5cncc6c5cccc6

> <enantiomer_smiles>
CC(C)[C@H]1CN(C(=O)C12C[N@@](Cc3c2cc(cc3)Cl)S(=O)(=O)CC4(CC4)C#N)c5cncc6c5cccc6

> <scaffold>
tetrahydroisoquinoline-5spiro-isoquinoline

> <clash_score>
0

> <docking_score>
-9.953469276428223

> <overlap_score>
0.9824628233909607

> <MMFF_internal_energy>
155.67276666894446

> <docked_smiles>
CC(C)[C@H]1CN(C(=O)[C@@]12C[N@@](Cc3c2cc(cc3)Cl)S(=O)(=O)CC4(CC4)C#N)c5cncc6c5cccc6

$$$$
EDJ-MED-976a33d5-2_1
  -OEChem-12272114583D

 63 68  0     1  0  0  0  0  0999 V2000
    4.8973    1.0233   21.2988 C   0  0  0  0  0  0  0  0  0  0  0  0
   12.0765    0.0316   24.1541 C   0  0  0  0  0  0  0  0  0  0  0  0
    3.8960    1.9291   21.5050 C   0  0  0  0  0  0  0  0  0  0  0  0
   12.9132   -0.6032   23.2569 C   0  0  0  0  0  0  0  0  0  0  0  0
    3.7865    2.4205   19.1660 C   0  0  0  0  0  0  0  0  0  0  0  0
   10.9991   -1.4331   22.0443 C   0  0  0  0  0  0  0  0  0  0  0  0
    5.3278    1.2339   17.6066 C   0  0  0  0  0  0  0  0  0  0  0  0
    6.8438   -0.2892   18.3752 C   0  0  0  0  0  0  0  0  0  0  0  0
    5.3982    0.7733   19.9948 C   0  0  0  0  0  0  0  0  0  0  0  0
    4.8226    1.4906   18.9054 C   0  0  0  0  0  0  0  0  0  0  0  0
   10.7040   -0.0625   23.9898 C   0  0  0  0  0  0  0  0  0  0  0  0
   10.1406   -0.7765   22.9250 C   0  0  0  0  0  0  0  0  0  0  0  0
    6.4440   -0.1472   19.6979 C   0  0  0  0  0  0  0  0  0  0  0  0
    3.3432    2.6279   20.4411 C   0  0  0  0  0  0  0  0  0  0  0  0
   12.3683   -1.3298   22.2234 C   0  0  0  0  0  0  0  0  0  0  0  0
    9.9479    0.5589   24.9534 C   0  0  0  0  0  0  0  0  0  0  0  0
    8.2490    0.0169   21.4271 C   0  0  0  0  0  0  0  0  0  0  0  0
    8.4330    3.2597   23.7801 C   0  0  0  0  0  0  0  0  0  0  0  0
    7.9387    2.6608   26.2131 C   0  0  0  0  0  0  0  0  0  0  0  0
    6.7298    2.2855   25.4149 C   0  0  0  0  0  0  0  0  0  0  0  0
    8.0140   -2.1541   22.4331 C   0  0  0  0  0  0  0  0  0  0  0  0
    6.9866   -1.9366   21.3580 C   0  0  0  0  0  0  0  0  0  0  0  0
    7.8721   -0.1194   23.8831 C   0  0  0  0  0  0  0  0  0  0  0  0
    8.6238   -0.7606   22.6929 C   0  0  3  0  0  0  0  0  0  0  0  0
    8.1001    2.2206   24.7728 C   0  0  0  0  0  0  0  0  0  0  0  0
   10.1385    4.9678   23.1833 C   0  0  0  0  0  0  0  0  0  0  0  0
    0.5677    2.8319   20.6206 C   0  0  0  0  0  0  0  0  0  0  0  0
    6.3062    0.3769   17.3421 N   0  0  0  0  0  0  0  0  0  0  0  0
    7.2292   -0.6897   20.7790 N   0  0  0  0  0  0  0  0  0  0  0  0
    8.6609    1.0133   24.4995 N   0  0  0  0  0  0  0  0  0  0  0  0
    9.6227    3.9165   24.0305 N   0  0  0  0  0  0  0  0  0  0  0  0
   10.3189    0.7351   26.1117 O   0  0  0  0  0  0  0  0  0  0  0  0
    8.7583    1.0935   21.1353 O   0  0  0  0  0  0  0  0  0  0  0  0
    7.6723    3.4643   22.8414 O   0  0  0  0  0  0  0  0  0  0  0  0
    2.1883    4.2359   22.1296 O   0  0  0  0  0  0  0  0  0  0  0  0
    2.0335    4.7672   19.6721 O   0  0  0  0  0  0  0  0  0  0  0  0
    2.0618    3.7881   20.7500 S   0  0  0  0  0  0  0  0  0  0  0  0
   13.4277   -2.1397   21.1088 Cl  0  0  0  0  0  0  0  0  0  0  0  0
    5.3114    0.4892   22.1572 H   0  0  0  0  0  0  0  0  0  0  0  0
   12.5170    0.5914   24.9756 H   0  0  0  0  0  0  0  0  0  0  0  0
    3.5259    2.1069   22.5217 H   0  0  0  0  0  0  0  0  0  0  0  0
   13.9904   -0.5162   23.3783 H   0  0  0  0  0  0  0  0  0  0  0  0
    3.3486    2.9706   18.3290 H   0  0  0  0  0  0  0  0  0  0  0  0
   10.6131   -2.0184   21.2223 H   0  0  0  0  0  0  0  0  0  0  0  0
    4.9146    1.7518   16.7474 H   0  0  0  0  0  0  0  0  0  0  0  0
    7.6451   -0.9755   18.1042 H   0  0  0  0  0  0  0  0  0  0  0  0
    8.0776    3.7082   26.4542 H   0  0  0  0  0  0  0  0  0  0  0  0
    8.2534    1.9826   26.9978 H   0  0  0  0  0  0  0  0  0  0  0  0
    6.2323    1.3552   25.6629 H   0  0  0  0  0  0  0  0  0  0  0  0
    6.0552    3.0805   25.1192 H   0  0  0  0  0  0  0  0  0  0  0  0
    7.5778   -2.6152   23.3309 H   0  0  0  0  0  0  0  0  0  0  0  0
    8.7844   -2.8455   22.0573 H   0  0  0  0  0  0  0  0  0  0  0  0
    7.0224   -2.7504   20.5947 H   0  0  0  0  0  0  0  0  0  0  0  0
    5.9553   -1.9483   21.7835 H   0  0  0  0  0  0  0  0  0  0  0  0
    6.8937    0.2571   23.5799 H   0  0  0  0  0  0  0  0  0  0  0  0
    7.7158   -0.8401   24.6911 H   0  0  0  0  0  0  0  0  0  0  0  0
   10.7778    4.5299   22.4026 H   0  0  0  0  0  0  0  0  0  0  0  0
    9.3008    5.5039   22.7132 H   0  0  0  0  0  0  0  0  0  0  0  0
   10.7293    5.6703   23.7895 H   0  0  0  0  0  0  0  0  0  0  0  0
   -0.2810    3.4923   20.8059 H   0  0  0  0  0  0  0  0  0  0  0  0
    0.5133    2.4124   19.6149 H   0  0  0  0  0  0  0  0  0  0  0  0
    0.6027    2.0359   21.3659 H   0  0  0  0  0  0  0  0  0  0  0  0
   10.1604    3.6476   24.8490 H   0  0  0  0  0  0  0  0  0  0  0  0
  1  3  2  0  0  0  0
  1  9  1  0  0  0  0
  2  4  2  0  0  0  0
  2 11  1  0  0  0  0
  3 14  1  0  0  0  0
  4 15  1  0  0  0  0
  5 10  1  0  0  0  0
  5 14  2  0  0  0  0
  6 12  1  0  0  0  0
  6 15  2  0  0  0  0
  7 10  2  0  0  0  0
  7 28  1  0  0  0  0
  8 13  1  0  0  0  0
  8 28  2  0  0  0  0
  9 10  1  0  0  0  0
  9 13  2  0  0  0  0
 11 12  2  0  0  0  0
 11 16  1  0  0  0  0
 12 24  1  0  0  0  0
 13 29  1  0  0  0  0
 14 37  1  0  0  0  0
 15 38  1  0  0  0  0
 16 30  1  0  0  0  0
 16 32  2  0  0  0  0
 17 24  1  0  0  0  0
 17 29  1  0  0  0  0
 17 33  2  0  0  0  0
 18 25  1  0  0  0  0
 18 31  1  0  0  0  0
 18 34  2  0  0  0  0
 19 20  1  0  0  0  0
 19 25  1  0  0  0  0
 20 25  1  0  0  0  0
 21 22  1  0  0  0  0
 21 24  1  0  0  0  0
 22 29  1  0  0  0  0
 23 24  1  0  0  0  0
 23 30  1  0  0  0  0
 25 30  1  0  0  0  0
 26 31  1  0  0  0  0
 27 37  1  0  0  0  0
 35 37  2  0  0  0  0
 36 37  2  0  0  0  0
  1 39  1  0  0  0  0
  2 40  1  0  0  0  0
  3 41  1  0  0  0  0
  4 42  1  0  0  0  0
  5 43  1  0  0  0  0
  6 44  1  0  0  0  0
  7 45  1  0  0  0  0
  8 46  1  0  0  0  0
 19 47  1  0  0  0  0
 19 48  1  0  0  0  0
 20 49  1  0  0  0  0
 20 50  1  0  0  0  0
 21 51  1  0  0  0  0
 21 52  1  0  0  0  0
 22 53  1  0  0  0  0
 22 54  1  0  0  0  0
 23 55  1  0  0  0  0
 23 56  1  0  0  0  0
 26 57  1  0  0  0  0
 26 58  1  0  0  0  0
 26 59  1  0  0  0  0
 27 60  1  0  0  0  0
 27 61  1  0  0  0  0
 27 62  1  0  0  0  0
 31 63  1  0  0  0  0
M  END
> <compound>
EDJ-MED-976a33d5-2

> <compound_smiles>
CNC(=O)C1(CC1)N2CC3(CCN(C3=O)c4cncc5c4ccc(c5)S(=O)(=O)C)c6cc(ccc6C2=O)Cl

> <enantiomer_smiles>
CNC(=O)C1(CC1)N2CC3(CCN(C3=O)c4cncc5c4ccc(c5)S(=O)(=O)C)c6cc(ccc6C2=O)Cl

> <scaffold>
tetrahydroisoquinoline-5spiro-isoquinoline

> <clash_score>
0

> <docking_score>
-9.59811019897461

> <overlap_score>
1.0

> <MMFF_internal_energy>
176.3552869790711

> <docked_smiles>
CNC(=O)C1(CC1)N2C[C@]3(CCN(C3=O)c4cncc5c4ccc(c5)S(=O)(=O)C)c6cc(ccc6C2=O)Cl

$$$$
EDJ-MED-b6c6ee2b-1_2
  -OEChem-12272114583D

 71 75  0     1  0  0  0  0  0999 V2000
    3.7865    2.4205   19.1660 C   0  0  0  0  0  0  0  0  0  0  0  0
   12.0765    0.0316   24.1541 C   0  0  0  0  0  0  0  0  0  0  0  0
    3.3432    2.6279   20.4411 C   0  0  0  0  0  0  0  0  0  0  0  0
   12.9132   -0.6032   23.2569 C   0  0  0  0  0  0  0  0  0  0  0  0
    4.8973    1.0233   21.2988 C   0  0  0  0  0  0  0  0  0  0  0  0
   10.9991   -1.4331   22.0443 C   0  0  0  0  0  0  0  0  0  0  0  0
    5.3278    1.2339   17.6066 C   0  0  0  0  0  0  0  0  0  0  0  0
    6.8438   -0.2892   18.3752 C   0  0  0  0  0  0  0  0  0  0  0  0
    4.8226    1.4906   18.9054 C   0  0  0  0  0  0  0  0  0  0  0  0
    5.3982    0.7733   19.9948 C   0  0  0  0  0  0  0  0  0  0  0  0
   10.7040   -0.0625   23.9898 C   0  0  0  0  0  0  0  0  0  0  0  0
   10.1406   -0.7765   22.9250 C   0  0  0  0  0  0  0  0  0  0  0  0
    6.4440   -0.1472   19.6979 C   0  0  0  0  0  0  0  0  0  0  0  0
    3.8960    1.9291   21.5050 C   0  0  0  0  0  0  0  0  0  0  0  0
   12.3683   -1.3298   22.2234 C   0  0  0  0  0  0  0  0  0  0  0  0
    8.2490    0.0169   21.4271 C   0  0  0  0  0  0  0  0  0  0  0  0
    6.7919    2.5950   24.9761 C   0  0  0  0  0  0  0  0  0  0  0  0
    9.9479    0.5589   24.9534 C   0  0  0  0  0  0  0  0  0  0  0  0
    8.0140   -2.1541   22.4331 C   0  0  0  0  0  0  0  0  0  0  0  0
    6.9866   -1.9366   21.3580 C   0  0  0  0  0  0  0  0  0  0  0  0
    7.8721   -0.1194   23.8831 C   0  0  0  0  0  0  0  0  0  0  0  0
    8.6238   -0.7606   22.6929 C   0  0  3  0  0  0  0  0  0  0  0  0
    5.5330    4.6801   25.4293 C   0  0  0  0  0  0  0  0  0  0  0  0
    3.0824   -0.0622   26.3115 C   0  0  0  0  0  0  0  0  0  0  0  0
    0.7938   -0.7929   25.6564 C   0  0  0  0  0  0  0  0  0  0  0  0
    7.8596    1.7144   25.5749 C   0  0  0  0  0  0  0  0  0  0  0  0
    2.0827    0.7396   24.1762 C   0  0  0  0  0  0  0  0  0  0  0  0
    3.4808    1.0700   23.6920 C   0  0  0  0  0  0  0  0  0  0  0  0
    6.3062    0.3769   17.3421 N   0  0  0  0  0  0  0  0  0  0  0  0
    7.2292   -0.6897   20.7790 N   0  0  0  0  0  0  0  0  0  0  0  0
    6.5187    3.6875   25.7856 N   0  0  0  0  0  0  0  0  0  0  0  0
    8.6609    1.0133   24.4995 N   0  3  1  0  0  0  0  0  0  0  0  0
    2.1545   -0.3683   25.1619 N   0  3  0  0  0  0  0  0  0  0  0  0
    8.8286    1.0402   21.0803 O   0  0  0  0  0  0  0  0  0  0  0  0
    6.2454    2.3568   23.9023 O   0  0  0  0  0  0  0  0  0  0  0  0
    3.4227    2.1582   22.7714 O   0  0  0  0  0  0  0  0  0  0  0  0
   13.4270   -2.1443   21.1108 Cl  0  0  0  0  0  0  0  0  0  0  0  0
    3.3406    2.9746   18.3368 H   0  0  0  0  0  0  0  0  0  0  0  0
   12.5021    0.5962   24.9756 H   0  0  0  0  0  0  0  0  0  0  0  0
    2.5407    3.3506   20.6306 H   0  0  0  0  0  0  0  0  0  0  0  0
   13.9911   -0.5171   23.3786 H   0  0  0  0  0  0  0  0  0  0  0  0
    5.3162    0.4858   22.1535 H   0  0  0  0  0  0  0  0  0  0  0  0
   10.6045   -2.0170   21.2248 H   0  0  0  0  0  0  0  0  0  0  0  0
    4.9131    1.7514   16.7479 H   0  0  0  0  0  0  0  0  0  0  0  0
    7.6448   -0.9758   18.1041 H   0  0  0  0  0  0  0  0  0  0  0  0
    9.7608   -0.1211   25.8247 H   0  0  0  0  0  0  0  0  0  0  0  0
   10.4565    1.4661   25.3705 H   0  0  0  0  0  0  0  0  0  0  0  0
    7.5144   -2.5472   23.3327 H   0  0  0  0  0  0  0  0  0  0  0  0
    8.7599   -2.9065   22.1418 H   0  0  0  0  0  0  0  0  0  0  0  0
    7.0582   -2.7244   20.5716 H   0  0  0  0  0  0  0  0  0  0  0  0
    5.9516   -1.9958   21.7713 H   0  0  0  0  0  0  0  0  0  0  0  0
    6.8955    0.2929   23.5757 H   0  0  0  0  0  0  0  0  0  0  0  0
    7.6774   -0.8491   24.6905 H   0  0  0  0  0  0  0  0  0  0  0  0
    6.0171    5.4939   24.8695 H   0  0  0  0  0  0  0  0  0  0  0  0
    4.7557    4.2168   24.8038 H   0  0  0  0  0  0  0  0  0  0  0  0
    5.0747    5.0860   26.3431 H   0  0  0  0  0  0  0  0  0  0  0  0
    2.6846    0.8063   26.8395 H   0  0  0  0  0  0  0  0  0  0  0  0
    3.1092   -0.9387   26.9618 H   0  0  0  0  0  0  0  0  0  0  0  0
    4.0698    0.1491   25.8967 H   0  0  0  0  0  0  0  0  0  0  0  0
    0.3442    0.0591   26.1696 H   0  0  0  0  0  0  0  0  0  0  0  0
    0.1998   -1.0868   24.7889 H   0  0  0  0  0  0  0  0  0  0  0  0
    0.9337   -1.6331   26.3393 H   0  0  0  0  0  0  0  0  0  0  0  0
    7.4105    0.9495   26.2145 H   0  0  0  0  0  0  0  0  0  0  0  0
    8.5738    2.3157   26.1441 H   0  0  0  0  0  0  0  0  0  0  0  0
    1.4378    0.3894   23.3653 H   0  0  0  0  0  0  0  0  0  0  0  0
    1.6218    1.5873   24.6900 H   0  0  0  0  0  0  0  0  0  0  0  0
    4.1043    1.3762   24.5378 H   0  0  0  0  0  0  0  0  0  0  0  0
    3.9517    0.2125   23.2002 H   0  0  0  0  0  0  0  0  0  0  0  0
    7.0058    3.7901   26.6713 H   0  0  0  0  0  0  0  0  0  0  0  0
    8.7930    1.7233   23.7554 H   0  0  0  0  0  0  0  0  0  0  0  0
    2.5550   -1.1922   24.6819 H   0  0  0  0  0  0  0  0  0  0  0  0
  1  3  2  0  0  0  0
  1  9  1  0  0  0  0
  2  4  2  0  0  0  0
  2 11  1  0  0  0  0
  3 14  1  0  0  0  0
  4 15  1  0  0  0  0
  5 10  1  0  0  0  0
  5 14  2  0  0  0  0
  6 12  1  0  0  0  0
  6 15  2  0  0  0  0
  7  9  2  0  0  0  0
  7 29  1  0  0  0  0
  8 13  1  0  0  0  0
  8 29  2  0  0  0  0
  9 10  1  0  0  0  0
 10 13  2  0  0  0  0
 11 12  2  0  0  0  0
 11 18  1  0  0  0  0
 12 22  1  0  0  0  0
 13 30  1  0  0  0  0
 14 36  1  0  0  0  0
 15 37  1  0  0  0  0
 16 22  1  0  0  0  0
 16 30  1  0  0  0  0
 16 34  2  0  0  0  0
 17 26  1  0  0  0  0
 17 31  1  0  0  0  0
 17 35  2  0  0  0  0
 18 32  1  0  0  0  0
 19 20  1  0  0  0  0
 19 22  1  0  0  0  0
 20 30  1  0  0  0  0
 21 22  1  0  0  0  0
 21 32  1  0  0  0  0
 23 31  1  0  0  0  0
 24 33  1  0  0  0  0
 25 33  1  0  0  0  0
 26 32  1  6  0  0  0
 27 28  1  0  0  0  0
 27 33  1  0  0  0  0
 28 36  1  0  0  0  0
  1 38  1  0  0  0  0
  2 39  1  0  0  0  0
  3 40  1  0  0  0  0
  4 41  1  0  0  0  0
  5 42  1  0  0  0  0
  6 43  1  0  0  0  0
  7 44  1  0  0  0  0
  8 45  1  0  0  0  0
 18 46  1  0  0  0  0
 18 47  1  0  0  0  0
 19 48  1  0  0  0  0
 19 49  1  0  0  0  0
 20 50  1  0  0  0  0
 20 51  1  0  0  0  0
 21 52  1  0  0  0  0
 21 53  1  0  0  0  0
 23 54  1  0  0  0  0
 23 55  1  0  0  0  0
 23 56  1  0  0  0  0
 24 57  1  0  0  0  0
 24 58  1  0  0  0  0
 24 59  1  0  0  0  0
 25 60  1  0  0  0  0
 25 61  1  0  0  0  0
 25 62  1  0  0  0  0
 26 63  1  0  0  0  0
 26 64  1  0  0  0  0
 27 65  1  0  0  0  0
 27 66  1  0  0  0  0
 28 67  1  0  0  0  0
 28 68  1  0  0  0  0
 31 69  1  0  0  0  0
 32 70  1  0  0  0  0
 33 71  1  0  0  0  0
M  CHG  2  32   1  33   1
M  END
> <compound>
EDJ-MED-b6c6ee2b-1

> <compound_smiles>
CNC(=O)CN1Cc2ccc(cc2C3(C1)CCN(C3=O)c4cncc5c4cc(cc5)OCCN(C)C)Cl

> <enantiomer_smiles>
CNC(=O)C[N@]1Cc2ccc(cc2C3(C1)CCN(C3=O)c4cncc5c4cc(cc5)OCCN(C)C)Cl

> <scaffold>
tetrahydroisoquinoline-5spiro-isoquinoline

> <clash_score>
0

> <docking_score>
-8.15192985534668

> <overlap_score>
0.9808136224746704

> <MMFF_internal_energy>
253.37517642172884

> <docked_smiles>
CNC(=O)C[N@H+]1Cc2ccc(cc2[C@]3(C1)CCN(C3=O)c4cncc5c4cc(cc5)OCC[NH+](C)C)Cl

$$$$
EDJ-MED-5cd3920d-2_1
  -OEChem-12272114583D

 61 66  0     1  0  0  0  0  0999 V2000
    9.9899    5.1222   23.8236 C   0  0  0  0  0  0  0  0  0  0  0  0
    3.7865    2.4205   19.1660 C   0  0  0  0  0  0  0  0  0  0  0  0
   12.0765    0.0316   24.1541 C   0  0  0  0  0  0  0  0  0  0  0  0
    3.3432    2.6279   20.4411 C   0  0  0  0  0  0  0  0  0  0  0  0
   12.9132   -0.6032   23.2569 C   0  0  0  0  0  0  0  0  0  0  0  0
    4.8973    1.0233   21.2988 C   0  0  0  0  0  0  0  0  0  0  0  0
   10.9991   -1.4331   22.0443 C   0  0  0  0  0  0  0  0  0  0  0  0
    5.3278    1.2339   17.6066 C   0  0  0  0  0  0  0  0  0  0  0  0
    6.8438   -0.2892   18.3752 C   0  0  0  0  0  0  0  0  0  0  0  0
    4.8226    1.4906   18.9054 C   0  0  0  0  0  0  0  0  0  0  0  0
    5.3982    0.7733   19.9948 C   0  0  0  0  0  0  0  0  0  0  0  0
   10.7040   -0.0625   23.9898 C   0  0  0  0  0  0  0  0  0  0  0  0
   10.1406   -0.7765   22.9250 C   0  0  0  0  0  0  0  0  0  0  0  0
    3.8960    1.9291   21.5050 C   0  0  0  0  0  0  0  0  0  0  0  0
    6.4440   -0.1472   19.6979 C   0  0  0  0  0  0  0  0  0  0  0  0
   12.3683   -1.3298   22.2234 C   0  0  0  0  0  0  0  0  0  0  0  0
    8.2490    0.0169   21.4271 C   0  0  0  0  0  0  0  0  0  0  0  0
    9.9479    0.5589   24.9534 C   0  0  0  0  0  0  0  0  0  0  0  0
    8.5324    6.1021   25.6323 C   0  0  0  0  0  0  0  0  0  0  0  0
    7.7014    6.0179   24.3861 C   0  0  0  0  0  0  0  0  0  0  0  0
    8.0140   -2.1541   22.4331 C   0  0  0  0  0  0  0  0  0  0  0  0
    6.9866   -1.9366   21.3580 C   0  0  0  0  0  0  0  0  0  0  0  0
    7.8721   -0.1194   23.8831 C   0  0  0  0  0  0  0  0  0  0  0  0
    8.7994    5.0058   24.6255 C   0  0  0  0  0  0  0  0  0  0  0  0
    8.6238   -0.7606   22.6929 C   0  0  3  0  0  0  0  0  0  0  0  0
    8.3989    3.5932   24.9882 C   0  0  0  0  0  0  0  0  0  0  0  0
    3.3796    2.1809   22.8922 C   0  0  0  0  0  0  0  0  0  0  0  0
   10.9490    5.2161   23.1776 N   0  0  0  0  0  0  0  0  0  0  0  0
    6.3062    0.3769   17.3421 N   0  0  0  0  0  0  0  0  0  0  0  0
    7.2292   -0.6897   20.7790 N   0  0  0  0  0  0  0  0  0  0  0  0
    8.6609    1.0133   24.4995 N   0  0  1  0  0  0  0  0  0  0  0  0
    8.7572    1.0941   21.1350 O   0  0  0  0  0  0  0  0  0  0  0  0
    7.4179    2.5201   22.8172 O   0  0  0  0  0  0  0  0  0  0  0  0
    9.9251    2.7322   23.0499 O   0  0  0  0  0  0  0  0  0  0  0  0
    2.3346    1.3621   23.1820 F   0  0  0  0  0  0  0  0  0  0  0  0
    2.9169    3.4530   23.0109 F   0  0  0  0  0  0  0  0  0  0  0  0
    8.6198    2.4832   23.6217 S   0  0  0  0  0  0  0  0  0  0  0  0
   13.4275   -2.1421   21.1097 Cl  0  0  0  0  0  0  0  0  0  0  0  0
    3.3419    2.9747   18.3362 H   0  0  0  0  0  0  0  0  0  0  0  0
   12.5015    0.5938   24.9776 H   0  0  0  0  0  0  0  0  0  0  0  0
    2.5411    3.3529   20.6267 H   0  0  0  0  0  0  0  0  0  0  0  0
   13.9911   -0.5212   23.3814 H   0  0  0  0  0  0  0  0  0  0  0  0
    5.3175    0.4836   22.1518 H   0  0  0  0  0  0  0  0  0  0  0  0
   10.6037   -2.0228   21.2288 H   0  0  0  0  0  0  0  0  0  0  0  0
    4.9134    1.7510   16.7475 H   0  0  0  0  0  0  0  0  0  0  0  0
    7.6450   -0.9758   18.1044 H   0  0  0  0  0  0  0  0  0  0  0  0
    9.7581   -0.1287   25.8173 H   0  0  0  0  0  0  0  0  0  0  0  0
   10.4931    1.4391   25.3829 H   0  0  0  0  0  0  0  0  0  0  0  0
    9.2347    6.9241   25.7129 H   0  0  0  0  0  0  0  0  0  0  0  0
    8.0587    5.8395   26.5712 H   0  0  0  0  0  0  0  0  0  0  0  0
    6.6706    5.6996   24.4905 H   0  0  0  0  0  0  0  0  0  0  0  0
    7.8473    6.7843   23.6333 H   0  0  0  0  0  0  0  0  0  0  0  0
    7.5801   -2.6060   23.3366 H   0  0  0  0  0  0  0  0  0  0  0  0
    8.7749   -2.8608   22.0657 H   0  0  0  0  0  0  0  0  0  0  0  0
    7.0227   -2.7506   20.5953 H   0  0  0  0  0  0  0  0  0  0  0  0
    5.9554   -1.9484   21.7832 H   0  0  0  0  0  0  0  0  0  0  0  0
    6.8886    0.2769   23.5666 H   0  0  0  0  0  0  0  0  0  0  0  0
    7.6579   -0.8710   24.6633 H   0  0  0  0  0  0  0  0  0  0  0  0
    7.3445    3.5466   25.2742 H   0  0  0  0  0  0  0  0  0  0  0  0
    9.0072    3.2136   25.8136 H   0  0  0  0  0  0  0  0  0  0  0  0
    4.1469    2.0296   23.6536 H   0  0  0  0  0  0  0  0  0  0  0  0
  1 24  1  0  0  0  0
  1 28  3  0  0  0  0
  2  4  1  0  0  0  0
  2 10  2  0  0  0  0
  3  5  1  0  0  0  0
  3 12  2  0  0  0  0
  4 14  2  0  0  0  0
  5 16  2  0  0  0  0
  6 11  2  0  0  0  0
  6 14  1  0  0  0  0
  7 13  2  0  0  0  0
  7 16  1  0  0  0  0
  8 10  1  0  0  0  0
  8 29  2  0  0  0  0
  9 15  2  0  0  0  0
  9 29  1  0  0  0  0
 10 11  1  0  0  0  0
 11 15  1  0  0  0  0
 12 13  1  0  0  0  0
 12 18  1  0  0  0  0
 13 25  1  0  0  0  0
 14 27  1  0  0  0  0
 15 30  1  0  0  0  0
 16 38  1  0  0  0  0
 17 25  1  0  0  0  0
 17 30  1  0  0  0  0
 17 32  2  0  0  0  0
 18 31  1  0  0  0  0
 19 20  1  0  0  0  0
 19 24  1  0  0  0  0
 20 24  1  0  0  0  0
 21 22  1  0  0  0  0
 21 25  1  0  0  0  0
 22 30  1  0  0  0  0
 23 25  1  0  0  0  0
 23 31  1  0  0  0  0
 24 26  1  0  0  0  0
 26 37  1  0  0  0  0
 27 35  1  0  0  0  0
 27 36  1  0  0  0  0
 31 37  1  1  0  0  0
 33 37  2  0  0  0  0
 34 37  2  0  0  0  0
  2 39  1  0  0  0  0
  3 40  1  0  0  0  0
  4 41  1  0  0  0  0
  5 42  1  0  0  0  0
  6 43  1  0  0  0  0
  7 44  1  0  0  0  0
  8 45  1  0  0  0  0
  9 46  1  0  0  0  0
 18 47  1  0  0  0  0
 18 48  1  0  0  0  0
 19 49  1  0  0  0  0
 19 50  1  0  0  0  0
 20 51  1  0  0  0  0
 20 52  1  0  0  0  0
 21 53  1  0  0  0  0
 21 54  1  0  0  0  0
 22 55  1  0  0  0  0
 22 56  1  0  0  0  0
 23 57  1  0  0  0  0
 23 58  1  0  0  0  0
 26 59  1  0  0  0  0
 26 60  1  0  0  0  0
 27 61  1  0  0  0  0
M  END
> <compound>
EDJ-MED-5cd3920d-2

> <compound_smiles>
c1cc2cncc(c2cc1C(F)F)N3CCC4(C3=O)CN(Cc5c4cc(cc5)Cl)S(=O)(=O)CC6(CC6)C#N

> <enantiomer_smiles>
c1cc2cncc(c2cc1C(F)F)N3CCC4(C3=O)C[N@@](Cc5c4cc(cc5)Cl)S(=O)(=O)CC6(CC6)C#N

> <scaffold>
tetrahydroisoquinoline-5spiro-isoquinoline

> <clash_score>
0

> <docking_score>
-8.82772445678711

> <overlap_score>
0.9815337061882019

> <MMFF_internal_energy>
151.36127720319982

> <docked_smiles>
c1cc2cncc(c2cc1C(F)F)N3CC[C@@]4(C3=O)C[N@@](Cc5c4cc(cc5)Cl)S(=O)(=O)CC6(CC6)C#N

$$$$
MAT-POS-50a80394-3_3
  -OEChem-12272114583D

 67 72  0     1  0  0  0  0  0999 V2000
    7.3021    3.4444   22.7827 C   0  0  0  0  0  0  0  0  0  0  0  0
    3.3432    2.6279   20.4411 C   0  0  0  0  0  0  0  0  0  0  0  0
    3.8960    1.9291   21.5050 C   0  0  0  0  0  0  0  0  0  0  0  0
    3.7865    2.4205   19.1660 C   0  0  0  0  0  0  0  0  0  0  0  0
    4.8973    1.0233   21.2988 C   0  0  0  0  0  0  0  0  0  0  0  0
   12.0765    0.0316   24.1541 C   0  0  0  0  0  0  0  0  0  0  0  0
   12.9132   -0.6032   23.2569 C   0  0  0  0  0  0  0  0  0  0  0  0
   10.9991   -1.4331   22.0443 C   0  0  0  0  0  0  0  0  0  0  0  0
    5.3278    1.2339   17.6066 C   0  0  0  0  0  0  0  0  0  0  0  0
    6.8438   -0.2892   18.3752 C   0  0  0  0  0  0  0  0  0  0  0  0
    4.8226    1.4906   18.9054 C   0  0  0  0  0  0  0  0  0  0  0  0
    5.3982    0.7733   19.9948 C   0  0  0  0  0  0  0  0  0  0  0  0
   10.7040   -0.0625   23.9898 C   0  0  0  0  0  0  0  0  0  0  0  0
   10.1406   -0.7765   22.9250 C   0  0  0  0  0  0  0  0  0  0  0  0
    6.4440   -0.1472   19.6979 C   0  0  0  0  0  0  0  0  0  0  0  0
   12.3683   -1.3298   22.2234 C   0  0  0  0  0  0  0  0  0  0  0  0
    8.2490    0.0169   21.4271 C   0  0  0  0  0  0  0  0  0  0  0  0
    9.9479    0.5589   24.9534 C   0  0  0  0  0  0  0  0  0  0  0  0
    9.8076    3.2003   22.9200 C   0  0  0  0  0  0  0  0  0  0  0  0
    9.4994    4.6680   22.9571 C   0  0  0  0  0  0  0  0  0  0  0  0
    6.9866   -1.9366   21.3580 C   0  0  0  0  0  0  0  0  0  0  0  0
    7.8721   -0.1194   23.8831 C   0  0  0  0  0  0  0  0  0  0  0  0
    8.0140   -2.1541   22.4331 C   0  0  2  0  0  0  0  0  0  0  0  0
    8.5098    3.6789   23.5312 C   0  0  0  0  0  0  0  0  0  0  0  0
    8.6238   -0.7606   22.6929 C   0  0  3  0  0  0  0  0  0  0  0  0
    9.7124   -3.7801   23.3260 C   0  0  0  0  0  0  0  0  0  0  0  0
    8.2714   -4.4352   21.3771 C   0  0  0  0  0  0  0  0  0  0  0  0
    8.3630    3.6099   25.0348 C   0  0  0  0  0  0  0  0  0  0  0  0
    8.9909   -3.2809   22.0742 C   0  0  0  0  0  0  0  0  0  0  0  0
    6.3291    3.2555   22.1796 N   0  0  0  0  0  0  0  0  0  0  0  0
    6.3062    0.3769   17.3421 N   0  0  0  0  0  0  0  0  0  0  0  0
    7.2292   -0.6897   20.7790 N   0  0  0  0  0  0  0  0  0  0  0  0
    8.6609    1.0133   24.4995 N   0  0  2  0  0  0  0  0  0  0  0  0
    8.8282    1.0393   21.0751 O   0  0  0  0  0  0  0  0  0  0  0  0
    8.2270    1.7999   26.9143 O   0  0  0  0  0  0  0  0  0  0  0  0
    6.3738    1.9237   25.2009 O   0  0  0  0  0  0  0  0  0  0  0  0
    7.7723    2.0208   25.5587 S   0  0  0  0  0  0  0  0  0  0  0  0
   13.4274   -2.1434   21.1105 Cl  0  0  0  0  0  0  0  0  0  0  0  0
    2.5432    3.3510   20.6369 H   0  0  0  0  0  0  0  0  0  0  0  0
    3.5174    2.1137   22.5168 H   0  0  0  0  0  0  0  0  0  0  0  0
    3.3409    2.9743   18.3364 H   0  0  0  0  0  0  0  0  0  0  0  0
    5.3118    0.4895   22.1572 H   0  0  0  0  0  0  0  0  0  0  0  0
   12.5025    0.5963   24.9751 H   0  0  0  0  0  0  0  0  0  0  0  0
   13.9912   -0.5180   23.3793 H   0  0  0  0  0  0  0  0  0  0  0  0
   10.6049   -2.0193   21.2265 H   0  0  0  0  0  0  0  0  0  0  0  0
    4.9141    1.7511   16.7474 H   0  0  0  0  0  0  0  0  0  0  0  0
    7.6445   -0.9764   18.1043 H   0  0  0  0  0  0  0  0  0  0  0  0
    9.7848   -0.1184   25.8317 H   0  0  0  0  0  0  0  0  0  0  0  0
   10.4795    1.4567   25.3619 H   0  0  0  0  0  0  0  0  0  0  0  0
    9.7835    2.7064   21.9551 H   0  0  0  0  0  0  0  0  0  0  0  0
   10.5864    2.8332   23.5785 H   0  0  0  0  0  0  0  0  0  0  0  0
   10.0726    5.2843   23.6401 H   0  0  0  0  0  0  0  0  0  0  0  0
    9.2700    5.1562   22.0167 H   0  0  0  0  0  0  0  0  0  0  0  0
    7.0378   -2.7208   20.5626 H   0  0  0  0  0  0  0  0  0  0  0  0
    5.9498   -1.9850   21.7745 H   0  0  0  0  0  0  0  0  0  0  0  0
    6.8879    0.2595   23.5690 H   0  0  0  0  0  0  0  0  0  0  0  0
    7.6762   -0.8602   24.6766 H   0  0  0  0  0  0  0  0  0  0  0  0
    7.4776   -2.4981   23.3384 H   0  0  0  0  0  0  0  0  0  0  0  0
    9.0056   -4.1937   24.0536 H   0  0  0  0  0  0  0  0  0  0  0  0
   10.2577   -2.9634   23.8103 H   0  0  0  0  0  0  0  0  0  0  0  0
   10.4359   -4.5628   23.0743 H   0  0  0  0  0  0  0  0  0  0  0  0
    7.5057   -4.8755   22.0251 H   0  0  0  0  0  0  0  0  0  0  0  0
    8.9768   -5.2260   21.1006 H   0  0  0  0  0  0  0  0  0  0  0  0
    7.7811   -4.0891   20.4610 H   0  0  0  0  0  0  0  0  0  0  0  0
    7.6463    4.3542   25.3927 H   0  0  0  0  0  0  0  0  0  0  0  0
    9.3236    3.7761   25.5300 H   0  0  0  0  0  0  0  0  0  0  0  0
    9.7434   -2.8791   21.3828 H   0  0  0  0  0  0  0  0  0  0  0  0
  1 24  1  0  0  0  0
  1 30  3  0  0  0  0
  2  3  1  0  0  0  0
  2  4  2  0  0  0  0
  3  5  2  0  0  0  0
  4 11  1  0  0  0  0
  5 12  1  0  0  0  0
  6  7  1  0  0  0  0
  6 13  2  0  0  0  0
  7 16  2  0  0  0  0
  8 14  2  0  0  0  0
  8 16  1  0  0  0  0
  9 11  2  0  0  0  0
  9 31  1  0  0  0  0
 10 15  1  0  0  0  0
 10 31  2  0  0  0  0
 11 12  1  0  0  0  0
 12 15  2  0  0  0  0
 13 14  1  0  0  0  0
 13 18  1  0  0  0  0
 14 25  1  0  0  0  0
 15 32  1  0  0  0  0
 16 38  1  0  0  0  0
 17 25  1  0  0  0  0
 17 32  1  0  0  0  0
 17 34  2  0  0  0  0
 18 33  1  0  0  0  0
 19 20  1  0  0  0  0
 19 24  1  0  0  0  0
 20 24  1  0  0  0  0
 21 23  1  0  0  0  0
 21 32  1  0  0  0  0
 22 25  1  0  0  0  0
 22 33  1  0  0  0  0
 23 25  1  0  0  0  0
 23 29  1  1  0  0  0
 24 28  1  0  0  0  0
 26 29  1  0  0  0  0
 27 29  1  0  0  0  0
 28 37  1  0  0  0  0
 33 37  1  6  0  0  0
 35 37  2  0  0  0  0
 36 37  2  0  0  0  0
  2 39  1  0  0  0  0
  3 40  1  0  0  0  0
  4 41  1  0  0  0  0
  5 42  1  0  0  0  0
  6 43  1  0  0  0  0
  7 44  1  0  0  0  0
  8 45  1  0  0  0  0
  9 46  1  0  0  0  0
 10 47  1  0  0  0  0
 18 48  1  0  0  0  0
 18 49  1  0  0  0  0
 19 50  1  0  0  0  0
 19 51  1  0  0  0  0
 20 52  1  0  0  0  0
 20 53  1  0  0  0  0
 21 54  1  0  0  0  0
 21 55  1  0  0  0  0
 22 56  1  0  0  0  0
 22 57  1  0  0  0  0
 23 58  1  0  0  0  0
 26 59  1  0  0  0  0
 26 60  1  0  0  0  0
 26 61  1  0  0  0  0
 27 62  1  0  0  0  0
 27 63  1  0  0  0  0
 27 64  1  0  0  0  0
 28 65  1  0  0  0  0
 28 66  1  0  0  0  0
 29 67  1  0  0  0  0
M  END
> <compound>
MAT-POS-50a80394-3

> <compound_smiles>
CC(C)C1CN(C(=O)C12CN(Cc3c2cc(cc3)Cl)S(=O)(=O)CC4(CC4)C#N)c5cncc6c5cccc6

> <enantiomer_smiles>
CC(C)[C@@H]1CN(C(=O)C12C[N@](Cc3c2cc(cc3)Cl)S(=O)(=O)CC4(CC4)C#N)c5cncc6c5cccc6

> <scaffold>
tetrahydroisoquinoline-5spiro-isoquinoline

> <clash_score>
0.6945623972643696

> <docking_score>
-6.411795616149902

> <overlap_score>
0.9837579131126404

> <MMFF_internal_energy>
203.70791893304883

> <docked_smiles>
CC(C)[C@@H]1CN(C(=O)[C@@]12C[N@](Cc3c2cc(cc3)Cl)S(=O)(=O)CC4(CC4)C#N)c5cncc6c5cccc6

$$$$
MAT-POS-50a80394-3_4
  -OEChem-12272114583D

 67 72  0     1  0  0  0  0  0999 V2000
    7.2934    3.4695   22.8199 C   0  0  0  0  0  0  0  0  0  0  0  0
    3.3432    2.6279   20.4411 C   0  0  0  0  0  0  0  0  0  0  0  0
    3.8960    1.9291   21.5050 C   0  0  0  0  0  0  0  0  0  0  0  0
    3.7865    2.4205   19.1660 C   0  0  0  0  0  0  0  0  0  0  0  0
    4.8973    1.0233   21.2988 C   0  0  0  0  0  0  0  0  0  0  0  0
   12.0765    0.0316   24.1541 C   0  0  0  0  0  0  0  0  0  0  0  0
   12.9132   -0.6032   23.2569 C   0  0  0  0  0  0  0  0  0  0  0  0
   10.9991   -1.4331   22.0443 C   0  0  0  0  0  0  0  0  0  0  0  0
    5.3278    1.2339   17.6066 C   0  0  0  0  0  0  0  0  0  0  0  0
    6.8438   -0.2892   18.3752 C   0  0  0  0  0  0  0  0  0  0  0  0
    4.8226    1.4906   18.9054 C   0  0  0  0  0  0  0  0  0  0  0  0
    5.3982    0.7733   19.9948 C   0  0  0  0  0  0  0  0  0  0  0  0
   10.7040   -0.0625   23.9898 C   0  0  0  0  0  0  0  0  0  0  0  0
   10.1406   -0.7765   22.9250 C   0  0  0  0  0  0  0  0  0  0  0  0
    6.4440   -0.1472   19.6979 C   0  0  0  0  0  0  0  0  0  0  0  0
   12.3683   -1.3298   22.2234 C   0  0  0  0  0  0  0  0  0  0  0  0
    8.2490    0.0169   21.4271 C   0  0  0  0  0  0  0  0  0  0  0  0
    9.9479    0.5589   24.9534 C   0  0  0  0  0  0  0  0  0  0  0  0
    9.7994    3.2286   22.9513 C   0  0  0  0  0  0  0  0  0  0  0  0
    9.4883    4.6951   23.0087 C   0  0  0  0  0  0  0  0  0  0  0  0
    6.9866   -1.9366   21.3580 C   0  0  0  0  0  0  0  0  0  0  0  0
    7.8721   -0.1194   23.8831 C   0  0  0  0  0  0  0  0  0  0  0  0
    8.0140   -2.1541   22.4331 C   0  0  1  0  0  0  0  0  0  0  0  0
    8.5013    3.6962   23.5703 C   0  0  0  0  0  0  0  0  0  0  0  0
    8.6238   -0.7606   22.6929 C   0  0  3  0  0  0  0  0  0  0  0  0
    6.8630   -4.2469   23.2636 C   0  0  0  0  0  0  0  0  0  0  0  0
    8.5042   -3.0435   24.7339 C   0  0  0  0  0  0  0  0  0  0  0  0
    8.3562    3.6065   25.0730 C   0  0  0  0  0  0  0  0  0  0  0  0
    7.4346   -2.8843   23.6541 C   0  0  0  0  0  0  0  0  0  0  0  0
    6.3201    3.2868   22.2153 N   0  0  0  0  0  0  0  0  0  0  0  0
    6.3062    0.3769   17.3421 N   0  0  0  0  0  0  0  0  0  0  0  0
    7.2292   -0.6897   20.7790 N   0  0  0  0  0  0  0  0  0  0  0  0
    8.6609    1.0133   24.4995 N   0  0  2  0  0  0  0  0  0  0  0  0
    8.7548    1.0947   21.1285 O   0  0  0  0  0  0  0  0  0  0  0  0
    8.2293    1.7690   26.9262 O   0  0  0  0  0  0  0  0  0  0  0  0
    6.3700    1.9152   25.2212 O   0  0  0  0  0  0  0  0  0  0  0  0
    7.7693    2.0094   25.5758 S   0  0  0  0  0  0  0  0  0  0  0  0
   13.4294   -2.1351   21.1073 Cl  0  0  0  0  0  0  0  0  0  0  0  0
    2.5432    3.3510   20.6369 H   0  0  0  0  0  0  0  0  0  0  0  0
    3.5174    2.1137   22.5168 H   0  0  0  0  0  0  0  0  0  0  0  0
    3.3409    2.9743   18.3364 H   0  0  0  0  0  0  0  0  0  0  0  0
    5.3118    0.4895   22.1572 H   0  0  0  0  0  0  0  0  0  0  0  0
   12.5038    0.6047   24.9687 H   0  0  0  0  0  0  0  0  0  0  0  0
   13.9917   -0.5071   23.3722 H   0  0  0  0  0  0  0  0  0  0  0  0
   10.6206   -2.0052   21.2139 H   0  0  0  0  0  0  0  0  0  0  0  0
    4.9141    1.7511   16.7474 H   0  0  0  0  0  0  0  0  0  0  0  0
    7.6445   -0.9764   18.1043 H   0  0  0  0  0  0  0  0  0  0  0  0
    9.7895   -0.1145   25.8388 H   0  0  0  0  0  0  0  0  0  0  0  0
   10.4796    1.4599   25.3606 H   0  0  0  0  0  0  0  0  0  0  0  0
    9.7753    2.7479   21.9799 H   0  0  0  0  0  0  0  0  0  0  0  0
   10.5797    2.8543   23.6040 H   0  0  0  0  0  0  0  0  0  0  0  0
   10.0609    5.3033   23.6994 H   0  0  0  0  0  0  0  0  0  0  0  0
    9.2569    5.1955   22.0752 H   0  0  0  0  0  0  0  0  0  0  0  0
    7.0304   -2.7474   20.5869 H   0  0  0  0  0  0  0  0  0  0  0  0
    5.9424   -1.9535   21.7612 H   0  0  0  0  0  0  0  0  0  0  0  0
    6.8920    0.2795   23.5685 H   0  0  0  0  0  0  0  0  0  0  0  0
    7.6771   -0.8498   24.6885 H   0  0  0  0  0  0  0  0  0  0  0  0
    8.7685   -2.8428   22.0112 H   0  0  0  0  0  0  0  0  0  0  0  0
    7.6380   -4.8977   22.8441 H   0  0  0  0  0  0  0  0  0  0  0  0
    6.0726   -4.1352   22.5140 H   0  0  0  0  0  0  0  0  0  0  0  0
    6.4304   -4.7527   24.1333 H   0  0  0  0  0  0  0  0  0  0  0  0
    9.3459   -3.6453   24.3743 H   0  0  0  0  0  0  0  0  0  0  0  0
    8.0925   -3.5337   25.6225 H   0  0  0  0  0  0  0  0  0  0  0  0
    8.8933   -2.0668   25.0408 H   0  0  0  0  0  0  0  0  0  0  0  0
    7.6384    4.3445   25.4416 H   0  0  0  0  0  0  0  0  0  0  0  0
    9.3170    3.7680   25.5693 H   0  0  0  0  0  0  0  0  0  0  0  0
    6.6191   -2.2760   24.0665 H   0  0  0  0  0  0  0  0  0  0  0  0
  1 24  1  0  0  0  0
  1 30  3  0  0  0  0
  2  3  1  0  0  0  0
  2  4  2  0  0  0  0
  3  5  2  0  0  0  0
  4 11  1  0  0  0  0
  5 12  1  0  0  0  0
  6  7  1  0  0  0  0
  6 13  2  0  0  0  0
  7 16  2  0  0  0  0
  8 14  2  0  0  0  0
  8 16  1  0  0  0  0
  9 11  2  0  0  0  0
  9 31  1  0  0  0  0
 10 15  1  0  0  0  0
 10 31  2  0  0  0  0
 11 12  1  0  0  0  0
 12 15  2  0  0  0  0
 13 14  1  0  0  0  0
 13 18  1  0  0  0  0
 14 25  1  0  0  0  0
 15 32  1  0  0  0  0
 16 38  1  0  0  0  0
 17 25  1  0  0  0  0
 17 32  1  0  0  0  0
 17 34  2  0  0  0  0
 18 33  1  0  0  0  0
 19 20  1  0  0  0  0
 19 24  1  0  0  0  0
 20 24  1  0  0  0  0
 21 23  1  0  0  0  0
 21 32  1  0  0  0  0
 22 25  1  0  0  0  0
 22 33  1  0  0  0  0
 23 25  1  0  0  0  0
 23 29  1  6  0  0  0
 24 28  1  0  0  0  0
 26 29  1  0  0  0  0
 27 29  1  0  0  0  0
 28 37  1  0  0  0  0
 33 37  1  6  0  0  0
 35 37  2  0  0  0  0
 36 37  2  0  0  0  0
  2 39  1  0  0  0  0
  3 40  1  0  0  0  0
  4 41  1  0  0  0  0
  5 42  1  0  0  0  0
  6 43  1  0  0  0  0
  7 44  1  0  0  0  0
  8 45  1  0  0  0  0
  9 46  1  0  0  0  0
 10 47  1  0  0  0  0
 18 48  1  0  0  0  0
 18 49  1  0  0  0  0
 19 50  1  0  0  0  0
 19 51  1  0  0  0  0
 20 52  1  0  0  0  0
 20 53  1  0  0  0  0
 21 54  1  0  0  0  0
 21 55  1  0  0  0  0
 22 56  1  0  0  0  0
 22 57  1  0  0  0  0
 23 58  1  0  0  0  0
 26 59  1  0  0  0  0
 26 60  1  0  0  0  0
 26 61  1  0  0  0  0
 27 62  1  0  0  0  0
 27 63  1  0  0  0  0
 27 64  1  0  0  0  0
 28 65  1  0  0  0  0
 28 66  1  0  0  0  0
 29 67  1  0  0  0  0
M  END
> <compound>
MAT-POS-50a80394-3

> <compound_smiles>
CC(C)C1CN(C(=O)C12CN(Cc3c2cc(cc3)Cl)S(=O)(=O)CC4(CC4)C#N)c5cncc6c5cccc6

> <enantiomer_smiles>
CC(C)[C@H]1CN(C(=O)C12C[N@](Cc3c2cc(cc3)Cl)S(=O)(=O)CC4(CC4)C#N)c5cncc6c5cccc6

> <scaffold>
tetrahydroisoquinoline-5spiro-isoquinoline

> <clash_score>
0

> <docking_score>
-9.529420852661133

> <overlap_score>
0.982632577419281

> <MMFF_internal_energy>
139.43911135928195

> <docked_smiles>
CC(C)[C@H]1CN(C(=O)[C@@]12C[N@](Cc3c2cc(cc3)Cl)S(=O)(=O)CC4(CC4)C#N)c5cncc6c5cccc6

$$$$
EDJ-MED-5cd3920d-2_2
  -OEChem-12272114583D

 61 66  0     1  0  0  0  0  0999 V2000
    7.3205    3.4054   22.7658 C   0  0  0  0  0  0  0  0  0  0  0  0
    3.7865    2.4205   19.1660 C   0  0  0  0  0  0  0  0  0  0  0  0
   12.0765    0.0316   24.1541 C   0  0  0  0  0  0  0  0  0  0  0  0
    3.3432    2.6279   20.4411 C   0  0  0  0  0  0  0  0  0  0  0  0
   12.9132   -0.6032   23.2569 C   0  0  0  0  0  0  0  0  0  0  0  0
    4.8973    1.0233   21.2988 C   0  0  0  0  0  0  0  0  0  0  0  0
   10.9991   -1.4331   22.0443 C   0  0  0  0  0  0  0  0  0  0  0  0
    5.3278    1.2339   17.6066 C   0  0  0  0  0  0  0  0  0  0  0  0
    6.8438   -0.2892   18.3752 C   0  0  0  0  0  0  0  0  0  0  0  0
    4.8226    1.4906   18.9054 C   0  0  0  0  0  0  0  0  0  0  0  0
    5.3982    0.7733   19.9948 C   0  0  0  0  0  0  0  0  0  0  0  0
   10.7040   -0.0625   23.9898 C   0  0  0  0  0  0  0  0  0  0  0  0
   10.1406   -0.7765   22.9250 C   0  0  0  0  0  0  0  0  0  0  0  0
    3.8960    1.9291   21.5050 C   0  0  0  0  0  0  0  0  0  0  0  0
    6.4440   -0.1472   19.6979 C   0  0  0  0  0  0  0  0  0  0  0  0
   12.3683   -1.3298   22.2234 C   0  0  0  0  0  0  0  0  0  0  0  0
    8.2490    0.0169   21.4271 C   0  0  0  0  0  0  0  0  0  0  0  0
    9.9479    0.5589   24.9534 C   0  0  0  0  0  0  0  0  0  0  0  0
    9.8217    3.1213   22.9038 C   0  0  0  0  0  0  0  0  0  0  0  0
    9.5383    4.5944   22.9183 C   0  0  0  0  0  0  0  0  0  0  0  0
    8.0140   -2.1541   22.4331 C   0  0  0  0  0  0  0  0  0  0  0  0
    6.9866   -1.9366   21.3580 C   0  0  0  0  0  0  0  0  0  0  0  0
    7.8721   -0.1194   23.8831 C   0  0  0  0  0  0  0  0  0  0  0  0
    8.5331    3.6312   23.5091 C   0  0  0  0  0  0  0  0  0  0  0  0
    8.6238   -0.7606   22.6929 C   0  0  3  0  0  0  0  0  0  0  0  0
    8.3874    3.5882   25.0137 C   0  0  0  0  0  0  0  0  0  0  0  0
    3.3796    2.1809   22.8922 C   0  0  0  0  0  0  0  0  0  0  0  0
    6.3436    3.2234   22.1669 N   0  0  0  0  0  0  0  0  0  0  0  0
    6.3062    0.3769   17.3421 N   0  0  0  0  0  0  0  0  0  0  0  0
    7.2292   -0.6897   20.7790 N   0  0  0  0  0  0  0  0  0  0  0  0
    8.6609    1.0133   24.4995 N   0  0  2  0  0  0  0  0  0  0  0  0
    8.8299    1.0397   21.0799 O   0  0  0  0  0  0  0  0  0  0  0  0
    8.2407    1.8013   26.9144 O   0  0  0  0  0  0  0  0  0  0  0  0
    6.3653    1.9471   25.2271 O   0  0  0  0  0  0  0  0  0  0  0  0
    3.4793    1.0591   23.6525 F   0  0  0  0  0  0  0  0  0  0  0  0
    2.0630    2.5165   22.8714 F   0  0  0  0  0  0  0  0  0  0  0  0
    7.7708    2.0177   25.5632 S   0  0  0  0  0  0  0  0  0  0  0  0
   13.4272   -2.1411   21.1086 Cl  0  0  0  0  0  0  0  0  0  0  0  0
    3.3419    2.9747   18.3362 H   0  0  0  0  0  0  0  0  0  0  0  0
   12.5024    0.5995   24.9735 H   0  0  0  0  0  0  0  0  0  0  0  0
    2.5411    3.3529   20.6267 H   0  0  0  0  0  0  0  0  0  0  0  0
   13.9910   -0.5177   23.3793 H   0  0  0  0  0  0  0  0  0  0  0  0
    5.3175    0.4836   22.1518 H   0  0  0  0  0  0  0  0  0  0  0  0
   10.6036   -2.0162   21.2241 H   0  0  0  0  0  0  0  0  0  0  0  0
    4.9134    1.7510   16.7475 H   0  0  0  0  0  0  0  0  0  0  0  0
    7.6450   -0.9758   18.1044 H   0  0  0  0  0  0  0  0  0  0  0  0
    9.7849   -0.1194   25.8306 H   0  0  0  0  0  0  0  0  0  0  0  0
   10.4793    1.4568   25.3613 H   0  0  0  0  0  0  0  0  0  0  0  0
    9.7878    2.6129   21.9468 H   0  0  0  0  0  0  0  0  0  0  0  0
   10.5952    2.7515   23.5670 H   0  0  0  0  0  0  0  0  0  0  0  0
   10.1228    5.2116   23.5908 H   0  0  0  0  0  0  0  0  0  0  0  0
    9.3157    5.0716   21.9707 H   0  0  0  0  0  0  0  0  0  0  0  0
    7.5152   -2.5456   23.3338 H   0  0  0  0  0  0  0  0  0  0  0  0
    8.7649   -2.9030   22.1434 H   0  0  0  0  0  0  0  0  0  0  0  0
    7.0587   -2.7248   20.5721 H   0  0  0  0  0  0  0  0  0  0  0  0
    5.9518   -1.9952   21.7720 H   0  0  0  0  0  0  0  0  0  0  0  0
    6.8867    0.2641   23.5642 H   0  0  0  0  0  0  0  0  0  0  0  0
    7.6652   -0.8660   24.6733 H   0  0  0  0  0  0  0  0  0  0  0  0
    7.6838    4.3500   25.3607 H   0  0  0  0  0  0  0  0  0  0  0  0
    9.3513    3.7460   25.5050 H   0  0  0  0  0  0  0  0  0  0  0  0
    3.9227    2.9805   23.3993 H   0  0  0  0  0  0  0  0  0  0  0  0
  1 24  1  0  0  0  0
  1 28  3  0  0  0  0
  2  4  1  0  0  0  0
  2 10  2  0  0  0  0
  3  5  1  0  0  0  0
  3 12  2  0  0  0  0
  4 14  2  0  0  0  0
  5 16  2  0  0  0  0
  6 11  2  0  0  0  0
  6 14  1  0  0  0  0
  7 13  2  0  0  0  0
  7 16  1  0  0  0  0
  8 10  1  0  0  0  0
  8 29  2  0  0  0  0
  9 15  2  0  0  0  0
  9 29  1  0  0  0  0
 10 11  1  0  0  0  0
 11 15  1  0  0  0  0
 12 13  1  0  0  0  0
 12 18  1  0  0  0  0
 13 25  1  0  0  0  0
 14 27  1  0  0  0  0
 15 30  1  0  0  0  0
 16 38  1  0  0  0  0
 17 25  1  0  0  0  0
 17 30  1  0  0  0  0
 17 32  2  0  0  0  0
 18 31  1  0  0  0  0
 19 20  1  0  0  0  0
 19 24  1  0  0  0  0
 20 24  1  0  0  0  0
 21 22  1  0  0  0  0
 21 25  1  0  0  0  0
 22 30  1  0  0  0  0
 23 25  1  0  0  0  0
 23 31  1  0  0  0  0
 24 26  1  0  0  0  0
 26 37  1  0  0  0  0
 27 35  1  0  0  0  0
 27 36  1  0  0  0  0
 31 37  1  6  0  0  0
 33 37  2  0  0  0  0
 34 37  2  0  0  0  0
  2 39  1  0  0  0  0
  3 40  1  0  0  0  0
  4 41  1  0  0  0  0
  5 42  1  0  0  0  0
  6 43  1  0  0  0  0
  7 44  1  0  0  0  0
  8 45  1  0  0  0  0
  9 46  1  0  0  0  0
 18 47  1  0  0  0  0
 18 48  1  0  0  0  0
 19 49  1  0  0  0  0
 19 50  1  0  0  0  0
 20 51  1  0  0  0  0
 20 52  1  0  0  0  0
 21 53  1  0  0  0  0
 21 54  1  0  0  0  0
 22 55  1  0  0  0  0
 22 56  1  0  0  0  0
 23 57  1  0  0  0  0
 23 58  1  0  0  0  0
 26 59  1  0  0  0  0
 26 60  1  0  0  0  0
 27 61  1  0  0  0  0
M  END
> <compound>
EDJ-MED-5cd3920d-2

> <compound_smiles>
c1cc2cncc(c2cc1C(F)F)N3CCC4(C3=O)CN(Cc5c4cc(cc5)Cl)S(=O)(=O)CC6(CC6)C#N

> <enantiomer_smiles>
c1cc2cncc(c2cc1C(F)F)N3CCC4(C3=O)C[N@](Cc5c4cc(cc5)Cl)S(=O)(=O)CC6(CC6)C#N

> <scaffold>
tetrahydroisoquinoline-5spiro-isoquinoline

> <clash_score>
0

> <docking_score>
-8.423074722290039

> <overlap_score>
0.9826592206954956

> <MMFF_internal_energy>
134.84621690906872

> <docked_smiles>
c1cc2cncc(c2cc1C(F)F)N3CC[C@@]4(C3=O)C[N@](Cc5c4cc(cc5)Cl)S(=O)(=O)CC6(CC6)C#N

$$$$
MAT-POS-853c0ffa-16_1
  -OEChem-12272114583D

 67 72  0     1  0  0  0  0  0999 V2000
    4.8973    1.0233   21.2988 C   0  0  0  0  0  0  0  0  0  0  0  0
   12.0765    0.0316   24.1541 C   0  0  0  0  0  0  0  0  0  0  0  0
    3.8960    1.9291   21.5050 C   0  0  0  0  0  0  0  0  0  0  0  0
   12.9132   -0.6032   23.2569 C   0  0  0  0  0  0  0  0  0  0  0  0
    3.7865    2.4205   19.1660 C   0  0  0  0  0  0  0  0  0  0  0  0
   10.9991   -1.4331   22.0443 C   0  0  0  0  0  0  0  0  0  0  0  0
    5.3278    1.2339   17.6066 C   0  0  0  0  0  0  0  0  0  0  0  0
    6.8438   -0.2892   18.3752 C   0  0  0  0  0  0  0  0  0  0  0  0
    5.3982    0.7733   19.9948 C   0  0  0  0  0  0  0  0  0  0  0  0
    4.8226    1.4906   18.9054 C   0  0  0  0  0  0  0  0  0  0  0  0
   10.7040   -0.0625   23.9898 C   0  0  0  0  0  0  0  0  0  0  0  0
   10.1406   -0.7765   22.9250 C   0  0  0  0  0  0  0  0  0  0  0  0
    6.4440   -0.1472   19.6979 C   0  0  0  0  0  0  0  0  0  0  0  0
    3.3432    2.6279   20.4411 C   0  0  0  0  0  0  0  0  0  0  0  0
   12.3683   -1.3298   22.2234 C   0  0  0  0  0  0  0  0  0  0  0  0
    8.2490    0.0169   21.4271 C   0  0  0  0  0  0  0  0  0  0  0  0
    9.9479    0.5589   24.9534 C   0  0  0  0  0  0  0  0  0  0  0  0
    8.5717    6.1499   25.5025 C   0  0  0  0  0  0  0  0  0  0  0  0
    9.5725    5.8605   24.4183 C   0  0  0  0  0  0  0  0  0  0  0  0
    8.0140   -2.1541   22.4331 C   0  0  0  0  0  0  0  0  0  0  0  0
    6.9866   -1.9366   21.3580 C   0  0  0  0  0  0  0  0  0  0  0  0
    7.8721   -0.1194   23.8831 C   0  0  0  0  0  0  0  0  0  0  0  0
    8.6238   -0.7606   22.6929 C   0  0  3  0  0  0  0  0  0  0  0  0
    8.3214    5.0316   24.5273 C   0  0  0  0  0  0  0  0  0  0  0  0
    6.0159    5.0756   24.0742 C   0  0  0  0  0  0  0  0  0  0  0  0
    0.5685    2.8306   20.6203 C   0  0  0  0  0  0  0  0  0  0  0  0
    8.3989    3.5932   24.9882 C   0  0  0  0  0  0  0  0  0  0  0  0
    6.3062    0.3769   17.3421 N   0  0  0  0  0  0  0  0  0  0  0  0
    7.2292   -0.6897   20.7790 N   0  0  0  0  0  0  0  0  0  0  0  0
    8.6609    1.0133   24.4995 N   0  0  2  0  0  0  0  0  0  0  0  0
    8.7572    1.0941   21.1350 O   0  0  0  0  0  0  0  0  0  0  0  0
    2.1867    4.2374   22.1293 O   0  0  0  0  0  0  0  0  0  0  0  0
    2.0337    4.7660   19.6710 O   0  0  0  0  0  0  0  0  0  0  0  0
    7.4179    2.5201   22.8172 O   0  0  0  0  0  0  0  0  0  0  0  0
    9.9251    2.7322   23.0499 O   0  0  0  0  0  0  0  0  0  0  0  0
    7.3097    5.2755   23.5361 O   0  0  0  0  0  0  0  0  0  0  0  0
    2.0618    3.7881   20.7501 S   0  0  0  0  0  0  0  0  0  0  0  0
    8.6198    2.4832   23.6217 S   0  0  0  0  0  0  0  0  0  0  0  0
   13.4275   -2.1421   21.1097 Cl  0  0  0  0  0  0  0  0  0  0  0  0
    5.3114    0.4892   22.1572 H   0  0  0  0  0  0  0  0  0  0  0  0
   12.5015    0.5938   24.9776 H   0  0  0  0  0  0  0  0  0  0  0  0
    3.5259    2.1069   22.5217 H   0  0  0  0  0  0  0  0  0  0  0  0
   13.9911   -0.5212   23.3814 H   0  0  0  0  0  0  0  0  0  0  0  0
    3.3486    2.9706   18.3290 H   0  0  0  0  0  0  0  0  0  0  0  0
   10.6037   -2.0228   21.2288 H   0  0  0  0  0  0  0  0  0  0  0  0
    4.9146    1.7518   16.7474 H   0  0  0  0  0  0  0  0  0  0  0  0
    7.6451   -0.9755   18.1042 H   0  0  0  0  0  0  0  0  0  0  0  0
    9.7581   -0.1287   25.8173 H   0  0  0  0  0  0  0  0  0  0  0  0
   10.4931    1.4391   25.3829 H   0  0  0  0  0  0  0  0  0  0  0  0
    8.8470    5.8986   26.5197 H   0  0  0  0  0  0  0  0  0  0  0  0
    7.9782    7.0516   25.4117 H   0  0  0  0  0  0  0  0  0  0  0  0
    9.6492    6.5687   23.6018 H   0  0  0  0  0  0  0  0  0  0  0  0
   10.5156    5.4155   24.7115 H   0  0  0  0  0  0  0  0  0  0  0  0
    7.5801   -2.6060   23.3366 H   0  0  0  0  0  0  0  0  0  0  0  0
    8.7749   -2.8608   22.0657 H   0  0  0  0  0  0  0  0  0  0  0  0
    7.0227   -2.7506   20.5953 H   0  0  0  0  0  0  0  0  0  0  0  0
    5.9554   -1.9484   21.7832 H   0  0  0  0  0  0  0  0  0  0  0  0
    6.8886    0.2769   23.5666 H   0  0  0  0  0  0  0  0  0  0  0  0
    7.6579   -0.8710   24.6633 H   0  0  0  0  0  0  0  0  0  0  0  0
    5.2660    5.2669   23.3027 H   0  0  0  0  0  0  0  0  0  0  0  0
    5.8639    5.7505   24.9203 H   0  0  0  0  0  0  0  0  0  0  0  0
    5.9287    4.0414   24.4154 H   0  0  0  0  0  0  0  0  0  0  0  0
   -0.2808    3.4905   20.8042 H   0  0  0  0  0  0  0  0  0  0  0  0
    0.5154    2.4100   19.6150 H   0  0  0  0  0  0  0  0  0  0  0  0
    0.6035    2.0354   21.3665 H   0  0  0  0  0  0  0  0  0  0  0  0
    7.4792    3.2960   25.4995 H   0  0  0  0  0  0  0  0  0  0  0  0
    9.2447    3.4440   25.6648 H   0  0  0  0  0  0  0  0  0  0  0  0
  1  3  2  0  0  0  0
  1  9  1  0  0  0  0
  2  4  2  0  0  0  0
  2 11  1  0  0  0  0
  3 14  1  0  0  0  0
  4 15  1  0  0  0  0
  5 10  1  0  0  0  0
  5 14  2  0  0  0  0
  6 12  1  0  0  0  0
  6 15  2  0  0  0  0
  7 10  2  0  0  0  0
  7 28  1  0  0  0  0
  8 13  1  0  0  0  0
  8 28  2  0  0  0  0
  9 10  1  0  0  0  0
  9 13  2  0  0  0  0
 11 12  2  0  0  0  0
 11 17  1  0  0  0  0
 12 23  1  0  0  0  0
 13 29  1  0  0  0  0
 14 37  1  0  0  0  0
 15 39  1  0  0  0  0
 16 23  1  0  0  0  0
 16 29  1  0  0  0  0
 16 31  2  0  0  0  0
 17 30  1  0  0  0  0
 18 19  1  0  0  0  0
 18 24  1  0  0  0  0
 19 24  1  0  0  0  0
 20 21  1  0  0  0  0
 20 23  1  0  0  0  0
 21 29  1  0  0  0  0
 22 23  1  0  0  0  0
 22 30  1  0  0  0  0
 24 27  1  0  0  0  0
 24 36  1  0  0  0  0
 25 36  1  0  0  0  0
 26 37  1  0  0  0  0
 27 38  1  0  0  0  0
 30 38  1  1  0  0  0
 32 37  2  0  0  0  0
 33 37  2  0  0  0  0
 34 38  2  0  0  0  0
 35 38  2  0  0  0  0
  1 40  1  0  0  0  0
  2 41  1  0  0  0  0
  3 42  1  0  0  0  0
  4 43  1  0  0  0  0
  5 44  1  0  0  0  0
  6 45  1  0  0  0  0
  7 46  1  0  0  0  0
  8 47  1  0  0  0  0
 17 48  1  0  0  0  0
 17 49  1  0  0  0  0
 18 50  1  0  0  0  0
 18 51  1  0  0  0  0
 19 52  1  0  0  0  0
 19 53  1  0  0  0  0
 20 54  1  0  0  0  0
 20 55  1  0  0  0  0
 21 56  1  0  0  0  0
 21 57  1  0  0  0  0
 22 58  1  0  0  0  0
 22 59  1  0  0  0  0
 25 60  1  0  0  0  0
 25 61  1  0  0  0  0
 25 62  1  0  0  0  0
 26 63  1  0  0  0  0
 26 64  1  0  0  0  0
 26 65  1  0  0  0  0
 27 66  1  0  0  0  0
 27 67  1  0  0  0  0
M  END
> <compound>
MAT-POS-853c0ffa-16

> <compound_smiles>
COC1(CC1)CS(=O)(=O)N2Cc3ccc(cc3C4(C2)CCN(C4=O)c5cncc6c5ccc(c6)S(=O)(=O)C)Cl

> <enantiomer_smiles>
COC1(CC1)CS(=O)(=O)[N@@]2Cc3ccc(cc3C4(C2)CCN(C4=O)c5cncc6c5ccc(c6)S(=O)(=O)C)Cl

> <scaffold>
tetrahydroisoquinoline-5spiro-isoquinoline

> <clash_score>
0

> <docking_score>
-8.925735473632812

> <overlap_score>
0.9774367213249207

> <MMFF_internal_energy>
161.30618253952832

> <docked_smiles>
COC1(CC1)CS(=O)(=O)[N@@]2Cc3ccc(cc3[C@]4(C2)CCN(C4=O)c5cncc6c5ccc(c6)S(=O)(=O)C)Cl

$$$$
MAT-POS-853c0ffa-15_1
  -OEChem-12272114583D

 64 69  0     1  0  0  0  0  0999 V2000
    9.9899    5.1222   23.8236 C   0  0  0  0  0  0  0  0  0  0  0  0
    4.8973    1.0233   21.2988 C   0  0  0  0  0  0  0  0  0  0  0  0
   12.0765    0.0316   24.1541 C   0  0  0  0  0  0  0  0  0  0  0  0
    3.8960    1.9291   21.5050 C   0  0  0  0  0  0  0  0  0  0  0  0
   12.9132   -0.6032   23.2569 C   0  0  0  0  0  0  0  0  0  0  0  0
    3.7865    2.4205   19.1660 C   0  0  0  0  0  0  0  0  0  0  0  0
   10.9991   -1.4331   22.0443 C   0  0  0  0  0  0  0  0  0  0  0  0
    5.3278    1.2339   17.6066 C   0  0  0  0  0  0  0  0  0  0  0  0
    6.8438   -0.2892   18.3752 C   0  0  0  0  0  0  0  0  0  0  0  0
    5.3982    0.7733   19.9948 C   0  0  0  0  0  0  0  0  0  0  0  0
    4.8226    1.4906   18.9054 C   0  0  0  0  0  0  0  0  0  0  0  0
   10.7040   -0.0625   23.9898 C   0  0  0  0  0  0  0  0  0  0  0  0
   10.1406   -0.7765   22.9250 C   0  0  0  0  0  0  0  0  0  0  0  0
    6.4440   -0.1472   19.6979 C   0  0  0  0  0  0  0  0  0  0  0  0
    3.3432    2.6279   20.4411 C   0  0  0  0  0  0  0  0  0  0  0  0
   12.3683   -1.3298   22.2234 C   0  0  0  0  0  0  0  0  0  0  0  0
    8.2490    0.0169   21.4271 C   0  0  0  0  0  0  0  0  0  0  0  0
    9.9479    0.5589   24.9534 C   0  0  0  0  0  0  0  0  0  0  0  0
    8.5324    6.1021   25.6323 C   0  0  0  0  0  0  0  0  0  0  0  0
    7.7014    6.0179   24.3861 C   0  0  0  0  0  0  0  0  0  0  0  0
    8.0140   -2.1541   22.4331 C   0  0  0  0  0  0  0  0  0  0  0  0
    6.9866   -1.9366   21.3580 C   0  0  0  0  0  0  0  0  0  0  0  0
    7.8721   -0.1194   23.8831 C   0  0  0  0  0  0  0  0  0  0  0  0
    8.7994    5.0058   24.6255 C   0  0  0  0  0  0  0  0  0  0  0  0
    8.6238   -0.7606   22.6929 C   0  0  3  0  0  0  0  0  0  0  0  0
    0.5685    2.8306   20.6203 C   0  0  0  0  0  0  0  0  0  0  0  0
    8.3989    3.5932   24.9882 C   0  0  0  0  0  0  0  0  0  0  0  0
   10.9490    5.2161   23.1776 N   0  0  0  0  0  0  0  0  0  0  0  0
    6.3062    0.3769   17.3421 N   0  0  0  0  0  0  0  0  0  0  0  0
    7.2292   -0.6897   20.7790 N   0  0  0  0  0  0  0  0  0  0  0  0
    8.6609    1.0133   24.4995 N   0  0  1  0  0  0  0  0  0  0  0  0
    8.7572    1.0941   21.1350 O   0  0  0  0  0  0  0  0  0  0  0  0
    2.1867    4.2374   22.1293 O   0  0  0  0  0  0  0  0  0  0  0  0
    2.0337    4.7660   19.6710 O   0  0  0  0  0  0  0  0  0  0  0  0
    7.4179    2.5201   22.8172 O   0  0  0  0  0  0  0  0  0  0  0  0
    9.9251    2.7322   23.0499 O   0  0  0  0  0  0  0  0  0  0  0  0
    2.0618    3.7881   20.7501 S   0  0  0  0  0  0  0  0  0  0  0  0
    8.6198    2.4832   23.6217 S   0  0  0  0  0  0  0  0  0  0  0  0
   13.4275   -2.1421   21.1097 Cl  0  0  0  0  0  0  0  0  0  0  0  0
    5.3114    0.4892   22.1572 H   0  0  0  0  0  0  0  0  0  0  0  0
   12.5015    0.5938   24.9776 H   0  0  0  0  0  0  0  0  0  0  0  0
    3.5259    2.1069   22.5217 H   0  0  0  0  0  0  0  0  0  0  0  0
   13.9911   -0.5212   23.3814 H   0  0  0  0  0  0  0  0  0  0  0  0
    3.3486    2.9706   18.3290 H   0  0  0  0  0  0  0  0  0  0  0  0
   10.6037   -2.0228   21.2288 H   0  0  0  0  0  0  0  0  0  0  0  0
    4.9146    1.7518   16.7474 H   0  0  0  0  0  0  0  0  0  0  0  0
    7.6451   -0.9755   18.1042 H   0  0  0  0  0  0  0  0  0  0  0  0
    9.7581   -0.1287   25.8173 H   0  0  0  0  0  0  0  0  0  0  0  0
   10.4931    1.4391   25.3829 H   0  0  0  0  0  0  0  0  0  0  0  0
    9.2347    6.9241   25.7129 H   0  0  0  0  0  0  0  0  0  0  0  0
    8.0587    5.8395   26.5712 H   0  0  0  0  0  0  0  0  0  0  0  0
    6.6706    5.6996   24.4905 H   0  0  0  0  0  0  0  0  0  0  0  0
    7.8473    6.7843   23.6333 H   0  0  0  0  0  0  0  0  0  0  0  0
    7.5801   -2.6060   23.3366 H   0  0  0  0  0  0  0  0  0  0  0  0
    8.7749   -2.8608   22.0657 H   0  0  0  0  0  0  0  0  0  0  0  0
    7.0227   -2.7506   20.5953 H   0  0  0  0  0  0  0  0  0  0  0  0
    5.9554   -1.9484   21.7832 H   0  0  0  0  0  0  0  0  0  0  0  0
    6.8886    0.2769   23.5666 H   0  0  0  0  0  0  0  0  0  0  0  0
    7.6579   -0.8710   24.6633 H   0  0  0  0  0  0  0  0  0  0  0  0
   -0.2808    3.4905   20.8042 H   0  0  0  0  0  0  0  0  0  0  0  0
    0.5154    2.4100   19.6150 H   0  0  0  0  0  0  0  0  0  0  0  0
    0.6035    2.0354   21.3665 H   0  0  0  0  0  0  0  0  0  0  0  0
    7.3445    3.5466   25.2742 H   0  0  0  0  0  0  0  0  0  0  0  0
    9.0072    3.2136   25.8136 H   0  0  0  0  0  0  0  0  0  0  0  0
  1 24  1  0  0  0  0
  1 28  3  0  0  0  0
  2  4  2  0  0  0  0
  2 10  1  0  0  0  0
  3  5  1  0  0  0  0
  3 12  2  0  0  0  0
  4 15  1  0  0  0  0
  5 16  2  0  0  0  0
  6 11  1  0  0  0  0
  6 15  2  0  0  0  0
  7 13  2  0  0  0  0
  7 16  1  0  0  0  0
  8 11  2  0  0  0  0
  8 29  1  0  0  0  0
  9 14  1  0  0  0  0
  9 29  2  0  0  0  0
 10 11  1  0  0  0  0
 10 14  2  0  0  0  0
 12 13  1  0  0  0  0
 12 18  1  0  0  0  0
 13 25  1  0  0  0  0
 14 30  1  0  0  0  0
 15 37  1  0  0  0  0
 16 39  1  0  0  0  0
 17 25  1  0  0  0  0
 17 30  1  0  0  0  0
 17 32  2  0  0  0  0
 18 31  1  0  0  0  0
 19 20  1  0  0  0  0
 19 24  1  0  0  0  0
 20 24  1  0  0  0  0
 21 22  1  0  0  0  0
 21 25  1  0  0  0  0
 22 30  1  0  0  0  0
 23 25  1  0  0  0  0
 23 31  1  0  0  0  0
 24 27  1  0  0  0  0
 26 37  1  0  0  0  0
 27 38  1  0  0  0  0
 31 38  1  1  0  0  0
 33 37  2  0  0  0  0
 34 37  2  0  0  0  0
 35 38  2  0  0  0  0
 36 38  2  0  0  0  0
  2 40  1  0  0  0  0
  3 41  1  0  0  0  0
  4 42  1  0  0  0  0
  5 43  1  0  0  0  0
  6 44  1  0  0  0  0
  7 45  1  0  0  0  0
  8 46  1  0  0  0  0
  9 47  1  0  0  0  0
 18 48  1  0  0  0  0
 18 49  1  0  0  0  0
 19 50  1  0  0  0  0
 19 51  1  0  0  0  0
 20 52  1  0  0  0  0
 20 53  1  0  0  0  0
 21 54  1  0  0  0  0
 21 55  1  0  0  0  0
 22 56  1  0  0  0  0
 22 57  1  0  0  0  0
 23 58  1  0  0  0  0
 23 59  1  0  0  0  0
 26 60  1  0  0  0  0
 26 61  1  0  0  0  0
 26 62  1  0  0  0  0
 27 63  1  0  0  0  0
 27 64  1  0  0  0  0
M  END
> <compound>
MAT-POS-853c0ffa-15

> <compound_smiles>
CS(=O)(=O)c1ccc2c(c1)cncc2N3CCC4(C3=O)CN(Cc5c4cc(cc5)Cl)S(=O)(=O)CC6(CC6)C#N

> <enantiomer_smiles>
CS(=O)(=O)c1ccc2c(c1)cncc2N3CCC4(C3=O)C[N@@](Cc5c4cc(cc5)Cl)S(=O)(=O)CC6(CC6)C#N

> <scaffold>
tetrahydroisoquinoline-5spiro-isoquinoline

> <clash_score>
0

> <docking_score>
-9.164658546447754

> <overlap_score>
0.9772579073905945

> <MMFF_internal_energy>
156.9786528983591

> <docked_smiles>
CS(=O)(=O)c1ccc2c(c1)cncc2N3CC[C@@]4(C3=O)C[N@@](Cc5c4cc(cc5)Cl)S(=O)(=O)CC6(CC6)C#N

$$$$
LUO-POS-eaf50f21-4_1
  -OEChem-12272114583D

 64 69  0     1  0  0  0  0  0999 V2000
    9.9911    5.1242   23.7563 C   0  0  0  0  0  0  0  0  0  0  0  0
    3.3432    2.6279   20.4411 C   0  0  0  0  0  0  0  0  0  0  0  0
    3.8960    1.9291   21.5050 C   0  0  0  0  0  0  0  0  0  0  0  0
    3.7865    2.4205   19.1660 C   0  0  0  0  0  0  0  0  0  0  0  0
    4.8973    1.0233   21.2988 C   0  0  0  0  0  0  0  0  0  0  0  0
   12.0765    0.0316   24.1541 C   0  0  0  0  0  0  0  0  0  0  0  0
   12.9132   -0.6032   23.2569 C   0  0  0  0  0  0  0  0  0  0  0  0
   10.9991   -1.4331   22.0443 C   0  0  0  0  0  0  0  0  0  0  0  0
    5.3278    1.2339   17.6066 C   0  0  0  0  0  0  0  0  0  0  0  0
    6.8438   -0.2892   18.3752 C   0  0  0  0  0  0  0  0  0  0  0  0
    4.8226    1.4906   18.9054 C   0  0  0  0  0  0  0  0  0  0  0  0
    5.3982    0.7733   19.9948 C   0  0  0  0  0  0  0  0  0  0  0  0
   10.7040   -0.0625   23.9898 C   0  0  0  0  0  0  0  0  0  0  0  0
   10.1406   -0.7765   22.9250 C   0  0  0  0  0  0  0  0  0  0  0  0
    6.4440   -0.1472   19.6979 C   0  0  0  0  0  0  0  0  0  0  0  0
   12.3683   -1.3298   22.2234 C   0  0  0  0  0  0  0  0  0  0  0  0
    8.2490    0.0169   21.4271 C   0  0  0  0  0  0  0  0  0  0  0  0
    6.9866   -1.9366   21.3580 C   0  0  0  0  0  0  0  0  0  0  0  0
    9.9479    0.5589   24.9534 C   0  0  0  0  0  0  0  0  0  0  0  0
    8.5320    6.1536   25.5360 C   0  0  0  0  0  0  0  0  0  0  0  0
    7.7030    6.0376   24.2910 C   0  0  0  0  0  0  0  0  0  0  0  0
    7.8721   -0.1194   23.8831 C   0  0  0  0  0  0  0  0  0  0  0  0
    8.7992    5.0307   24.5590 C   0  0  0  0  0  0  0  0  0  0  0  0
    8.6238   -0.7606   22.6929 C   0  0  3  0  0  0  0  0  0  0  0  0
    6.0486   -4.1130   21.8491 C   0  0  0  0  0  0  0  0  0  0  0  0
    4.9509   -2.6417   20.1903 C   0  0  0  0  0  0  0  0  0  0  0  0
    8.3961    3.6288   24.9583 C   0  0  0  0  0  0  0  0  0  0  0  0
   10.9515    5.1995   23.1096 N   0  0  0  0  0  0  0  0  0  0  0  0
    6.3062    0.3769   17.3421 N   0  0  0  0  0  0  0  0  0  0  0  0
    7.2292   -0.6897   20.7790 N   0  0  0  0  0  0  0  0  0  0  0  0
    8.6609    1.0133   24.4995 N   0  0  1  0  0  0  0  0  0  0  0  0
    8.0140   -2.1541   22.4331 N   0  3  0  0  0  0  0  0  0  0  0  0
    6.0811   -2.8859   21.0710 N   0  0  0  0  0  0  0  0  0  0  0  0
    8.7473    1.0987   21.0885 O   0  0  0  0  0  0  0  0  0  0  0  0
    7.4119    2.4897   22.8226 O   0  0  0  0  0  0  0  0  0  0  0  0
    9.9188    2.7238   23.0373 O   0  0  0  0  0  0  0  0  0  0  0  0
    8.6177    2.4826   23.6220 S   0  0  0  0  0  0  0  0  0  0  0  0
   13.4268   -2.1425   21.1095 Cl  0  0  0  0  0  0  0  0  0  0  0  0
    2.5435    3.3515   20.6369 H   0  0  0  0  0  0  0  0  0  0  0  0
    3.5181    2.1139   22.5170 H   0  0  0  0  0  0  0  0  0  0  0  0
    3.3409    2.9743   18.3364 H   0  0  0  0  0  0  0  0  0  0  0  0
    5.3146    0.4870   22.1544 H   0  0  0  0  0  0  0  0  0  0  0  0
   12.5023    0.5921   24.9791 H   0  0  0  0  0  0  0  0  0  0  0  0
   13.9908   -0.5221   23.3827 H   0  0  0  0  0  0  0  0  0  0  0  0
   10.6031   -2.0221   21.2278 H   0  0  0  0  0  0  0  0  0  0  0  0
    4.9136    1.7512   16.7476 H   0  0  0  0  0  0  0  0  0  0  0  0
    7.6452   -0.9770   18.1101 H   0  0  0  0  0  0  0  0  0  0  0  0
    9.7601   -0.1291   25.8181 H   0  0  0  0  0  0  0  0  0  0  0  0
   10.4934    1.4385   25.3850 H   0  0  0  0  0  0  0  0  0  0  0  0
    9.2353    6.9765   25.5960 H   0  0  0  0  0  0  0  0  0  0  0  0
    8.0564    5.9166   26.4807 H   0  0  0  0  0  0  0  0  0  0  0  0
    6.6715    5.7236   24.4020 H   0  0  0  0  0  0  0  0  0  0  0  0
    7.8512    6.7836   23.5185 H   0  0  0  0  0  0  0  0  0  0  0  0
    6.8912    0.2693   23.5597 H   0  0  0  0  0  0  0  0  0  0  0  0
    7.6737   -0.8821   24.6542 H   0  0  0  0  0  0  0  0  0  0  0  0
    5.3849   -3.9805   22.7162 H   0  0  0  0  0  0  0  0  0  0  0  0
    5.6727   -4.9349   21.2220 H   0  0  0  0  0  0  0  0  0  0  0  0
    7.0639   -4.3529   22.1979 H   0  0  0  0  0  0  0  0  0  0  0  0
    5.2282   -2.8982   19.1572 H   0  0  0  0  0  0  0  0  0  0  0  0
    4.0993   -3.2623   20.5061 H   0  0  0  0  0  0  0  0  0  0  0  0
    4.6693   -1.5795   20.2413 H   0  0  0  0  0  0  0  0  0  0  0  0
    7.3412    3.5911   25.2436 H   0  0  0  0  0  0  0  0  0  0  0  0
    9.0025    3.2703   25.7945 H   0  0  0  0  0  0  0  0  0  0  0  0
    8.2316   -2.9940   22.8008 H   0  0  0  0  0  0  0  0  0  0  0  0
  1 23  1  0  0  0  0
  1 28  3  0  0  0  0
  2  3  1  0  0  0  0
  2  4  2  0  0  0  0
  3  5  2  0  0  0  0
  4 11  1  0  0  0  0
  5 12  1  0  0  0  0
  6  7  1  0  0  0  0
  6 13  2  0  0  0  0
  7 16  2  0  0  0  0
  8 14  2  0  0  0  0
  8 16  1  0  0  0  0
  9 11  2  0  0  0  0
  9 29  1  0  0  0  0
 10 15  1  0  0  0  0
 10 29  2  0  0  0  0
 11 12  1  0  0  0  0
 12 15  2  0  0  0  0
 13 14  1  0  0  0  0
 13 19  1  0  0  0  0
 14 24  1  0  0  0  0
 15 30  1  0  0  0  0
 16 38  1  0  0  0  0
 17 24  1  0  0  0  0
 17 30  1  0  0  0  0
 17 34  2  0  0  0  0
 18 30  1  0  0  0  0
 18 32  2  0  0  0  0
 18 33  1  0  0  0  0
 19 31  1  0  0  0  0
 20 21  1  0  0  0  0
 20 23  1  0  0  0  0
 21 23  1  0  0  0  0
 22 24  1  0  0  0  0
 22 31  1  0  0  0  0
 23 27  1  0  0  0  0
 24 32  1  0  0  0  0
 25 33  1  0  0  0  0
 26 33  1  0  0  0  0
 27 37  1  0  0  0  0
 31 37  1  1  0  0  0
 35 37  2  0  0  0  0
 36 37  2  0  0  0  0
  2 39  1  0  0  0  0
  3 40  1  0  0  0  0
  4 41  1  0  0  0  0
  5 42  1  0  0  0  0
  6 43  1  0  0  0  0
  7 44  1  0  0  0  0
  8 45  1  0  0  0  0
  9 46  1  0  0  0  0
 10 47  1  0  0  0  0
 19 48  1  0  0  0  0
 19 49  1  0  0  0  0
 20 50  1  0  0  0  0
 20 51  1  0  0  0  0
 21 52  1  0  0  0  0
 21 53  1  0  0  0  0
 22 54  1  0  0  0  0
 22 55  1  0  0  0  0
 25 56  1  0  0  0  0
 25 57  1  0  0  0  0
 25 58  1  0  0  0  0
 26 59  1  0  0  0  0
 26 60  1  0  0  0  0
 26 61  1  0  0  0  0
 27 62  1  0  0  0  0
 27 63  1  0  0  0  0
 32 64  1  0  0  0  0
M  CHG  1  32   1
M  END
> <compound>
LUO-POS-eaf50f21-4

> <compound_smiles>
CN(C)C1=NC2(CN(Cc3c2cc(cc3)Cl)S(=O)(=O)CC4(CC4)C#N)C(=O)N1c5cncc6c5cccc6

> <enantiomer_smiles>
CN(C)C1=NC2(C[N@@](Cc3c2cc(cc3)Cl)S(=O)(=O)CC4(CC4)C#N)C(=O)N1c5cncc6c5cccc6

> <scaffold>
tetrahydroisoquinoline-5spiro-isoquinoline

> <clash_score>
0

> <docking_score>
-5.719521522521973

> <overlap_score>
1.0099350214004517

> <MMFF_internal_energy>
61.73882146790259

> <docked_smiles>
CN(C)C1=[NH+][C@]2(C[N@@](Cc3c2cc(cc3)Cl)S(=O)(=O)CC4(CC4)C#N)C(=O)N1c5cncc6c5cccc6

$$$$
MAT-POS-853c0ffa-15_2
  -OEChem-12272114583D

 64 69  0     1  0  0  0  0  0999 V2000
    7.3205    3.4054   22.7658 C   0  0  0  0  0  0  0  0  0  0  0  0
    4.8973    1.0233   21.2988 C   0  0  0  0  0  0  0  0  0  0  0  0
   12.0765    0.0316   24.1541 C   0  0  0  0  0  0  0  0  0  0  0  0
    3.8960    1.9291   21.5050 C   0  0  0  0  0  0  0  0  0  0  0  0
   12.9132   -0.6032   23.2569 C   0  0  0  0  0  0  0  0  0  0  0  0
    3.7865    2.4205   19.1660 C   0  0  0  0  0  0  0  0  0  0  0  0
   10.9991   -1.4331   22.0443 C   0  0  0  0  0  0  0  0  0  0  0  0
    5.3278    1.2339   17.6066 C   0  0  0  0  0  0  0  0  0  0  0  0
    6.8438   -0.2892   18.3752 C   0  0  0  0  0  0  0  0  0  0  0  0
    5.3982    0.7733   19.9948 C   0  0  0  0  0  0  0  0  0  0  0  0
    4.8226    1.4906   18.9054 C   0  0  0  0  0  0  0  0  0  0  0  0
   10.7040   -0.0625   23.9898 C   0  0  0  0  0  0  0  0  0  0  0  0
   10.1406   -0.7765   22.9250 C   0  0  0  0  0  0  0  0  0  0  0  0
    6.4440   -0.1472   19.6979 C   0  0  0  0  0  0  0  0  0  0  0  0
    3.3432    2.6279   20.4411 C   0  0  0  0  0  0  0  0  0  0  0  0
   12.3683   -1.3298   22.2234 C   0  0  0  0  0  0  0  0  0  0  0  0
    8.2490    0.0169   21.4271 C   0  0  0  0  0  0  0  0  0  0  0  0
    9.9479    0.5589   24.9534 C   0  0  0  0  0  0  0  0  0  0  0  0
    9.8217    3.1213   22.9038 C   0  0  0  0  0  0  0  0  0  0  0  0
    9.5383    4.5944   22.9183 C   0  0  0  0  0  0  0  0  0  0  0  0
    8.0140   -2.1541   22.4331 C   0  0  0  0  0  0  0  0  0  0  0  0
    6.9866   -1.9366   21.3580 C   0  0  0  0  0  0  0  0  0  0  0  0
    7.8721   -0.1194   23.8831 C   0  0  0  0  0  0  0  0  0  0  0  0
    8.5331    3.6312   23.5091 C   0  0  0  0  0  0  0  0  0  0  0  0
    8.6238   -0.7606   22.6929 C   0  0  3  0  0  0  0  0  0  0  0  0
    0.5684    2.8307   20.6204 C   0  0  0  0  0  0  0  0  0  0  0  0
    8.3874    3.5882   25.0137 C   0  0  0  0  0  0  0  0  0  0  0  0
    6.3436    3.2234   22.1669 N   0  0  0  0  0  0  0  0  0  0  0  0
    6.3062    0.3769   17.3421 N   0  0  0  0  0  0  0  0  0  0  0  0
    7.2292   -0.6897   20.7790 N   0  0  0  0  0  0  0  0  0  0  0  0
    8.6609    1.0133   24.4995 N   0  0  2  0  0  0  0  0  0  0  0  0
    8.8299    1.0397   21.0799 O   0  0  0  0  0  0  0  0  0  0  0  0
    2.1837    4.2424   22.1279 O   0  0  0  0  0  0  0  0  0  0  0  0
    2.0366    4.7621   19.6674 O   0  0  0  0  0  0  0  0  0  0  0  0
    8.2407    1.8013   26.9144 O   0  0  0  0  0  0  0  0  0  0  0  0
    6.3653    1.9471   25.2271 O   0  0  0  0  0  0  0  0  0  0  0  0
    2.0618    3.7881   20.7501 S   0  0  0  0  0  0  0  0  0  0  0  0
    7.7708    2.0177   25.5632 S   0  0  0  0  0  0  0  0  0  0  0  0
   13.4272   -2.1411   21.1086 Cl  0  0  0  0  0  0  0  0  0  0  0  0
    5.3114    0.4892   22.1572 H   0  0  0  0  0  0  0  0  0  0  0  0
   12.5024    0.5995   24.9735 H   0  0  0  0  0  0  0  0  0  0  0  0
    3.5259    2.1069   22.5217 H   0  0  0  0  0  0  0  0  0  0  0  0
   13.9910   -0.5177   23.3793 H   0  0  0  0  0  0  0  0  0  0  0  0
    3.3486    2.9706   18.3290 H   0  0  0  0  0  0  0  0  0  0  0  0
   10.6036   -2.0162   21.2241 H   0  0  0  0  0  0  0  0  0  0  0  0
    4.9146    1.7518   16.7474 H   0  0  0  0  0  0  0  0  0  0  0  0
    7.6451   -0.9755   18.1042 H   0  0  0  0  0  0  0  0  0  0  0  0
    9.7849   -0.1194   25.8306 H   0  0  0  0  0  0  0  0  0  0  0  0
   10.4793    1.4568   25.3613 H   0  0  0  0  0  0  0  0  0  0  0  0
    9.7878    2.6129   21.9468 H   0  0  0  0  0  0  0  0  0  0  0  0
   10.5952    2.7515   23.5670 H   0  0  0  0  0  0  0  0  0  0  0  0
   10.1228    5.2116   23.5908 H   0  0  0  0  0  0  0  0  0  0  0  0
    9.3157    5.0716   21.9707 H   0  0  0  0  0  0  0  0  0  0  0  0
    7.5152   -2.5456   23.3338 H   0  0  0  0  0  0  0  0  0  0  0  0
    8.7649   -2.9030   22.1434 H   0  0  0  0  0  0  0  0  0  0  0  0
    7.0587   -2.7248   20.5721 H   0  0  0  0  0  0  0  0  0  0  0  0
    5.9518   -1.9952   21.7720 H   0  0  0  0  0  0  0  0  0  0  0  0
    6.8867    0.2641   23.5642 H   0  0  0  0  0  0  0  0  0  0  0  0
    7.6652   -0.8660   24.6733 H   0  0  0  0  0  0  0  0  0  0  0  0
   -0.2810    3.4917   20.7998 H   0  0  0  0  0  0  0  0  0  0  0  0
    0.5175    2.4065   19.6165 H   0  0  0  0  0  0  0  0  0  0  0  0
    0.6014    2.0383   21.3695 H   0  0  0  0  0  0  0  0  0  0  0  0
    7.6838    4.3500   25.3607 H   0  0  0  0  0  0  0  0  0  0  0  0
    9.3513    3.7460   25.5050 H   0  0  0  0  0  0  0  0  0  0  0  0
  1 24  1  0  0  0  0
  1 28  3  0  0  0  0
  2  4  2  0  0  0  0
  2 10  1  0  0  0  0
  3  5  1  0  0  0  0
  3 12  2  0  0  0  0
  4 15  1  0  0  0  0
  5 16  2  0  0  0  0
  6 11  1  0  0  0  0
  6 15  2  0  0  0  0
  7 13  2  0  0  0  0
  7 16  1  0  0  0  0
  8 11  2  0  0  0  0
  8 29  1  0  0  0  0
  9 14  1  0  0  0  0
  9 29  2  0  0  0  0
 10 11  1  0  0  0  0
 10 14  2  0  0  0  0
 12 13  1  0  0  0  0
 12 18  1  0  0  0  0
 13 25  1  0  0  0  0
 14 30  1  0  0  0  0
 15 37  1  0  0  0  0
 16 39  1  0  0  0  0
 17 25  1  0  0  0  0
 17 30  1  0  0  0  0
 17 32  2  0  0  0  0
 18 31  1  0  0  0  0
 19 20  1  0  0  0  0
 19 24  1  0  0  0  0
 20 24  1  0  0  0  0
 21 22  1  0  0  0  0
 21 25  1  0  0  0  0
 22 30  1  0  0  0  0
 23 25  1  0  0  0  0
 23 31  1  0  0  0  0
 24 27  1  0  0  0  0
 26 37  1  0  0  0  0
 27 38  1  0  0  0  0
 31 38  1  6  0  0  0
 33 37  2  0  0  0  0
 34 37  2  0  0  0  0
 35 38  2  0  0  0  0
 36 38  2  0  0  0  0
  2 40  1  0  0  0  0
  3 41  1  0  0  0  0
  4 42  1  0  0  0  0
  5 43  1  0  0  0  0
  6 44  1  0  0  0  0
  7 45  1  0  0  0  0
  8 46  1  0  0  0  0
  9 47  1  0  0  0  0
 18 48  1  0  0  0  0
 18 49  1  0  0  0  0
 19 50  1  0  0  0  0
 19 51  1  0  0  0  0
 20 52  1  0  0  0  0
 20 53  1  0  0  0  0
 21 54  1  0  0  0  0
 21 55  1  0  0  0  0
 22 56  1  0  0  0  0
 22 57  1  0  0  0  0
 23 58  1  0  0  0  0
 23 59  1  0  0  0  0
 26 60  1  0  0  0  0
 26 61  1  0  0  0  0
 26 62  1  0  0  0  0
 27 63  1  0  0  0  0
 27 64  1  0  0  0  0
M  END
> <compound>
MAT-POS-853c0ffa-15

> <compound_smiles>
CS(=O)(=O)c1ccc2c(c1)cncc2N3CCC4(C3=O)CN(Cc5c4cc(cc5)Cl)S(=O)(=O)CC6(CC6)C#N

> <enantiomer_smiles>
CS(=O)(=O)c1ccc2c(c1)cncc2N3CCC4(C3=O)C[N@](Cc5c4cc(cc5)Cl)S(=O)(=O)CC6(CC6)C#N

> <scaffold>
tetrahydroisoquinoline-5spiro-isoquinoline

> <clash_score>
0

> <docking_score>
-8.663341522216797

> <overlap_score>
0.9781590104103088

> <MMFF_internal_energy>
144.00645184954297

> <docked_smiles>
CS(=O)(=O)c1ccc2c(c1)cncc2N3CC[C@@]4(C3=O)C[N@](Cc5c4cc(cc5)Cl)S(=O)(=O)CC6(CC6)C#N

$$$$
MAT-POS-853c0ffa-12_2
  -OEChem-12272114583D

 71 76  0     1  0  0  0  0  0999 V2000
    3.7865    2.4205   19.1660 C   0  0  0  0  0  0  0  0  0  0  0  0
   12.0765    0.0316   24.1541 C   0  0  0  0  0  0  0  0  0  0  0  0
    3.3432    2.6279   20.4411 C   0  0  0  0  0  0  0  0  0  0  0  0
   12.9132   -0.6032   23.2569 C   0  0  0  0  0  0  0  0  0  0  0  0
    4.8973    1.0233   21.2988 C   0  0  0  0  0  0  0  0  0  0  0  0
   10.9991   -1.4331   22.0443 C   0  0  0  0  0  0  0  0  0  0  0  0
    5.3278    1.2339   17.6066 C   0  0  0  0  0  0  0  0  0  0  0  0
    6.8438   -0.2892   18.3752 C   0  0  0  0  0  0  0  0  0  0  0  0
    4.8226    1.4906   18.9054 C   0  0  0  0  0  0  0  0  0  0  0  0
    5.3982    0.7733   19.9948 C   0  0  0  0  0  0  0  0  0  0  0  0
   10.7040   -0.0625   23.9898 C   0  0  0  0  0  0  0  0  0  0  0  0
   10.1406   -0.7765   22.9250 C   0  0  0  0  0  0  0  0  0  0  0  0
    3.8960    1.9291   21.5050 C   0  0  0  0  0  0  0  0  0  0  0  0
    6.4440   -0.1472   19.6979 C   0  0  0  0  0  0  0  0  0  0  0  0
   12.3683   -1.3298   22.2234 C   0  0  0  0  0  0  0  0  0  0  0  0
    8.2490    0.0169   21.4271 C   0  0  0  0  0  0  0  0  0  0  0  0
    9.9479    0.5589   24.9534 C   0  0  0  0  0  0  0  0  0  0  0  0
    6.3968    5.2306   25.4276 C   0  0  0  0  0  0  0  0  0  0  0  0
    6.6062    4.4762   26.7113 C   0  0  0  0  0  0  0  0  0  0  0  0
    8.0140   -2.1541   22.4331 C   0  0  0  0  0  0  0  0  0  0  0  0
    6.9866   -1.9366   21.3580 C   0  0  0  0  0  0  0  0  0  0  0  0
    7.8721   -0.1194   23.8831 C   0  0  0  0  0  0  0  0  0  0  0  0
    8.6238   -0.7606   22.6929 C   0  0  3  0  0  0  0  0  0  0  0  0
    7.7686    4.7292   25.7898 C   0  0  0  0  0  0  0  0  0  0  0  0
    3.4646    0.9680   23.8537 C   0  0  0  0  0  0  0  0  0  0  0  0
    1.9163    2.6749   22.8418 C   0  0  0  0  0  0  0  0  0  0  0  0
    9.2684    6.4037   25.1046 C   0  0  0  0  0  0  0  0  0  0  0  0
    8.3874    3.5882   25.0137 C   0  0  0  0  0  0  0  0  0  0  0  0
    3.3796    2.1809   22.8922 C   0  0  0  0  0  0  0  0  0  0  0  0
    6.3062    0.3769   17.3421 N   0  0  0  0  0  0  0  0  0  0  0  0
    7.2292   -0.6897   20.7790 N   0  0  0  0  0  0  0  0  0  0  0  0
    8.6609    1.0133   24.4995 N   0  0  2  0  0  0  0  0  0  0  0  0
    8.8299    1.0397   21.0799 O   0  0  0  0  0  0  0  0  0  0  0  0
    8.2407    1.8013   26.9144 O   0  0  0  0  0  0  0  0  0  0  0  0
    6.3653    1.9471   25.2271 O   0  0  0  0  0  0  0  0  0  0  0  0
    4.1472    3.2205   23.5413 O   0  0  0  0  0  0  0  0  0  0  0  0
    8.7111    5.7271   26.2159 O   0  0  0  0  0  0  0  0  0  0  0  0
    7.7708    2.0177   25.5632 S   0  0  0  0  0  0  0  0  0  0  0  0
   13.4272   -2.1411   21.1086 Cl  0  0  0  0  0  0  0  0  0  0  0  0
    3.3419    2.9747   18.3362 H   0  0  0  0  0  0  0  0  0  0  0  0
   12.5024    0.5995   24.9735 H   0  0  0  0  0  0  0  0  0  0  0  0
    2.5411    3.3529   20.6267 H   0  0  0  0  0  0  0  0  0  0  0  0
   13.9910   -0.5177   23.3793 H   0  0  0  0  0  0  0  0  0  0  0  0
    5.3175    0.4836   22.1518 H   0  0  0  0  0  0  0  0  0  0  0  0
   10.6036   -2.0162   21.2241 H   0  0  0  0  0  0  0  0  0  0  0  0
    4.9134    1.7510   16.7475 H   0  0  0  0  0  0  0  0  0  0  0  0
    7.6450   -0.9758   18.1044 H   0  0  0  0  0  0  0  0  0  0  0  0
    9.7849   -0.1194   25.8306 H   0  0  0  0  0  0  0  0  0  0  0  0
   10.4793    1.4568   25.3613 H   0  0  0  0  0  0  0  0  0  0  0  0
    5.8551    4.7302   24.6340 H   0  0  0  0  0  0  0  0  0  0  0  0
    6.2057    6.2948   25.4948 H   0  0  0  0  0  0  0  0  0  0  0  0
    6.5550    5.0353   27.6379 H   0  0  0  0  0  0  0  0  0  0  0  0
    6.2048    3.4720   26.7745 H   0  0  0  0  0  0  0  0  0  0  0  0
    7.5152   -2.5456   23.3338 H   0  0  0  0  0  0  0  0  0  0  0  0
    8.7649   -2.9030   22.1434 H   0  0  0  0  0  0  0  0  0  0  0  0
    7.0587   -2.7248   20.5721 H   0  0  0  0  0  0  0  0  0  0  0  0
    5.9518   -1.9952   21.7720 H   0  0  0  0  0  0  0  0  0  0  0  0
    6.8867    0.2641   23.5642 H   0  0  0  0  0  0  0  0  0  0  0  0
    7.6652   -0.8660   24.6733 H   0  0  0  0  0  0  0  0  0  0  0  0
    3.0698    1.2048   24.8491 H   0  0  0  0  0  0  0  0  0  0  0  0
    2.9102    0.1029   23.4767 H   0  0  0  0  0  0  0  0  0  0  0  0
    4.5106    0.6727   23.9984 H   0  0  0  0  0  0  0  0  0  0  0  0
    1.5102    2.8670   23.8417 H   0  0  0  0  0  0  0  0  0  0  0  0
    1.2688    1.9467   22.3414 H   0  0  0  0  0  0  0  0  0  0  0  0
    1.8499    3.6229   22.2948 H   0  0  0  0  0  0  0  0  0  0  0  0
    9.9802    7.1555   25.4542 H   0  0  0  0  0  0  0  0  0  0  0  0
    8.4706    6.8812   24.5300 H   0  0  0  0  0  0  0  0  0  0  0  0
    9.7876    5.6802   24.4717 H   0  0  0  0  0  0  0  0  0  0  0  0
    9.4732    3.5710   25.1421 H   0  0  0  0  0  0  0  0  0  0  0  0
    8.1577    3.6698   23.9479 H   0  0  0  0  0  0  0  0  0  0  0  0
    3.7522    3.3219   24.4147 H   0  0  0  0  0  0  0  0  0  0  0  0
  1  3  2  0  0  0  0
  1  9  1  0  0  0  0
  2  4  1  0  0  0  0
  2 11  2  0  0  0  0
  3 13  1  0  0  0  0
  4 15  2  0  0  0  0
  5 10  1  0  0  0  0
  5 13  2  0  0  0  0
  6 12  2  0  0  0  0
  6 15  1  0  0  0  0
  7  9  1  0  0  0  0
  7 30  2  0  0  0  0
  8 14  2  0  0  0  0
  8 30  1  0  0  0  0
  9 10  2  0  0  0  0
 10 14  1  0  0  0  0
 11 12  1  0  0  0  0
 11 17  1  0  0  0  0
 12 23  1  0  0  0  0
 13 29  1  0  0  0  0
 14 31  1  0  0  0  0
 15 39  1  0  0  0  0
 16 23  1  0  0  0  0
 16 31  1  0  0  0  0
 16 33  2  0  0  0  0
 17 32  1  0  0  0  0
 18 19  1  0  0  0  0
 18 24  1  0  0  0  0
 19 24  1  0  0  0  0
 20 21  1  0  0  0  0
 20 23  1  0  0  0  0
 21 31  1  0  0  0  0
 22 23  1  0  0  0  0
 22 32  1  0  0  0  0
 24 28  1  0  0  0  0
 24 37  1  0  0  0  0
 25 29  1  0  0  0  0
 26 29  1  0  0  0  0
 27 37  1  0  0  0  0
 28 38  1  0  0  0  0
 29 36  1  0  0  0  0
 32 38  1  6  0  0  0
 34 38  2  0  0  0  0
 35 38  2  0  0  0  0
  1 40  1  0  0  0  0
  2 41  1  0  0  0  0
  3 42  1  0  0  0  0
  4 43  1  0  0  0  0
  5 44  1  0  0  0  0
  6 45  1  0  0  0  0
  7 46  1  0  0  0  0
  8 47  1  0  0  0  0
 17 48  1  0  0  0  0
 17 49  1  0  0  0  0
 18 50  1  0  0  0  0
 18 51  1  0  0  0  0
 19 52  1  0  0  0  0
 19 53  1  0  0  0  0
 20 54  1  0  0  0  0
 20 55  1  0  0  0  0
 21 56  1  0  0  0  0
 21 57  1  0  0  0  0
 22 58  1  0  0  0  0
 22 59  1  0  0  0  0
 25 60  1  0  0  0  0
 25 61  1  0  0  0  0
 25 62  1  0  0  0  0
 26 63  1  0  0  0  0
 26 64  1  0  0  0  0
 26 65  1  0  0  0  0
 27 66  1  0  0  0  0
 27 67  1  0  0  0  0
 27 68  1  0  0  0  0
 28 69  1  0  0  0  0
 28 70  1  0  0  0  0
 36 71  1  0  0  0  0
M  END
> <compound>
MAT-POS-853c0ffa-12

> <compound_smiles>
CC(C)(c1ccc2cncc(c2c1)N3CCC4(C3=O)CN(Cc5c4cc(cc5)Cl)S(=O)(=O)CC6(CC6)OC)O

> <enantiomer_smiles>
CC(C)(c1ccc2cncc(c2c1)N3CCC4(C3=O)C[N@](Cc5c4cc(cc5)Cl)S(=O)(=O)CC6(CC6)OC)O

> <scaffold>
tetrahydroisoquinoline-5spiro-isoquinoline

> <clash_score>
0

> <docking_score>
-8.194403648376465

> <overlap_score>
0.977560818195343

> <MMFF_internal_energy>
150.33260184365597

> <docked_smiles>
CC(C)(c1ccc2cncc(c2c1)N3CC[C@@]4(C3=O)C[N@](Cc5c4cc(cc5)Cl)S(=O)(=O)CC6(CC6)OC)O

$$$$
LUO-POS-b5068a05-2_1
  -OEChem-12272114583D

 58 63  0     1  0  0  0  0  0999 V2000
    9.9920    5.1245   23.7609 C   0  0  0  0  0  0  0  0  0  0  0  0
    6.0713   -3.4491   19.7917 C   0  0  0  0  0  0  0  0  0  0  0  0
    3.3432    2.6279   20.4411 C   0  0  0  0  0  0  0  0  0  0  0  0
    3.8960    1.9291   21.5050 C   0  0  0  0  0  0  0  0  0  0  0  0
    3.7865    2.4205   19.1660 C   0  0  0  0  0  0  0  0  0  0  0  0
    4.8973    1.0233   21.2988 C   0  0  0  0  0  0  0  0  0  0  0  0
   12.0765    0.0316   24.1541 C   0  0  0  0  0  0  0  0  0  0  0  0
   12.9132   -0.6032   23.2569 C   0  0  0  0  0  0  0  0  0  0  0  0
   10.9991   -1.4331   22.0443 C   0  0  0  0  0  0  0  0  0  0  0  0
    5.3278    1.2339   17.6066 C   0  0  0  0  0  0  0  0  0  0  0  0
    6.8438   -0.2892   18.3752 C   0  0  0  0  0  0  0  0  0  0  0  0
    4.8226    1.4906   18.9054 C   0  0  0  0  0  0  0  0  0  0  0  0
    5.3982    0.7733   19.9948 C   0  0  0  0  0  0  0  0  0  0  0  0
   10.7040   -0.0625   23.9898 C   0  0  0  0  0  0  0  0  0  0  0  0
   10.1406   -0.7765   22.9250 C   0  0  0  0  0  0  0  0  0  0  0  0
    6.4440   -0.1472   19.6979 C   0  0  0  0  0  0  0  0  0  0  0  0
   12.3683   -1.3298   22.2234 C   0  0  0  0  0  0  0  0  0  0  0  0
    8.2490    0.0169   21.4271 C   0  0  0  0  0  0  0  0  0  0  0  0
    6.9866   -1.9366   21.3580 C   0  0  0  0  0  0  0  0  0  0  0  0
    9.9479    0.5589   24.9534 C   0  0  0  0  0  0  0  0  0  0  0  0
    8.5321    6.1523   25.5409 C   0  0  0  0  0  0  0  0  0  0  0  0
    7.7037    6.0375   24.2954 C   0  0  0  0  0  0  0  0  0  0  0  0
    7.8721   -0.1194   23.8831 C   0  0  0  0  0  0  0  0  0  0  0  0
    8.7996    5.0303   24.5629 C   0  0  0  0  0  0  0  0  0  0  0  0
    8.6238   -0.7606   22.6929 C   0  0  3  0  0  0  0  0  0  0  0  0
    8.3962    3.6280   24.9605 C   0  0  0  0  0  0  0  0  0  0  0  0
   10.9526    5.2003   23.1147 N   0  0  0  0  0  0  0  0  0  0  0  0
    5.9929   -3.9377   18.7422 N   0  0  0  0  0  0  0  0  0  0  0  0
    6.3062    0.3769   17.3421 N   0  0  0  0  0  0  0  0  0  0  0  0
    8.0140   -2.1541   22.4331 N   0  0  0  0  0  0  0  0  0  0  0  0
    7.2292   -0.6897   20.7790 N   0  0  0  0  0  0  0  0  0  0  0  0
    8.6609    1.0133   24.4995 N   0  0  1  0  0  0  0  0  0  0  0  0
    6.1188   -2.8898   21.0884 N   0  0  0  0  0  0  0  0  0  0  0  0
    8.7512    1.0921   21.1156 O   0  0  0  0  0  0  0  0  0  0  0  0
    7.4131    2.4914   22.8230 O   0  0  0  0  0  0  0  0  0  0  0  0
    9.9200    2.7241   23.0399 O   0  0  0  0  0  0  0  0  0  0  0  0
    8.6183    2.4832   23.6233 S   0  0  0  0  0  0  0  0  0  0  0  0
   13.4271   -2.1423   21.1097 Cl  0  0  0  0  0  0  0  0  0  0  0  0
    2.5432    3.3510   20.6369 H   0  0  0  0  0  0  0  0  0  0  0  0
    3.5174    2.1137   22.5168 H   0  0  0  0  0  0  0  0  0  0  0  0
    3.3409    2.9743   18.3364 H   0  0  0  0  0  0  0  0  0  0  0  0
    5.3118    0.4895   22.1572 H   0  0  0  0  0  0  0  0  0  0  0  0
   12.5022    0.5939   24.9777 H   0  0  0  0  0  0  0  0  0  0  0  0
   13.9909   -0.5213   23.3819 H   0  0  0  0  0  0  0  0  0  0  0  0
   10.6031   -2.0222   21.2278 H   0  0  0  0  0  0  0  0  0  0  0  0
    4.9141    1.7511   16.7474 H   0  0  0  0  0  0  0  0  0  0  0  0
    7.6445   -0.9764   18.1043 H   0  0  0  0  0  0  0  0  0  0  0  0
    9.7599   -0.1281   25.8185 H   0  0  0  0  0  0  0  0  0  0  0  0
   10.4936    1.4391   25.3829 H   0  0  0  0  0  0  0  0  0  0  0  0
    9.2355    6.9750   25.6020 H   0  0  0  0  0  0  0  0  0  0  0  0
    8.0560    5.9144   26.4851 H   0  0  0  0  0  0  0  0  0  0  0  0
    6.6722    5.7236   24.4056 H   0  0  0  0  0  0  0  0  0  0  0  0
    7.8524    6.7843   23.5237 H   0  0  0  0  0  0  0  0  0  0  0  0
    6.8896    0.2725   23.5657 H   0  0  0  0  0  0  0  0  0  0  0  0
    7.6736   -0.8770   24.6606 H   0  0  0  0  0  0  0  0  0  0  0  0
    7.3411    3.5902   25.2453 H   0  0  0  0  0  0  0  0  0  0  0  0
    9.0022    3.2686   25.7967 H   0  0  0  0  0  0  0  0  0  0  0  0
    5.5382   -3.1310   21.8444 H   0  0  0  0  0  0  0  0  0  0  0  0
  1 24  1  0  0  0  0
  1 27  3  0  0  0  0
  2 28  3  0  0  0  0
  2 33  1  0  0  0  0
  3  4  1  0  0  0  0
  3  5  2  0  0  0  0
  4  6  2  0  0  0  0
  5 12  1  0  0  0  0
  6 13  1  0  0  0  0
  7  8  1  0  0  0  0
  7 14  2  0  0  0  0
  8 17  2  0  0  0  0
  9 15  2  0  0  0  0
  9 17  1  0  0  0  0
 10 12  2  0  0  0  0
 10 29  1  0  0  0  0
 11 16  1  0  0  0  0
 11 29  2  0  0  0  0
 12 13  1  0  0  0  0
 13 16  2  0  0  0  0
 14 15  1  0  0  0  0
 14 20  1  0  0  0  0
 15 25  1  0  0  0  0
 16 31  1  0  0  0  0
 17 38  1  0  0  0  0
 18 25  1  0  0  0  0
 18 31  1  0  0  0  0
 18 34  2  0  0  0  0
 19 30  2  0  0  0  0
 19 31  1  0  0  0  0
 19 33  1  0  0  0  0
 20 32  1  0  0  0  0
 21 22  1  0  0  0  0
 21 24  1  0  0  0  0
 22 24  1  0  0  0  0
 23 25  1  0  0  0  0
 23 32  1  0  0  0  0
 24 26  1  0  0  0  0
 25 30  1  0  0  0  0
 26 37  1  0  0  0  0
 32 37  1  1  0  0  0
 35 37  2  0  0  0  0
 36 37  2  0  0  0  0
  3 39  1  0  0  0  0
  4 40  1  0  0  0  0
  5 41  1  0  0  0  0
  6 42  1  0  0  0  0
  7 43  1  0  0  0  0
  8 44  1  0  0  0  0
  9 45  1  0  0  0  0
 10 46  1  0  0  0  0
 11 47  1  0  0  0  0
 20 48  1  0  0  0  0
 20 49  1  0  0  0  0
 21 50  1  0  0  0  0
 21 51  1  0  0  0  0
 22 52  1  0  0  0  0
 22 53  1  0  0  0  0
 23 54  1  0  0  0  0
 23 55  1  0  0  0  0
 26 56  1  0  0  0  0
 26 57  1  0  0  0  0
 33 58  1  0  0  0  0
M  END
> <compound>
LUO-POS-b5068a05-2

> <compound_smiles>
c1ccc2c(c1)cncc2N3C(=O)C4(CN(Cc5c4cc(cc5)Cl)S(=O)(=O)CC6(CC6)C#N)N=C3NC#N

> <enantiomer_smiles>
c1ccc2c(c1)cncc2N3C(=O)C4(C[N@@](Cc5c4cc(cc5)Cl)S(=O)(=O)CC6(CC6)C#N)N=C3NC#N

> <scaffold>
tetrahydroisoquinoline-5spiro-isoquinoline

> <clash_score>
0

> <docking_score>
-7.39540433883667

> <overlap_score>
1.0

> <MMFF_internal_energy>
105.94692075214819

> <docked_smiles>
c1ccc2c(c1)cncc2N3C(=O)[C@@]4(C[N@@](Cc5c4cc(cc5)Cl)S(=O)(=O)CC6(CC6)C#N)N=C3NC#N

$$$$
LUO-POS-eaf50f21-4_2
  -OEChem-12272114583D

 64 69  0     1  0  0  0  0  0999 V2000
    7.3086    3.4322   22.7805 C   0  0  0  0  0  0  0  0  0  0  0  0
    3.3432    2.6279   20.4411 C   0  0  0  0  0  0  0  0  0  0  0  0
    3.8960    1.9291   21.5050 C   0  0  0  0  0  0  0  0  0  0  0  0
    3.7865    2.4205   19.1660 C   0  0  0  0  0  0  0  0  0  0  0  0
    4.8973    1.0233   21.2988 C   0  0  0  0  0  0  0  0  0  0  0  0
   12.0765    0.0316   24.1541 C   0  0  0  0  0  0  0  0  0  0  0  0
   12.9132   -0.6032   23.2569 C   0  0  0  0  0  0  0  0  0  0  0  0
   10.9991   -1.4331   22.0443 C   0  0  0  0  0  0  0  0  0  0  0  0
    5.3278    1.2339   17.6066 C   0  0  0  0  0  0  0  0  0  0  0  0
    6.8438   -0.2892   18.3752 C   0  0  0  0  0  0  0  0  0  0  0  0
    4.8226    1.4906   18.9054 C   0  0  0  0  0  0  0  0  0  0  0  0
    5.3982    0.7733   19.9948 C   0  0  0  0  0  0  0  0  0  0  0  0
   10.7040   -0.0625   23.9898 C   0  0  0  0  0  0  0  0  0  0  0  0
   10.1406   -0.7765   22.9250 C   0  0  0  0  0  0  0  0  0  0  0  0
    6.4440   -0.1472   19.6979 C   0  0  0  0  0  0  0  0  0  0  0  0
   12.3683   -1.3298   22.2234 C   0  0  0  0  0  0  0  0  0  0  0  0
    8.2490    0.0169   21.4271 C   0  0  0  0  0  0  0  0  0  0  0  0
    6.9866   -1.9366   21.3580 C   0  0  0  0  0  0  0  0  0  0  0  0
    9.9479    0.5589   24.9534 C   0  0  0  0  0  0  0  0  0  0  0  0
    9.8125    3.1740   22.9194 C   0  0  0  0  0  0  0  0  0  0  0  0
    9.5129    4.6436   22.9506 C   0  0  0  0  0  0  0  0  0  0  0  0
    7.8721   -0.1194   23.8831 C   0  0  0  0  0  0  0  0  0  0  0  0
    8.5174    3.6626   23.5284 C   0  0  0  0  0  0  0  0  0  0  0  0
    8.6238   -0.7606   22.6929 C   0  0  3  0  0  0  0  0  0  0  0  0
    4.9751   -2.6406   20.1486 C   0  0  0  0  0  0  0  0  0  0  0  0
    6.1518   -4.1855   21.6816 C   0  0  0  0  0  0  0  0  0  0  0  0
    8.3699    3.6005   25.0322 C   0  0  0  0  0  0  0  0  0  0  0  0
    6.3347    3.2465   22.1779 N   0  0  0  0  0  0  0  0  0  0  0  0
    6.3062    0.3769   17.3421 N   0  0  0  0  0  0  0  0  0  0  0  0
    7.2292   -0.6897   20.7790 N   0  0  0  0  0  0  0  0  0  0  0  0
    8.6609    1.0133   24.4995 N   0  0  2  0  0  0  0  0  0  0  0  0
    8.0140   -2.1541   22.4331 N   0  3  0  0  0  0  0  0  0  0  0  0
    6.0229   -2.8449   21.1349 N   0  0  0  0  0  0  0  0  0  0  0  0
    8.8000    1.0592   21.0486 O   0  0  0  0  0  0  0  0  0  0  0  0
    8.2527    1.7830   26.9058 O   0  0  0  0  0  0  0  0  0  0  0  0
    6.3624    1.9403   25.2362 O   0  0  0  0  0  0  0  0  0  0  0  0
    7.7698    2.0170   25.5623 S   0  0  0  0  0  0  0  0  0  0  0  0
   13.4271   -2.1418   21.1093 Cl  0  0  0  0  0  0  0  0  0  0  0  0
    2.5435    3.3515   20.6369 H   0  0  0  0  0  0  0  0  0  0  0  0
    3.5181    2.1139   22.5170 H   0  0  0  0  0  0  0  0  0  0  0  0
    3.3409    2.9743   18.3364 H   0  0  0  0  0  0  0  0  0  0  0  0
    5.3146    0.4870   22.1544 H   0  0  0  0  0  0  0  0  0  0  0  0
   12.5019    0.5995   24.9742 H   0  0  0  0  0  0  0  0  0  0  0  0
   13.9909   -0.5172   23.3792 H   0  0  0  0  0  0  0  0  0  0  0  0
   10.6033   -2.0176   21.2245 H   0  0  0  0  0  0  0  0  0  0  0  0
    4.9136    1.7512   16.7476 H   0  0  0  0  0  0  0  0  0  0  0  0
    7.6452   -0.9770   18.1101 H   0  0  0  0  0  0  0  0  0  0  0  0
    9.7864   -0.1173   25.8332 H   0  0  0  0  0  0  0  0  0  0  0  0
   10.4802    1.4573   25.3603 H   0  0  0  0  0  0  0  0  0  0  0  0
    9.7857    2.6764   21.9565 H   0  0  0  0  0  0  0  0  0  0  0  0
   10.5890    2.8050   23.5796 H   0  0  0  0  0  0  0  0  0  0  0  0
   10.0895    5.2593   23.6312 H   0  0  0  0  0  0  0  0  0  0  0  0
    9.2865    5.1293   22.0082 H   0  0  0  0  0  0  0  0  0  0  0  0
    6.8955    0.2646   23.5448 H   0  0  0  0  0  0  0  0  0  0  0  0
    7.6662   -0.8717   24.6638 H   0  0  0  0  0  0  0  0  0  0  0  0
    5.3105   -3.0206   19.1724 H   0  0  0  0  0  0  0  0  0  0  0  0
    4.0684   -3.1799   20.4600 H   0  0  0  0  0  0  0  0  0  0  0  0
    4.7529   -1.5663   20.0671 H   0  0  0  0  0  0  0  0  0  0  0  0
    5.6836   -4.2229   22.6763 H   0  0  0  0  0  0  0  0  0  0  0  0
    5.6522   -4.9031   21.0142 H   0  0  0  0  0  0  0  0  0  0  0  0
    7.2171   -4.4453   21.7679 H   0  0  0  0  0  0  0  0  0  0  0  0
    7.6574    4.3504   25.3869 H   0  0  0  0  0  0  0  0  0  0  0  0
    9.3313    3.7631   25.5269 H   0  0  0  0  0  0  0  0  0  0  0  0
    8.1764   -2.9802   22.8563 H   0  0  0  0  0  0  0  0  0  0  0  0
  1 23  1  0  0  0  0
  1 28  3  0  0  0  0
  2  3  1  0  0  0  0
  2  4  2  0  0  0  0
  3  5  2  0  0  0  0
  4 11  1  0  0  0  0
  5 12  1  0  0  0  0
  6  7  1  0  0  0  0
  6 13  2  0  0  0  0
  7 16  2  0  0  0  0
  8 14  2  0  0  0  0
  8 16  1  0  0  0  0
  9 11  2  0  0  0  0
  9 29  1  0  0  0  0
 10 15  1  0  0  0  0
 10 29  2  0  0  0  0
 11 12  1  0  0  0  0
 12 15  2  0  0  0  0
 13 14  1  0  0  0  0
 13 19  1  0  0  0  0
 14 24  1  0  0  0  0
 15 30  1  0  0  0  0
 16 38  1  0  0  0  0
 17 24  1  0  0  0  0
 17 30  1  0  0  0  0
 17 34  2  0  0  0  0
 18 30  1  0  0  0  0
 18 32  2  0  0  0  0
 18 33  1  0  0  0  0
 19 31  1  0  0  0  0
 20 21  1  0  0  0  0
 20 23  1  0  0  0  0
 21 23  1  0  0  0  0
 22 24  1  0  0  0  0
 22 31  1  0  0  0  0
 23 27  1  0  0  0  0
 24 32  1  0  0  0  0
 25 33  1  0  0  0  0
 26 33  1  0  0  0  0
 27 37  1  0  0  0  0
 31 37  1  6  0  0  0
 35 37  2  0  0  0  0
 36 37  2  0  0  0  0
  2 39  1  0  0  0  0
  3 40  1  0  0  0  0
  4 41  1  0  0  0  0
  5 42  1  0  0  0  0
  6 43  1  0  0  0  0
  7 44  1  0  0  0  0
  8 45  1  0  0  0  0
  9 46  1  0  0  0  0
 10 47  1  0  0  0  0
 19 48  1  0  0  0  0
 19 49  1  0  0  0  0
 20 50  1  0  0  0  0
 20 51  1  0  0  0  0
 21 52  1  0  0  0  0
 21 53  1  0  0  0  0
 22 54  1  0  0  0  0
 22 55  1  0  0  0  0
 25 56  1  0  0  0  0
 25 57  1  0  0  0  0
 25 58  1  0  0  0  0
 26 59  1  0  0  0  0
 26 60  1  0  0  0  0
 26 61  1  0  0  0  0
 27 62  1  0  0  0  0
 27 63  1  0  0  0  0
 32 64  1  0  0  0  0
M  CHG  1  32   1
M  END
> <compound>
LUO-POS-eaf50f21-4

> <compound_smiles>
CN(C)C1=NC2(CN(Cc3c2cc(cc3)Cl)S(=O)(=O)CC4(CC4)C#N)C(=O)N1c5cncc6c5cccc6

> <enantiomer_smiles>
CN(C)C1=NC2(C[N@](Cc3c2cc(cc3)Cl)S(=O)(=O)CC4(CC4)C#N)C(=O)N1c5cncc6c5cccc6

> <scaffold>
tetrahydroisoquinoline-5spiro-isoquinoline

> <clash_score>
0

> <docking_score>
-5.257253646850586

> <overlap_score>
1.0105509757995605

> <MMFF_internal_energy>
52.121712301901525

> <docked_smiles>
CN(C)C1=[NH+][C@]2(C[N@](Cc3c2cc(cc3)Cl)S(=O)(=O)CC4(CC4)C#N)C(=O)N1c5cncc6c5cccc6

$$$$
MAT-POS-853c0ffa-16_2
  -OEChem-12272114583D

 67 72  0     1  0  0  0  0  0999 V2000
    4.8973    1.0233   21.2988 C   0  0  0  0  0  0  0  0  0  0  0  0
   12.0765    0.0316   24.1541 C   0  0  0  0  0  0  0  0  0  0  0  0
    3.8960    1.9291   21.5050 C   0  0  0  0  0  0  0  0  0  0  0  0
   12.9132   -0.6032   23.2569 C   0  0  0  0  0  0  0  0  0  0  0  0
    3.7865    2.4205   19.1660 C   0  0  0  0  0  0  0  0  0  0  0  0
   10.9991   -1.4331   22.0443 C   0  0  0  0  0  0  0  0  0  0  0  0
    5.3278    1.2339   17.6066 C   0  0  0  0  0  0  0  0  0  0  0  0
    6.8438   -0.2892   18.3752 C   0  0  0  0  0  0  0  0  0  0  0  0
    5.3982    0.7733   19.9948 C   0  0  0  0  0  0  0  0  0  0  0  0
    4.8226    1.4906   18.9054 C   0  0  0  0  0  0  0  0  0  0  0  0
   10.7040   -0.0625   23.9898 C   0  0  0  0  0  0  0  0  0  0  0  0
   10.1406   -0.7765   22.9250 C   0  0  0  0  0  0  0  0  0  0  0  0
    6.4440   -0.1472   19.6979 C   0  0  0  0  0  0  0  0  0  0  0  0
    3.3432    2.6279   20.4411 C   0  0  0  0  0  0  0  0  0  0  0  0
   12.3683   -1.3298   22.2234 C   0  0  0  0  0  0  0  0  0  0  0  0
    8.2490    0.0169   21.4271 C   0  0  0  0  0  0  0  0  0  0  0  0
    9.9479    0.5589   24.9534 C   0  0  0  0  0  0  0  0  0  0  0  0
    6.3968    5.2306   25.4276 C   0  0  0  0  0  0  0  0  0  0  0  0
    6.6062    4.4762   26.7113 C   0  0  0  0  0  0  0  0  0  0  0  0
    8.0140   -2.1541   22.4331 C   0  0  0  0  0  0  0  0  0  0  0  0
    6.9866   -1.9366   21.3580 C   0  0  0  0  0  0  0  0  0  0  0  0
    7.8721   -0.1194   23.8831 C   0  0  0  0  0  0  0  0  0  0  0  0
    8.6238   -0.7606   22.6929 C   0  0  3  0  0  0  0  0  0  0  0  0
    7.7686    4.7292   25.7898 C   0  0  0  0  0  0  0  0  0  0  0  0
    9.2684    6.4037   25.1046 C   0  0  0  0  0  0  0  0  0  0  0  0
    0.5684    2.8307   20.6204 C   0  0  0  0  0  0  0  0  0  0  0  0
    8.3874    3.5882   25.0137 C   0  0  0  0  0  0  0  0  0  0  0  0
    6.3062    0.3769   17.3421 N   0  0  0  0  0  0  0  0  0  0  0  0
    7.2292   -0.6897   20.7790 N   0  0  0  0  0  0  0  0  0  0  0  0
    8.6609    1.0133   24.4995 N   0  0  1  0  0  0  0  0  0  0  0  0
    8.8299    1.0397   21.0799 O   0  0  0  0  0  0  0  0  0  0  0  0
    2.1837    4.2424   22.1279 O   0  0  0  0  0  0  0  0  0  0  0  0
    2.0366    4.7621   19.6674 O   0  0  0  0  0  0  0  0  0  0  0  0
    8.2407    1.8013   26.9144 O   0  0  0  0  0  0  0  0  0  0  0  0
    6.3653    1.9471   25.2271 O   0  0  0  0  0  0  0  0  0  0  0  0
    8.7111    5.7271   26.2159 O   0  0  0  0  0  0  0  0  0  0  0  0
    2.0618    3.7881   20.7501 S   0  0  0  0  0  0  0  0  0  0  0  0
    7.7708    2.0177   25.5632 S   0  0  0  0  0  0  0  0  0  0  0  0
   13.4272   -2.1411   21.1086 Cl  0  0  0  0  0  0  0  0  0  0  0  0
    5.3114    0.4892   22.1572 H   0  0  0  0  0  0  0  0  0  0  0  0
   12.5024    0.5995   24.9735 H   0  0  0  0  0  0  0  0  0  0  0  0
    3.5259    2.1069   22.5217 H   0  0  0  0  0  0  0  0  0  0  0  0
   13.9910   -0.5177   23.3793 H   0  0  0  0  0  0  0  0  0  0  0  0
    3.3486    2.9706   18.3290 H   0  0  0  0  0  0  0  0  0  0  0  0
   10.6036   -2.0162   21.2241 H   0  0  0  0  0  0  0  0  0  0  0  0
    4.9146    1.7518   16.7474 H   0  0  0  0  0  0  0  0  0  0  0  0
    7.6451   -0.9755   18.1042 H   0  0  0  0  0  0  0  0  0  0  0  0
    9.7849   -0.1194   25.8306 H   0  0  0  0  0  0  0  0  0  0  0  0
   10.4793    1.4568   25.3613 H   0  0  0  0  0  0  0  0  0  0  0  0
    5.8551    4.7302   24.6340 H   0  0  0  0  0  0  0  0  0  0  0  0
    6.2057    6.2948   25.4948 H   0  0  0  0  0  0  0  0  0  0  0  0
    6.5550    5.0353   27.6379 H   0  0  0  0  0  0  0  0  0  0  0  0
    6.2048    3.4720   26.7745 H   0  0  0  0  0  0  0  0  0  0  0  0
    7.5152   -2.5456   23.3338 H   0  0  0  0  0  0  0  0  0  0  0  0
    8.7649   -2.9030   22.1434 H   0  0  0  0  0  0  0  0  0  0  0  0
    7.0587   -2.7248   20.5721 H   0  0  0  0  0  0  0  0  0  0  0  0
    5.9518   -1.9952   21.7720 H   0  0  0  0  0  0  0  0  0  0  0  0
    6.8867    0.2641   23.5642 H   0  0  0  0  0  0  0  0  0  0  0  0
    7.6652   -0.8660   24.6733 H   0  0  0  0  0  0  0  0  0  0  0  0
    9.9802    7.1555   25.4542 H   0  0  0  0  0  0  0  0  0  0  0  0
    8.4706    6.8812   24.5300 H   0  0  0  0  0  0  0  0  0  0  0  0
    9.7876    5.6802   24.4717 H   0  0  0  0  0  0  0  0  0  0  0  0
   -0.2810    3.4917   20.7998 H   0  0  0  0  0  0  0  0  0  0  0  0
    0.5175    2.4065   19.6165 H   0  0  0  0  0  0  0  0  0  0  0  0
    0.6014    2.0383   21.3695 H   0  0  0  0  0  0  0  0  0  0  0  0
    9.4732    3.5710   25.1421 H   0  0  0  0  0  0  0  0  0  0  0  0
    8.1577    3.6698   23.9479 H   0  0  0  0  0  0  0  0  0  0  0  0
  1  3  2  0  0  0  0
  1  9  1  0  0  0  0
  2  4  2  0  0  0  0
  2 11  1  0  0  0  0
  3 14  1  0  0  0  0
  4 15  1  0  0  0  0
  5 10  1  0  0  0  0
  5 14  2  0  0  0  0
  6 12  1  0  0  0  0
  6 15  2  0  0  0  0
  7 10  2  0  0  0  0
  7 28  1  0  0  0  0
  8 13  1  0  0  0  0
  8 28  2  0  0  0  0
  9 10  1  0  0  0  0
  9 13  2  0  0  0  0
 11 12  2  0  0  0  0
 11 17  1  0  0  0  0
 12 23  1  0  0  0  0
 13 29  1  0  0  0  0
 14 37  1  0  0  0  0
 15 39  1  0  0  0  0
 16 23  1  0  0  0  0
 16 29  1  0  0  0  0
 16 31  2  0  0  0  0
 17 30  1  0  0  0  0
 18 19  1  0  0  0  0
 18 24  1  0  0  0  0
 19 24  1  0  0  0  0
 20 21  1  0  0  0  0
 20 23  1  0  0  0  0
 21 29  1  0  0  0  0
 22 23  1  0  0  0  0
 22 30  1  0  0  0  0
 24 27  1  0  0  0  0
 24 36  1  0  0  0  0
 25 36  1  0  0  0  0
 26 37  1  0  0  0  0
 27 38  1  0  0  0  0
 30 38  1  6  0  0  0
 32 37  2  0  0  0  0
 33 37  2  0  0  0  0
 34 38  2  0  0  0  0
 35 38  2  0  0  0  0
  1 40  1  0  0  0  0
  2 41  1  0  0  0  0
  3 42  1  0  0  0  0
  4 43  1  0  0  0  0
  5 44  1  0  0  0  0
  6 45  1  0  0  0  0
  7 46  1  0  0  0  0
  8 47  1  0  0  0  0
 17 48  1  0  0  0  0
 17 49  1  0  0  0  0
 18 50  1  0  0  0  0
 18 51  1  0  0  0  0
 19 52  1  0  0  0  0
 19 53  1  0  0  0  0
 20 54  1  0  0  0  0
 20 55  1  0  0  0  0
 21 56  1  0  0  0  0
 21 57  1  0  0  0  0
 22 58  1  0  0  0  0
 22 59  1  0  0  0  0
 25 60  1  0  0  0  0
 25 61  1  0  0  0  0
 25 62  1  0  0  0  0
 26 63  1  0  0  0  0
 26 64  1  0  0  0  0
 26 65  1  0  0  0  0
 27 66  1  0  0  0  0
 27 67  1  0  0  0  0
M  END
> <compound>
MAT-POS-853c0ffa-16

> <compound_smiles>
COC1(CC1)CS(=O)(=O)N2Cc3ccc(cc3C4(C2)CCN(C4=O)c5cncc6c5ccc(c6)S(=O)(=O)C)Cl

> <enantiomer_smiles>
COC1(CC1)CS(=O)(=O)[N@]2Cc3ccc(cc3C4(C2)CCN(C4=O)c5cncc6c5ccc(c6)S(=O)(=O)C)Cl

> <scaffold>
tetrahydroisoquinoline-5spiro-isoquinoline

> <clash_score>
0

> <docking_score>
-8.628528594970703

> <overlap_score>
0.9739323854446411

> <MMFF_internal_energy>
152.0334163272379

> <docked_smiles>
COC1(CC1)CS(=O)(=O)[N@]2Cc3ccc(cc3[C@]4(C2)CCN(C4=O)c5cncc6c5ccc(c6)S(=O)(=O)C)Cl

$$$$
MAT-POS-853c0ffa-11_1
  -OEChem-12272114583D

 68 73  0     1  0  0  0  0  0999 V2000
    9.9899    5.1222   23.8236 C   0  0  0  0  0  0  0  0  0  0  0  0
    3.7865    2.4205   19.1660 C   0  0  0  0  0  0  0  0  0  0  0  0
   12.0765    0.0316   24.1541 C   0  0  0  0  0  0  0  0  0  0  0  0
    3.3432    2.6279   20.4411 C   0  0  0  0  0  0  0  0  0  0  0  0
   12.9132   -0.6032   23.2569 C   0  0  0  0  0  0  0  0  0  0  0  0
    4.8973    1.0233   21.2988 C   0  0  0  0  0  0  0  0  0  0  0  0
   10.9991   -1.4331   22.0443 C   0  0  0  0  0  0  0  0  0  0  0  0
    5.3278    1.2339   17.6066 C   0  0  0  0  0  0  0  0  0  0  0  0
    6.8438   -0.2892   18.3752 C   0  0  0  0  0  0  0  0  0  0  0  0
    4.8226    1.4906   18.9054 C   0  0  0  0  0  0  0  0  0  0  0  0
    5.3982    0.7733   19.9948 C   0  0  0  0  0  0  0  0  0  0  0  0
   10.7040   -0.0625   23.9898 C   0  0  0  0  0  0  0  0  0  0  0  0
   10.1406   -0.7765   22.9250 C   0  0  0  0  0  0  0  0  0  0  0  0
    3.8960    1.9291   21.5050 C   0  0  0  0  0  0  0  0  0  0  0  0
    6.4440   -0.1472   19.6979 C   0  0  0  0  0  0  0  0  0  0  0  0
   12.3683   -1.3298   22.2234 C   0  0  0  0  0  0  0  0  0  0  0  0
    8.2490    0.0169   21.4271 C   0  0  0  0  0  0  0  0  0  0  0  0
    9.9479    0.5589   24.9534 C   0  0  0  0  0  0  0  0  0  0  0  0
    8.5324    6.1021   25.6323 C   0  0  0  0  0  0  0  0  0  0  0  0
    7.7014    6.0179   24.3861 C   0  0  0  0  0  0  0  0  0  0  0  0
    8.0140   -2.1541   22.4331 C   0  0  0  0  0  0  0  0  0  0  0  0
    6.9866   -1.9366   21.3580 C   0  0  0  0  0  0  0  0  0  0  0  0
    7.8721   -0.1194   23.8831 C   0  0  0  0  0  0  0  0  0  0  0  0
    8.7994    5.0058   24.6255 C   0  0  0  0  0  0  0  0  0  0  0  0
    8.6238   -0.7606   22.6929 C   0  0  3  0  0  0  0  0  0  0  0  0
    4.0713    1.3444   23.9987 C   0  0  0  0  0  0  0  0  0  0  0  0
    1.8550    1.9400   22.9655 C   0  0  0  0  0  0  0  0  0  0  0  0
    8.3989    3.5932   24.9882 C   0  0  0  0  0  0  0  0  0  0  0  0
    3.3796    2.1809   22.8922 C   0  0  0  0  0  0  0  0  0  0  0  0
   10.9490    5.2161   23.1776 N   0  0  0  0  0  0  0  0  0  0  0  0
    6.3062    0.3769   17.3421 N   0  0  0  0  0  0  0  0  0  0  0  0
    7.2292   -0.6897   20.7790 N   0  0  0  0  0  0  0  0  0  0  0  0
    8.6609    1.0133   24.4995 N   0  0  1  0  0  0  0  0  0  0  0  0
    8.7572    1.0941   21.1350 O   0  0  0  0  0  0  0  0  0  0  0  0
    7.4179    2.5201   22.8172 O   0  0  0  0  0  0  0  0  0  0  0  0
    9.9251    2.7322   23.0499 O   0  0  0  0  0  0  0  0  0  0  0  0
    3.6020    3.5570   23.2770 O   0  0  0  0  0  0  0  0  0  0  0  0
    8.6198    2.4832   23.6217 S   0  0  0  0  0  0  0  0  0  0  0  0
   13.4275   -2.1421   21.1097 Cl  0  0  0  0  0  0  0  0  0  0  0  0
    3.3419    2.9747   18.3362 H   0  0  0  0  0  0  0  0  0  0  0  0
   12.5015    0.5938   24.9776 H   0  0  0  0  0  0  0  0  0  0  0  0
    2.5411    3.3529   20.6267 H   0  0  0  0  0  0  0  0  0  0  0  0
   13.9911   -0.5212   23.3814 H   0  0  0  0  0  0  0  0  0  0  0  0
    5.3175    0.4836   22.1518 H   0  0  0  0  0  0  0  0  0  0  0  0
   10.6037   -2.0228   21.2288 H   0  0  0  0  0  0  0  0  0  0  0  0
    4.9134    1.7510   16.7475 H   0  0  0  0  0  0  0  0  0  0  0  0
    7.6450   -0.9758   18.1044 H   0  0  0  0  0  0  0  0  0  0  0  0
    9.7581   -0.1287   25.8173 H   0  0  0  0  0  0  0  0  0  0  0  0
   10.4931    1.4391   25.3829 H   0  0  0  0  0  0  0  0  0  0  0  0
    9.2347    6.9241   25.7129 H   0  0  0  0  0  0  0  0  0  0  0  0
    8.0587    5.8395   26.5712 H   0  0  0  0  0  0  0  0  0  0  0  0
    6.6706    5.6996   24.4905 H   0  0  0  0  0  0  0  0  0  0  0  0
    7.8473    6.7843   23.6333 H   0  0  0  0  0  0  0  0  0  0  0  0
    7.5801   -2.6060   23.3366 H   0  0  0  0  0  0  0  0  0  0  0  0
    8.7749   -2.8608   22.0657 H   0  0  0  0  0  0  0  0  0  0  0  0
    7.0227   -2.7506   20.5953 H   0  0  0  0  0  0  0  0  0  0  0  0
    5.9554   -1.9484   21.7832 H   0  0  0  0  0  0  0  0  0  0  0  0
    6.8886    0.2769   23.5666 H   0  0  0  0  0  0  0  0  0  0  0  0
    7.6579   -0.8710   24.6633 H   0  0  0  0  0  0  0  0  0  0  0  0
    3.6621    1.5606   24.9931 H   0  0  0  0  0  0  0  0  0  0  0  0
    3.9688    0.2682   23.8273 H   0  0  0  0  0  0  0  0  0  0  0  0
    5.1395    1.5875   24.0446 H   0  0  0  0  0  0  0  0  0  0  0  0
    1.4570    2.1130   23.9721 H   0  0  0  0  0  0  0  0  0  0  0  0
    1.6000    0.9177   22.6657 H   0  0  0  0  0  0  0  0  0  0  0  0
    1.3246    2.6326   22.3011 H   0  0  0  0  0  0  0  0  0  0  0  0
    7.3445    3.5466   25.2742 H   0  0  0  0  0  0  0  0  0  0  0  0
    9.0072    3.2136   25.8136 H   0  0  0  0  0  0  0  0  0  0  0  0
    3.2499    3.6322   24.1712 H   0  0  0  0  0  0  0  0  0  0  0  0
  1 24  1  0  0  0  0
  1 30  3  0  0  0  0
  2  4  2  0  0  0  0
  2 10  1  0  0  0  0
  3  5  1  0  0  0  0
  3 12  2  0  0  0  0
  4 14  1  0  0  0  0
  5 16  2  0  0  0  0
  6 11  1  0  0  0  0
  6 14  2  0  0  0  0
  7 13  2  0  0  0  0
  7 16  1  0  0  0  0
  8 10  1  0  0  0  0
  8 31  2  0  0  0  0
  9 15  2  0  0  0  0
  9 31  1  0  0  0  0
 10 11  2  0  0  0  0
 11 15  1  0  0  0  0
 12 13  1  0  0  0  0
 12 18  1  0  0  0  0
 13 25  1  0  0  0  0
 14 29  1  0  0  0  0
 15 32  1  0  0  0  0
 16 39  1  0  0  0  0
 17 25  1  0  0  0  0
 17 32  1  0  0  0  0
 17 34  2  0  0  0  0
 18 33  1  0  0  0  0
 19 20  1  0  0  0  0
 19 24  1  0  0  0  0
 20 24  1  0  0  0  0
 21 22  1  0  0  0  0
 21 25  1  0  0  0  0
 22 32  1  0  0  0  0
 23 25  1  0  0  0  0
 23 33  1  0  0  0  0
 24 28  1  0  0  0  0
 26 29  1  0  0  0  0
 27 29  1  0  0  0  0
 28 38  1  0  0  0  0
 29 37  1  0  0  0  0
 33 38  1  1  0  0  0
 35 38  2  0  0  0  0
 36 38  2  0  0  0  0
  2 40  1  0  0  0  0
  3 41  1  0  0  0  0
  4 42  1  0  0  0  0
  5 43  1  0  0  0  0
  6 44  1  0  0  0  0
  7 45  1  0  0  0  0
  8 46  1  0  0  0  0
  9 47  1  0  0  0  0
 18 48  1  0  0  0  0
 18 49  1  0  0  0  0
 19 50  1  0  0  0  0
 19 51  1  0  0  0  0
 20 52  1  0  0  0  0
 20 53  1  0  0  0  0
 21 54  1  0  0  0  0
 21 55  1  0  0  0  0
 22 56  1  0  0  0  0
 22 57  1  0  0  0  0
 23 58  1  0  0  0  0
 23 59  1  0  0  0  0
 26 60  1  0  0  0  0
 26 61  1  0  0  0  0
 26 62  1  0  0  0  0
 27 63  1  0  0  0  0
 27 64  1  0  0  0  0
 27 65  1  0  0  0  0
 28 66  1  0  0  0  0
 28 67  1  0  0  0  0
 37 68  1  0  0  0  0
M  END
> <compound>
MAT-POS-853c0ffa-11

> <compound_smiles>
CC(C)(c1ccc2cncc(c2c1)N3CCC4(C3=O)CN(Cc5c4cc(cc5)Cl)S(=O)(=O)CC6(CC6)C#N)O

> <enantiomer_smiles>
CC(C)(c1ccc2cncc(c2c1)N3CCC4(C3=O)C[N@@](Cc5c4cc(cc5)Cl)S(=O)(=O)CC6(CC6)C#N)O

> <scaffold>
tetrahydroisoquinoline-5spiro-isoquinoline

> <clash_score>
0

> <docking_score>
-8.720043182373047

> <overlap_score>
0.9809131026268005

> <MMFF_internal_energy>
153.47524871458847

> <docked_smiles>
CC(C)(c1ccc2cncc(c2c1)N3CC[C@@]4(C3=O)C[N@@](Cc5c4cc(cc5)Cl)S(=O)(=O)CC6(CC6)C#N)O

$$$$
MAT-POS-853c0ffa-12_1
  -OEChem-12272114583D

 71 76  0     1  0  0  0  0  0999 V2000
    3.7865    2.4205   19.1660 C   0  0  0  0  0  0  0  0  0  0  0  0
   12.0765    0.0316   24.1541 C   0  0  0  0  0  0  0  0  0  0  0  0
    3.3432    2.6279   20.4411 C   0  0  0  0  0  0  0  0  0  0  0  0
   12.9132   -0.6032   23.2569 C   0  0  0  0  0  0  0  0  0  0  0  0
    4.8973    1.0233   21.2988 C   0  0  0  0  0  0  0  0  0  0  0  0
   10.9991   -1.4331   22.0443 C   0  0  0  0  0  0  0  0  0  0  0  0
    5.3278    1.2339   17.6066 C   0  0  0  0  0  0  0  0  0  0  0  0
    6.8438   -0.2892   18.3752 C   0  0  0  0  0  0  0  0  0  0  0  0
    4.8226    1.4906   18.9054 C   0  0  0  0  0  0  0  0  0  0  0  0
    5.3982    0.7733   19.9948 C   0  0  0  0  0  0  0  0  0  0  0  0
   10.7040   -0.0625   23.9898 C   0  0  0  0  0  0  0  0  0  0  0  0
   10.1406   -0.7765   22.9250 C   0  0  0  0  0  0  0  0  0  0  0  0
    3.8960    1.9291   21.5050 C   0  0  0  0  0  0  0  0  0  0  0  0
    6.4440   -0.1472   19.6979 C   0  0  0  0  0  0  0  0  0  0  0  0
   12.3683   -1.3298   22.2234 C   0  0  0  0  0  0  0  0  0  0  0  0
    8.2490    0.0169   21.4271 C   0  0  0  0  0  0  0  0  0  0  0  0
    9.9479    0.5589   24.9534 C   0  0  0  0  0  0  0  0  0  0  0  0
    8.5717    6.1499   25.5025 C   0  0  0  0  0  0  0  0  0  0  0  0
    9.5725    5.8605   24.4183 C   0  0  0  0  0  0  0  0  0  0  0  0
    8.0140   -2.1541   22.4331 C   0  0  0  0  0  0  0  0  0  0  0  0
    6.9866   -1.9366   21.3580 C   0  0  0  0  0  0  0  0  0  0  0  0
    7.8721   -0.1194   23.8831 C   0  0  0  0  0  0  0  0  0  0  0  0
    8.6238   -0.7606   22.6929 C   0  0  3  0  0  0  0  0  0  0  0  0
    8.3214    5.0316   24.5273 C   0  0  0  0  0  0  0  0  0  0  0  0
    4.0713    1.3444   23.9987 C   0  0  0  0  0  0  0  0  0  0  0  0
    1.8550    1.9400   22.9655 C   0  0  0  0  0  0  0  0  0  0  0  0
    7.8189    6.0646   22.4772 C   0  0  0  0  0  0  0  0  0  0  0  0
    8.3989    3.5932   24.9882 C   0  0  0  0  0  0  0  0  0  0  0  0
    3.3796    2.1809   22.8922 C   0  0  0  0  0  0  0  0  0  0  0  0
    6.3062    0.3769   17.3421 N   0  0  0  0  0  0  0  0  0  0  0  0
    7.2292   -0.6897   20.7790 N   0  0  0  0  0  0  0  0  0  0  0  0
    8.6609    1.0133   24.4995 N   0  0  1  0  0  0  0  0  0  0  0  0
    8.7572    1.0941   21.1350 O   0  0  0  0  0  0  0  0  0  0  0  0
    7.4179    2.5201   22.8172 O   0  0  0  0  0  0  0  0  0  0  0  0
    9.9251    2.7322   23.0499 O   0  0  0  0  0  0  0  0  0  0  0  0
    3.6020    3.5570   23.2770 O   0  0  0  0  0  0  0  0  0  0  0  0
    7.3097    5.2755   23.5361 O   0  0  0  0  0  0  0  0  0  0  0  0
    8.6198    2.4832   23.6217 S   0  0  0  0  0  0  0  0  0  0  0  0
   13.4275   -2.1421   21.1097 Cl  0  0  0  0  0  0  0  0  0  0  0  0
    3.3419    2.9747   18.3362 H   0  0  0  0  0  0  0  0  0  0  0  0
   12.5015    0.5938   24.9776 H   0  0  0  0  0  0  0  0  0  0  0  0
    2.5411    3.3529   20.6267 H   0  0  0  0  0  0  0  0  0  0  0  0
   13.9911   -0.5212   23.3814 H   0  0  0  0  0  0  0  0  0  0  0  0
    5.3175    0.4836   22.1518 H   0  0  0  0  0  0  0  0  0  0  0  0
   10.6037   -2.0228   21.2288 H   0  0  0  0  0  0  0  0  0  0  0  0
    4.9134    1.7510   16.7475 H   0  0  0  0  0  0  0  0  0  0  0  0
    7.6450   -0.9758   18.1044 H   0  0  0  0  0  0  0  0  0  0  0  0
    9.7581   -0.1287   25.8173 H   0  0  0  0  0  0  0  0  0  0  0  0
   10.4931    1.4391   25.3829 H   0  0  0  0  0  0  0  0  0  0  0  0
    8.8470    5.8986   26.5197 H   0  0  0  0  0  0  0  0  0  0  0  0
    7.9782    7.0516   25.4117 H   0  0  0  0  0  0  0  0  0  0  0  0
    9.6492    6.5687   23.6018 H   0  0  0  0  0  0  0  0  0  0  0  0
   10.5156    5.4155   24.7115 H   0  0  0  0  0  0  0  0  0  0  0  0
    7.5801   -2.6060   23.3366 H   0  0  0  0  0  0  0  0  0  0  0  0
    8.7749   -2.8608   22.0657 H   0  0  0  0  0  0  0  0  0  0  0  0
    7.0227   -2.7506   20.5953 H   0  0  0  0  0  0  0  0  0  0  0  0
    5.9554   -1.9484   21.7832 H   0  0  0  0  0  0  0  0  0  0  0  0
    6.8886    0.2769   23.5666 H   0  0  0  0  0  0  0  0  0  0  0  0
    7.6579   -0.8710   24.6633 H   0  0  0  0  0  0  0  0  0  0  0  0
    3.6621    1.5606   24.9931 H   0  0  0  0  0  0  0  0  0  0  0  0
    3.9688    0.2682   23.8273 H   0  0  0  0  0  0  0  0  0  0  0  0
    5.1395    1.5875   24.0446 H   0  0  0  0  0  0  0  0  0  0  0  0
    1.4570    2.1130   23.9721 H   0  0  0  0  0  0  0  0  0  0  0  0
    1.6000    0.9177   22.6657 H   0  0  0  0  0  0  0  0  0  0  0  0
    1.3246    2.6326   22.3011 H   0  0  0  0  0  0  0  0  0  0  0  0
    7.0322    6.2356   21.7383 H   0  0  0  0  0  0  0  0  0  0  0  0
    8.6643    5.5508   22.0127 H   0  0  0  0  0  0  0  0  0  0  0  0
    8.1539    7.0241   22.8781 H   0  0  0  0  0  0  0  0  0  0  0  0
    7.4792    3.2960   25.4995 H   0  0  0  0  0  0  0  0  0  0  0  0
    9.2447    3.4440   25.6648 H   0  0  0  0  0  0  0  0  0  0  0  0
    3.2499    3.6322   24.1712 H   0  0  0  0  0  0  0  0  0  0  0  0
  1  3  2  0  0  0  0
  1  9  1  0  0  0  0
  2  4  1  0  0  0  0
  2 11  2  0  0  0  0
  3 13  1  0  0  0  0
  4 15  2  0  0  0  0
  5 10  1  0  0  0  0
  5 13  2  0  0  0  0
  6 12  2  0  0  0  0
  6 15  1  0  0  0  0
  7  9  1  0  0  0  0
  7 30  2  0  0  0  0
  8 14  2  0  0  0  0
  8 30  1  0  0  0  0
  9 10  2  0  0  0  0
 10 14  1  0  0  0  0
 11 12  1  0  0  0  0
 11 17  1  0  0  0  0
 12 23  1  0  0  0  0
 13 29  1  0  0  0  0
 14 31  1  0  0  0  0
 15 39  1  0  0  0  0
 16 23  1  0  0  0  0
 16 31  1  0  0  0  0
 16 33  2  0  0  0  0
 17 32  1  0  0  0  0
 18 19  1  0  0  0  0
 18 24  1  0  0  0  0
 19 24  1  0  0  0  0
 20 21  1  0  0  0  0
 20 23  1  0  0  0  0
 21 31  1  0  0  0  0
 22 23  1  0  0  0  0
 22 32  1  0  0  0  0
 24 28  1  0  0  0  0
 24 37  1  0  0  0  0
 25 29  1  0  0  0  0
 26 29  1  0  0  0  0
 27 37  1  0  0  0  0
 28 38  1  0  0  0  0
 29 36  1  0  0  0  0
 32 38  1  1  0  0  0
 34 38  2  0  0  0  0
 35 38  2  0  0  0  0
  1 40  1  0  0  0  0
  2 41  1  0  0  0  0
  3 42  1  0  0  0  0
  4 43  1  0  0  0  0
  5 44  1  0  0  0  0
  6 45  1  0  0  0  0
  7 46  1  0  0  0  0
  8 47  1  0  0  0  0
 17 48  1  0  0  0  0
 17 49  1  0  0  0  0
 18 50  1  0  0  0  0
 18 51  1  0  0  0  0
 19 52  1  0  0  0  0
 19 53  1  0  0  0  0
 20 54  1  0  0  0  0
 20 55  1  0  0  0  0
 21 56  1  0  0  0  0
 21 57  1  0  0  0  0
 22 58  1  0  0  0  0
 22 59  1  0  0  0  0
 25 60  1  0  0  0  0
 25 61  1  0  0  0  0
 25 62  1  0  0  0  0
 26 63  1  0  0  0  0
 26 64  1  0  0  0  0
 26 65  1  0  0  0  0
 27 66  1  0  0  0  0
 27 67  1  0  0  0  0
 27 68  1  0  0  0  0
 28 69  1  0  0  0  0
 28 70  1  0  0  0  0
 36 71  1  0  0  0  0
M  END
> <compound>
MAT-POS-853c0ffa-12

> <compound_smiles>
CC(C)(c1ccc2cncc(c2c1)N3CCC4(C3=O)CN(Cc5c4cc(cc5)Cl)S(=O)(=O)CC6(CC6)OC)O

> <enantiomer_smiles>
CC(C)(c1ccc2cncc(c2c1)N3CCC4(C3=O)C[N@@](Cc5c4cc(cc5)Cl)S(=O)(=O)CC6(CC6)OC)O

> <scaffold>
tetrahydroisoquinoline-5spiro-isoquinoline

> <clash_score>
0

> <docking_score>
-8.71319580078125

> <overlap_score>
0.9810541868209839

> <MMFF_internal_energy>
168.9856563402957

> <docked_smiles>
CC(C)(c1ccc2cncc(c2c1)N3CC[C@@]4(C3=O)C[N@@](Cc5c4cc(cc5)Cl)S(=O)(=O)CC6(CC6)OC)O

$$$$
MAT-POS-38eb6498-2_1
  -OEChem-12272114583D

 65 70  0     1  0  0  0  0  0999 V2000
    9.9899    5.1222   23.8236 C   0  0  0  0  0  0  0  0  0  0  0  0
    3.7865    2.4205   19.1660 C   0  0  0  0  0  0  0  0  0  0  0  0
    3.3432    2.6279   20.4411 C   0  0  0  0  0  0  0  0  0  0  0  0
   12.0765    0.0316   24.1541 C   0  0  0  0  0  0  0  0  0  0  0  0
   12.9132   -0.6032   23.2569 C   0  0  0  0  0  0  0  0  0  0  0  0
    4.8973    1.0233   21.2988 C   0  0  0  0  0  0  0  0  0  0  0  0
   10.9991   -1.4331   22.0443 C   0  0  0  0  0  0  0  0  0  0  0  0
    5.3278    1.2339   17.6066 C   0  0  0  0  0  0  0  0  0  0  0  0
    6.8438   -0.2892   18.3752 C   0  0  0  0  0  0  0  0  0  0  0  0
    4.8226    1.4906   18.9054 C   0  0  0  0  0  0  0  0  0  0  0  0
    5.3982    0.7733   19.9948 C   0  0  0  0  0  0  0  0  0  0  0  0
    3.8960    1.9291   21.5050 C   0  0  0  0  0  0  0  0  0  0  0  0
   10.7040   -0.0625   23.9898 C   0  0  0  0  0  0  0  0  0  0  0  0
   10.1406   -0.7765   22.9250 C   0  0  0  0  0  0  0  0  0  0  0  0
    6.4440   -0.1472   19.6979 C   0  0  0  0  0  0  0  0  0  0  0  0
   12.3683   -1.3298   22.2234 C   0  0  0  0  0  0  0  0  0  0  0  0
    8.2490    0.0169   21.4271 C   0  0  0  0  0  0  0  0  0  0  0  0
    3.3923    2.1749   22.8577 C   0  0  0  0  0  0  0  0  0  0  0  0
    9.9479    0.5589   24.9534 C   0  0  0  0  0  0  0  0  0  0  0  0
    8.5324    6.1021   25.6323 C   0  0  0  0  0  0  0  0  0  0  0  0
    7.7014    6.0179   24.3861 C   0  0  0  0  0  0  0  0  0  0  0  0
    8.0140   -2.1541   22.4331 C   0  0  0  0  0  0  0  0  0  0  0  0
    6.9866   -1.9366   21.3580 C   0  0  0  0  0  0  0  0  0  0  0  0
    7.8721   -0.1194   23.8831 C   0  0  0  0  0  0  0  0  0  0  0  0
    8.7994    5.0058   24.6255 C   0  0  0  0  0  0  0  0  0  0  0  0
    8.6238   -0.7606   22.6929 C   0  0  3  0  0  0  0  0  0  0  0  0
    1.4440    2.9260   24.2447 C   0  0  0  0  0  0  0  0  0  0  0  0
    8.3989    3.5932   24.9882 C   0  0  0  0  0  0  0  0  0  0  0  0
   10.9490    5.2161   23.1776 N   0  0  0  0  0  0  0  0  0  0  0  0
    6.3062    0.3769   17.3421 N   0  0  0  0  0  0  0  0  0  0  0  0
    7.2292   -0.6897   20.7790 N   0  0  0  0  0  0  0  0  0  0  0  0
    8.6609    1.0133   24.4995 N   0  0  1  0  0  0  0  0  0  0  0  0
    2.0696    2.6162   22.9792 N   0  0  0  0  0  0  0  0  0  0  0  0
    8.7572    1.0941   21.1350 O   0  0  0  0  0  0  0  0  0  0  0  0
    4.1365    2.0147   23.8412 O   0  0  0  0  0  0  0  0  0  0  0  0
    7.4179    2.5201   22.8172 O   0  0  0  0  0  0  0  0  0  0  0  0
    9.9251    2.7322   23.0499 O   0  0  0  0  0  0  0  0  0  0  0  0
    8.6198    2.4832   23.6217 S   0  0  0  0  0  0  0  0  0  0  0  0
   13.4275   -2.1421   21.1097 Cl  0  0  0  0  0  0  0  0  0  0  0  0
    3.3419    2.9748   18.3365 H   0  0  0  0  0  0  0  0  0  0  0  0
    2.5417    3.3539   20.6249 H   0  0  0  0  0  0  0  0  0  0  0  0
   12.5015    0.5938   24.9776 H   0  0  0  0  0  0  0  0  0  0  0  0
   13.9911   -0.5212   23.3814 H   0  0  0  0  0  0  0  0  0  0  0  0
    5.3193    0.4829   22.1508 H   0  0  0  0  0  0  0  0  0  0  0  0
   10.6037   -2.0228   21.2288 H   0  0  0  0  0  0  0  0  0  0  0  0
    4.9132    1.7508   16.7475 H   0  0  0  0  0  0  0  0  0  0  0  0
    7.6453   -0.9751   18.1044 H   0  0  0  0  0  0  0  0  0  0  0  0
    9.7581   -0.1287   25.8173 H   0  0  0  0  0  0  0  0  0  0  0  0
   10.4931    1.4391   25.3829 H   0  0  0  0  0  0  0  0  0  0  0  0
    9.2347    6.9241   25.7129 H   0  0  0  0  0  0  0  0  0  0  0  0
    8.0587    5.8395   26.5712 H   0  0  0  0  0  0  0  0  0  0  0  0
    6.6706    5.6996   24.4905 H   0  0  0  0  0  0  0  0  0  0  0  0
    7.8473    6.7843   23.6333 H   0  0  0  0  0  0  0  0  0  0  0  0
    7.5801   -2.6060   23.3366 H   0  0  0  0  0  0  0  0  0  0  0  0
    8.7749   -2.8608   22.0657 H   0  0  0  0  0  0  0  0  0  0  0  0
    7.0227   -2.7506   20.5953 H   0  0  0  0  0  0  0  0  0  0  0  0
    5.9554   -1.9484   21.7832 H   0  0  0  0  0  0  0  0  0  0  0  0
    6.8886    0.2769   23.5666 H   0  0  0  0  0  0  0  0  0  0  0  0
    7.6579   -0.8710   24.6633 H   0  0  0  0  0  0  0  0  0  0  0  0
    0.9031    2.0418   24.6131 H   0  0  0  0  0  0  0  0  0  0  0  0
    2.2153    3.2142   24.9741 H   0  0  0  0  0  0  0  0  0  0  0  0
    0.7373    3.7582   24.1102 H   0  0  0  0  0  0  0  0  0  0  0  0
    7.3445    3.5466   25.2742 H   0  0  0  0  0  0  0  0  0  0  0  0
    9.0072    3.2136   25.8136 H   0  0  0  0  0  0  0  0  0  0  0  0
    1.5258    2.7910   22.1405 H   0  0  0  0  0  0  0  0  0  0  0  0
  1 25  1  0  0  0  0
  1 29  3  0  0  0  0
  2  3  2  0  0  0  0
  2 10  1  0  0  0  0
  3 12  1  0  0  0  0
  4  5  1  0  0  0  0
  4 13  2  0  0  0  0
  5 16  2  0  0  0  0
  6 11  1  0  0  0  0
  6 12  2  0  0  0  0
  7 14  2  0  0  0  0
  7 16  1  0  0  0  0
  8 10  1  0  0  0  0
  8 30  2  0  0  0  0
  9 15  2  0  0  0  0
  9 30  1  0  0  0  0
 10 11  2  0  0  0  0
 11 15  1  0  0  0  0
 12 18  1  0  0  0  0
 13 14  1  0  0  0  0
 13 19  1  0  0  0  0
 14 26  1  0  0  0  0
 15 31  1  0  0  0  0
 16 39  1  0  0  0  0
 17 26  1  0  0  0  0
 17 31  1  0  0  0  0
 17 34  2  0  0  0  0
 18 33  1  0  0  0  0
 18 35  2  0  0  0  0
 19 32  1  0  0  0  0
 20 21  1  0  0  0  0
 20 25  1  0  0  0  0
 21 25  1  0  0  0  0
 22 23  1  0  0  0  0
 22 26  1  0  0  0  0
 23 31  1  0  0  0  0
 24 26  1  0  0  0  0
 24 32  1  0  0  0  0
 25 28  1  0  0  0  0
 27 33  1  0  0  0  0
 28 38  1  0  0  0  0
 32 38  1  1  0  0  0
 36 38  2  0  0  0  0
 37 38  2  0  0  0  0
  2 40  1  0  0  0  0
  3 41  1  0  0  0  0
  4 42  1  0  0  0  0
  5 43  1  0  0  0  0
  6 44  1  0  0  0  0
  7 45  1  0  0  0  0
  8 46  1  0  0  0  0
  9 47  1  0  0  0  0
 19 48  1  0  0  0  0
 19 49  1  0  0  0  0
 20 50  1  0  0  0  0
 20 51  1  0  0  0  0
 21 52  1  0  0  0  0
 21 53  1  0  0  0  0
 22 54  1  0  0  0  0
 22 55  1  0  0  0  0
 23 56  1  0  0  0  0
 23 57  1  0  0  0  0
 24 58  1  0  0  0  0
 24 59  1  0  0  0  0
 27 60  1  0  0  0  0
 27 61  1  0  0  0  0
 27 62  1  0  0  0  0
 28 63  1  0  0  0  0
 28 64  1  0  0  0  0
 33 65  1  0  0  0  0
M  END
> <compound>
MAT-POS-38eb6498-2

> <compound_smiles>
CNC(=O)c1ccc2cncc(c2c1)N3CCC4(C3=O)CN(Cc5c4cc(cc5)Cl)S(=O)(=O)CC6(CC6)C#N

> <enantiomer_smiles>
CNC(=O)c1ccc2cncc(c2c1)N3CCC4(C3=O)C[N@@](Cc5c4cc(cc5)Cl)S(=O)(=O)CC6(CC6)C#N

> <scaffold>
tetrahydroisoquinoline-5spiro-isoquinoline

> <clash_score>
0

> <docking_score>
-8.473189353942871

> <overlap_score>
0.9802371859550476

> <MMFF_internal_energy>
123.44777814375074

> <docked_smiles>
CNC(=O)c1ccc2cncc(c2c1)N3CC[C@@]4(C3=O)C[N@@](Cc5c4cc(cc5)Cl)S(=O)(=O)CC6(CC6)C#N

$$$$
MAT-POS-38eb6498-2_2
  -OEChem-12272114583D

 65 70  0     1  0  0  0  0  0999 V2000
    7.3205    3.4054   22.7658 C   0  0  0  0  0  0  0  0  0  0  0  0
    3.7865    2.4205   19.1660 C   0  0  0  0  0  0  0  0  0  0  0  0
    3.3432    2.6279   20.4411 C   0  0  0  0  0  0  0  0  0  0  0  0
   12.0765    0.0316   24.1541 C   0  0  0  0  0  0  0  0  0  0  0  0
   12.9132   -0.6032   23.2569 C   0  0  0  0  0  0  0  0  0  0  0  0
    4.8973    1.0233   21.2988 C   0  0  0  0  0  0  0  0  0  0  0  0
   10.9991   -1.4331   22.0443 C   0  0  0  0  0  0  0  0  0  0  0  0
    5.3278    1.2339   17.6066 C   0  0  0  0  0  0  0  0  0  0  0  0
    6.8438   -0.2892   18.3752 C   0  0  0  0  0  0  0  0  0  0  0  0
    4.8226    1.4906   18.9054 C   0  0  0  0  0  0  0  0  0  0  0  0
    5.3982    0.7733   19.9948 C   0  0  0  0  0  0  0  0  0  0  0  0
    3.8960    1.9291   21.5050 C   0  0  0  0  0  0  0  0  0  0  0  0
   10.7040   -0.0625   23.9898 C   0  0  0  0  0  0  0  0  0  0  0  0
   10.1406   -0.7765   22.9250 C   0  0  0  0  0  0  0  0  0  0  0  0
    6.4440   -0.1472   19.6979 C   0  0  0  0  0  0  0  0  0  0  0  0
   12.3683   -1.3298   22.2234 C   0  0  0  0  0  0  0  0  0  0  0  0
    8.2490    0.0169   21.4271 C   0  0  0  0  0  0  0  0  0  0  0  0
    3.3923    2.1749   22.8577 C   0  0  0  0  0  0  0  0  0  0  0  0
    9.9479    0.5589   24.9534 C   0  0  0  0  0  0  0  0  0  0  0  0
    9.8217    3.1213   22.9038 C   0  0  0  0  0  0  0  0  0  0  0  0
    9.5383    4.5944   22.9183 C   0  0  0  0  0  0  0  0  0  0  0  0
    8.0140   -2.1541   22.4331 C   0  0  0  0  0  0  0  0  0  0  0  0
    6.9866   -1.9366   21.3580 C   0  0  0  0  0  0  0  0  0  0  0  0
    7.8721   -0.1194   23.8831 C   0  0  0  0  0  0  0  0  0  0  0  0
    8.5331    3.6312   23.5091 C   0  0  0  0  0  0  0  0  0  0  0  0
    8.6238   -0.7606   22.6929 C   0  0  3  0  0  0  0  0  0  0  0  0
    1.4371    2.9312   24.2322 C   0  0  0  0  0  0  0  0  0  0  0  0
    8.3874    3.5882   25.0137 C   0  0  0  0  0  0  0  0  0  0  0  0
    6.3436    3.2234   22.1669 N   0  0  0  0  0  0  0  0  0  0  0  0
    6.3062    0.3769   17.3421 N   0  0  0  0  0  0  0  0  0  0  0  0
    7.2292   -0.6897   20.7790 N   0  0  0  0  0  0  0  0  0  0  0  0
    8.6609    1.0133   24.4995 N   0  0  2  0  0  0  0  0  0  0  0  0
    2.0688    2.6160   22.9711 N   0  0  0  0  0  0  0  0  0  0  0  0
    8.8299    1.0397   21.0799 O   0  0  0  0  0  0  0  0  0  0  0  0
    4.1320    2.0197   23.8454 O   0  0  0  0  0  0  0  0  0  0  0  0
    8.2407    1.8013   26.9144 O   0  0  0  0  0  0  0  0  0  0  0  0
    6.3653    1.9471   25.2271 O   0  0  0  0  0  0  0  0  0  0  0  0
    7.7708    2.0177   25.5632 S   0  0  0  0  0  0  0  0  0  0  0  0
   13.4272   -2.1411   21.1086 Cl  0  0  0  0  0  0  0  0  0  0  0  0
    3.3419    2.9748   18.3365 H   0  0  0  0  0  0  0  0  0  0  0  0
    2.5417    3.3539   20.6249 H   0  0  0  0  0  0  0  0  0  0  0  0
   12.5024    0.5995   24.9735 H   0  0  0  0  0  0  0  0  0  0  0  0
   13.9910   -0.5177   23.3793 H   0  0  0  0  0  0  0  0  0  0  0  0
    5.3193    0.4829   22.1508 H   0  0  0  0  0  0  0  0  0  0  0  0
   10.6036   -2.0162   21.2241 H   0  0  0  0  0  0  0  0  0  0  0  0
    4.9132    1.7508   16.7475 H   0  0  0  0  0  0  0  0  0  0  0  0
    7.6453   -0.9751   18.1044 H   0  0  0  0  0  0  0  0  0  0  0  0
    9.7849   -0.1194   25.8306 H   0  0  0  0  0  0  0  0  0  0  0  0
   10.4793    1.4568   25.3613 H   0  0  0  0  0  0  0  0  0  0  0  0
    9.7878    2.6129   21.9468 H   0  0  0  0  0  0  0  0  0  0  0  0
   10.5952    2.7515   23.5670 H   0  0  0  0  0  0  0  0  0  0  0  0
   10.1228    5.2116   23.5908 H   0  0  0  0  0  0  0  0  0  0  0  0
    9.3157    5.0716   21.9707 H   0  0  0  0  0  0  0  0  0  0  0  0
    7.5152   -2.5456   23.3338 H   0  0  0  0  0  0  0  0  0  0  0  0
    8.7649   -2.9030   22.1434 H   0  0  0  0  0  0  0  0  0  0  0  0
    7.0587   -2.7248   20.5721 H   0  0  0  0  0  0  0  0  0  0  0  0
    5.9518   -1.9952   21.7720 H   0  0  0  0  0  0  0  0  0  0  0  0
    6.8867    0.2641   23.5642 H   0  0  0  0  0  0  0  0  0  0  0  0
    7.6652   -0.8660   24.6733 H   0  0  0  0  0  0  0  0  0  0  0  0
    0.8951    2.0484   24.6022 H   0  0  0  0  0  0  0  0  0  0  0  0
    2.2049    3.2232   24.9638 H   0  0  0  0  0  0  0  0  0  0  0  0
    0.7307    3.7624   24.0906 H   0  0  0  0  0  0  0  0  0  0  0  0
    7.6838    4.3500   25.3607 H   0  0  0  0  0  0  0  0  0  0  0  0
    9.3513    3.7460   25.5050 H   0  0  0  0  0  0  0  0  0  0  0  0
    1.5288    2.7866   22.1290 H   0  0  0  0  0  0  0  0  0  0  0  0
  1 25  1  0  0  0  0
  1 29  3  0  0  0  0
  2  3  2  0  0  0  0
  2 10  1  0  0  0  0
  3 12  1  0  0  0  0
  4  5  1  0  0  0  0
  4 13  2  0  0  0  0
  5 16  2  0  0  0  0
  6 11  1  0  0  0  0
  6 12  2  0  0  0  0
  7 14  2  0  0  0  0
  7 16  1  0  0  0  0
  8 10  1  0  0  0  0
  8 30  2  0  0  0  0
  9 15  2  0  0  0  0
  9 30  1  0  0  0  0
 10 11  2  0  0  0  0
 11 15  1  0  0  0  0
 12 18  1  0  0  0  0
 13 14  1  0  0  0  0
 13 19  1  0  0  0  0
 14 26  1  0  0  0  0
 15 31  1  0  0  0  0
 16 39  1  0  0  0  0
 17 26  1  0  0  0  0
 17 31  1  0  0  0  0
 17 34  2  0  0  0  0
 18 33  1  0  0  0  0
 18 35  2  0  0  0  0
 19 32  1  0  0  0  0
 20 21  1  0  0  0  0
 20 25  1  0  0  0  0
 21 25  1  0  0  0  0
 22 23  1  0  0  0  0
 22 26  1  0  0  0  0
 23 31  1  0  0  0  0
 24 26  1  0  0  0  0
 24 32  1  0  0  0  0
 25 28  1  0  0  0  0
 27 33  1  0  0  0  0
 28 38  1  0  0  0  0
 32 38  1  6  0  0  0
 36 38  2  0  0  0  0
 37 38  2  0  0  0  0
  2 40  1  0  0  0  0
  3 41  1  0  0  0  0
  4 42  1  0  0  0  0
  5 43  1  0  0  0  0
  6 44  1  0  0  0  0
  7 45  1  0  0  0  0
  8 46  1  0  0  0  0
  9 47  1  0  0  0  0
 19 48  1  0  0  0  0
 19 49  1  0  0  0  0
 20 50  1  0  0  0  0
 20 51  1  0  0  0  0
 21 52  1  0  0  0  0
 21 53  1  0  0  0  0
 22 54  1  0  0  0  0
 22 55  1  0  0  0  0
 23 56  1  0  0  0  0
 23 57  1  0  0  0  0
 24 58  1  0  0  0  0
 24 59  1  0  0  0  0
 27 60  1  0  0  0  0
 27 61  1  0  0  0  0
 27 62  1  0  0  0  0
 28 63  1  0  0  0  0
 28 64  1  0  0  0  0
 33 65  1  0  0  0  0
M  END
> <compound>
MAT-POS-38eb6498-2

> <compound_smiles>
CNC(=O)c1ccc2cncc(c2c1)N3CCC4(C3=O)CN(Cc5c4cc(cc5)Cl)S(=O)(=O)CC6(CC6)C#N

> <enantiomer_smiles>
CNC(=O)c1ccc2cncc(c2c1)N3CCC4(C3=O)C[N@](Cc5c4cc(cc5)Cl)S(=O)(=O)CC6(CC6)C#N

> <scaffold>
tetrahydroisoquinoline-5spiro-isoquinoline

> <clash_score>
0

> <docking_score>
-7.977853298187256

> <overlap_score>
0.9809888005256653

> <MMFF_internal_energy>
120.50350379736534

> <docked_smiles>
CNC(=O)c1ccc2cncc(c2c1)N3CC[C@@]4(C3=O)C[N@](Cc5c4cc(cc5)Cl)S(=O)(=O)CC6(CC6)C#N

$$$$
LUO-POS-b5068a05-2_2
  -OEChem-12272114583D

 58 63  0     1  0  0  0  0  0999 V2000
    6.6748    3.8170   23.2124 C   0  0  0  0  0  0  0  0  0  0  0  0
    5.6487   -2.9689   19.7531 C   0  0  0  0  0  0  0  0  0  0  0  0
    3.3432    2.6279   20.4411 C   0  0  0  0  0  0  0  0  0  0  0  0
    3.8960    1.9291   21.5050 C   0  0  0  0  0  0  0  0  0  0  0  0
    3.7865    2.4205   19.1660 C   0  0  0  0  0  0  0  0  0  0  0  0
    4.8973    1.0233   21.2988 C   0  0  0  0  0  0  0  0  0  0  0  0
   12.0765    0.0316   24.1541 C   0  0  0  0  0  0  0  0  0  0  0  0
   12.9132   -0.6032   23.2569 C   0  0  0  0  0  0  0  0  0  0  0  0
   10.9991   -1.4331   22.0443 C   0  0  0  0  0  0  0  0  0  0  0  0
    5.3278    1.2339   17.6066 C   0  0  0  0  0  0  0  0  0  0  0  0
    6.8438   -0.2892   18.3752 C   0  0  0  0  0  0  0  0  0  0  0  0
    4.8226    1.4906   18.9054 C   0  0  0  0  0  0  0  0  0  0  0  0
    5.3982    0.7733   19.9948 C   0  0  0  0  0  0  0  0  0  0  0  0
   10.7040   -0.0625   23.9898 C   0  0  0  0  0  0  0  0  0  0  0  0
   10.1406   -0.7765   22.9250 C   0  0  0  0  0  0  0  0  0  0  0  0
    6.4440   -0.1472   19.6979 C   0  0  0  0  0  0  0  0  0  0  0  0
   12.3683   -1.3298   22.2234 C   0  0  0  0  0  0  0  0  0  0  0  0
    8.2490    0.0169   21.4271 C   0  0  0  0  0  0  0  0  0  0  0  0
    6.9866   -1.9366   21.3580 C   0  0  0  0  0  0  0  0  0  0  0  0
    9.9479    0.5589   24.9534 C   0  0  0  0  0  0  0  0  0  0  0  0
    9.0541    3.3264   22.5384 C   0  0  0  0  0  0  0  0  0  0  0  0
    8.9599    4.8000   22.8033 C   0  0  0  0  0  0  0  0  0  0  0  0
    7.8721   -0.1194   23.8831 C   0  0  0  0  0  0  0  0  0  0  0  0
    8.0709    3.8426   23.5649 C   0  0  0  0  0  0  0  0  0  0  0  0
    8.6238   -0.7606   22.6929 C   0  0  3  0  0  0  0  0  0  0  0  0
    8.3739    3.5992   25.0264 C   0  0  0  0  0  0  0  0  0  0  0  0
    5.5501    3.7962   22.9284 N   0  0  0  0  0  0  0  0  0  0  0  0
    5.2256   -3.0683   18.6773 N   0  0  0  0  0  0  0  0  0  0  0  0
    6.3062    0.3769   17.3421 N   0  0  0  0  0  0  0  0  0  0  0  0
    8.0140   -2.1541   22.4331 N   0  0  0  0  0  0  0  0  0  0  0  0
    7.2292   -0.6897   20.7790 N   0  0  0  0  0  0  0  0  0  0  0  0
    8.6609    1.0133   24.4995 N   0  0  2  0  0  0  0  0  0  0  0  0
    6.1258   -2.8941   21.0811 N   0  0  0  0  0  0  0  0  0  0  0  0
    8.7545    1.0906   21.1148 O   0  0  0  0  0  0  0  0  0  0  0  0
    8.2183    1.8065   26.9210 O   0  0  0  0  0  0  0  0  0  0  0  0
    6.3733    1.9271   25.1985 O   0  0  0  0  0  0  0  0  0  0  0  0
    7.7708    2.0185   25.5615 S   0  0  0  0  0  0  0  0  0  0  0  0
   13.4271   -2.1432   21.1102 Cl  0  0  0  0  0  0  0  0  0  0  0  0
    2.5432    3.3510   20.6369 H   0  0  0  0  0  0  0  0  0  0  0  0
    3.5174    2.1137   22.5168 H   0  0  0  0  0  0  0  0  0  0  0  0
    3.3409    2.9743   18.3364 H   0  0  0  0  0  0  0  0  0  0  0  0
    5.3118    0.4895   22.1572 H   0  0  0  0  0  0  0  0  0  0  0  0
   12.5019    0.5985   24.9747 H   0  0  0  0  0  0  0  0  0  0  0  0
   13.9909   -0.5179   23.3794 H   0  0  0  0  0  0  0  0  0  0  0  0
   10.6034   -2.0175   21.2244 H   0  0  0  0  0  0  0  0  0  0  0  0
    4.9141    1.7511   16.7474 H   0  0  0  0  0  0  0  0  0  0  0  0
    7.6445   -0.9764   18.1043 H   0  0  0  0  0  0  0  0  0  0  0  0
    9.7860   -0.1179   25.8324 H   0  0  0  0  0  0  0  0  0  0  0  0
   10.4803    1.4570   25.3608 H   0  0  0  0  0  0  0  0  0  0  0  0
    8.6795    2.9620   21.5885 H   0  0  0  0  0  0  0  0  0  0  0  0
    9.9413    2.8090   22.8848 H   0  0  0  0  0  0  0  0  0  0  0  0
    9.7848    5.2699   23.3264 H   0  0  0  0  0  0  0  0  0  0  0  0
    8.5231    5.4216   22.0299 H   0  0  0  0  0  0  0  0  0  0  0  0
    6.8950    0.2703   23.5504 H   0  0  0  0  0  0  0  0  0  0  0  0
    7.6644   -0.8670   24.6688 H   0  0  0  0  0  0  0  0  0  0  0  0
    7.8978    4.3558   25.6562 H   0  0  0  0  0  0  0  0  0  0  0  0
    9.4517    3.6122   25.2101 H   0  0  0  0  0  0  0  0  0  0  0  0
    5.8413   -3.4629   21.8310 H   0  0  0  0  0  0  0  0  0  0  0  0
  1 24  1  0  0  0  0
  1 27  3  0  0  0  0
  2 28  3  0  0  0  0
  2 33  1  0  0  0  0
  3  4  1  0  0  0  0
  3  5  2  0  0  0  0
  4  6  2  0  0  0  0
  5 12  1  0  0  0  0
  6 13  1  0  0  0  0
  7  8  1  0  0  0  0
  7 14  2  0  0  0  0
  8 17  2  0  0  0  0
  9 15  2  0  0  0  0
  9 17  1  0  0  0  0
 10 12  2  0  0  0  0
 10 29  1  0  0  0  0
 11 16  1  0  0  0  0
 11 29  2  0  0  0  0
 12 13  1  0  0  0  0
 13 16  2  0  0  0  0
 14 15  1  0  0  0  0
 14 20  1  0  0  0  0
 15 25  1  0  0  0  0
 16 31  1  0  0  0  0
 17 38  1  0  0  0  0
 18 25  1  0  0  0  0
 18 31  1  0  0  0  0
 18 34  2  0  0  0  0
 19 30  2  0  0  0  0
 19 31  1  0  0  0  0
 19 33  1  0  0  0  0
 20 32  1  0  0  0  0
 21 22  1  0  0  0  0
 21 24  1  0  0  0  0
 22 24  1  0  0  0  0
 23 25  1  0  0  0  0
 23 32  1  0  0  0  0
 24 26  1  0  0  0  0
 25 30  1  0  0  0  0
 26 37  1  0  0  0  0
 32 37  1  6  0  0  0
 35 37  2  0  0  0  0
 36 37  2  0  0  0  0
  3 39  1  0  0  0  0
  4 40  1  0  0  0  0
  5 41  1  0  0  0  0
  6 42  1  0  0  0  0
  7 43  1  0  0  0  0
  8 44  1  0  0  0  0
  9 45  1  0  0  0  0
 10 46  1  0  0  0  0
 11 47  1  0  0  0  0
 20 48  1  0  0  0  0
 20 49  1  0  0  0  0
 21 50  1  0  0  0  0
 21 51  1  0  0  0  0
 22 52  1  0  0  0  0
 22 53  1  0  0  0  0
 23 54  1  0  0  0  0
 23 55  1  0  0  0  0
 26 56  1  0  0  0  0
 26 57  1  0  0  0  0
 33 58  1  0  0  0  0
M  END
> <compound>
LUO-POS-b5068a05-2

> <compound_smiles>
c1ccc2c(c1)cncc2N3C(=O)C4(CN(Cc5c4cc(cc5)Cl)S(=O)(=O)CC6(CC6)C#N)N=C3NC#N

> <enantiomer_smiles>
c1ccc2c(c1)cncc2N3C(=O)C4(C[N@](Cc5c4cc(cc5)Cl)S(=O)(=O)CC6(CC6)C#N)N=C3NC#N

> <scaffold>
tetrahydroisoquinoline-5spiro-isoquinoline

> <clash_score>
0

> <docking_score>
-7.297950744628906

> <overlap_score>
1.0

> <MMFF_internal_energy>
86.30662074559014

> <docked_smiles>
c1ccc2c(c1)cncc2N3C(=O)[C@@]4(C[N@](Cc5c4cc(cc5)Cl)S(=O)(=O)CC6(CC6)C#N)N=C3NC#N

$$$$
MAT-POS-853c0ffa-11_2
  -OEChem-12272114583D

 68 73  0     1  0  0  0  0  0999 V2000
    9.7248    3.0135   22.9874 C   0  0  0  0  0  0  0  0  0  0  0  0
    3.7865    2.4205   19.1660 C   0  0  0  0  0  0  0  0  0  0  0  0
   12.0765    0.0316   24.1541 C   0  0  0  0  0  0  0  0  0  0  0  0
    3.3432    2.6279   20.4411 C   0  0  0  0  0  0  0  0  0  0  0  0
   12.9132   -0.6032   23.2569 C   0  0  0  0  0  0  0  0  0  0  0  0
    4.8973    1.0233   21.2988 C   0  0  0  0  0  0  0  0  0  0  0  0
   10.9991   -1.4331   22.0443 C   0  0  0  0  0  0  0  0  0  0  0  0
    5.3278    1.2339   17.6066 C   0  0  0  0  0  0  0  0  0  0  0  0
    6.8438   -0.2892   18.3752 C   0  0  0  0  0  0  0  0  0  0  0  0
    4.8226    1.4906   18.9054 C   0  0  0  0  0  0  0  0  0  0  0  0
    5.3982    0.7733   19.9948 C   0  0  0  0  0  0  0  0  0  0  0  0
   10.7040   -0.0625   23.9898 C   0  0  0  0  0  0  0  0  0  0  0  0
   10.1406   -0.7765   22.9250 C   0  0  0  0  0  0  0  0  0  0  0  0
    3.8960    1.9291   21.5050 C   0  0  0  0  0  0  0  0  0  0  0  0
    6.4440   -0.1472   19.6979 C   0  0  0  0  0  0  0  0  0  0  0  0
   12.3683   -1.3298   22.2234 C   0  0  0  0  0  0  0  0  0  0  0  0
    8.2490    0.0169   21.4271 C   0  0  0  0  0  0  0  0  0  0  0  0
    9.9479    0.5589   24.9534 C   0  0  0  0  0  0  0  0  0  0  0  0
    8.0042    4.8441   22.7770 C   0  0  0  0  0  0  0  0  0  0  0  0
    7.2790    3.5353   22.6693 C   0  0  0  0  0  0  0  0  0  0  0  0
    8.0140   -2.1541   22.4331 C   0  0  0  0  0  0  0  0  0  0  0  0
    6.9866   -1.9366   21.3580 C   0  0  0  0  0  0  0  0  0  0  0  0
    7.8721   -0.1194   23.8831 C   0  0  0  0  0  0  0  0  0  0  0  0
    8.5331    3.6312   23.5091 C   0  0  0  0  0  0  0  0  0  0  0  0
    8.6238   -0.7606   22.6929 C   0  0  3  0  0  0  0  0  0  0  0  0
    3.4646    0.9680   23.8537 C   0  0  0  0  0  0  0  0  0  0  0  0
    1.9163    2.6749   22.8418 C   0  0  0  0  0  0  0  0  0  0  0  0
    8.3874    3.5882   25.0137 C   0  0  0  0  0  0  0  0  0  0  0  0
    3.3796    2.1809   22.8922 C   0  0  0  0  0  0  0  0  0  0  0  0
   10.6850    2.5159   22.5671 N   0  0  0  0  0  0  0  0  0  0  0  0
    6.3062    0.3769   17.3421 N   0  0  0  0  0  0  0  0  0  0  0  0
    7.2292   -0.6897   20.7790 N   0  0  0  0  0  0  0  0  0  0  0  0
    8.6609    1.0133   24.4995 N   0  0  2  0  0  0  0  0  0  0  0  0
    8.8299    1.0397   21.0799 O   0  0  0  0  0  0  0  0  0  0  0  0
    8.2407    1.8013   26.9144 O   0  0  0  0  0  0  0  0  0  0  0  0
    6.3653    1.9471   25.2271 O   0  0  0  0  0  0  0  0  0  0  0  0
    4.1472    3.2205   23.5413 O   0  0  0  0  0  0  0  0  0  0  0  0
    7.7708    2.0177   25.5632 S   0  0  0  0  0  0  0  0  0  0  0  0
   13.4272   -2.1411   21.1086 Cl  0  0  0  0  0  0  0  0  0  0  0  0
    3.3419    2.9747   18.3362 H   0  0  0  0  0  0  0  0  0  0  0  0
   12.5024    0.5995   24.9735 H   0  0  0  0  0  0  0  0  0  0  0  0
    2.5411    3.3529   20.6267 H   0  0  0  0  0  0  0  0  0  0  0  0
   13.9910   -0.5177   23.3793 H   0  0  0  0  0  0  0  0  0  0  0  0
    5.3175    0.4836   22.1518 H   0  0  0  0  0  0  0  0  0  0  0  0
   10.6036   -2.0162   21.2241 H   0  0  0  0  0  0  0  0  0  0  0  0
    4.9134    1.7510   16.7475 H   0  0  0  0  0  0  0  0  0  0  0  0
    7.6450   -0.9758   18.1044 H   0  0  0  0  0  0  0  0  0  0  0  0
    9.7849   -0.1194   25.8306 H   0  0  0  0  0  0  0  0  0  0  0  0
   10.4793    1.4568   25.3613 H   0  0  0  0  0  0  0  0  0  0  0  0
    8.5318    5.1995   21.8990 H   0  0  0  0  0  0  0  0  0  0  0  0
    7.5346    5.6332   23.3529 H   0  0  0  0  0  0  0  0  0  0  0  0
    6.3229    3.4480   23.1725 H   0  0  0  0  0  0  0  0  0  0  0  0
    7.3207    3.0156   21.7188 H   0  0  0  0  0  0  0  0  0  0  0  0
    7.5152   -2.5456   23.3338 H   0  0  0  0  0  0  0  0  0  0  0  0
    8.7649   -2.9030   22.1434 H   0  0  0  0  0  0  0  0  0  0  0  0
    7.0587   -2.7248   20.5721 H   0  0  0  0  0  0  0  0  0  0  0  0
    5.9518   -1.9952   21.7720 H   0  0  0  0  0  0  0  0  0  0  0  0
    6.8867    0.2641   23.5642 H   0  0  0  0  0  0  0  0  0  0  0  0
    7.6652   -0.8660   24.6733 H   0  0  0  0  0  0  0  0  0  0  0  0
    3.0698    1.2048   24.8491 H   0  0  0  0  0  0  0  0  0  0  0  0
    2.9102    0.1029   23.4767 H   0  0  0  0  0  0  0  0  0  0  0  0
    4.5106    0.6727   23.9984 H   0  0  0  0  0  0  0  0  0  0  0  0
    1.5102    2.8670   23.8417 H   0  0  0  0  0  0  0  0  0  0  0  0
    1.2688    1.9467   22.3414 H   0  0  0  0  0  0  0  0  0  0  0  0
    1.8499    3.6229   22.2948 H   0  0  0  0  0  0  0  0  0  0  0  0
    7.6838    4.3500   25.3607 H   0  0  0  0  0  0  0  0  0  0  0  0
    9.3513    3.7460   25.5050 H   0  0  0  0  0  0  0  0  0  0  0  0
    3.7522    3.3219   24.4147 H   0  0  0  0  0  0  0  0  0  0  0  0
  1 24  1  0  0  0  0
  1 30  3  0  0  0  0
  2  4  2  0  0  0  0
  2 10  1  0  0  0  0
  3  5  1  0  0  0  0
  3 12  2  0  0  0  0
  4 14  1  0  0  0  0
  5 16  2  0  0  0  0
  6 11  1  0  0  0  0
  6 14  2  0  0  0  0
  7 13  2  0  0  0  0
  7 16  1  0  0  0  0
  8 10  1  0  0  0  0
  8 31  2  0  0  0  0
  9 15  2  0  0  0  0
  9 31  1  0  0  0  0
 10 11  2  0  0  0  0
 11 15  1  0  0  0  0
 12 13  1  0  0  0  0
 12 18  1  0  0  0  0
 13 25  1  0  0  0  0
 14 29  1  0  0  0  0
 15 32  1  0  0  0  0
 16 39  1  0  0  0  0
 17 25  1  0  0  0  0
 17 32  1  0  0  0  0
 17 34  2  0  0  0  0
 18 33  1  0  0  0  0
 19 20  1  0  0  0  0
 19 24  1  0  0  0  0
 20 24  1  0  0  0  0
 21 22  1  0  0  0  0
 21 25  1  0  0  0  0
 22 32  1  0  0  0  0
 23 25  1  0  0  0  0
 23 33  1  0  0  0  0
 24 28  1  0  0  0  0
 26 29  1  0  0  0  0
 27 29  1  0  0  0  0
 28 38  1  0  0  0  0
 29 37  1  0  0  0  0
 33 38  1  6  0  0  0
 35 38  2  0  0  0  0
 36 38  2  0  0  0  0
  2 40  1  0  0  0  0
  3 41  1  0  0  0  0
  4 42  1  0  0  0  0
  5 43  1  0  0  0  0
  6 44  1  0  0  0  0
  7 45  1  0  0  0  0
  8 46  1  0  0  0  0
  9 47  1  0  0  0  0
 18 48  1  0  0  0  0
 18 49  1  0  0  0  0
 19 50  1  0  0  0  0
 19 51  1  0  0  0  0
 20 52  1  0  0  0  0
 20 53  1  0  0  0  0
 21 54  1  0  0  0  0
 21 55  1  0  0  0  0
 22 56  1  0  0  0  0
 22 57  1  0  0  0  0
 23 58  1  0  0  0  0
 23 59  1  0  0  0  0
 26 60  1  0  0  0  0
 26 61  1  0  0  0  0
 26 62  1  0  0  0  0
 27 63  1  0  0  0  0
 27 64  1  0  0  0  0
 27 65  1  0  0  0  0
 28 66  1  0  0  0  0
 28 67  1  0  0  0  0
 37 68  1  0  0  0  0
M  END
> <compound>
MAT-POS-853c0ffa-11

> <compound_smiles>
CC(C)(c1ccc2cncc(c2c1)N3CCC4(C3=O)CN(Cc5c4cc(cc5)Cl)S(=O)(=O)CC6(CC6)C#N)O

> <enantiomer_smiles>
CC(C)(c1ccc2cncc(c2c1)N3CCC4(C3=O)C[N@](Cc5c4cc(cc5)Cl)S(=O)(=O)CC6(CC6)C#N)O

> <scaffold>
tetrahydroisoquinoline-5spiro-isoquinoline

> <clash_score>
0

> <docking_score>
-8.197998046875

> <overlap_score>
0.9823108911514282

> <MMFF_internal_energy>
141.87521389271961

> <docked_smiles>
CC(C)(c1ccc2cncc(c2c1)N3CC[C@@]4(C3=O)C[N@](Cc5c4cc(cc5)Cl)S(=O)(=O)CC6(CC6)C#N)O

$$$$
ALP-POS-ecbed2ba-2_2
  -OEChem-12272114583D

 67 72  0     1  0  0  0  0  0999 V2000
    5.9745    4.4308   26.0579 C   0  0  0  0  0  0  0  0  0  0  0  0
    3.3432    2.6279   20.4411 C   0  0  0  0  0  0  0  0  0  0  0  0
    3.8960    1.9291   21.5050 C   0  0  0  0  0  0  0  0  0  0  0  0
    3.7865    2.4205   19.1660 C   0  0  0  0  0  0  0  0  0  0  0  0
    4.8973    1.0233   21.2988 C   0  0  0  0  0  0  0  0  0  0  0  0
   12.0765    0.0316   24.1541 C   0  0  0  0  0  0  0  0  0  0  0  0
   12.9132   -0.6032   23.2569 C   0  0  0  0  0  0  0  0  0  0  0  0
   10.9991   -1.4331   22.0443 C   0  0  0  0  0  0  0  0  0  0  0  0
    5.3278    1.2339   17.6066 C   0  0  0  0  0  0  0  0  0  0  0  0
    6.8438   -0.2892   18.3752 C   0  0  0  0  0  0  0  0  0  0  0  0
    4.8226    1.4906   18.9054 C   0  0  0  0  0  0  0  0  0  0  0  0
    5.3982    0.7733   19.9948 C   0  0  0  0  0  0  0  0  0  0  0  0
   10.7040   -0.0625   23.9898 C   0  0  0  0  0  0  0  0  0  0  0  0
   10.1406   -0.7765   22.9250 C   0  0  0  0  0  0  0  0  0  0  0  0
    6.4440   -0.1472   19.6979 C   0  0  0  0  0  0  0  0  0  0  0  0
   12.3683   -1.3298   22.2234 C   0  0  0  0  0  0  0  0  0  0  0  0
    8.2490    0.0169   21.4271 C   0  0  0  0  0  0  0  0  0  0  0  0
    9.9479    0.5589   24.9534 C   0  0  0  0  0  0  0  0  0  0  0  0
    8.0140   -2.1541   22.4331 C   0  0  0  0  0  0  0  0  0  0  0  0
    8.4496    4.8604   26.3856 C   0  0  0  0  0  0  0  0  0  0  0  0
    7.1623    5.8854   24.3910 C   0  0  0  0  0  0  0  0  0  0  0  0
    6.9866   -1.9366   21.3580 C   0  0  0  0  0  0  0  0  0  0  0  0
    7.8721   -0.1194   23.8831 C   0  0  0  0  0  0  0  0  0  0  0  0
    8.6144    6.3046   26.8356 C   0  0  0  0  0  0  0  0  0  0  0  0
    8.4893    6.5491   24.0484 C   0  0  0  0  0  0  0  0  0  0  0  0
    7.3172    4.6682   25.3415 C   0  0  0  0  0  0  0  0  0  0  0  0
    8.6238   -0.7606   22.6929 C   0  0  3  0  0  0  0  0  0  0  0  0
    7.6244    3.4591   24.5387 C   0  0  0  0  0  0  0  0  0  0  0  0
    4.9631    4.2520   26.5976 N   0  0  0  0  0  0  0  0  0  0  0  0
    6.3062    0.3769   17.3421 N   0  0  0  0  0  0  0  0  0  0  0  0
    7.2292   -0.6897   20.7790 N   0  0  0  0  0  0  0  0  0  0  0  0
    8.6609    1.0133   24.4995 N   0  0  2  0  0  0  0  0  0  0  0  0
    8.8299    1.0397   21.0799 O   0  0  0  0  0  0  0  0  0  0  0  0
   10.6411    7.1726   25.4072 O   0  0  0  0  0  0  0  0  0  0  0  0
    8.5979    8.6360   25.6409 O   0  0  0  0  0  0  0  0  0  0  0  0
    8.5897    2.3626   26.7051 O   0  0  0  0  0  0  0  0  0  0  0  0
    6.4514    1.4449   25.7197 O   0  0  0  0  0  0  0  0  0  0  0  0
    9.2016    7.3258   25.4918 S   0  0  0  0  0  0  0  0  0  0  0  0
    7.7708    2.0177   25.5632 S   0  0  0  0  0  0  0  0  0  0  0  0
   13.4272   -2.1411   21.1086 Cl  0  0  0  0  0  0  0  0  0  0  0  0
    2.5432    3.3510   20.6369 H   0  0  0  0  0  0  0  0  0  0  0  0
    3.5174    2.1137   22.5168 H   0  0  0  0  0  0  0  0  0  0  0  0
    3.3409    2.9743   18.3364 H   0  0  0  0  0  0  0  0  0  0  0  0
    5.3118    0.4895   22.1572 H   0  0  0  0  0  0  0  0  0  0  0  0
   12.5024    0.5995   24.9735 H   0  0  0  0  0  0  0  0  0  0  0  0
   13.9910   -0.5177   23.3793 H   0  0  0  0  0  0  0  0  0  0  0  0
   10.6036   -2.0162   21.2241 H   0  0  0  0  0  0  0  0  0  0  0  0
    4.9141    1.7511   16.7474 H   0  0  0  0  0  0  0  0  0  0  0  0
    7.6445   -0.9764   18.1043 H   0  0  0  0  0  0  0  0  0  0  0  0
    9.7849   -0.1194   25.8306 H   0  0  0  0  0  0  0  0  0  0  0  0
   10.4793    1.4568   25.3613 H   0  0  0  0  0  0  0  0  0  0  0  0
    7.5152   -2.5456   23.3338 H   0  0  0  0  0  0  0  0  0  0  0  0
    8.7649   -2.9030   22.1434 H   0  0  0  0  0  0  0  0  0  0  0  0
    9.3977    4.5114   25.9721 H   0  0  0  0  0  0  0  0  0  0  0  0
    8.2416    4.2394   27.2601 H   0  0  0  0  0  0  0  0  0  0  0  0
    6.5075    6.6248   24.8564 H   0  0  0  0  0  0  0  0  0  0  0  0
    6.6773    5.5734   23.4652 H   0  0  0  0  0  0  0  0  0  0  0  0
    7.0587   -2.7248   20.5721 H   0  0  0  0  0  0  0  0  0  0  0  0
    5.9518   -1.9952   21.7720 H   0  0  0  0  0  0  0  0  0  0  0  0
    6.8867    0.2641   23.5642 H   0  0  0  0  0  0  0  0  0  0  0  0
    7.6652   -0.8660   24.6733 H   0  0  0  0  0  0  0  0  0  0  0  0
    7.6585    6.7213   27.1512 H   0  0  0  0  0  0  0  0  0  0  0  0
    9.3236    6.4007   27.6552 H   0  0  0  0  0  0  0  0  0  0  0  0
    9.2170    5.8374   23.6654 H   0  0  0  0  0  0  0  0  0  0  0  0
    8.3465    7.3352   23.3079 H   0  0  0  0  0  0  0  0  0  0  0  0
    8.5725    3.5734   24.0059 H   0  0  0  0  0  0  0  0  0  0  0  0
    6.8317    3.2595   23.8126 H   0  0  0  0  0  0  0  0  0  0  0  0
  1 26  1  0  0  0  0
  1 29  3  0  0  0  0
  2  3  1  0  0  0  0
  2  4  2  0  0  0  0
  3  5  2  0  0  0  0
  4 11  1  0  0  0  0
  5 12  1  0  0  0  0
  6  7  1  0  0  0  0
  6 13  2  0  0  0  0
  7 16  2  0  0  0  0
  8 14  2  0  0  0  0
  8 16  1  0  0  0  0
  9 11  2  0  0  0  0
  9 30  1  0  0  0  0
 10 15  1  0  0  0  0
 10 30  2  0  0  0  0
 11 12  1  0  0  0  0
 12 15  2  0  0  0  0
 13 14  1  0  0  0  0
 13 18  1  0  0  0  0
 14 27  1  0  0  0  0
 15 31  1  0  0  0  0
 16 40  1  0  0  0  0
 17 27  1  0  0  0  0
 17 31  1  0  0  0  0
 17 33  2  0  0  0  0
 18 32  1  0  0  0  0
 19 22  1  0  0  0  0
 19 27  1  0  0  0  0
 20 24  1  0  0  0  0
 20 26  1  0  0  0  0
 21 25  1  0  0  0  0
 21 26  1  0  0  0  0
 22 31  1  0  0  0  0
 23 27  1  0  0  0  0
 23 32  1  0  0  0  0
 24 38  1  0  0  0  0
 25 38  1  0  0  0  0
 26 28  1  0  0  0  0
 28 39  1  0  0  0  0
 32 39  1  6  0  0  0
 34 38  2  0  0  0  0
 35 38  2  0  0  0  0
 36 39  2  0  0  0  0
 37 39  2  0  0  0  0
  2 41  1  0  0  0  0
  3 42  1  0  0  0  0
  4 43  1  0  0  0  0
  5 44  1  0  0  0  0
  6 45  1  0  0  0  0
  7 46  1  0  0  0  0
  8 47  1  0  0  0  0
  9 48  1  0  0  0  0
 10 49  1  0  0  0  0
 18 50  1  0  0  0  0
 18 51  1  0  0  0  0
 19 52  1  0  0  0  0
 19 53  1  0  0  0  0
 20 54  1  0  0  0  0
 20 55  1  0  0  0  0
 21 56  1  0  0  0  0
 21 57  1  0  0  0  0
 22 58  1  0  0  0  0
 22 59  1  0  0  0  0
 23 60  1  0  0  0  0
 23 61  1  0  0  0  0
 24 62  1  0  0  0  0
 24 63  1  0  0  0  0
 25 64  1  0  0  0  0
 25 65  1  0  0  0  0
 28 66  1  0  0  0  0
 28 67  1  0  0  0  0
M  END
> <compound>
ALP-POS-ecbed2ba-2

> <compound_smiles>
c1ccc2c(c1)cncc2N3CCC4(C3=O)CN(Cc5c4cc(cc5)Cl)S(=O)(=O)CC6(CCS(=O)(=O)CC6)C#N

> <enantiomer_smiles>
c1ccc2c(c1)cncc2N3CCC4(C3=O)C[N@](Cc5c4cc(cc5)Cl)S(=O)(=O)CC6(CCS(=O)(=O)CC6)C#N

> <scaffold>
tetrahydroisoquinoline-5spiro-isoquinoline

> <clash_score>
0

> <docking_score>
-7.457076072692871

> <overlap_score>
0.9626155495643616

> <MMFF_internal_energy>
76.10777586967585

> <docked_smiles>
c1ccc2c(c1)cncc2N3CC[C@@]4(C3=O)C[N@](Cc5c4cc(cc5)Cl)S(=O)(=O)CC6(CCS(=O)(=O)CC6)C#N

$$$$
MAT-POS-38eb6498-4_1
  -OEChem-12272114583D

 69 73  0     1  0  0  0  0  0999 V2000
    3.7865    2.4205   19.1660 C   0  0  0  0  0  0  0  0  0  0  0  0
   12.0765    0.0316   24.1541 C   0  0  0  0  0  0  0  0  0  0  0  0
    3.3432    2.6279   20.4411 C   0  0  0  0  0  0  0  0  0  0  0  0
   12.9132   -0.6032   23.2569 C   0  0  0  0  0  0  0  0  0  0  0  0
    4.8973    1.0233   21.2988 C   0  0  0  0  0  0  0  0  0  0  0  0
   10.9991   -1.4331   22.0443 C   0  0  0  0  0  0  0  0  0  0  0  0
    5.3278    1.2339   17.6066 C   0  0  0  0  0  0  0  0  0  0  0  0
    6.8438   -0.2892   18.3752 C   0  0  0  0  0  0  0  0  0  0  0  0
    4.8226    1.4906   18.9054 C   0  0  0  0  0  0  0  0  0  0  0  0
    5.3982    0.7733   19.9948 C   0  0  0  0  0  0  0  0  0  0  0  0
   10.7040   -0.0625   23.9898 C   0  0  0  0  0  0  0  0  0  0  0  0
   10.1406   -0.7765   22.9250 C   0  0  0  0  0  0  0  0  0  0  0  0
    6.4440   -0.1472   19.6979 C   0  0  0  0  0  0  0  0  0  0  0  0
    3.8960    1.9291   21.5050 C   0  0  0  0  0  0  0  0  0  0  0  0
   12.3683   -1.3298   22.2234 C   0  0  0  0  0  0  0  0  0  0  0  0
    9.9479    0.5589   24.9534 C   0  0  0  0  0  0  0  0  0  0  0  0
    8.2490    0.0169   21.4271 C   0  0  0  0  0  0  0  0  0  0  0  0
    8.4669    3.2198   23.6970 C   0  0  0  0  0  0  0  0  0  0  0  0
    8.0140   -2.1541   22.4331 C   0  0  0  0  0  0  0  0  0  0  0  0
    6.9866   -1.9366   21.3580 C   0  0  0  0  0  0  0  0  0  0  0  0
    7.8721   -0.1194   23.8831 C   0  0  0  0  0  0  0  0  0  0  0  0
    8.6238   -0.7606   22.6929 C   0  0  3  0  0  0  0  0  0  0  0  0
   10.2286    4.9046   23.1758 C   0  0  0  0  0  0  0  0  0  0  0  0
    1.3389    3.1050   23.9925 C   0  0  0  0  0  0  0  0  0  0  0  0
    0.6407    0.7505   24.4041 C   0  0  0  0  0  0  0  0  0  0  0  0
    8.0922    2.2237   24.7645 C   0  0  0  0  0  0  0  0  0  0  0  0
    2.9322    1.4970   25.0305 C   0  0  0  0  0  0  0  0  0  0  0  0
    3.4841    1.0653   23.6862 C   0  0  0  0  0  0  0  0  0  0  0  0
    6.3062    0.3769   17.3421 N   0  0  0  0  0  0  0  0  0  0  0  0
    7.2292   -0.6897   20.7790 N   0  0  0  0  0  0  0  0  0  0  0  0
    8.6609    1.0133   24.4995 N   0  0  0  0  0  0  0  0  0  0  0  0
    9.6355    3.8939   24.0215 N   0  0  0  0  0  0  0  0  0  0  0  0
    1.5096    1.8915   24.8725 N   0  3  0  0  0  0  0  0  0  0  0  0
   10.3214    0.7303   26.1092 O   0  0  0  0  0  0  0  0  0  0  0  0
    8.8193    1.0411   21.0780 O   0  0  0  0  0  0  0  0  0  0  0  0
    7.8085    3.3951   22.6752 O   0  0  0  0  0  0  0  0  0  0  0  0
    3.4227    2.1582   22.7714 O   0  0  0  0  0  0  0  0  0  0  0  0
   13.4274   -2.1468   21.1136 Cl  0  0  0  0  0  0  0  0  0  0  0  0
    3.3406    2.9746   18.3368 H   0  0  0  0  0  0  0  0  0  0  0  0
   12.5172    0.5967   24.9716 H   0  0  0  0  0  0  0  0  0  0  0  0
    2.5407    3.3506   20.6306 H   0  0  0  0  0  0  0  0  0  0  0  0
   13.9905   -0.5221   23.3825 H   0  0  0  0  0  0  0  0  0  0  0  0
    5.3162    0.4858   22.1535 H   0  0  0  0  0  0  0  0  0  0  0  0
   10.6130   -2.0249   21.2272 H   0  0  0  0  0  0  0  0  0  0  0  0
    4.9131    1.7514   16.7479 H   0  0  0  0  0  0  0  0  0  0  0  0
    7.6448   -0.9758   18.1041 H   0  0  0  0  0  0  0  0  0  0  0  0
    7.5110   -2.5276   23.3390 H   0  0  0  0  0  0  0  0  0  0  0  0
    8.7575   -2.9105   22.1433 H   0  0  0  0  0  0  0  0  0  0  0  0
    7.0587   -2.7258   20.5724 H   0  0  0  0  0  0  0  0  0  0  0  0
    5.9512   -1.9960   21.7712 H   0  0  0  0  0  0  0  0  0  0  0  0
    6.9203    0.3184   23.5736 H   0  0  0  0  0  0  0  0  0  0  0  0
    7.6659   -0.8542   24.6623 H   0  0  0  0  0  0  0  0  0  0  0  0
   10.9348    4.4312   22.4778 H   0  0  0  0  0  0  0  0  0  0  0  0
    9.4384    5.4164   22.6069 H   0  0  0  0  0  0  0  0  0  0  0  0
   10.7641    5.6360   23.7990 H   0  0  0  0  0  0  0  0  0  0  0  0
    1.7096    2.8510   22.9978 H   0  0  0  0  0  0  0  0  0  0  0  0
    0.2755    3.3505   23.9645 H   0  0  0  0  0  0  0  0  0  0  0  0
    1.9183    3.9198   24.4310 H   0  0  0  0  0  0  0  0  0  0  0  0
    0.9956    0.4432   23.4187 H   0  0  0  0  0  0  0  0  0  0  0  0
    0.7373   -0.0617   25.1271 H   0  0  0  0  0  0  0  0  0  0  0  0
   -0.3882    1.1123   24.3554 H   0  0  0  0  0  0  0  0  0  0  0  0
    8.4448    2.5768   25.7381 H   0  0  0  0  0  0  0  0  0  0  0  0
    7.0053    2.1037   24.7947 H   0  0  0  0  0  0  0  0  0  0  0  0
    3.4527    2.3730   25.4277 H   0  0  0  0  0  0  0  0  0  0  0  0
    2.9524    0.6805   25.7571 H   0  0  0  0  0  0  0  0  0  0  0  0
    4.5333    0.7722   23.7921 H   0  0  0  0  0  0  0  0  0  0  0  0
    2.9235    0.2216   23.2709 H   0  0  0  0  0  0  0  0  0  0  0  0
   10.0971    3.6657   24.8972 H   0  0  0  0  0  0  0  0  0  0  0  0
    1.1515    2.1606   25.8045 H   0  0  0  0  0  0  0  0  0  0  0  0
  1  3  2  0  0  0  0
  1  9  1  0  0  0  0
  2  4  2  0  0  0  0
  2 11  1  0  0  0  0
  3 14  1  0  0  0  0
  4 15  1  0  0  0  0
  5 10  1  0  0  0  0
  5 14  2  0  0  0  0
  6 12  1  0  0  0  0
  6 15  2  0  0  0  0
  7  9  2  0  0  0  0
  7 29  1  0  0  0  0
  8 13  1  0  0  0  0
  8 29  2  0  0  0  0
  9 10  1  0  0  0  0
 10 13  2  0  0  0  0
 11 12  2  0  0  0  0
 11 16  1  0  0  0  0
 12 22  1  0  0  0  0
 13 30  1  0  0  0  0
 14 37  1  0  0  0  0
 15 38  1  0  0  0  0
 16 31  1  0  0  0  0
 16 34  2  0  0  0  0
 17 22  1  0  0  0  0
 17 30  1  0  0  0  0
 17 35  2  0  0  0  0
 18 26  1  0  0  0  0
 18 32  1  0  0  0  0
 18 36  2  0  0  0  0
 19 20  1  0  0  0  0
 19 22  1  0  0  0  0
 20 30  1  0  0  0  0
 21 22  1  0  0  0  0
 21 31  1  0  0  0  0
 23 32  1  0  0  0  0
 24 33  1  0  0  0  0
 25 33  1  0  0  0  0
 26 31  1  0  0  0  0
 27 28  1  0  0  0  0
 27 33  1  0  0  0  0
 28 37  1  0  0  0  0
  1 39  1  0  0  0  0
  2 40  1  0  0  0  0
  3 41  1  0  0  0  0
  4 42  1  0  0  0  0
  5 43  1  0  0  0  0
  6 44  1  0  0  0  0
  7 45  1  0  0  0  0
  8 46  1  0  0  0  0
 19 47  1  0  0  0  0
 19 48  1  0  0  0  0
 20 49  1  0  0  0  0
 20 50  1  0  0  0  0
 21 51  1  0  0  0  0
 21 52  1  0  0  0  0
 23 53  1  0  0  0  0
 23 54  1  0  0  0  0
 23 55  1  0  0  0  0
 24 56  1  0  0  0  0
 24 57  1  0  0  0  0
 24 58  1  0  0  0  0
 25 59  1  0  0  0  0
 25 60  1  0  0  0  0
 25 61  1  0  0  0  0
 26 62  1  0  0  0  0
 26 63  1  0  0  0  0
 27 64  1  0  0  0  0
 27 65  1  0  0  0  0
 28 66  1  0  0  0  0
 28 67  1  0  0  0  0
 32 68  1  0  0  0  0
 33 69  1  0  0  0  0
M  CHG  1  33   1
M  END
> <compound>
MAT-POS-38eb6498-4

> <compound_smiles>
CNC(=O)CN1CC2(CCN(C2=O)c3cncc4c3cc(cc4)OCCN(C)C)c5cc(ccc5C1=O)Cl

> <enantiomer_smiles>
CNC(=O)CN1CC2(CCN(C2=O)c3cncc4c3cc(cc4)OCCN(C)C)c5cc(ccc5C1=O)Cl

> <scaffold>
tetrahydroisoquinoline-5spiro-isoquinoline

> <clash_score>
0

> <docking_score>
-8.804459571838379

> <overlap_score>
1.0

> <MMFF_internal_energy>
210.49964513882006

> <docked_smiles>
CNC(=O)CN1C[C@]2(CCN(C2=O)c3cncc4c3cc(cc4)OCC[NH+](C)C)c5cc(ccc5C1=O)Cl

$$$$
EDJ-MED-9f4ac58c-4_1
  -OEChem-12272114583D

 63 68  0     1  0  0  0  0  0999 V2000
    7.6188    5.2281   23.1262 C   0  0  0  0  0  0  0  0  0  0  0  0
    4.8973    1.0233   21.2988 C   0  0  0  0  0  0  0  0  0  0  0  0
   12.0765    0.0316   24.1541 C   0  0  0  0  0  0  0  0  0  0  0  0
    3.8960    1.9291   21.5050 C   0  0  0  0  0  0  0  0  0  0  0  0
   12.9132   -0.6032   23.2569 C   0  0  0  0  0  0  0  0  0  0  0  0
    3.7865    2.4205   19.1660 C   0  0  0  0  0  0  0  0  0  0  0  0
   10.9991   -1.4331   22.0443 C   0  0  0  0  0  0  0  0  0  0  0  0
    5.3278    1.2339   17.6066 C   0  0  0  0  0  0  0  0  0  0  0  0
    6.8438   -0.2892   18.3752 C   0  0  0  0  0  0  0  0  0  0  0  0
    5.3982    0.7733   19.9948 C   0  0  0  0  0  0  0  0  0  0  0  0
    4.8226    1.4906   18.9054 C   0  0  0  0  0  0  0  0  0  0  0  0
   10.7040   -0.0625   23.9898 C   0  0  0  0  0  0  0  0  0  0  0  0
   10.1406   -0.7765   22.9250 C   0  0  0  0  0  0  0  0  0  0  0  0
    6.4440   -0.1472   19.6979 C   0  0  0  0  0  0  0  0  0  0  0  0
    3.3432    2.6279   20.4411 C   0  0  0  0  0  0  0  0  0  0  0  0
   12.3683   -1.3298   22.2234 C   0  0  0  0  0  0  0  0  0  0  0  0
    9.9479    0.5589   24.9534 C   0  0  0  0  0  0  0  0  0  0  0  0
    8.2490    0.0169   21.4271 C   0  0  0  0  0  0  0  0  0  0  0  0
    9.9922    5.8998   23.6472 C   0  0  0  0  0  0  0  0  0  0  0  0
    9.2734    5.7498   24.9553 C   0  0  0  0  0  0  0  0  0  0  0  0
    8.0140   -2.1541   22.4331 C   0  0  0  0  0  0  0  0  0  0  0  0
    6.9866   -1.9366   21.3580 C   0  0  0  0  0  0  0  0  0  0  0  0
    7.8721   -0.1194   23.8831 C   0  0  0  0  0  0  0  0  0  0  0  0
    8.8635    4.9012   23.7725 C   0  0  0  0  0  0  0  0  0  0  0  0
    8.6238   -0.7606   22.6929 C   0  0  3  0  0  0  0  0  0  0  0  0
    0.5677    2.8318   20.6206 C   0  0  0  0  0  0  0  0  0  0  0  0
    9.2137    3.4302   23.7961 C   0  0  0  0  0  0  0  0  0  0  0  0
    6.6159    5.4914   22.6056 N   0  0  0  0  0  0  0  0  0  0  0  0
    6.3062    0.3769   17.3421 N   0  0  0  0  0  0  0  0  0  0  0  0
    7.2292   -0.6897   20.7790 N   0  0  0  0  0  0  0  0  0  0  0  0
    8.6609    1.0133   24.4995 N   0  0  0  0  0  0  0  0  0  0  0  0
   10.3149    0.7350   26.1235 O   0  0  0  0  0  0  0  0  0  0  0  0
    8.8183    1.0411   21.0761 O   0  0  0  0  0  0  0  0  0  0  0  0
    2.1882    4.2360   22.1296 O   0  0  0  0  0  0  0  0  0  0  0  0
    2.0335    4.7671   19.6720 O   0  0  0  0  0  0  0  0  0  0  0  0
    8.0349    2.8632   26.0580 O   0  0  0  0  0  0  0  0  0  0  0  0
    6.7654    2.5231   23.8997 O   0  0  0  0  0  0  0  0  0  0  0  0
    2.0618    3.7881   20.7500 S   0  0  0  0  0  0  0  0  0  0  0  0
    7.9905    2.4844   24.6644 S   0  0  0  0  0  0  0  0  0  0  0  0
   13.4278   -2.1472   21.1141 Cl  0  0  0  0  0  0  0  0  0  0  0  0
    5.3114    0.4892   22.1572 H   0  0  0  0  0  0  0  0  0  0  0  0
   12.5173    0.5967   24.9711 H   0  0  0  0  0  0  0  0  0  0  0  0
    3.5259    2.1069   22.5217 H   0  0  0  0  0  0  0  0  0  0  0  0
   13.9906   -0.5212   23.3817 H   0  0  0  0  0  0  0  0  0  0  0  0
    3.3486    2.9706   18.3290 H   0  0  0  0  0  0  0  0  0  0  0  0
   10.6155   -2.0259   21.2280 H   0  0  0  0  0  0  0  0  0  0  0  0
    4.9146    1.7518   16.7474 H   0  0  0  0  0  0  0  0  0  0  0  0
    7.6451   -0.9755   18.1042 H   0  0  0  0  0  0  0  0  0  0  0  0
    9.8269    6.8121   23.0852 H   0  0  0  0  0  0  0  0  0  0  0  0
   11.0086    5.5282   23.5865 H   0  0  0  0  0  0  0  0  0  0  0  0
    9.8088    5.2784   25.7714 H   0  0  0  0  0  0  0  0  0  0  0  0
    8.6278    6.5623   25.2689 H   0  0  0  0  0  0  0  0  0  0  0  0
    7.5103   -2.5286   23.3380 H   0  0  0  0  0  0  0  0  0  0  0  0
    8.7576   -2.9098   22.1428 H   0  0  0  0  0  0  0  0  0  0  0  0
    7.0600   -2.7254   20.5723 H   0  0  0  0  0  0  0  0  0  0  0  0
    5.9510   -1.9973   21.7704 H   0  0  0  0  0  0  0  0  0  0  0  0
    6.8972    0.2928   23.5636 H   0  0  0  0  0  0  0  0  0  0  0  0
    7.6441   -0.8835   24.6470 H   0  0  0  0  0  0  0  0  0  0  0  0
   -0.2809    3.4921   20.8058 H   0  0  0  0  0  0  0  0  0  0  0  0
    0.5135    2.4123   19.6149 H   0  0  0  0  0  0  0  0  0  0  0  0
    0.6028    2.0358   21.3659 H   0  0  0  0  0  0  0  0  0  0  0  0
   10.1689    3.2634   24.3017 H   0  0  0  0  0  0  0  0  0  0  0  0
    9.2740    3.0259   22.7821 H   0  0  0  0  0  0  0  0  0  0  0  0
  1 24  1  0  0  0  0
  1 28  3  0  0  0  0
  2  4  2  0  0  0  0
  2 10  1  0  0  0  0
  3  5  1  0  0  0  0
  3 12  2  0  0  0  0
  4 15  1  0  0  0  0
  5 16  2  0  0  0  0
  6 11  1  0  0  0  0
  6 15  2  0  0  0  0
  7 13  2  0  0  0  0
  7 16  1  0  0  0  0
  8 11  2  0  0  0  0
  8 29  1  0  0  0  0
  9 14  1  0  0  0  0
  9 29  2  0  0  0  0
 10 11  1  0  0  0  0
 10 14  2  0  0  0  0
 12 13  1  0  0  0  0
 12 17  1  0  0  0  0
 13 25  1  0  0  0  0
 14 30  1  0  0  0  0
 15 38  1  0  0  0  0
 16 40  1  0  0  0  0
 17 31  1  0  0  0  0
 17 32  2  0  0  0  0
 18 25  1  0  0  0  0
 18 30  1  0  0  0  0
 18 33  2  0  0  0  0
 19 20  1  0  0  0  0
 19 24  1  0  0  0  0
 20 24  1  0  0  0  0
 21 22  1  0  0  0  0
 21 25  1  0  0  0  0
 22 30  1  0  0  0  0
 23 25  1  0  0  0  0
 23 31  1  0  0  0  0
 24 27  1  0  0  0  0
 26 38  1  0  0  0  0
 27 39  1  0  0  0  0
 31 39  1  0  0  0  0
 34 38  2  0  0  0  0
 35 38  2  0  0  0  0
 36 39  2  0  0  0  0
 37 39  2  0  0  0  0
  2 41  1  0  0  0  0
  3 42  1  0  0  0  0
  4 43  1  0  0  0  0
  5 44  1  0  0  0  0
  6 45  1  0  0  0  0
  7 46  1  0  0  0  0
  8 47  1  0  0  0  0
  9 48  1  0  0  0  0
 19 49  1  0  0  0  0
 19 50  1  0  0  0  0
 20 51  1  0  0  0  0
 20 52  1  0  0  0  0
 21 53  1  0  0  0  0
 21 54  1  0  0  0  0
 22 55  1  0  0  0  0
 22 56  1  0  0  0  0
 23 57  1  0  0  0  0
 23 58  1  0  0  0  0
 26 59  1  0  0  0  0
 26 60  1  0  0  0  0
 26 61  1  0  0  0  0
 27 62  1  0  0  0  0
 27 63  1  0  0  0  0
M  END
> <compound>
EDJ-MED-9f4ac58c-4

> <compound_smiles>
CS(=O)(=O)c1ccc2c(c1)cncc2N3CCC4(C3=O)CN(C(=O)c5c4cc(cc5)Cl)S(=O)(=O)CC6(CC6)C#N

> <enantiomer_smiles>
CS(=O)(=O)c1ccc2c(c1)cncc2N3CCC4(C3=O)CN(C(=O)c5c4cc(cc5)Cl)S(=O)(=O)CC6(CC6)C#N

> <scaffold>
tetrahydroisoquinoline-5spiro-isoquinoline

> <clash_score>
0

> <docking_score>
-8.26463508605957

> <overlap_score>
0.9855800867080688

> <MMFF_internal_energy>
122.18083706654191

> <docked_smiles>
CS(=O)(=O)c1ccc2c(c1)cncc2N3CC[C@@]4(C3=O)CN(C(=O)c5c4cc(cc5)Cl)S(=O)(=O)CC6(CC6)C#N

$$$$
LUO-POS-b5068a05-1_1
  -OEChem-12272114583D

 66 71  0     1  0  0  0  0  0999 V2000
    9.9924    5.1247   23.7579 C   0  0  0  0  0  0  0  0  0  0  0  0
    3.3432    2.6279   20.4411 C   0  0  0  0  0  0  0  0  0  0  0  0
    3.8960    1.9291   21.5050 C   0  0  0  0  0  0  0  0  0  0  0  0
    3.7865    2.4205   19.1660 C   0  0  0  0  0  0  0  0  0  0  0  0
    4.8973    1.0233   21.2988 C   0  0  0  0  0  0  0  0  0  0  0  0
   12.0765    0.0316   24.1541 C   0  0  0  0  0  0  0  0  0  0  0  0
   12.9132   -0.6032   23.2569 C   0  0  0  0  0  0  0  0  0  0  0  0
   10.9991   -1.4331   22.0443 C   0  0  0  0  0  0  0  0  0  0  0  0
    5.3278    1.2339   17.6066 C   0  0  0  0  0  0  0  0  0  0  0  0
    6.8438   -0.2892   18.3752 C   0  0  0  0  0  0  0  0  0  0  0  0
    4.8226    1.4906   18.9054 C   0  0  0  0  0  0  0  0  0  0  0  0
    5.3982    0.7733   19.9948 C   0  0  0  0  0  0  0  0  0  0  0  0
   10.7040   -0.0625   23.9898 C   0  0  0  0  0  0  0  0  0  0  0  0
   10.1406   -0.7765   22.9250 C   0  0  0  0  0  0  0  0  0  0  0  0
    6.4440   -0.1472   19.6979 C   0  0  0  0  0  0  0  0  0  0  0  0
   12.3683   -1.3298   22.2234 C   0  0  0  0  0  0  0  0  0  0  0  0
    8.2490    0.0169   21.4271 C   0  0  0  0  0  0  0  0  0  0  0  0
    6.9866   -1.9366   21.3580 C   0  0  0  0  0  0  0  0  0  0  0  0
    9.9479    0.5589   24.9534 C   0  0  0  0  0  0  0  0  0  0  0  0
    8.5323    6.1551   25.5361 C   0  0  0  0  0  0  0  0  0  0  0  0
    7.7042    6.0388   24.2906 C   0  0  0  0  0  0  0  0  0  0  0  0
    7.8721   -0.1194   23.8831 C   0  0  0  0  0  0  0  0  0  0  0  0
    8.7999    5.0317   24.5598 C   0  0  0  0  0  0  0  0  0  0  0  0
    8.6238   -0.7606   22.6929 C   0  0  3  0  0  0  0  0  0  0  0  0
    4.3483   -4.0996   21.9751 C   0  0  0  0  0  0  0  0  0  0  0  0
    6.7437   -4.8223   22.1914 C   0  0  0  0  0  0  0  0  0  0  0  0
    8.3962    3.6301   24.9592 C   0  0  0  0  0  0  0  0  0  0  0  0
   10.9532    5.1996   23.1118 N   0  0  0  0  0  0  0  0  0  0  0  0
    6.3062    0.3769   17.3421 N   0  0  0  0  0  0  0  0  0  0  0  0
    8.0140   -2.1541   22.4331 N   0  0  0  0  0  0  0  0  0  0  0  0
    7.2292   -0.6897   20.7790 N   0  0  0  0  0  0  0  0  0  0  0  0
    8.6609    1.0133   24.4995 N   0  0  1  0  0  0  0  0  0  0  0  0
    6.1219   -2.8508   21.0833 N   0  0  0  0  0  0  0  0  0  0  0  0
    5.7652   -3.6985   22.2043 N   0  3  0  0  0  0  0  0  0  0  0  0
    8.7514    1.0926   21.1181 O   0  0  0  0  0  0  0  0  0  0  0  0
    7.4144    2.4927   22.8215 O   0  0  0  0  0  0  0  0  0  0  0  0
    9.9213    2.7217   23.0418 O   0  0  0  0  0  0  0  0  0  0  0  0
    8.6184    2.4834   23.6235 S   0  0  0  0  0  0  0  0  0  0  0  0
   13.4270   -2.1422   21.1093 Cl  0  0  0  0  0  0  0  0  0  0  0  0
    2.5432    3.3510   20.6369 H   0  0  0  0  0  0  0  0  0  0  0  0
    3.5174    2.1137   22.5168 H   0  0  0  0  0  0  0  0  0  0  0  0
    3.3409    2.9743   18.3364 H   0  0  0  0  0  0  0  0  0  0  0  0
    5.3118    0.4895   22.1572 H   0  0  0  0  0  0  0  0  0  0  0  0
   12.5018    0.5936   24.9781 H   0  0  0  0  0  0  0  0  0  0  0  0
   13.9909   -0.5208   23.3816 H   0  0  0  0  0  0  0  0  0  0  0  0
   10.6032   -2.0219   21.2276 H   0  0  0  0  0  0  0  0  0  0  0  0
    4.9141    1.7511   16.7474 H   0  0  0  0  0  0  0  0  0  0  0  0
    7.6445   -0.9764   18.1043 H   0  0  0  0  0  0  0  0  0  0  0  0
    9.7593   -0.1291   25.8177 H   0  0  0  0  0  0  0  0  0  0  0  0
   10.4936    1.4389   25.3837 H   0  0  0  0  0  0  0  0  0  0  0  0
    9.2358    6.9779   25.5963 H   0  0  0  0  0  0  0  0  0  0  0  0
    8.0559    5.9185   26.4805 H   0  0  0  0  0  0  0  0  0  0  0  0
    6.6725    5.7251   24.4010 H   0  0  0  0  0  0  0  0  0  0  0  0
    7.8531    6.7845   23.5179 H   0  0  0  0  0  0  0  0  0  0  0  0
    6.8898    0.2728   23.5657 H   0  0  0  0  0  0  0  0  0  0  0  0
    7.6741   -0.8771   24.6603 H   0  0  0  0  0  0  0  0  0  0  0  0
    4.3060   -4.6539   21.0358 H   0  0  0  0  0  0  0  0  0  0  0  0
    4.0381   -4.7249   22.8144 H   0  0  0  0  0  0  0  0  0  0  0  0
    3.7480   -3.1893   21.9209 H   0  0  0  0  0  0  0  0  0  0  0  0
    6.6286   -5.3545   21.2453 H   0  0  0  0  0  0  0  0  0  0  0  0
    7.7443   -4.3953   22.2824 H   0  0  0  0  0  0  0  0  0  0  0  0
    6.5162   -5.4731   23.0378 H   0  0  0  0  0  0  0  0  0  0  0  0
    7.3410    3.5928   25.2438 H   0  0  0  0  0  0  0  0  0  0  0  0
    9.0018    3.2717   25.7960 H   0  0  0  0  0  0  0  0  0  0  0  0
    5.7334   -2.9702   20.1732 H   0  0  0  0  0  0  0  0  0  0  0  0
    5.8443   -3.1716   23.0844 H   0  0  0  0  0  0  0  0  0  0  0  0
  1 23  1  0  0  0  0
  1 28  3  0  0  0  0
  2  3  1  0  0  0  0
  2  4  2  0  0  0  0
  3  5  2  0  0  0  0
  4 11  1  0  0  0  0
  5 12  1  0  0  0  0
  6  7  1  0  0  0  0
  6 13  2  0  0  0  0
  7 16  2  0  0  0  0
  8 14  2  0  0  0  0
  8 16  1  0  0  0  0
  9 11  2  0  0  0  0
  9 29  1  0  0  0  0
 10 15  1  0  0  0  0
 10 29  2  0  0  0  0
 11 12  1  0  0  0  0
 12 15  2  0  0  0  0
 13 14  1  0  0  0  0
 13 19  1  0  0  0  0
 14 24  1  0  0  0  0
 15 31  1  0  0  0  0
 16 39  1  0  0  0  0
 17 24  1  0  0  0  0
 17 31  1  0  0  0  0
 17 35  2  0  0  0  0
 18 30  2  0  0  0  0
 18 31  1  0  0  0  0
 18 33  1  0  0  0  0
 19 32  1  0  0  0  0
 20 21  1  0  0  0  0
 20 23  1  0  0  0  0
 21 23  1  0  0  0  0
 22 24  1  0  0  0  0
 22 32  1  0  0  0  0
 23 27  1  0  0  0  0
 24 30  1  0  0  0  0
 25 34  1  0  0  0  0
 26 34  1  0  0  0  0
 27 38  1  0  0  0  0
 32 38  1  1  0  0  0
 33 34  1  0  0  0  0
 36 38  2  0  0  0  0
 37 38  2  0  0  0  0
  2 40  1  0  0  0  0
  3 41  1  0  0  0  0
  4 42  1  0  0  0  0
  5 43  1  0  0  0  0
  6 44  1  0  0  0  0
  7 45  1  0  0  0  0
  8 46  1  0  0  0  0
  9 47  1  0  0  0  0
 10 48  1  0  0  0  0
 19 49  1  0  0  0  0
 19 50  1  0  0  0  0
 20 51  1  0  0  0  0
 20 52  1  0  0  0  0
 21 53  1  0  0  0  0
 21 54  1  0  0  0  0
 22 55  1  0  0  0  0
 22 56  1  0  0  0  0
 25 57  1  0  0  0  0
 25 58  1  0  0  0  0
 25 59  1  0  0  0  0
 26 60  1  0  0  0  0
 26 61  1  0  0  0  0
 26 62  1  0  0  0  0
 27 63  1  0  0  0  0
 27 64  1  0  0  0  0
 33 65  1  0  0  0  0
 34 66  1  0  0  0  0
M  CHG  1  34   1
M  END
> <compound>
LUO-POS-b5068a05-1

> <compound_smiles>
CN(C)NC1=NC2(CN(Cc3c2cc(cc3)Cl)S(=O)(=O)CC4(CC4)C#N)C(=O)N1c5cncc6c5cccc6

> <enantiomer_smiles>
CN(C)NC1=NC2(C[N@@](Cc3c2cc(cc3)Cl)S(=O)(=O)CC4(CC4)C#N)C(=O)N1c5cncc6c5cccc6

> <scaffold>
tetrahydroisoquinoline-5spiro-isoquinoline

> <clash_score>
0.6998250764218906

> <docking_score>
-6.856855392456055

> <overlap_score>
1.0

> <MMFF_internal_energy>
244.3388194142653

> <docked_smiles>
C[NH+](C)NC1=N[C@]2(C[N@@](Cc3c2cc(cc3)Cl)S(=O)(=O)CC4(CC4)C#N)C(=O)N1c5cncc6c5cccc6

$$$$
LUO-POS-eaf50f21-3_1
  -OEChem-12272114583D

 63 68  0     1  0  0  0  0  0999 V2000
    9.5894    5.6754   24.1755 C   0  0  0  0  0  0  0  0  0  0  0  0
    3.3432    2.6279   20.4411 C   0  0  0  0  0  0  0  0  0  0  0  0
    3.8960    1.9291   21.5050 C   0  0  0  0  0  0  0  0  0  0  0  0
    3.7865    2.4205   19.1660 C   0  0  0  0  0  0  0  0  0  0  0  0
    4.8973    1.0233   21.2988 C   0  0  0  0  0  0  0  0  0  0  0  0
   12.0765    0.0316   24.1541 C   0  0  0  0  0  0  0  0  0  0  0  0
   12.9132   -0.6032   23.2569 C   0  0  0  0  0  0  0  0  0  0  0  0
   10.9991   -1.4331   22.0443 C   0  0  0  0  0  0  0  0  0  0  0  0
    5.3278    1.2339   17.6066 C   0  0  0  0  0  0  0  0  0  0  0  0
    6.8438   -0.2892   18.3752 C   0  0  0  0  0  0  0  0  0  0  0  0
    4.8226    1.4906   18.9054 C   0  0  0  0  0  0  0  0  0  0  0  0
    5.3982    0.7733   19.9948 C   0  0  0  0  0  0  0  0  0  0  0  0
   10.7040   -0.0625   23.9898 C   0  0  0  0  0  0  0  0  0  0  0  0
   10.1406   -0.7765   22.9250 C   0  0  0  0  0  0  0  0  0  0  0  0
    6.4440   -0.1472   19.6979 C   0  0  0  0  0  0  0  0  0  0  0  0
   12.3683   -1.3298   22.2234 C   0  0  0  0  0  0  0  0  0  0  0  0
    8.2490    0.0169   21.4271 C   0  0  0  0  0  0  0  0  0  0  0  0
    6.9866   -1.9366   21.3580 C   0  0  0  0  0  0  0  0  0  0  0  0
    6.0290   -3.4991   19.8340 C   0  0  0  0  0  0  0  0  0  0  0  0
    9.9479    0.5589   24.9534 C   0  0  0  0  0  0  0  0  0  0  0  0
    7.2215    5.9408   24.9992 C   0  0  0  0  0  0  0  0  0  0  0  0
    7.1494    5.4427   23.5860 C   0  0  0  0  0  0  0  0  0  0  0  0
    7.8721   -0.1194   23.8831 C   0  0  0  0  0  0  0  0  0  0  0  0
    8.3214    5.0545   24.4594 C   0  0  0  0  0  0  0  0  0  0  0  0
    8.6238   -0.7606   22.6929 C   0  0  3  0  0  0  0  0  0  0  0  0
    4.9082   -4.5016   19.7455 C   0  0  0  0  0  0  0  0  0  0  0  0
    8.3961    3.6288   24.9583 C   0  0  0  0  0  0  0  0  0  0  0  0
   10.6110    6.1755   23.9469 N   0  0  0  0  0  0  0  0  0  0  0  0
    6.3062    0.3769   17.3421 N   0  0  0  0  0  0  0  0  0  0  0  0
    7.2292   -0.6897   20.7790 N   0  0  0  0  0  0  0  0  0  0  0  0
    8.6609    1.0133   24.4995 N   0  0  1  0  0  0  0  0  0  0  0  0
    8.0140   -2.1541   22.4331 N   0  3  0  0  0  0  0  0  0  0  0  0
    6.0811   -2.8859   21.0710 N   0  0  0  0  0  0  0  0  0  0  0  0
    8.7473    1.0987   21.0885 O   0  0  0  0  0  0  0  0  0  0  0  0
    6.7651   -3.2726   18.8762 O   0  0  0  0  0  0  0  0  0  0  0  0
    7.4119    2.4897   22.8226 O   0  0  0  0  0  0  0  0  0  0  0  0
    9.9188    2.7238   23.0373 O   0  0  0  0  0  0  0  0  0  0  0  0
    8.6177    2.4826   23.6220 S   0  0  0  0  0  0  0  0  0  0  0  0
   13.4268   -2.1425   21.1095 Cl  0  0  0  0  0  0  0  0  0  0  0  0
    2.5435    3.3515   20.6369 H   0  0  0  0  0  0  0  0  0  0  0  0
    3.5181    2.1139   22.5170 H   0  0  0  0  0  0  0  0  0  0  0  0
    3.3409    2.9743   18.3364 H   0  0  0  0  0  0  0  0  0  0  0  0
    5.3146    0.4870   22.1544 H   0  0  0  0  0  0  0  0  0  0  0  0
   12.5023    0.5921   24.9791 H   0  0  0  0  0  0  0  0  0  0  0  0
   13.9908   -0.5221   23.3827 H   0  0  0  0  0  0  0  0  0  0  0  0
   10.6031   -2.0221   21.2278 H   0  0  0  0  0  0  0  0  0  0  0  0
    4.9136    1.7512   16.7476 H   0  0  0  0  0  0  0  0  0  0  0  0
    7.6452   -0.9770   18.1101 H   0  0  0  0  0  0  0  0  0  0  0  0
    9.7601   -0.1291   25.8181 H   0  0  0  0  0  0  0  0  0  0  0  0
   10.4934    1.4385   25.3850 H   0  0  0  0  0  0  0  0  0  0  0  0
    7.4228    6.9954   25.1502 H   0  0  0  0  0  0  0  0  0  0  0  0
    6.5239    5.5230   25.7159 H   0  0  0  0  0  0  0  0  0  0  0  0
    6.4025    4.6916   23.3559 H   0  0  0  0  0  0  0  0  0  0  0  0
    7.3015    6.1644   22.7915 H   0  0  0  0  0  0  0  0  0  0  0  0
    6.8912    0.2693   23.5597 H   0  0  0  0  0  0  0  0  0  0  0  0
    7.6737   -0.8821   24.6542 H   0  0  0  0  0  0  0  0  0  0  0  0
    4.0030   -4.0053   19.3845 H   0  0  0  0  0  0  0  0  0  0  0  0
    4.7216   -4.9210   20.7377 H   0  0  0  0  0  0  0  0  0  0  0  0
    5.1577   -5.3098   19.0520 H   0  0  0  0  0  0  0  0  0  0  0  0
    7.4751    3.3464   25.4757 H   0  0  0  0  0  0  0  0  0  0  0  0
    9.2406    3.4964   25.6400 H   0  0  0  0  0  0  0  0  0  0  0  0
    8.2316   -2.9940   22.8008 H   0  0  0  0  0  0  0  0  0  0  0  0
    5.4206   -3.1788   21.7806 H   0  0  0  0  0  0  0  0  0  0  0  0
  1 24  1  0  0  0  0
  1 28  3  0  0  0  0
  2  3  1  0  0  0  0
  2  4  2  0  0  0  0
  3  5  2  0  0  0  0
  4 11  1  0  0  0  0
  5 12  1  0  0  0  0
  6  7  1  0  0  0  0
  6 13  2  0  0  0  0
  7 16  2  0  0  0  0
  8 14  2  0  0  0  0
  8 16  1  0  0  0  0
  9 11  2  0  0  0  0
  9 29  1  0  0  0  0
 10 15  1  0  0  0  0
 10 29  2  0  0  0  0
 11 12  1  0  0  0  0
 12 15  2  0  0  0  0
 13 14  1  0  0  0  0
 13 20  1  0  0  0  0
 14 25  1  0  0  0  0
 15 30  1  0  0  0  0
 16 39  1  0  0  0  0
 17 25  1  0  0  0  0
 17 30  1  0  0  0  0
 17 34  2  0  0  0  0
 18 30  1  0  0  0  0
 18 32  2  0  0  0  0
 18 33  1  0  0  0  0
 19 26  1  0  0  0  0
 19 33  1  0  0  0  0
 19 35  2  0  0  0  0
 20 31  1  0  0  0  0
 21 22  1  0  0  0  0
 21 24  1  0  0  0  0
 22 24  1  0  0  0  0
 23 25  1  0  0  0  0
 23 31  1  0  0  0  0
 24 27  1  0  0  0  0
 25 32  1  0  0  0  0
 27 38  1  0  0  0  0
 31 38  1  1  0  0  0
 36 38  2  0  0  0  0
 37 38  2  0  0  0  0
  2 40  1  0  0  0  0
  3 41  1  0  0  0  0
  4 42  1  0  0  0  0
  5 43  1  0  0  0  0
  6 44  1  0  0  0  0
  7 45  1  0  0  0  0
  8 46  1  0  0  0  0
  9 47  1  0  0  0  0
 10 48  1  0  0  0  0
 20 49  1  0  0  0  0
 20 50  1  0  0  0  0
 21 51  1  0  0  0  0
 21 52  1  0  0  0  0
 22 53  1  0  0  0  0
 22 54  1  0  0  0  0
 23 55  1  0  0  0  0
 23 56  1  0  0  0  0
 26 57  1  0  0  0  0
 26 58  1  0  0  0  0
 26 59  1  0  0  0  0
 27 60  1  0  0  0  0
 27 61  1  0  0  0  0
 32 62  1  0  0  0  0
 33 63  1  0  0  0  0
M  CHG  1  32   1
M  END
> <compound>
LUO-POS-eaf50f21-3

> <compound_smiles>
CC(=O)NC1=NC2(CN(Cc3c2cc(cc3)Cl)S(=O)(=O)CC4(CC4)C#N)C(=O)N1c5cncc6c5cccc6

> <enantiomer_smiles>
CC(=O)NC1=NC2(C[N@@](Cc3c2cc(cc3)Cl)S(=O)(=O)CC4(CC4)C#N)C(=O)N1c5cncc6c5cccc6

> <scaffold>
tetrahydroisoquinoline-5spiro-isoquinoline

> <clash_score>
1.2780647560857707

> <docking_score>
-6.2371649742126465

> <overlap_score>
1.0

> <MMFF_internal_energy>
-5.8541495716374525

> <docked_smiles>
CC(=O)NC1=[NH+][C@]2(C[N@@](Cc3c2cc(cc3)Cl)S(=O)(=O)CC4(CC4)C#N)C(=O)N1c5cncc6c5cccc6

$$$$
ALP-POS-ecbed2ba-2_1
  -OEChem-12272114583D

 67 72  0     1  0  0  0  0  0999 V2000
    7.1805    5.1773   23.5020 C   0  0  0  0  0  0  0  0  0  0  0  0
    3.3432    2.6279   20.4411 C   0  0  0  0  0  0  0  0  0  0  0  0
    3.8960    1.9291   21.5050 C   0  0  0  0  0  0  0  0  0  0  0  0
    3.7865    2.4205   19.1660 C   0  0  0  0  0  0  0  0  0  0  0  0
    4.8973    1.0233   21.2988 C   0  0  0  0  0  0  0  0  0  0  0  0
   12.0765    0.0316   24.1541 C   0  0  0  0  0  0  0  0  0  0  0  0
   12.9132   -0.6032   23.2569 C   0  0  0  0  0  0  0  0  0  0  0  0
   10.9991   -1.4331   22.0443 C   0  0  0  0  0  0  0  0  0  0  0  0
    5.3278    1.2339   17.6066 C   0  0  0  0  0  0  0  0  0  0  0  0
    6.8438   -0.2892   18.3752 C   0  0  0  0  0  0  0  0  0  0  0  0
    4.8226    1.4906   18.9054 C   0  0  0  0  0  0  0  0  0  0  0  0
    5.3982    0.7733   19.9948 C   0  0  0  0  0  0  0  0  0  0  0  0
   10.7040   -0.0625   23.9898 C   0  0  0  0  0  0  0  0  0  0  0  0
   10.1406   -0.7765   22.9250 C   0  0  0  0  0  0  0  0  0  0  0  0
    6.4440   -0.1472   19.6979 C   0  0  0  0  0  0  0  0  0  0  0  0
   12.3683   -1.3298   22.2234 C   0  0  0  0  0  0  0  0  0  0  0  0
    8.2490    0.0169   21.4271 C   0  0  0  0  0  0  0  0  0  0  0  0
    9.9479    0.5589   24.9534 C   0  0  0  0  0  0  0  0  0  0  0  0
    8.0140   -2.1541   22.4331 C   0  0  0  0  0  0  0  0  0  0  0  0
    8.0636    6.0537   25.6253 C   0  0  0  0  0  0  0  0  0  0  0  0
    9.6380    5.4065   23.6788 C   0  0  0  0  0  0  0  0  0  0  0  0
    6.9866   -1.9366   21.3580 C   0  0  0  0  0  0  0  0  0  0  0  0
    7.8721   -0.1194   23.8831 C   0  0  0  0  0  0  0  0  0  0  0  0
    9.3384    6.5239   26.3101 C   0  0  0  0  0  0  0  0  0  0  0  0
    9.9327    6.8984   23.5990 C   0  0  0  0  0  0  0  0  0  0  0  0
    8.3250    5.0845   24.4413 C   0  0  0  0  0  0  0  0  0  0  0  0
    8.6238   -0.7606   22.6929 C   0  0  3  0  0  0  0  0  0  0  0  0
    8.3987    3.6338   24.9541 C   0  0  0  0  0  0  0  0  0  0  0  0
    6.2855    5.2498   22.7673 N   0  0  0  0  0  0  0  0  0  0  0  0
    6.3062    0.3769   17.3421 N   0  0  0  0  0  0  0  0  0  0  0  0
    7.2292   -0.6897   20.7790 N   0  0  0  0  0  0  0  0  0  0  0  0
    8.6609    1.0133   24.4995 N   0  0  1  0  0  0  0  0  0  0  0  0
    8.7572    1.0941   21.1350 O   0  0  0  0  0  0  0  0  0  0  0  0
   11.7022    7.3076   25.4975 O   0  0  0  0  0  0  0  0  0  0  0  0
    9.7584    8.9028   25.2778 O   0  0  0  0  0  0  0  0  0  0  0  0
    7.4235    2.5061   22.8083 O   0  0  0  0  0  0  0  0  0  0  0  0
    9.9308    2.7056   23.0518 O   0  0  0  0  0  0  0  0  0  0  0  0
   10.3017    7.5595   25.2179 S   0  0  0  0  0  0  0  0  0  0  0  0
    8.6198    2.4832   23.6217 S   0  0  0  0  0  0  0  0  0  0  0  0
   13.4275   -2.1421   21.1097 Cl  0  0  0  0  0  0  0  0  0  0  0  0
    2.5432    3.3510   20.6369 H   0  0  0  0  0  0  0  0  0  0  0  0
    3.5174    2.1137   22.5168 H   0  0  0  0  0  0  0  0  0  0  0  0
    3.3409    2.9743   18.3364 H   0  0  0  0  0  0  0  0  0  0  0  0
    5.3118    0.4895   22.1572 H   0  0  0  0  0  0  0  0  0  0  0  0
   12.5015    0.5938   24.9776 H   0  0  0  0  0  0  0  0  0  0  0  0
   13.9911   -0.5212   23.3814 H   0  0  0  0  0  0  0  0  0  0  0  0
   10.6037   -2.0228   21.2288 H   0  0  0  0  0  0  0  0  0  0  0  0
    4.9141    1.7511   16.7474 H   0  0  0  0  0  0  0  0  0  0  0  0
    7.6445   -0.9764   18.1043 H   0  0  0  0  0  0  0  0  0  0  0  0
    9.7581   -0.1287   25.8173 H   0  0  0  0  0  0  0  0  0  0  0  0
   10.4931    1.4391   25.3829 H   0  0  0  0  0  0  0  0  0  0  0  0
    7.5801   -2.6060   23.3366 H   0  0  0  0  0  0  0  0  0  0  0  0
    8.7749   -2.8608   22.0657 H   0  0  0  0  0  0  0  0  0  0  0  0
    7.4255    5.5690   26.3666 H   0  0  0  0  0  0  0  0  0  0  0  0
    7.5153    6.9259   25.2619 H   0  0  0  0  0  0  0  0  0  0  0  0
    9.5740    5.0046   22.6657 H   0  0  0  0  0  0  0  0  0  0  0  0
   10.4793    4.9086   24.1627 H   0  0  0  0  0  0  0  0  0  0  0  0
    7.0227   -2.7506   20.5953 H   0  0  0  0  0  0  0  0  0  0  0  0
    5.9554   -1.9484   21.7832 H   0  0  0  0  0  0  0  0  0  0  0  0
    6.8886    0.2769   23.5666 H   0  0  0  0  0  0  0  0  0  0  0  0
    7.6579   -0.8710   24.6633 H   0  0  0  0  0  0  0  0  0  0  0  0
    9.1047    7.1261   27.1875 H   0  0  0  0  0  0  0  0  0  0  0  0
    9.9702    5.6928   26.6167 H   0  0  0  0  0  0  0  0  0  0  0  0
   10.7816    7.1147   22.9545 H   0  0  0  0  0  0  0  0  0  0  0  0
    9.0650    7.4427   23.2285 H   0  0  0  0  0  0  0  0  0  0  0  0
    7.4769    3.3544   25.4717 H   0  0  0  0  0  0  0  0  0  0  0  0
    9.2424    3.5024   25.6370 H   0  0  0  0  0  0  0  0  0  0  0  0
  1 26  1  0  0  0  0
  1 29  3  0  0  0  0
  2  3  1  0  0  0  0
  2  4  2  0  0  0  0
  3  5  2  0  0  0  0
  4 11  1  0  0  0  0
  5 12  1  0  0  0  0
  6  7  1  0  0  0  0
  6 13  2  0  0  0  0
  7 16  2  0  0  0  0
  8 14  2  0  0  0  0
  8 16  1  0  0  0  0
  9 11  2  0  0  0  0
  9 30  1  0  0  0  0
 10 15  1  0  0  0  0
 10 30  2  0  0  0  0
 11 12  1  0  0  0  0
 12 15  2  0  0  0  0
 13 14  1  0  0  0  0
 13 18  1  0  0  0  0
 14 27  1  0  0  0  0
 15 31  1  0  0  0  0
 16 40  1  0  0  0  0
 17 27  1  0  0  0  0
 17 31  1  0  0  0  0
 17 33  2  0  0  0  0
 18 32  1  0  0  0  0
 19 22  1  0  0  0  0
 19 27  1  0  0  0  0
 20 24  1  0  0  0  0
 20 26  1  0  0  0  0
 21 25  1  0  0  0  0
 21 26  1  0  0  0  0
 22 31  1  0  0  0  0
 23 27  1  0  0  0  0
 23 32  1  0  0  0  0
 24 38  1  0  0  0  0
 25 38  1  0  0  0  0
 26 28  1  0  0  0  0
 28 39  1  0  0  0  0
 32 39  1  1  0  0  0
 34 38  2  0  0  0  0
 35 38  2  0  0  0  0
 36 39  2  0  0  0  0
 37 39  2  0  0  0  0
  2 41  1  0  0  0  0
  3 42  1  0  0  0  0
  4 43  1  0  0  0  0
  5 44  1  0  0  0  0
  6 45  1  0  0  0  0
  7 46  1  0  0  0  0
  8 47  1  0  0  0  0
  9 48  1  0  0  0  0
 10 49  1  0  0  0  0
 18 50  1  0  0  0  0
 18 51  1  0  0  0  0
 19 52  1  0  0  0  0
 19 53  1  0  0  0  0
 20 54  1  0  0  0  0
 20 55  1  0  0  0  0
 21 56  1  0  0  0  0
 21 57  1  0  0  0  0
 22 58  1  0  0  0  0
 22 59  1  0  0  0  0
 23 60  1  0  0  0  0
 23 61  1  0  0  0  0
 24 62  1  0  0  0  0
 24 63  1  0  0  0  0
 25 64  1  0  0  0  0
 25 65  1  0  0  0  0
 28 66  1  0  0  0  0
 28 67  1  0  0  0  0
M  END
> <compound>
ALP-POS-ecbed2ba-2

> <compound_smiles>
c1ccc2c(c1)cncc2N3CCC4(C3=O)CN(Cc5c4cc(cc5)Cl)S(=O)(=O)CC6(CCS(=O)(=O)CC6)C#N

> <enantiomer_smiles>
c1ccc2c(c1)cncc2N3CCC4(C3=O)C[N@@](Cc5c4cc(cc5)Cl)S(=O)(=O)CC6(CCS(=O)(=O)CC6)C#N

> <scaffold>
tetrahydroisoquinoline-5spiro-isoquinoline

> <clash_score>
0

> <docking_score>
-9.054083824157715

> <overlap_score>
0.9661739468574524

> <MMFF_internal_energy>
83.62807239450044

> <docked_smiles>
c1ccc2c(c1)cncc2N3CC[C@@]4(C3=O)C[N@@](Cc5c4cc(cc5)Cl)S(=O)(=O)CC6(CCS(=O)(=O)CC6)C#N

$$$$
LUO-POS-eaf50f21-3_2
  -OEChem-12272114583D

 63 68  0     1  0  0  0  0  0999 V2000
    6.2459    4.1990   23.8681 C   0  0  0  0  0  0  0  0  0  0  0  0
    3.3432    2.6279   20.4411 C   0  0  0  0  0  0  0  0  0  0  0  0
    3.8960    1.9291   21.5050 C   0  0  0  0  0  0  0  0  0  0  0  0
    3.7865    2.4205   19.1660 C   0  0  0  0  0  0  0  0  0  0  0  0
    4.8973    1.0233   21.2988 C   0  0  0  0  0  0  0  0  0  0  0  0
   12.0765    0.0316   24.1541 C   0  0  0  0  0  0  0  0  0  0  0  0
   12.9132   -0.6032   23.2569 C   0  0  0  0  0  0  0  0  0  0  0  0
   10.9991   -1.4331   22.0443 C   0  0  0  0  0  0  0  0  0  0  0  0
    5.3278    1.2339   17.6066 C   0  0  0  0  0  0  0  0  0  0  0  0
    6.8438   -0.2892   18.3752 C   0  0  0  0  0  0  0  0  0  0  0  0
    4.8226    1.4906   18.9054 C   0  0  0  0  0  0  0  0  0  0  0  0
    5.3982    0.7733   19.9948 C   0  0  0  0  0  0  0  0  0  0  0  0
   10.7040   -0.0625   23.9898 C   0  0  0  0  0  0  0  0  0  0  0  0
   10.1406   -0.7765   22.9250 C   0  0  0  0  0  0  0  0  0  0  0  0
    6.4440   -0.1472   19.6979 C   0  0  0  0  0  0  0  0  0  0  0  0
   12.3683   -1.3298   22.2234 C   0  0  0  0  0  0  0  0  0  0  0  0
    8.2490    0.0169   21.4271 C   0  0  0  0  0  0  0  0  0  0  0  0
    6.9866   -1.9366   21.3580 C   0  0  0  0  0  0  0  0  0  0  0  0
    5.8407   -3.4343   19.8986 C   0  0  0  0  0  0  0  0  0  0  0  0
    9.9479    0.5589   24.9534 C   0  0  0  0  0  0  0  0  0  0  0  0
    8.2396    3.6102   22.4418 C   0  0  0  0  0  0  0  0  0  0  0  0
    8.4051    5.0375   22.8732 C   0  0  0  0  0  0  0  0  0  0  0  0
    7.8721   -0.1194   23.8831 C   0  0  0  0  0  0  0  0  0  0  0  0
    7.6761    4.0624   23.7703 C   0  0  0  0  0  0  0  0  0  0  0  0
    8.6238   -0.7606   22.6929 C   0  0  3  0  0  0  0  0  0  0  0  0
    4.6768   -4.3906   19.8930 C   0  0  0  0  0  0  0  0  0  0  0  0
    8.3699    3.6005   25.0322 C   0  0  0  0  0  0  0  0  0  0  0  0
    5.0935    4.3090   23.9467 N   0  0  0  0  0  0  0  0  0  0  0  0
    6.3062    0.3769   17.3421 N   0  0  0  0  0  0  0  0  0  0  0  0
    7.2292   -0.6897   20.7790 N   0  0  0  0  0  0  0  0  0  0  0  0
    8.6609    1.0133   24.4995 N   0  0  2  0  0  0  0  0  0  0  0  0
    8.0140   -2.1541   22.4331 N   0  3  0  0  0  0  0  0  0  0  0  0
    6.0229   -2.8449   21.1349 N   0  0  0  0  0  0  0  0  0  0  0  0
    8.8000    1.0592   21.0486 O   0  0  0  0  0  0  0  0  0  0  0  0
    6.5008   -3.2204   18.8843 O   0  0  0  0  0  0  0  0  0  0  0  0
    8.2527    1.7830   26.9058 O   0  0  0  0  0  0  0  0  0  0  0  0
    6.3624    1.9403   25.2362 O   0  0  0  0  0  0  0  0  0  0  0  0
    7.7698    2.0170   25.5623 S   0  0  0  0  0  0  0  0  0  0  0  0
   13.4271   -2.1418   21.1093 Cl  0  0  0  0  0  0  0  0  0  0  0  0
    2.5435    3.3515   20.6369 H   0  0  0  0  0  0  0  0  0  0  0  0
    3.5181    2.1139   22.5170 H   0  0  0  0  0  0  0  0  0  0  0  0
    3.3409    2.9743   18.3364 H   0  0  0  0  0  0  0  0  0  0  0  0
    5.3146    0.4870   22.1544 H   0  0  0  0  0  0  0  0  0  0  0  0
   12.5019    0.5995   24.9742 H   0  0  0  0  0  0  0  0  0  0  0  0
   13.9909   -0.5172   23.3792 H   0  0  0  0  0  0  0  0  0  0  0  0
   10.6033   -2.0176   21.2245 H   0  0  0  0  0  0  0  0  0  0  0  0
    4.9136    1.7512   16.7476 H   0  0  0  0  0  0  0  0  0  0  0  0
    7.6452   -0.9770   18.1101 H   0  0  0  0  0  0  0  0  0  0  0  0
    9.7864   -0.1173   25.8332 H   0  0  0  0  0  0  0  0  0  0  0  0
   10.4802    1.4573   25.3603 H   0  0  0  0  0  0  0  0  0  0  0  0
    7.5581    3.4090   21.6230 H   0  0  0  0  0  0  0  0  0  0  0  0
    9.1214    2.9799   22.4404 H   0  0  0  0  0  0  0  0  0  0  0  0
    9.3984    5.3635   23.1598 H   0  0  0  0  0  0  0  0  0  0  0  0
    7.8350    5.7912   22.3421 H   0  0  0  0  0  0  0  0  0  0  0  0
    6.8955    0.2646   23.5448 H   0  0  0  0  0  0  0  0  0  0  0  0
    7.6662   -0.8717   24.6638 H   0  0  0  0  0  0  0  0  0  0  0  0
    3.7649   -3.8533   19.6181 H   0  0  0  0  0  0  0  0  0  0  0  0
    4.5589   -4.8194   20.8918 H   0  0  0  0  0  0  0  0  0  0  0  0
    4.8334   -5.1960   19.1697 H   0  0  0  0  0  0  0  0  0  0  0  0
    8.1970    4.3019   25.8531 H   0  0  0  0  0  0  0  0  0  0  0  0
    9.4469    3.5002   24.8725 H   0  0  0  0  0  0  0  0  0  0  0  0
    8.1764   -2.9802   22.8563 H   0  0  0  0  0  0  0  0  0  0  0  0
    5.3939   -3.1004   21.8863 H   0  0  0  0  0  0  0  0  0  0  0  0
  1 24  1  0  0  0  0
  1 28  3  0  0  0  0
  2  3  1  0  0  0  0
  2  4  2  0  0  0  0
  3  5  2  0  0  0  0
  4 11  1  0  0  0  0
  5 12  1  0  0  0  0
  6  7  1  0  0  0  0
  6 13  2  0  0  0  0
  7 16  2  0  0  0  0
  8 14  2  0  0  0  0
  8 16  1  0  0  0  0
  9 11  2  0  0  0  0
  9 29  1  0  0  0  0
 10 15  1  0  0  0  0
 10 29  2  0  0  0  0
 11 12  1  0  0  0  0
 12 15  2  0  0  0  0
 13 14  1  0  0  0  0
 13 20  1  0  0  0  0
 14 25  1  0  0  0  0
 15 30  1  0  0  0  0
 16 39  1  0  0  0  0
 17 25  1  0  0  0  0
 17 30  1  0  0  0  0
 17 34  2  0  0  0  0
 18 30  1  0  0  0  0
 18 32  2  0  0  0  0
 18 33  1  0  0  0  0
 19 26  1  0  0  0  0
 19 33  1  0  0  0  0
 19 35  2  0  0  0  0
 20 31  1  0  0  0  0
 21 22  1  0  0  0  0
 21 24  1  0  0  0  0
 22 24  1  0  0  0  0
 23 25  1  0  0  0  0
 23 31  1  0  0  0  0
 24 27  1  0  0  0  0
 25 32  1  0  0  0  0
 27 38  1  0  0  0  0
 31 38  1  6  0  0  0
 36 38  2  0  0  0  0
 37 38  2  0  0  0  0
  2 40  1  0  0  0  0
  3 41  1  0  0  0  0
  4 42  1  0  0  0  0
  5 43  1  0  0  0  0
  6 44  1  0  0  0  0
  7 45  1  0  0  0  0
  8 46  1  0  0  0  0
  9 47  1  0  0  0  0
 10 48  1  0  0  0  0
 20 49  1  0  0  0  0
 20 50  1  0  0  0  0
 21 51  1  0  0  0  0
 21 52  1  0  0  0  0
 22 53  1  0  0  0  0
 22 54  1  0  0  0  0
 23 55  1  0  0  0  0
 23 56  1  0  0  0  0
 26 57  1  0  0  0  0
 26 58  1  0  0  0  0
 26 59  1  0  0  0  0
 27 60  1  0  0  0  0
 27 61  1  0  0  0  0
 32 62  1  0  0  0  0
 33 63  1  0  0  0  0
M  CHG  1  32   1
M  END
> <compound>
LUO-POS-eaf50f21-3

> <compound_smiles>
CC(=O)NC1=NC2(CN(Cc3c2cc(cc3)Cl)S(=O)(=O)CC4(CC4)C#N)C(=O)N1c5cncc6c5cccc6

> <enantiomer_smiles>
CC(=O)NC1=NC2(C[N@](Cc3c2cc(cc3)Cl)S(=O)(=O)CC4(CC4)C#N)C(=O)N1c5cncc6c5cccc6

> <scaffold>
tetrahydroisoquinoline-5spiro-isoquinoline

> <clash_score>
0.682658943399719

> <docking_score>
-5.523819923400879

> <overlap_score>
1.0

> <MMFF_internal_energy>
-13.200563362408426

> <docked_smiles>
CC(=O)NC1=[NH+][C@]2(C[N@](Cc3c2cc(cc3)Cl)S(=O)(=O)CC4(CC4)C#N)C(=O)N1c5cncc6c5cccc6

$$$$
EDJ-MED-5cd3920d-3_1
  -OEChem-12272114583D

 61 66  0     1  0  0  0  0  0999 V2000
    3.7865    2.4205   19.1660 C   0  0  0  0  0  0  0  0  0  0  0  0
   12.0765    0.0316   24.1541 C   0  0  0  0  0  0  0  0  0  0  0  0
    3.3432    2.6279   20.4411 C   0  0  0  0  0  0  0  0  0  0  0  0
   12.9132   -0.6032   23.2569 C   0  0  0  0  0  0  0  0  0  0  0  0
    4.8973    1.0233   21.2988 C   0  0  0  0  0  0  0  0  0  0  0  0
   10.9991   -1.4331   22.0443 C   0  0  0  0  0  0  0  0  0  0  0  0
    5.3278    1.2339   17.6066 C   0  0  0  0  0  0  0  0  0  0  0  0
    6.8438   -0.2892   18.3752 C   0  0  0  0  0  0  0  0  0  0  0  0
    4.8226    1.4906   18.9054 C   0  0  0  0  0  0  0  0  0  0  0  0
    5.3982    0.7733   19.9948 C   0  0  0  0  0  0  0  0  0  0  0  0
   10.7040   -0.0625   23.9898 C   0  0  0  0  0  0  0  0  0  0  0  0
   10.1406   -0.7765   22.9250 C   0  0  0  0  0  0  0  0  0  0  0  0
    6.4440   -0.1472   19.6979 C   0  0  0  0  0  0  0  0  0  0  0  0
    3.8960    1.9291   21.5050 C   0  0  0  0  0  0  0  0  0  0  0  0
   12.3683   -1.3298   22.2234 C   0  0  0  0  0  0  0  0  0  0  0  0
    9.9479    0.5589   24.9534 C   0  0  0  0  0  0  0  0  0  0  0  0
    8.2490    0.0169   21.4271 C   0  0  0  0  0  0  0  0  0  0  0  0
    8.4264    3.2866   23.7509 C   0  0  0  0  0  0  0  0  0  0  0  0
    7.9436    2.7318   26.1966 C   0  0  0  0  0  0  0  0  0  0  0  0
    6.7278    2.3500   25.4122 C   0  0  0  0  0  0  0  0  0  0  0  0
    8.0140   -2.1541   22.4331 C   0  0  0  0  0  0  0  0  0  0  0  0
    6.9866   -1.9366   21.3580 C   0  0  0  0  0  0  0  0  0  0  0  0
    7.8721   -0.1194   23.8831 C   0  0  0  0  0  0  0  0  0  0  0  0
    8.6238   -0.7606   22.6929 C   0  0  3  0  0  0  0  0  0  0  0  0
    8.0938    2.2663   24.7631 C   0  0  0  0  0  0  0  0  0  0  0  0
   10.1378    4.9746   23.1149 C   0  0  0  0  0  0  0  0  0  0  0  0
    2.8625    1.0565   23.4755 C   0  0  0  0  0  0  0  0  0  0  0  0
    6.3062    0.3769   17.3421 N   0  0  0  0  0  0  0  0  0  0  0  0
    7.2292   -0.6897   20.7790 N   0  0  0  0  0  0  0  0  0  0  0  0
    8.6609    1.0133   24.4995 N   0  0  0  0  0  0  0  0  0  0  0  0
    9.6213    3.9407   23.9829 N   0  0  0  0  0  0  0  0  0  0  0  0
   10.3170    0.7381   26.1104 O   0  0  0  0  0  0  0  0  0  0  0  0
    8.7585    1.0935   21.1351 O   0  0  0  0  0  0  0  0  0  0  0  0
    7.6612    3.4795   22.8133 O   0  0  0  0  0  0  0  0  0  0  0  0
    3.4227    2.1582   22.7714 O   0  0  0  0  0  0  0  0  0  0  0  0
    3.8672    0.4592   24.1669 F   0  0  0  0  0  0  0  0  0  0  0  0
    1.9821    1.5186   24.3970 F   0  0  0  0  0  0  0  0  0  0  0  0
   13.4275   -2.1373   21.1068 Cl  0  0  0  0  0  0  0  0  0  0  0  0
    3.3406    2.9746   18.3368 H   0  0  0  0  0  0  0  0  0  0  0  0
   12.5169    0.5918   24.9754 H   0  0  0  0  0  0  0  0  0  0  0  0
    2.5407    3.3506   20.6306 H   0  0  0  0  0  0  0  0  0  0  0  0
   13.9905   -0.5168   23.3788 H   0  0  0  0  0  0  0  0  0  0  0  0
    5.3162    0.4858   22.1535 H   0  0  0  0  0  0  0  0  0  0  0  0
   10.6129   -2.0178   21.2220 H   0  0  0  0  0  0  0  0  0  0  0  0
    4.9131    1.7514   16.7479 H   0  0  0  0  0  0  0  0  0  0  0  0
    7.6448   -0.9758   18.1041 H   0  0  0  0  0  0  0  0  0  0  0  0
    8.0898    3.7824   26.4190 H   0  0  0  0  0  0  0  0  0  0  0  0
    8.2593    2.0653   26.9909 H   0  0  0  0  0  0  0  0  0  0  0  0
    6.2267    1.4268   25.6789 H   0  0  0  0  0  0  0  0  0  0  0  0
    6.0559    3.1436   25.1070 H   0  0  0  0  0  0  0  0  0  0  0  0
    7.5773   -2.6151   23.3306 H   0  0  0  0  0  0  0  0  0  0  0  0
    8.7848   -2.8457   22.0580 H   0  0  0  0  0  0  0  0  0  0  0  0
    7.0221   -2.7507   20.5949 H   0  0  0  0  0  0  0  0  0  0  0  0
    5.9553   -1.9480   21.7839 H   0  0  0  0  0  0  0  0  0  0  0  0
    6.8955    0.2587   23.5785 H   0  0  0  0  0  0  0  0  0  0  0  0
    7.7144   -0.8399   24.6901 H   0  0  0  0  0  0  0  0  0  0  0  0
   10.7699    4.5198   22.3380 H   0  0  0  0  0  0  0  0  0  0  0  0
    9.3003    5.5073   22.6408 H   0  0  0  0  0  0  0  0  0  0  0  0
   10.7362    5.6839   23.7055 H   0  0  0  0  0  0  0  0  0  0  0  0
    2.3980    0.3116   22.8206 H   0  0  0  0  0  0  0  0  0  0  0  0
   10.1624    3.6827   24.8027 H   0  0  0  0  0  0  0  0  0  0  0  0
  1  3  2  0  0  0  0
  1  9  1  0  0  0  0
  2  4  2  0  0  0  0
  2 11  1  0  0  0  0
  3 14  1  0  0  0  0
  4 15  1  0  0  0  0
  5 10  1  0  0  0  0
  5 14  2  0  0  0  0
  6 12  1  0  0  0  0
  6 15  2  0  0  0  0
  7  9  2  0  0  0  0
  7 28  1  0  0  0  0
  8 13  1  0  0  0  0
  8 28  2  0  0  0  0
  9 10  1  0  0  0  0
 10 13  2  0  0  0  0
 11 12  2  0  0  0  0
 11 16  1  0  0  0  0
 12 24  1  0  0  0  0
 13 29  1  0  0  0  0
 14 35  1  0  0  0  0
 15 38  1  0  0  0  0
 16 30  1  0  0  0  0
 16 32  2  0  0  0  0
 17 24  1  0  0  0  0
 17 29  1  0  0  0  0
 17 33  2  0  0  0  0
 18 25  1  0  0  0  0
 18 31  1  0  0  0  0
 18 34  2  0  0  0  0
 19 20  1  0  0  0  0
 19 25  1  0  0  0  0
 20 25  1  0  0  0  0
 21 22  1  0  0  0  0
 21 24  1  0  0  0  0
 22 29  1  0  0  0  0
 23 24  1  0  0  0  0
 23 30  1  0  0  0  0
 25 30  1  0  0  0  0
 26 31  1  0  0  0  0
 27 35  1  0  0  0  0
 27 36  1  0  0  0  0
 27 37  1  0  0  0  0
  1 39  1  0  0  0  0
  2 40  1  0  0  0  0
  3 41  1  0  0  0  0
  4 42  1  0  0  0  0
  5 43  1  0  0  0  0
  6 44  1  0  0  0  0
  7 45  1  0  0  0  0
  8 46  1  0  0  0  0
 19 47  1  0  0  0  0
 19 48  1  0  0  0  0
 20 49  1  0  0  0  0
 20 50  1  0  0  0  0
 21 51  1  0  0  0  0
 21 52  1  0  0  0  0
 22 53  1  0  0  0  0
 22 54  1  0  0  0  0
 23 55  1  0  0  0  0
 23 56  1  0  0  0  0
 26 57  1  0  0  0  0
 26 58  1  0  0  0  0
 26 59  1  0  0  0  0
 27 60  1  0  0  0  0
 31 61  1  0  0  0  0
M  END
> <compound>
EDJ-MED-5cd3920d-3

> <compound_smiles>
CNC(=O)C1(CC1)N2CC3(CCN(C3=O)c4cncc5c4cc(cc5)OC(F)F)c6cc(ccc6C2=O)Cl

> <enantiomer_smiles>
CNC(=O)C1(CC1)N2CC3(CCN(C3=O)c4cncc5c4cc(cc5)OC(F)F)c6cc(ccc6C2=O)Cl

> <scaffold>
tetrahydroisoquinoline-5spiro-isoquinoline

> <clash_score>
0

> <docking_score>
-8.968929290771484

> <overlap_score>
1.0

> <MMFF_internal_energy>
154.4916284939287

> <docked_smiles>
CNC(=O)C1(CC1)N2C[C@]3(CCN(C3=O)c4cncc5c4cc(cc5)OC(F)F)c6cc(ccc6C2=O)Cl

$$$$
EDJ-MED-9f4ac58c-8_1
  -OEChem-12272114583D

 66 71  0     1  0  0  0  0  0999 V2000
    4.8973    1.0233   21.2988 C   0  0  0  0  0  0  0  0  0  0  0  0
   12.0765    0.0316   24.1541 C   0  0  0  0  0  0  0  0  0  0  0  0
    3.8960    1.9291   21.5050 C   0  0  0  0  0  0  0  0  0  0  0  0
   12.9132   -0.6032   23.2569 C   0  0  0  0  0  0  0  0  0  0  0  0
    3.7865    2.4205   19.1660 C   0  0  0  0  0  0  0  0  0  0  0  0
   10.9991   -1.4331   22.0443 C   0  0  0  0  0  0  0  0  0  0  0  0
    5.3278    1.2339   17.6066 C   0  0  0  0  0  0  0  0  0  0  0  0
    6.8438   -0.2892   18.3752 C   0  0  0  0  0  0  0  0  0  0  0  0
    5.3982    0.7733   19.9948 C   0  0  0  0  0  0  0  0  0  0  0  0
    4.8226    1.4906   18.9054 C   0  0  0  0  0  0  0  0  0  0  0  0
   10.7040   -0.0625   23.9898 C   0  0  0  0  0  0  0  0  0  0  0  0
   10.1406   -0.7765   22.9250 C   0  0  0  0  0  0  0  0  0  0  0  0
    6.4440   -0.1472   19.6979 C   0  0  0  0  0  0  0  0  0  0  0  0
    3.3432    2.6279   20.4411 C   0  0  0  0  0  0  0  0  0  0  0  0
   12.3683   -1.3298   22.2234 C   0  0  0  0  0  0  0  0  0  0  0  0
    9.9479    0.5589   24.9534 C   0  0  0  0  0  0  0  0  0  0  0  0
    8.2490    0.0169   21.4271 C   0  0  0  0  0  0  0  0  0  0  0  0
    7.8661    5.4226   22.7736 C   0  0  0  0  0  0  0  0  0  0  0  0
    7.5079    5.3647   24.2327 C   0  0  0  0  0  0  0  0  0  0  0  0
    8.0140   -2.1541   22.4331 C   0  0  0  0  0  0  0  0  0  0  0  0
    6.9866   -1.9366   21.3580 C   0  0  0  0  0  0  0  0  0  0  0  0
    7.8721   -0.1194   23.8831 C   0  0  0  0  0  0  0  0  0  0  0  0
    8.6238   -0.7606   22.6929 C   0  0  3  0  0  0  0  0  0  0  0  0
    8.8635    4.9012   23.7725 C   0  0  0  0  0  0  0  0  0  0  0  0
   10.9592    5.6953   23.0651 C   0  0  0  0  0  0  0  0  0  0  0  0
    0.5677    2.8318   20.6206 C   0  0  0  0  0  0  0  0  0  0  0  0
    9.2137    3.4302   23.7961 C   0  0  0  0  0  0  0  0  0  0  0  0
    6.3062    0.3769   17.3421 N   0  0  0  0  0  0  0  0  0  0  0  0
    7.2292   -0.6897   20.7790 N   0  0  0  0  0  0  0  0  0  0  0  0
    8.6609    1.0133   24.4995 N   0  0  0  0  0  0  0  0  0  0  0  0
   10.3149    0.7350   26.1235 O   0  0  0  0  0  0  0  0  0  0  0  0
    8.8183    1.0411   21.0761 O   0  0  0  0  0  0  0  0  0  0  0  0
    2.1882    4.2360   22.1296 O   0  0  0  0  0  0  0  0  0  0  0  0
    2.0335    4.7671   19.6720 O   0  0  0  0  0  0  0  0  0  0  0  0
    8.0349    2.8632   26.0580 O   0  0  0  0  0  0  0  0  0  0  0  0
    6.7654    2.5231   23.8997 O   0  0  0  0  0  0  0  0  0  0  0  0
    9.9675    5.7713   24.0722 O   0  0  0  0  0  0  0  0  0  0  0  0
    2.0618    3.7881   20.7500 S   0  0  0  0  0  0  0  0  0  0  0  0
    7.9905    2.4844   24.6644 S   0  0  0  0  0  0  0  0  0  0  0  0
   13.4278   -2.1472   21.1141 Cl  0  0  0  0  0  0  0  0  0  0  0  0
    5.3114    0.4892   22.1572 H   0  0  0  0  0  0  0  0  0  0  0  0
   12.5173    0.5967   24.9711 H   0  0  0  0  0  0  0  0  0  0  0  0
    3.5259    2.1069   22.5217 H   0  0  0  0  0  0  0  0  0  0  0  0
   13.9906   -0.5212   23.3817 H   0  0  0  0  0  0  0  0  0  0  0  0
    3.3486    2.9706   18.3290 H   0  0  0  0  0  0  0  0  0  0  0  0
   10.6155   -2.0259   21.2280 H   0  0  0  0  0  0  0  0  0  0  0  0
    4.9146    1.7518   16.7474 H   0  0  0  0  0  0  0  0  0  0  0  0
    7.6451   -0.9755   18.1042 H   0  0  0  0  0  0  0  0  0  0  0  0
    7.3811    4.7175   22.1094 H   0  0  0  0  0  0  0  0  0  0  0  0
    8.0405    6.3984   22.3366 H   0  0  0  0  0  0  0  0  0  0  0  0
    7.4421    6.3019   24.7725 H   0  0  0  0  0  0  0  0  0  0  0  0
    6.7842    4.6207   24.5428 H   0  0  0  0  0  0  0  0  0  0  0  0
    7.5103   -2.5286   23.3380 H   0  0  0  0  0  0  0  0  0  0  0  0
    8.7576   -2.9098   22.1428 H   0  0  0  0  0  0  0  0  0  0  0  0
    7.0600   -2.7254   20.5723 H   0  0  0  0  0  0  0  0  0  0  0  0
    5.9510   -1.9973   21.7704 H   0  0  0  0  0  0  0  0  0  0  0  0
    6.8972    0.2928   23.5636 H   0  0  0  0  0  0  0  0  0  0  0  0
    7.6441   -0.8835   24.6470 H   0  0  0  0  0  0  0  0  0  0  0  0
   11.7860    6.3644   23.3157 H   0  0  0  0  0  0  0  0  0  0  0  0
   10.5253    5.9794   22.1031 H   0  0  0  0  0  0  0  0  0  0  0  0
   11.3289    4.6688   23.0070 H   0  0  0  0  0  0  0  0  0  0  0  0
   -0.2809    3.4921   20.8058 H   0  0  0  0  0  0  0  0  0  0  0  0
    0.5135    2.4123   19.6149 H   0  0  0  0  0  0  0  0  0  0  0  0
    0.6028    2.0358   21.3659 H   0  0  0  0  0  0  0  0  0  0  0  0
   10.1689    3.2634   24.3017 H   0  0  0  0  0  0  0  0  0  0  0  0
    9.2740    3.0259   22.7821 H   0  0  0  0  0  0  0  0  0  0  0  0
  1  3  2  0  0  0  0
  1  9  1  0  0  0  0
  2  4  2  0  0  0  0
  2 11  1  0  0  0  0
  3 14  1  0  0  0  0
  4 15  1  0  0  0  0
  5 10  1  0  0  0  0
  5 14  2  0  0  0  0
  6 12  1  0  0  0  0
  6 15  2  0  0  0  0
  7 10  2  0  0  0  0
  7 28  1  0  0  0  0
  8 13  1  0  0  0  0
  8 28  2  0  0  0  0
  9 10  1  0  0  0  0
  9 13  2  0  0  0  0
 11 12  2  0  0  0  0
 11 16  1  0  0  0  0
 12 23  1  0  0  0  0
 13 29  1  0  0  0  0
 14 38  1  0  0  0  0
 15 40  1  0  0  0  0
 16 30  1  0  0  0  0
 16 31  2  0  0  0  0
 17 23  1  0  0  0  0
 17 29  1  0  0  0  0
 17 32  2  0  0  0  0
 18 19  1  0  0  0  0
 18 24  1  0  0  0  0
 19 24  1  0  0  0  0
 20 21  1  0  0  0  0
 20 23  1  0  0  0  0
 21 29  1  0  0  0  0
 22 23  1  0  0  0  0
 22 30  1  0  0  0  0
 24 27  1  0  0  0  0
 24 37  1  0  0  0  0
 25 37  1  0  0  0  0
 26 38  1  0  0  0  0
 27 39  1  0  0  0  0
 30 39  1  0  0  0  0
 33 38  2  0  0  0  0
 34 38  2  0  0  0  0
 35 39  2  0  0  0  0
 36 39  2  0  0  0  0
  1 41  1  0  0  0  0
  2 42  1  0  0  0  0
  3 43  1  0  0  0  0
  4 44  1  0  0  0  0
  5 45  1  0  0  0  0
  6 46  1  0  0  0  0
  7 47  1  0  0  0  0
  8 48  1  0  0  0  0
 18 49  1  0  0  0  0
 18 50  1  0  0  0  0
 19 51  1  0  0  0  0
 19 52  1  0  0  0  0
 20 53  1  0  0  0  0
 20 54  1  0  0  0  0
 21 55  1  0  0  0  0
 21 56  1  0  0  0  0
 22 57  1  0  0  0  0
 22 58  1  0  0  0  0
 25 59  1  0  0  0  0
 25 60  1  0  0  0  0
 25 61  1  0  0  0  0
 26 62  1  0  0  0  0
 26 63  1  0  0  0  0
 26 64  1  0  0  0  0
 27 65  1  0  0  0  0
 27 66  1  0  0  0  0
M  END
> <compound>
EDJ-MED-9f4ac58c-8

> <compound_smiles>
COC1(CC1)CS(=O)(=O)N2CC3(CCN(C3=O)c4cncc5c4ccc(c5)S(=O)(=O)C)c6cc(ccc6C2=O)Cl

> <enantiomer_smiles>
COC1(CC1)CS(=O)(=O)N2CC3(CCN(C3=O)c4cncc5c4ccc(c5)S(=O)(=O)C)c6cc(ccc6C2=O)Cl

> <scaffold>
tetrahydroisoquinoline-5spiro-isoquinoline

> <clash_score>
0

> <docking_score>
-8.418374061584473

> <overlap_score>
0.9856252074241638

> <MMFF_internal_energy>
141.38111900723788

> <docked_smiles>
COC1(CC1)CS(=O)(=O)N2C[C@]3(CCN(C3=O)c4cncc5c4ccc(c5)S(=O)(=O)C)c6cc(ccc6C2=O)Cl

$$$$
EDJ-MED-5cd3920d-1_1
  -OEChem-12272114583D

 62 67  0     1  0  0  0  0  0999 V2000
    9.9899    5.1222   23.8236 C   0  0  0  0  0  0  0  0  0  0  0  0
    3.7865    2.4205   19.1660 C   0  0  0  0  0  0  0  0  0  0  0  0
   12.0765    0.0316   24.1541 C   0  0  0  0  0  0  0  0  0  0  0  0
    3.3432    2.6279   20.4411 C   0  0  0  0  0  0  0  0  0  0  0  0
   12.9132   -0.6032   23.2569 C   0  0  0  0  0  0  0  0  0  0  0  0
    4.8973    1.0233   21.2988 C   0  0  0  0  0  0  0  0  0  0  0  0
   10.9991   -1.4331   22.0443 C   0  0  0  0  0  0  0  0  0  0  0  0
    5.3278    1.2339   17.6066 C   0  0  0  0  0  0  0  0  0  0  0  0
    6.8438   -0.2892   18.3752 C   0  0  0  0  0  0  0  0  0  0  0  0
    4.8226    1.4906   18.9054 C   0  0  0  0  0  0  0  0  0  0  0  0
    5.3982    0.7733   19.9948 C   0  0  0  0  0  0  0  0  0  0  0  0
   10.7040   -0.0625   23.9898 C   0  0  0  0  0  0  0  0  0  0  0  0
   10.1406   -0.7765   22.9250 C   0  0  0  0  0  0  0  0  0  0  0  0
    6.4440   -0.1472   19.6979 C   0  0  0  0  0  0  0  0  0  0  0  0
    3.8960    1.9291   21.5050 C   0  0  0  0  0  0  0  0  0  0  0  0
   12.3683   -1.3298   22.2234 C   0  0  0  0  0  0  0  0  0  0  0  0
    8.2490    0.0169   21.4271 C   0  0  0  0  0  0  0  0  0  0  0  0
    9.9479    0.5589   24.9534 C   0  0  0  0  0  0  0  0  0  0  0  0
    8.5324    6.1021   25.6323 C   0  0  0  0  0  0  0  0  0  0  0  0
    7.7014    6.0179   24.3861 C   0  0  0  0  0  0  0  0  0  0  0  0
    8.0140   -2.1541   22.4331 C   0  0  0  0  0  0  0  0  0  0  0  0
    6.9866   -1.9366   21.3580 C   0  0  0  0  0  0  0  0  0  0  0  0
    7.8721   -0.1194   23.8831 C   0  0  0  0  0  0  0  0  0  0  0  0
    8.7994    5.0058   24.6255 C   0  0  0  0  0  0  0  0  0  0  0  0
    8.6238   -0.7606   22.6929 C   0  0  3  0  0  0  0  0  0  0  0  0
    8.3989    3.5932   24.9882 C   0  0  0  0  0  0  0  0  0  0  0  0
    3.4761    1.0796   23.6972 C   0  0  0  0  0  0  0  0  0  0  0  0
   10.9490    5.2161   23.1776 N   0  0  0  0  0  0  0  0  0  0  0  0
    6.3062    0.3769   17.3421 N   0  0  0  0  0  0  0  0  0  0  0  0
    7.2292   -0.6897   20.7790 N   0  0  0  0  0  0  0  0  0  0  0  0
    8.6609    1.0133   24.4995 N   0  0  1  0  0  0  0  0  0  0  0  0
    8.7572    1.0941   21.1350 O   0  0  0  0  0  0  0  0  0  0  0  0
    7.4179    2.5201   22.8172 O   0  0  0  0  0  0  0  0  0  0  0  0
    9.9251    2.7322   23.0499 O   0  0  0  0  0  0  0  0  0  0  0  0
    3.4227    2.1582   22.7714 O   0  0  0  0  0  0  0  0  0  0  0  0
    4.6714    1.1493   24.3382 F   0  0  0  0  0  0  0  0  0  0  0  0
    2.5208    1.2569   24.6426 F   0  0  0  0  0  0  0  0  0  0  0  0
    8.6198    2.4832   23.6217 S   0  0  0  0  0  0  0  0  0  0  0  0
   13.4275   -2.1421   21.1097 Cl  0  0  0  0  0  0  0  0  0  0  0  0
    3.3406    2.9746   18.3368 H   0  0  0  0  0  0  0  0  0  0  0  0
   12.5015    0.5938   24.9776 H   0  0  0  0  0  0  0  0  0  0  0  0
    2.5407    3.3506   20.6306 H   0  0  0  0  0  0  0  0  0  0  0  0
   13.9911   -0.5212   23.3814 H   0  0  0  0  0  0  0  0  0  0  0  0
    5.3162    0.4858   22.1535 H   0  0  0  0  0  0  0  0  0  0  0  0
   10.6037   -2.0228   21.2288 H   0  0  0  0  0  0  0  0  0  0  0  0
    4.9131    1.7514   16.7479 H   0  0  0  0  0  0  0  0  0  0  0  0
    7.6448   -0.9758   18.1041 H   0  0  0  0  0  0  0  0  0  0  0  0
    9.7581   -0.1287   25.8173 H   0  0  0  0  0  0  0  0  0  0  0  0
   10.4931    1.4391   25.3829 H   0  0  0  0  0  0  0  0  0  0  0  0
    9.2347    6.9241   25.7129 H   0  0  0  0  0  0  0  0  0  0  0  0
    8.0587    5.8395   26.5712 H   0  0  0  0  0  0  0  0  0  0  0  0
    6.6706    5.6996   24.4905 H   0  0  0  0  0  0  0  0  0  0  0  0
    7.8473    6.7843   23.6333 H   0  0  0  0  0  0  0  0  0  0  0  0
    7.5801   -2.6060   23.3366 H   0  0  0  0  0  0  0  0  0  0  0  0
    8.7749   -2.8608   22.0657 H   0  0  0  0  0  0  0  0  0  0  0  0
    7.0227   -2.7506   20.5953 H   0  0  0  0  0  0  0  0  0  0  0  0
    5.9554   -1.9484   21.7832 H   0  0  0  0  0  0  0  0  0  0  0  0
    6.8886    0.2769   23.5666 H   0  0  0  0  0  0  0  0  0  0  0  0
    7.6579   -0.8710   24.6633 H   0  0  0  0  0  0  0  0  0  0  0  0
    7.3445    3.5466   25.2742 H   0  0  0  0  0  0  0  0  0  0  0  0
    9.0072    3.2136   25.8136 H   0  0  0  0  0  0  0  0  0  0  0  0
    3.3898    0.0952   23.2248 H   0  0  0  0  0  0  0  0  0  0  0  0
  1 24  1  0  0  0  0
  1 28  3  0  0  0  0
  2  4  1  0  0  0  0
  2 10  2  0  0  0  0
  3  5  1  0  0  0  0
  3 12  2  0  0  0  0
  4 15  2  0  0  0  0
  5 16  2  0  0  0  0
  6 11  2  0  0  0  0
  6 15  1  0  0  0  0
  7 13  2  0  0  0  0
  7 16  1  0  0  0  0
  8 10  1  0  0  0  0
  8 29  2  0  0  0  0
  9 14  2  0  0  0  0
  9 29  1  0  0  0  0
 10 11  1  0  0  0  0
 11 14  1  0  0  0  0
 12 13  1  0  0  0  0
 12 18  1  0  0  0  0
 13 25  1  0  0  0  0
 14 30  1  0  0  0  0
 15 35  1  0  0  0  0
 16 39  1  0  0  0  0
 17 25  1  0  0  0  0
 17 30  1  0  0  0  0
 17 32  2  0  0  0  0
 18 31  1  0  0  0  0
 19 20  1  0  0  0  0
 19 24  1  0  0  0  0
 20 24  1  0  0  0  0
 21 22  1  0  0  0  0
 21 25  1  0  0  0  0
 22 30  1  0  0  0  0
 23 25  1  0  0  0  0
 23 31  1  0  0  0  0
 24 26  1  0  0  0  0
 26 38  1  0  0  0  0
 27 35  1  0  0  0  0
 27 36  1  0  0  0  0
 27 37  1  0  0  0  0
 31 38  1  1  0  0  0
 33 38  2  0  0  0  0
 34 38  2  0  0  0  0
  2 40  1  0  0  0  0
  3 41  1  0  0  0  0
  4 42  1  0  0  0  0
  5 43  1  0  0  0  0
  6 44  1  0  0  0  0
  7 45  1  0  0  0  0
  8 46  1  0  0  0  0
  9 47  1  0  0  0  0
 18 48  1  0  0  0  0
 18 49  1  0  0  0  0
 19 50  1  0  0  0  0
 19 51  1  0  0  0  0
 20 52  1  0  0  0  0
 20 53  1  0  0  0  0
 21 54  1  0  0  0  0
 21 55  1  0  0  0  0
 22 56  1  0  0  0  0
 22 57  1  0  0  0  0
 23 58  1  0  0  0  0
 23 59  1  0  0  0  0
 26 60  1  0  0  0  0
 26 61  1  0  0  0  0
 27 62  1  0  0  0  0
M  END
> <compound>
EDJ-MED-5cd3920d-1

> <compound_smiles>
c1cc2cncc(c2cc1OC(F)F)N3CCC4(C3=O)CN(Cc5c4cc(cc5)Cl)S(=O)(=O)CC6(CC6)C#N

> <enantiomer_smiles>
c1cc2cncc(c2cc1OC(F)F)N3CCC4(C3=O)C[N@@](Cc5c4cc(cc5)Cl)S(=O)(=O)CC6(CC6)C#N

> <scaffold>
tetrahydroisoquinoline-5spiro-isoquinoline

> <clash_score>
0

> <docking_score>
-8.54469108581543

> <overlap_score>
0.9800771474838257

> <MMFF_internal_energy>
138.09654639627723

> <docked_smiles>
c1cc2cncc(c2cc1OC(F)F)N3CC[C@@]4(C3=O)C[N@@](Cc5c4cc(cc5)Cl)S(=O)(=O)CC6(CC6)C#N

$$$$
LUO-POS-b5068a05-1_2
  -OEChem-12272114583D

 66 71  0     1  0  0  0  0  0999 V2000
    6.4154    5.1142   25.3909 C   0  0  0  0  0  0  0  0  0  0  0  0
    3.3432    2.6279   20.4411 C   0  0  0  0  0  0  0  0  0  0  0  0
    3.8960    1.9291   21.5050 C   0  0  0  0  0  0  0  0  0  0  0  0
    3.7865    2.4205   19.1660 C   0  0  0  0  0  0  0  0  0  0  0  0
    4.8973    1.0233   21.2988 C   0  0  0  0  0  0  0  0  0  0  0  0
   12.0765    0.0316   24.1541 C   0  0  0  0  0  0  0  0  0  0  0  0
   12.9132   -0.6032   23.2569 C   0  0  0  0  0  0  0  0  0  0  0  0
   10.9991   -1.4331   22.0443 C   0  0  0  0  0  0  0  0  0  0  0  0
    5.3278    1.2339   17.6066 C   0  0  0  0  0  0  0  0  0  0  0  0
    6.8438   -0.2892   18.3752 C   0  0  0  0  0  0  0  0  0  0  0  0
    4.8226    1.4906   18.9054 C   0  0  0  0  0  0  0  0  0  0  0  0
    5.3982    0.7733   19.9948 C   0  0  0  0  0  0  0  0  0  0  0  0
   10.7040   -0.0625   23.9898 C   0  0  0  0  0  0  0  0  0  0  0  0
   10.1406   -0.7765   22.9250 C   0  0  0  0  0  0  0  0  0  0  0  0
    6.4440   -0.1472   19.6979 C   0  0  0  0  0  0  0  0  0  0  0  0
   12.3683   -1.3298   22.2234 C   0  0  0  0  0  0  0  0  0  0  0  0
    8.2490    0.0169   21.4271 C   0  0  0  0  0  0  0  0  0  0  0  0
    6.9866   -1.9366   21.3580 C   0  0  0  0  0  0  0  0  0  0  0  0
    9.9479    0.5589   24.9534 C   0  0  0  0  0  0  0  0  0  0  0  0
    8.6356    5.8176   26.3563 C   0  0  0  0  0  0  0  0  0  0  0  0
    8.0356    4.8171   27.2994 C   0  0  0  0  0  0  0  0  0  0  0  0
    7.8721   -0.1194   23.8831 C   0  0  0  0  0  0  0  0  0  0  0  0
    7.7347    4.7278   25.8200 C   0  0  0  0  0  0  0  0  0  0  0  0
    8.6238   -0.7606   22.6929 C   0  0  3  0  0  0  0  0  0  0  0  0
    4.2975   -4.0777   21.8846 C   0  0  0  0  0  0  0  0  0  0  0  0
    6.6706   -4.8202   22.2368 C   0  0  0  0  0  0  0  0  0  0  0  0
    8.3686    3.6041   25.0310 C   0  0  0  0  0  0  0  0  0  0  0  0
    5.3525    5.4255   25.0452 N   0  0  0  0  0  0  0  0  0  0  0  0
    6.3062    0.3769   17.3421 N   0  0  0  0  0  0  0  0  0  0  0  0
    8.0140   -2.1541   22.4331 N   0  0  0  0  0  0  0  0  0  0  0  0
    7.2292   -0.6897   20.7790 N   0  0  0  0  0  0  0  0  0  0  0  0
    8.6609    1.0133   24.4995 N   0  0  2  0  0  0  0  0  0  0  0  0
    6.1286   -2.8551   21.0766 N   0  0  0  0  0  0  0  0  0  0  0  0
    5.7039   -3.6873   22.1855 N   0  3  0  0  0  0  0  0  0  0  0  0
    8.7545    1.0912   21.1175 O   0  0  0  0  0  0  0  0  0  0  0  0
    8.2200    1.8038   26.9189 O   0  0  0  0  0  0  0  0  0  0  0  0
    6.3740    1.9242   25.1975 O   0  0  0  0  0  0  0  0  0  0  0  0
    7.7711    2.0195   25.5607 S   0  0  0  0  0  0  0  0  0  0  0  0
   13.4270   -2.1405   21.1082 Cl  0  0  0  0  0  0  0  0  0  0  0  0
    2.5432    3.3510   20.6369 H   0  0  0  0  0  0  0  0  0  0  0  0
    3.5174    2.1137   22.5168 H   0  0  0  0  0  0  0  0  0  0  0  0
    3.3409    2.9743   18.3364 H   0  0  0  0  0  0  0  0  0  0  0  0
    5.3118    0.4895   22.1572 H   0  0  0  0  0  0  0  0  0  0  0  0
   12.5019    0.5987   24.9745 H   0  0  0  0  0  0  0  0  0  0  0  0
   13.9909   -0.5172   23.3790 H   0  0  0  0  0  0  0  0  0  0  0  0
   10.6035   -2.0176   21.2244 H   0  0  0  0  0  0  0  0  0  0  0  0
    4.9141    1.7511   16.7474 H   0  0  0  0  0  0  0  0  0  0  0  0
    7.6445   -0.9764   18.1043 H   0  0  0  0  0  0  0  0  0  0  0  0
    9.7866   -0.1183   25.8323 H   0  0  0  0  0  0  0  0  0  0  0  0
   10.4804    1.4571   25.3606 H   0  0  0  0  0  0  0  0  0  0  0  0
    8.2623    6.8346   26.3989 H   0  0  0  0  0  0  0  0  0  0  0  0
    9.7002    5.7514   26.1637 H   0  0  0  0  0  0  0  0  0  0  0  0
    8.6987    4.0811   27.7394 H   0  0  0  0  0  0  0  0  0  0  0  0
    7.2614    5.1651   27.9737 H   0  0  0  0  0  0  0  0  0  0  0  0
    6.8945    0.2694   23.5507 H   0  0  0  0  0  0  0  0  0  0  0  0
    7.6649   -0.8671   24.6689 H   0  0  0  0  0  0  0  0  0  0  0  0
    4.3002   -4.6418   20.9501 H   0  0  0  0  0  0  0  0  0  0  0  0
    3.9365   -4.6909   22.7124 H   0  0  0  0  0  0  0  0  0  0  0  0
    3.7100   -3.1625   21.7887 H   0  0  0  0  0  0  0  0  0  0  0  0
    6.6012   -5.3615   21.2915 H   0  0  0  0  0  0  0  0  0  0  0  0
    7.6689   -4.4015   22.3771 H   0  0  0  0  0  0  0  0  0  0  0  0
    6.3916   -5.4597   23.0765 H   0  0  0  0  0  0  0  0  0  0  0  0
    9.4544    3.5989   25.1606 H   0  0  0  0  0  0  0  0  0  0  0  0
    8.1392    3.6956   23.9659 H   0  0  0  0  0  0  0  0  0  0  0  0
    5.7558   -2.9521   20.1572 H   0  0  0  0  0  0  0  0  0  0  0  0
    5.7408   -3.1516   23.0631 H   0  0  0  0  0  0  0  0  0  0  0  0
  1 23  1  0  0  0  0
  1 28  3  0  0  0  0
  2  3  1  0  0  0  0
  2  4  2  0  0  0  0
  3  5  2  0  0  0  0
  4 11  1  0  0  0  0
  5 12  1  0  0  0  0
  6  7  1  0  0  0  0
  6 13  2  0  0  0  0
  7 16  2  0  0  0  0
  8 14  2  0  0  0  0
  8 16  1  0  0  0  0
  9 11  2  0  0  0  0
  9 29  1  0  0  0  0
 10 15  1  0  0  0  0
 10 29  2  0  0  0  0
 11 12  1  0  0  0  0
 12 15  2  0  0  0  0
 13 14  1  0  0  0  0
 13 19  1  0  0  0  0
 14 24  1  0  0  0  0
 15 31  1  0  0  0  0
 16 39  1  0  0  0  0
 17 24  1  0  0  0  0
 17 31  1  0  0  0  0
 17 35  2  0  0  0  0
 18 30  2  0  0  0  0
 18 31  1  0  0  0  0
 18 33  1  0  0  0  0
 19 32  1  0  0  0  0
 20 21  1  0  0  0  0
 20 23  1  0  0  0  0
 21 23  1  0  0  0  0
 22 24  1  0  0  0  0
 22 32  1  0  0  0  0
 23 27  1  0  0  0  0
 24 30  1  0  0  0  0
 25 34  1  0  0  0  0
 26 34  1  0  0  0  0
 27 38  1  0  0  0  0
 32 38  1  6  0  0  0
 33 34  1  0  0  0  0
 36 38  2  0  0  0  0
 37 38  2  0  0  0  0
  2 40  1  0  0  0  0
  3 41  1  0  0  0  0
  4 42  1  0  0  0  0
  5 43  1  0  0  0  0
  6 44  1  0  0  0  0
  7 45  1  0  0  0  0
  8 46  1  0  0  0  0
  9 47  1  0  0  0  0
 10 48  1  0  0  0  0
 19 49  1  0  0  0  0
 19 50  1  0  0  0  0
 20 51  1  0  0  0  0
 20 52  1  0  0  0  0
 21 53  1  0  0  0  0
 21 54  1  0  0  0  0
 22 55  1  0  0  0  0
 22 56  1  0  0  0  0
 25 57  1  0  0  0  0
 25 58  1  0  0  0  0
 25 59  1  0  0  0  0
 26 60  1  0  0  0  0
 26 61  1  0  0  0  0
 26 62  1  0  0  0  0
 27 63  1  0  0  0  0
 27 64  1  0  0  0  0
 33 65  1  0  0  0  0
 34 66  1  0  0  0  0
M  CHG  1  34   1
M  END
> <compound>
LUO-POS-b5068a05-1

> <compound_smiles>
CN(C)NC1=NC2(CN(Cc3c2cc(cc3)Cl)S(=O)(=O)CC4(CC4)C#N)C(=O)N1c5cncc6c5cccc6

> <enantiomer_smiles>
CN(C)NC1=NC2(C[N@](Cc3c2cc(cc3)Cl)S(=O)(=O)CC4(CC4)C#N)C(=O)N1c5cncc6c5cccc6

> <scaffold>
tetrahydroisoquinoline-5spiro-isoquinoline

> <clash_score>
0.6939393778285944

> <docking_score>
-5.870410442352295

> <overlap_score>
1.0

> <MMFF_internal_energy>
220.09725948016376

> <docked_smiles>
C[NH+](C)NC1=N[C@]2(C[N@](Cc3c2cc(cc3)Cl)S(=O)(=O)CC4(CC4)C#N)C(=O)N1c5cncc6c5cccc6

$$$$
EDJ-MED-b6c6ee2b-5_1
  -OEChem-12272114583D

 69 73  0     1  0  0  0  0  0999 V2000
    3.7865    2.4205   19.1660 C   0  0  0  0  0  0  0  0  0  0  0  0
   12.0765    0.0316   24.1541 C   0  0  0  0  0  0  0  0  0  0  0  0
    3.3432    2.6279   20.4411 C   0  0  0  0  0  0  0  0  0  0  0  0
   12.9132   -0.6032   23.2569 C   0  0  0  0  0  0  0  0  0  0  0  0
    4.8973    1.0233   21.2988 C   0  0  0  0  0  0  0  0  0  0  0  0
   10.9991   -1.4331   22.0443 C   0  0  0  0  0  0  0  0  0  0  0  0
    5.3278    1.2339   17.6066 C   0  0  0  0  0  0  0  0  0  0  0  0
    6.8438   -0.2892   18.3752 C   0  0  0  0  0  0  0  0  0  0  0  0
    4.8226    1.4906   18.9054 C   0  0  0  0  0  0  0  0  0  0  0  0
    5.3982    0.7733   19.9948 C   0  0  0  0  0  0  0  0  0  0  0  0
   10.7040   -0.0625   23.9898 C   0  0  0  0  0  0  0  0  0  0  0  0
   10.1406   -0.7765   22.9250 C   0  0  0  0  0  0  0  0  0  0  0  0
    6.4440   -0.1472   19.6979 C   0  0  0  0  0  0  0  0  0  0  0  0
    3.8960    1.9291   21.5050 C   0  0  0  0  0  0  0  0  0  0  0  0
   12.3683   -1.3298   22.2234 C   0  0  0  0  0  0  0  0  0  0  0  0
    9.9479    0.5589   24.9534 C   0  0  0  0  0  0  0  0  0  0  0  0
    8.2490    0.0169   21.4271 C   0  0  0  0  0  0  0  0  0  0  0  0
    8.4669    3.2198   23.6970 C   0  0  0  0  0  0  0  0  0  0  0  0
    8.0140   -2.1541   22.4331 C   0  0  0  0  0  0  0  0  0  0  0  0
    6.9866   -1.9366   21.3580 C   0  0  0  0  0  0  0  0  0  0  0  0
    7.8721   -0.1194   23.8831 C   0  0  0  0  0  0  0  0  0  0  0  0
    8.6238   -0.7606   22.6929 C   0  0  3  0  0  0  0  0  0  0  0  0
   10.2286    4.9046   23.1758 C   0  0  0  0  0  0  0  0  0  0  0  0
    1.3389    3.1050   23.9925 C   0  0  0  0  0  0  0  0  0  0  0  0
    0.6407    0.7505   24.4041 C   0  0  0  0  0  0  0  0  0  0  0  0
    8.0922    2.2237   24.7645 C   0  0  0  0  0  0  0  0  0  0  0  0
    2.9322    1.4970   25.0305 C   0  0  0  0  0  0  0  0  0  0  0  0
    3.4841    1.0653   23.6862 C   0  0  0  0  0  0  0  0  0  0  0  0
    6.3062    0.3769   17.3421 N   0  0  0  0  0  0  0  0  0  0  0  0
    7.2292   -0.6897   20.7790 N   0  0  0  0  0  0  0  0  0  0  0  0
    8.6609    1.0133   24.4995 N   0  0  0  0  0  0  0  0  0  0  0  0
    9.6355    3.8939   24.0215 N   0  0  0  0  0  0  0  0  0  0  0  0
    1.5096    1.8915   24.8725 N   0  3  0  0  0  0  0  0  0  0  0  0
   10.3214    0.7303   26.1092 O   0  0  0  0  0  0  0  0  0  0  0  0
    8.8193    1.0411   21.0780 O   0  0  0  0  0  0  0  0  0  0  0  0
    7.8085    3.3951   22.6752 O   0  0  0  0  0  0  0  0  0  0  0  0
    3.4227    2.1582   22.7714 O   0  0  0  0  0  0  0  0  0  0  0  0
   13.4274   -2.1468   21.1136 Cl  0  0  0  0  0  0  0  0  0  0  0  0
    3.3406    2.9746   18.3368 H   0  0  0  0  0  0  0  0  0  0  0  0
   12.5172    0.5967   24.9716 H   0  0  0  0  0  0  0  0  0  0  0  0
    2.5407    3.3506   20.6306 H   0  0  0  0  0  0  0  0  0  0  0  0
   13.9905   -0.5221   23.3825 H   0  0  0  0  0  0  0  0  0  0  0  0
    5.3162    0.4858   22.1535 H   0  0  0  0  0  0  0  0  0  0  0  0
   10.6130   -2.0249   21.2272 H   0  0  0  0  0  0  0  0  0  0  0  0
    4.9131    1.7514   16.7479 H   0  0  0  0  0  0  0  0  0  0  0  0
    7.6448   -0.9758   18.1041 H   0  0  0  0  0  0  0  0  0  0  0  0
    7.5110   -2.5276   23.3390 H   0  0  0  0  0  0  0  0  0  0  0  0
    8.7575   -2.9105   22.1433 H   0  0  0  0  0  0  0  0  0  0  0  0
    7.0587   -2.7258   20.5724 H   0  0  0  0  0  0  0  0  0  0  0  0
    5.9512   -1.9960   21.7712 H   0  0  0  0  0  0  0  0  0  0  0  0
    6.9203    0.3184   23.5736 H   0  0  0  0  0  0  0  0  0  0  0  0
    7.6659   -0.8542   24.6623 H   0  0  0  0  0  0  0  0  0  0  0  0
   10.9348    4.4312   22.4778 H   0  0  0  0  0  0  0  0  0  0  0  0
    9.4384    5.4164   22.6069 H   0  0  0  0  0  0  0  0  0  0  0  0
   10.7641    5.6360   23.7990 H   0  0  0  0  0  0  0  0  0  0  0  0
    1.7096    2.8510   22.9978 H   0  0  0  0  0  0  0  0  0  0  0  0
    0.2755    3.3505   23.9645 H   0  0  0  0  0  0  0  0  0  0  0  0
    1.9183    3.9198   24.4310 H   0  0  0  0  0  0  0  0  0  0  0  0
    0.9956    0.4432   23.4187 H   0  0  0  0  0  0  0  0  0  0  0  0
    0.7373   -0.0617   25.1271 H   0  0  0  0  0  0  0  0  0  0  0  0
   -0.3882    1.1123   24.3554 H   0  0  0  0  0  0  0  0  0  0  0  0
    8.4448    2.5768   25.7381 H   0  0  0  0  0  0  0  0  0  0  0  0
    7.0053    2.1037   24.7947 H   0  0  0  0  0  0  0  0  0  0  0  0
    3.4527    2.3730   25.4277 H   0  0  0  0  0  0  0  0  0  0  0  0
    2.9524    0.6805   25.7571 H   0  0  0  0  0  0  0  0  0  0  0  0
    4.5333    0.7722   23.7921 H   0  0  0  0  0  0  0  0  0  0  0  0
    2.9235    0.2216   23.2709 H   0  0  0  0  0  0  0  0  0  0  0  0
   10.0971    3.6657   24.8972 H   0  0  0  0  0  0  0  0  0  0  0  0
    1.1515    2.1606   25.8045 H   0  0  0  0  0  0  0  0  0  0  0  0
  1  3  2  0  0  0  0
  1  9  1  0  0  0  0
  2  4  2  0  0  0  0
  2 11  1  0  0  0  0
  3 14  1  0  0  0  0
  4 15  1  0  0  0  0
  5 10  1  0  0  0  0
  5 14  2  0  0  0  0
  6 12  1  0  0  0  0
  6 15  2  0  0  0  0
  7  9  2  0  0  0  0
  7 29  1  0  0  0  0
  8 13  1  0  0  0  0
  8 29  2  0  0  0  0
  9 10  1  0  0  0  0
 10 13  2  0  0  0  0
 11 12  2  0  0  0  0
 11 16  1  0  0  0  0
 12 22  1  0  0  0  0
 13 30  1  0  0  0  0
 14 37  1  0  0  0  0
 15 38  1  0  0  0  0
 16 31  1  0  0  0  0
 16 34  2  0  0  0  0
 17 22  1  0  0  0  0
 17 30  1  0  0  0  0
 17 35  2  0  0  0  0
 18 26  1  0  0  0  0
 18 32  1  0  0  0  0
 18 36  2  0  0  0  0
 19 20  1  0  0  0  0
 19 22  1  0  0  0  0
 20 30  1  0  0  0  0
 21 22  1  0  0  0  0
 21 31  1  0  0  0  0
 23 32  1  0  0  0  0
 24 33  1  0  0  0  0
 25 33  1  0  0  0  0
 26 31  1  0  0  0  0
 27 28  1  0  0  0  0
 27 33  1  0  0  0  0
 28 37  1  0  0  0  0
  1 39  1  0  0  0  0
  2 40  1  0  0  0  0
  3 41  1  0  0  0  0
  4 42  1  0  0  0  0
  5 43  1  0  0  0  0
  6 44  1  0  0  0  0
  7 45  1  0  0  0  0
  8 46  1  0  0  0  0
 19 47  1  0  0  0  0
 19 48  1  0  0  0  0
 20 49  1  0  0  0  0
 20 50  1  0  0  0  0
 21 51  1  0  0  0  0
 21 52  1  0  0  0  0
 23 53  1  0  0  0  0
 23 54  1  0  0  0  0
 23 55  1  0  0  0  0
 24 56  1  0  0  0  0
 24 57  1  0  0  0  0
 24 58  1  0  0  0  0
 25 59  1  0  0  0  0
 25 60  1  0  0  0  0
 25 61  1  0  0  0  0
 26 62  1  0  0  0  0
 26 63  1  0  0  0  0
 27 64  1  0  0  0  0
 27 65  1  0  0  0  0
 28 66  1  0  0  0  0
 28 67  1  0  0  0  0
 32 68  1  0  0  0  0
 33 69  1  0  0  0  0
M  CHG  1  33   1
M  END
> <compound>
EDJ-MED-b6c6ee2b-5

> <compound_smiles>
CNC(=O)CN1CC2(CCN(C2=O)c3cncc4c3cc(cc4)OCCN(C)C)c5cc(ccc5C1=O)Cl

> <enantiomer_smiles>
CNC(=O)CN1CC2(CCN(C2=O)c3cncc4c3cc(cc4)OCCN(C)C)c5cc(ccc5C1=O)Cl

> <scaffold>
tetrahydroisoquinoline-5spiro-isoquinoline

> <clash_score>
0

> <docking_score>
-8.804459571838379

> <overlap_score>
1.0

> <MMFF_internal_energy>
210.49964513882006

> <docked_smiles>
CNC(=O)CN1C[C@]2(CCN(C2=O)c3cncc4c3cc(cc4)OCC[NH+](C)C)c5cc(ccc5C1=O)Cl

$$$$
MAT-POS-853c0ffa-19_2
  -OEChem-12272114583D

 76 81  0     1  0  0  0  0  0999 V2000
    3.7865    2.4205   19.1660 C   0  0  0  0  0  0  0  0  0  0  0  0
   12.0765    0.0316   24.1541 C   0  0  0  0  0  0  0  0  0  0  0  0
    3.3432    2.6279   20.4411 C   0  0  0  0  0  0  0  0  0  0  0  0
   12.9132   -0.6032   23.2569 C   0  0  0  0  0  0  0  0  0  0  0  0
    4.8973    1.0233   21.2988 C   0  0  0  0  0  0  0  0  0  0  0  0
   10.9991   -1.4331   22.0443 C   0  0  0  0  0  0  0  0  0  0  0  0
    5.3278    1.2339   17.6066 C   0  0  0  0  0  0  0  0  0  0  0  0
    6.8438   -0.2892   18.3752 C   0  0  0  0  0  0  0  0  0  0  0  0
    4.8226    1.4906   18.9054 C   0  0  0  0  0  0  0  0  0  0  0  0
    5.3982    0.7733   19.9948 C   0  0  0  0  0  0  0  0  0  0  0  0
   10.7040   -0.0625   23.9898 C   0  0  0  0  0  0  0  0  0  0  0  0
   10.1406   -0.7765   22.9250 C   0  0  0  0  0  0  0  0  0  0  0  0
    6.4440   -0.1472   19.6979 C   0  0  0  0  0  0  0  0  0  0  0  0
    3.8960    1.9291   21.5050 C   0  0  0  0  0  0  0  0  0  0  0  0
   12.3683   -1.3298   22.2234 C   0  0  0  0  0  0  0  0  0  0  0  0
    8.2490    0.0169   21.4271 C   0  0  0  0  0  0  0  0  0  0  0  0
    9.9479    0.5589   24.9534 C   0  0  0  0  0  0  0  0  0  0  0  0
    6.2396    4.9633   24.5563 C   0  0  0  0  0  0  0  0  0  0  0  0
    7.3918    5.9256   24.5061 C   0  0  0  0  0  0  0  0  0  0  0  0
    8.0140   -2.1541   22.4331 C   0  0  0  0  0  0  0  0  0  0  0  0
    6.9866   -1.9366   21.3580 C   0  0  0  0  0  0  0  0  0  0  0  0
    7.8721   -0.1194   23.8831 C   0  0  0  0  0  0  0  0  0  0  0  0
    8.6238   -0.7606   22.6929 C   0  0  3  0  0  0  0  0  0  0  0  0
    7.4618    4.7167   25.4097 C   0  0  0  0  0  0  0  0  0  0  0  0
    7.3424    4.9369   26.8927 C   0  0  0  0  0  0  0  0  0  0  0  0
    3.0844   -0.0662   26.3092 C   0  0  0  0  0  0  0  0  0  0  0  0
    0.7958   -0.7969   25.6541 C   0  0  0  0  0  0  0  0  0  0  0  0
    8.3874    3.5882   25.0137 C   0  0  0  0  0  0  0  0  0  0  0  0
    2.0837    0.7376   24.1751 C   0  0  0  0  0  0  0  0  0  0  0  0
    3.4815    1.0690   23.6908 C   0  0  0  0  0  0  0  0  0  0  0  0
    6.3062    0.3769   17.3421 N   0  0  0  0  0  0  0  0  0  0  0  0
    7.2292   -0.6897   20.7790 N   0  0  0  0  0  0  0  0  0  0  0  0
    8.6609    1.0133   24.4995 N   0  0  1  0  0  0  0  0  0  0  0  0
    2.1562   -0.3713   25.1597 N   0  3  0  0  0  0  0  0  0  0  0  0
    8.8299    1.0397   21.0799 O   0  0  0  0  0  0  0  0  0  0  0  0
    8.2407    1.8013   26.9144 O   0  0  0  0  0  0  0  0  0  0  0  0
    6.3653    1.9471   25.2271 O   0  0  0  0  0  0  0  0  0  0  0  0
    3.4227    2.1582   22.7714 O   0  0  0  0  0  0  0  0  0  0  0  0
    7.7708    2.0177   25.5632 S   0  0  0  0  0  0  0  0  0  0  0  0
   13.4272   -2.1411   21.1086 Cl  0  0  0  0  0  0  0  0  0  0  0  0
    3.3406    2.9746   18.3368 H   0  0  0  0  0  0  0  0  0  0  0  0
   12.5024    0.5995   24.9735 H   0  0  0  0  0  0  0  0  0  0  0  0
    2.5407    3.3506   20.6306 H   0  0  0  0  0  0  0  0  0  0  0  0
   13.9910   -0.5177   23.3793 H   0  0  0  0  0  0  0  0  0  0  0  0
    5.3162    0.4858   22.1535 H   0  0  0  0  0  0  0  0  0  0  0  0
   10.6036   -2.0162   21.2241 H   0  0  0  0  0  0  0  0  0  0  0  0
    4.9131    1.7514   16.7479 H   0  0  0  0  0  0  0  0  0  0  0  0
    7.6448   -0.9758   18.1041 H   0  0  0  0  0  0  0  0  0  0  0  0
    9.7849   -0.1194   25.8306 H   0  0  0  0  0  0  0  0  0  0  0  0
   10.4793    1.4568   25.3613 H   0  0  0  0  0  0  0  0  0  0  0  0
    5.3279    5.2952   25.0388 H   0  0  0  0  0  0  0  0  0  0  0  0
    6.0740    4.3315   23.6917 H   0  0  0  0  0  0  0  0  0  0  0  0
    7.9977    5.9381   23.6078 H   0  0  0  0  0  0  0  0  0  0  0  0
    7.2517    6.9019   24.9549 H   0  0  0  0  0  0  0  0  0  0  0  0
    7.5152   -2.5456   23.3338 H   0  0  0  0  0  0  0  0  0  0  0  0
    8.7649   -2.9030   22.1434 H   0  0  0  0  0  0  0  0  0  0  0  0
    7.0587   -2.7248   20.5721 H   0  0  0  0  0  0  0  0  0  0  0  0
    5.9518   -1.9952   21.7720 H   0  0  0  0  0  0  0  0  0  0  0  0
    6.8867    0.2641   23.5642 H   0  0  0  0  0  0  0  0  0  0  0  0
    7.6652   -0.8660   24.6733 H   0  0  0  0  0  0  0  0  0  0  0  0
    8.2925    4.7255   27.3985 H   0  0  0  0  0  0  0  0  0  0  0  0
    6.5761    4.2826   27.3261 H   0  0  0  0  0  0  0  0  0  0  0  0
    7.0653    5.9749   27.1142 H   0  0  0  0  0  0  0  0  0  0  0  0
    2.6865    0.8017   26.8383 H   0  0  0  0  0  0  0  0  0  0  0  0
    3.1118   -0.9433   26.9585 H   0  0  0  0  0  0  0  0  0  0  0  0
    4.0716    0.1460   25.8943 H   0  0  0  0  0  0  0  0  0  0  0  0
    0.3461    0.0544   26.1684 H   0  0  0  0  0  0  0  0  0  0  0  0
    0.2016   -1.0901   24.7866 H   0  0  0  0  0  0  0  0  0  0  0  0
    0.9362   -1.6377   26.3360 H   0  0  0  0  0  0  0  0  0  0  0  0
    9.3774    3.7195   25.4591 H   0  0  0  0  0  0  0  0  0  0  0  0
    8.4924    3.5311   23.9269 H   0  0  0  0  0  0  0  0  0  0  0  0
    1.4386    0.3881   23.3641 H   0  0  0  0  0  0  0  0  0  0  0  0
    1.6227    1.5846   24.6900 H   0  0  0  0  0  0  0  0  0  0  0  0
    4.1052    1.3745   24.5367 H   0  0  0  0  0  0  0  0  0  0  0  0
    3.9525    0.2123   23.1979 H   0  0  0  0  0  0  0  0  0  0  0  0
    2.5568   -1.1945   24.6786 H   0  0  0  0  0  0  0  0  0  0  0  0
  1  3  2  0  0  0  0
  1  9  1  0  0  0  0
  2  4  2  0  0  0  0
  2 11  1  0  0  0  0
  3 14  1  0  0  0  0
  4 15  1  0  0  0  0
  5 10  1  0  0  0  0
  5 14  2  0  0  0  0
  6 12  1  0  0  0  0
  6 15  2  0  0  0  0
  7  9  2  0  0  0  0
  7 31  1  0  0  0  0
  8 13  1  0  0  0  0
  8 31  2  0  0  0  0
  9 10  1  0  0  0  0
 10 13  2  0  0  0  0
 11 12  2  0  0  0  0
 11 17  1  0  0  0  0
 12 23  1  0  0  0  0
 13 32  1  0  0  0  0
 14 38  1  0  0  0  0
 15 40  1  0  0  0  0
 16 23  1  0  0  0  0
 16 32  1  0  0  0  0
 16 35  2  0  0  0  0
 17 33  1  0  0  0  0
 18 19  1  0  0  0  0
 18 24  1  0  0  0  0
 19 24  1  0  0  0  0
 20 21  1  0  0  0  0
 20 23  1  0  0  0  0
 21 32  1  0  0  0  0
 22 23  1  0  0  0  0
 22 33  1  0  0  0  0
 24 25  1  0  0  0  0
 24 28  1  0  0  0  0
 26 34  1  0  0  0  0
 27 34  1  0  0  0  0
 28 39  1  0  0  0  0
 29 30  1  0  0  0  0
 29 34  1  0  0  0  0
 30 38  1  0  0  0  0
 33 39  1  6  0  0  0
 36 39  2  0  0  0  0
 37 39  2  0  0  0  0
  1 41  1  0  0  0  0
  2 42  1  0  0  0  0
  3 43  1  0  0  0  0
  4 44  1  0  0  0  0
  5 45  1  0  0  0  0
  6 46  1  0  0  0  0
  7 47  1  0  0  0  0
  8 48  1  0  0  0  0
 17 49  1  0  0  0  0
 17 50  1  0  0  0  0
 18 51  1  0  0  0  0
 18 52  1  0  0  0  0
 19 53  1  0  0  0  0
 19 54  1  0  0  0  0
 20 55  1  0  0  0  0
 20 56  1  0  0  0  0
 21 57  1  0  0  0  0
 21 58  1  0  0  0  0
 22 59  1  0  0  0  0
 22 60  1  0  0  0  0
 25 61  1  0  0  0  0
 25 62  1  0  0  0  0
 25 63  1  0  0  0  0
 26 64  1  0  0  0  0
 26 65  1  0  0  0  0
 26 66  1  0  0  0  0
 27 67  1  0  0  0  0
 27 68  1  0  0  0  0
 27 69  1  0  0  0  0
 28 70  1  0  0  0  0
 28 71  1  0  0  0  0
 29 72  1  0  0  0  0
 29 73  1  0  0  0  0
 30 74  1  0  0  0  0
 30 75  1  0  0  0  0
 34 76  1  0  0  0  0
M  CHG  1  34   1
M  END
> <compound>
MAT-POS-853c0ffa-19

> <compound_smiles>
CC1(CC1)CS(=O)(=O)N2Cc3ccc(cc3C4(C2)CCN(C4=O)c5cncc6c5cc(cc6)OCCN(C)C)Cl

> <enantiomer_smiles>
CC1(CC1)CS(=O)(=O)[N@]2Cc3ccc(cc3C4(C2)CCN(C4=O)c5cncc6c5cc(cc6)OCCN(C)C)Cl

> <scaffold>
tetrahydroisoquinoline-5spiro-isoquinoline

> <clash_score>
0

> <docking_score>
-7.652721405029297

> <overlap_score>
0.9752723574638367

> <MMFF_internal_energy>
180.54601176209152

> <docked_smiles>
CC1(CC1)CS(=O)(=O)[N@]2Cc3ccc(cc3[C@]4(C2)CCN(C4=O)c5cncc6c5cc(cc6)OCC[NH+](C)C)Cl

$$$$
MAT-POS-853c0ffa-19_1
  -OEChem-12272114583D

 76 81  0     1  0  0  0  0  0999 V2000
    3.7865    2.4205   19.1660 C   0  0  0  0  0  0  0  0  0  0  0  0
   12.0765    0.0316   24.1541 C   0  0  0  0  0  0  0  0  0  0  0  0
    3.3432    2.6279   20.4411 C   0  0  0  0  0  0  0  0  0  0  0  0
   12.9132   -0.6032   23.2569 C   0  0  0  0  0  0  0  0  0  0  0  0
    4.8973    1.0233   21.2988 C   0  0  0  0  0  0  0  0  0  0  0  0
   10.9991   -1.4331   22.0443 C   0  0  0  0  0  0  0  0  0  0  0  0
    5.3278    1.2339   17.6066 C   0  0  0  0  0  0  0  0  0  0  0  0
    6.8438   -0.2892   18.3752 C   0  0  0  0  0  0  0  0  0  0  0  0
    4.8226    1.4906   18.9054 C   0  0  0  0  0  0  0  0  0  0  0  0
    5.3982    0.7733   19.9948 C   0  0  0  0  0  0  0  0  0  0  0  0
   10.7040   -0.0625   23.9898 C   0  0  0  0  0  0  0  0  0  0  0  0
   10.1406   -0.7765   22.9250 C   0  0  0  0  0  0  0  0  0  0  0  0
    6.4440   -0.1472   19.6979 C   0  0  0  0  0  0  0  0  0  0  0  0
    3.8960    1.9291   21.5050 C   0  0  0  0  0  0  0  0  0  0  0  0
   12.3683   -1.3298   22.2234 C   0  0  0  0  0  0  0  0  0  0  0  0
    8.2490    0.0169   21.4271 C   0  0  0  0  0  0  0  0  0  0  0  0
    9.9479    0.5589   24.9534 C   0  0  0  0  0  0  0  0  0  0  0  0
    8.6596    5.7366   23.5561 C   0  0  0  0  0  0  0  0  0  0  0  0
    8.5570    6.1792   24.9878 C   0  0  0  0  0  0  0  0  0  0  0  0
    8.0140   -2.1541   22.4331 C   0  0  0  0  0  0  0  0  0  0  0  0
    6.9866   -1.9366   21.3580 C   0  0  0  0  0  0  0  0  0  0  0  0
    7.8721   -0.1194   23.8831 C   0  0  0  0  0  0  0  0  0  0  0  0
    8.6238   -0.7606   22.6929 C   0  0  3  0  0  0  0  0  0  0  0  0
    7.8445    4.9257   24.5362 C   0  0  0  0  0  0  0  0  0  0  0  0
    6.3461    4.9711   24.4147 C   0  0  0  0  0  0  0  0  0  0  0  0
    3.0746   -0.0466   26.3205 C   0  0  0  0  0  0  0  0  0  0  0  0
    0.7859   -0.7769   25.6654 C   0  0  0  0  0  0  0  0  0  0  0  0
    8.3989    3.5932   24.9882 C   0  0  0  0  0  0  0  0  0  0  0  0
    2.0789    0.7474   24.1804 C   0  0  0  0  0  0  0  0  0  0  0  0
    3.4781    1.0738   23.6967 C   0  0  0  0  0  0  0  0  0  0  0  0
    6.3062    0.3769   17.3421 N   0  0  0  0  0  0  0  0  0  0  0  0
    7.2292   -0.6897   20.7790 N   0  0  0  0  0  0  0  0  0  0  0  0
    8.6609    1.0133   24.4995 N   0  0  2  0  0  0  0  0  0  0  0  0
    2.1478   -0.3563   25.1710 N   0  3  0  0  0  0  0  0  0  0  0  0
    8.7572    1.0941   21.1350 O   0  0  0  0  0  0  0  0  0  0  0  0
    7.4179    2.5201   22.8172 O   0  0  0  0  0  0  0  0  0  0  0  0
    9.9251    2.7322   23.0499 O   0  0  0  0  0  0  0  0  0  0  0  0
    3.4227    2.1582   22.7714 O   0  0  0  0  0  0  0  0  0  0  0  0
    8.6198    2.4832   23.6217 S   0  0  0  0  0  0  0  0  0  0  0  0
   13.4275   -2.1421   21.1097 Cl  0  0  0  0  0  0  0  0  0  0  0  0
    3.3406    2.9746   18.3368 H   0  0  0  0  0  0  0  0  0  0  0  0
   12.5015    0.5938   24.9776 H   0  0  0  0  0  0  0  0  0  0  0  0
    2.5407    3.3506   20.6306 H   0  0  0  0  0  0  0  0  0  0  0  0
   13.9911   -0.5212   23.3814 H   0  0  0  0  0  0  0  0  0  0  0  0
    5.3162    0.4858   22.1535 H   0  0  0  0  0  0  0  0  0  0  0  0
   10.6037   -2.0228   21.2288 H   0  0  0  0  0  0  0  0  0  0  0  0
    4.9131    1.7514   16.7479 H   0  0  0  0  0  0  0  0  0  0  0  0
    7.6448   -0.9758   18.1041 H   0  0  0  0  0  0  0  0  0  0  0  0
    9.7581   -0.1287   25.8173 H   0  0  0  0  0  0  0  0  0  0  0  0
   10.4931    1.4391   25.3829 H   0  0  0  0  0  0  0  0  0  0  0  0
    8.1391    6.3246   22.8094 H   0  0  0  0  0  0  0  0  0  0  0  0
    9.6103    5.3409   23.2189 H   0  0  0  0  0  0  0  0  0  0  0  0
    9.4390    6.0798   25.6093 H   0  0  0  0  0  0  0  0  0  0  0  0
    7.9677    7.0635   25.1998 H   0  0  0  0  0  0  0  0  0  0  0  0
    7.5801   -2.6060   23.3366 H   0  0  0  0  0  0  0  0  0  0  0  0
    8.7749   -2.8608   22.0657 H   0  0  0  0  0  0  0  0  0  0  0  0
    7.0227   -2.7506   20.5953 H   0  0  0  0  0  0  0  0  0  0  0  0
    5.9554   -1.9484   21.7832 H   0  0  0  0  0  0  0  0  0  0  0  0
    6.8886    0.2769   23.5666 H   0  0  0  0  0  0  0  0  0  0  0  0
    7.6579   -0.8710   24.6633 H   0  0  0  0  0  0  0  0  0  0  0  0
    5.8712    4.3441   25.1792 H   0  0  0  0  0  0  0  0  0  0  0  0
    6.0211    4.6094   23.4315 H   0  0  0  0  0  0  0  0  0  0  0  0
    5.9733    5.9953   24.5382 H   0  0  0  0  0  0  0  0  0  0  0  0
    2.6772    0.8248   26.8443 H   0  0  0  0  0  0  0  0  0  0  0  0
    3.0993   -0.9203   26.9745 H   0  0  0  0  0  0  0  0  0  0  0  0
    4.0628    0.1616   25.9061 H   0  0  0  0  0  0  0  0  0  0  0  0
    0.3368    0.0779   26.1743 H   0  0  0  0  0  0  0  0  0  0  0  0
    0.1927   -1.0738   24.7984 H   0  0  0  0  0  0  0  0  0  0  0  0
    0.9237   -1.6144   26.3520 H   0  0  0  0  0  0  0  0  0  0  0  0
    7.7199    3.1056   25.6931 H   0  0  0  0  0  0  0  0  0  0  0  0
    9.3754    3.7168   25.4643 H   0  0  0  0  0  0  0  0  0  0  0  0
    1.4346    0.3946   23.3702 H   0  0  0  0  0  0  0  0  0  0  0  0
    1.6184    1.5979   24.6899 H   0  0  0  0  0  0  0  0  0  0  0  0
    4.1008    1.3828   24.5421 H   0  0  0  0  0  0  0  0  0  0  0  0
    3.9485    0.2137   23.2093 H   0  0  0  0  0  0  0  0  0  0  0  0
    2.5478   -1.1828   24.6951 H   0  0  0  0  0  0  0  0  0  0  0  0
  1  3  2  0  0  0  0
  1  9  1  0  0  0  0
  2  4  2  0  0  0  0
  2 11  1  0  0  0  0
  3 14  1  0  0  0  0
  4 15  1  0  0  0  0
  5 10  1  0  0  0  0
  5 14  2  0  0  0  0
  6 12  1  0  0  0  0
  6 15  2  0  0  0  0
  7  9  2  0  0  0  0
  7 31  1  0  0  0  0
  8 13  1  0  0  0  0
  8 31  2  0  0  0  0
  9 10  1  0  0  0  0
 10 13  2  0  0  0  0
 11 12  2  0  0  0  0
 11 17  1  0  0  0  0
 12 23  1  0  0  0  0
 13 32  1  0  0  0  0
 14 38  1  0  0  0  0
 15 40  1  0  0  0  0
 16 23  1  0  0  0  0
 16 32  1  0  0  0  0
 16 35  2  0  0  0  0
 17 33  1  0  0  0  0
 18 19  1  0  0  0  0
 18 24  1  0  0  0  0
 19 24  1  0  0  0  0
 20 21  1  0  0  0  0
 20 23  1  0  0  0  0
 21 32  1  0  0  0  0
 22 23  1  0  0  0  0
 22 33  1  0  0  0  0
 24 25  1  0  0  0  0
 24 28  1  0  0  0  0
 26 34  1  0  0  0  0
 27 34  1  0  0  0  0
 28 39  1  0  0  0  0
 29 30  1  0  0  0  0
 29 34  1  0  0  0  0
 30 38  1  0  0  0  0
 33 39  1  1  0  0  0
 36 39  2  0  0  0  0
 37 39  2  0  0  0  0
  1 41  1  0  0  0  0
  2 42  1  0  0  0  0
  3 43  1  0  0  0  0
  4 44  1  0  0  0  0
  5 45  1  0  0  0  0
  6 46  1  0  0  0  0
  7 47  1  0  0  0  0
  8 48  1  0  0  0  0
 17 49  1  0  0  0  0
 17 50  1  0  0  0  0
 18 51  1  0  0  0  0
 18 52  1  0  0  0  0
 19 53  1  0  0  0  0
 19 54  1  0  0  0  0
 20 55  1  0  0  0  0
 20 56  1  0  0  0  0
 21 57  1  0  0  0  0
 21 58  1  0  0  0  0
 22 59  1  0  0  0  0
 22 60  1  0  0  0  0
 25 61  1  0  0  0  0
 25 62  1  0  0  0  0
 25 63  1  0  0  0  0
 26 64  1  0  0  0  0
 26 65  1  0  0  0  0
 26 66  1  0  0  0  0
 27 67  1  0  0  0  0
 27 68  1  0  0  0  0
 27 69  1  0  0  0  0
 28 70  1  0  0  0  0
 28 71  1  0  0  0  0
 29 72  1  0  0  0  0
 29 73  1  0  0  0  0
 30 74  1  0  0  0  0
 30 75  1  0  0  0  0
 34 76  1  0  0  0  0
M  CHG  1  34   1
M  END
> <compound>
MAT-POS-853c0ffa-19

> <compound_smiles>
CC1(CC1)CS(=O)(=O)N2Cc3ccc(cc3C4(C2)CCN(C4=O)c5cncc6c5cc(cc6)OCCN(C)C)Cl

> <enantiomer_smiles>
CC1(CC1)CS(=O)(=O)[N@@]2Cc3ccc(cc3C4(C2)CCN(C4=O)c5cncc6c5cc(cc6)OCCN(C)C)Cl

> <scaffold>
tetrahydroisoquinoline-5spiro-isoquinoline

> <clash_score>
0

> <docking_score>
-8.091899871826172

> <overlap_score>
0.9787583351135254

> <MMFF_internal_energy>
204.5840102708466

> <docked_smiles>
CC1(CC1)CS(=O)(=O)[N@@]2Cc3ccc(cc3[C@]4(C2)CCN(C4=O)c5cncc6c5cc(cc6)OCC[NH+](C)C)Cl

$$$$
EDJ-MED-5cd3920d-1_2
  -OEChem-12272114583D

 62 67  0     1  0  0  0  0  0999 V2000
    7.3205    3.4054   22.7658 C   0  0  0  0  0  0  0  0  0  0  0  0
    3.7865    2.4205   19.1660 C   0  0  0  0  0  0  0  0  0  0  0  0
   12.0765    0.0316   24.1541 C   0  0  0  0  0  0  0  0  0  0  0  0
    3.3432    2.6279   20.4411 C   0  0  0  0  0  0  0  0  0  0  0  0
   12.9132   -0.6032   23.2569 C   0  0  0  0  0  0  0  0  0  0  0  0
    4.8973    1.0233   21.2988 C   0  0  0  0  0  0  0  0  0  0  0  0
   10.9991   -1.4331   22.0443 C   0  0  0  0  0  0  0  0  0  0  0  0
    5.3278    1.2339   17.6066 C   0  0  0  0  0  0  0  0  0  0  0  0
    6.8438   -0.2892   18.3752 C   0  0  0  0  0  0  0  0  0  0  0  0
    4.8226    1.4906   18.9054 C   0  0  0  0  0  0  0  0  0  0  0  0
    5.3982    0.7733   19.9948 C   0  0  0  0  0  0  0  0  0  0  0  0
   10.7040   -0.0625   23.9898 C   0  0  0  0  0  0  0  0  0  0  0  0
   10.1406   -0.7765   22.9250 C   0  0  0  0  0  0  0  0  0  0  0  0
    6.4440   -0.1472   19.6979 C   0  0  0  0  0  0  0  0  0  0  0  0
    3.8960    1.9291   21.5050 C   0  0  0  0  0  0  0  0  0  0  0  0
   12.3683   -1.3298   22.2234 C   0  0  0  0  0  0  0  0  0  0  0  0
    8.2490    0.0169   21.4271 C   0  0  0  0  0  0  0  0  0  0  0  0
    9.9479    0.5589   24.9534 C   0  0  0  0  0  0  0  0  0  0  0  0
    9.8217    3.1213   22.9038 C   0  0  0  0  0  0  0  0  0  0  0  0
    9.5383    4.5944   22.9183 C   0  0  0  0  0  0  0  0  0  0  0  0
    8.0140   -2.1541   22.4331 C   0  0  0  0  0  0  0  0  0  0  0  0
    6.9866   -1.9366   21.3580 C   0  0  0  0  0  0  0  0  0  0  0  0
    7.8721   -0.1194   23.8831 C   0  0  0  0  0  0  0  0  0  0  0  0
    8.5331    3.6312   23.5091 C   0  0  0  0  0  0  0  0  0  0  0  0
    8.6238   -0.7606   22.6929 C   0  0  3  0  0  0  0  0  0  0  0  0
    8.3874    3.5882   25.0137 C   0  0  0  0  0  0  0  0  0  0  0  0
    2.8625    1.0566   23.4756 C   0  0  0  0  0  0  0  0  0  0  0  0
    6.3436    3.2234   22.1669 N   0  0  0  0  0  0  0  0  0  0  0  0
    6.3062    0.3769   17.3421 N   0  0  0  0  0  0  0  0  0  0  0  0
    7.2292   -0.6897   20.7790 N   0  0  0  0  0  0  0  0  0  0  0  0
    8.6609    1.0133   24.4995 N   0  0  2  0  0  0  0  0  0  0  0  0
    8.8299    1.0397   21.0799 O   0  0  0  0  0  0  0  0  0  0  0  0
    8.2407    1.8013   26.9144 O   0  0  0  0  0  0  0  0  0  0  0  0
    6.3653    1.9471   25.2271 O   0  0  0  0  0  0  0  0  0  0  0  0
    3.4227    2.1582   22.7714 O   0  0  0  0  0  0  0  0  0  0  0  0
    3.8672    0.4593   24.1671 F   0  0  0  0  0  0  0  0  0  0  0  0
    1.9821    1.5188   24.3971 F   0  0  0  0  0  0  0  0  0  0  0  0
    7.7708    2.0177   25.5632 S   0  0  0  0  0  0  0  0  0  0  0  0
   13.4272   -2.1411   21.1086 Cl  0  0  0  0  0  0  0  0  0  0  0  0
    3.3406    2.9746   18.3368 H   0  0  0  0  0  0  0  0  0  0  0  0
   12.5024    0.5995   24.9735 H   0  0  0  0  0  0  0  0  0  0  0  0
    2.5407    3.3506   20.6306 H   0  0  0  0  0  0  0  0  0  0  0  0
   13.9910   -0.5177   23.3793 H   0  0  0  0  0  0  0  0  0  0  0  0
    5.3162    0.4858   22.1535 H   0  0  0  0  0  0  0  0  0  0  0  0
   10.6036   -2.0162   21.2241 H   0  0  0  0  0  0  0  0  0  0  0  0
    4.9131    1.7514   16.7479 H   0  0  0  0  0  0  0  0  0  0  0  0
    7.6448   -0.9758   18.1041 H   0  0  0  0  0  0  0  0  0  0  0  0
    9.7849   -0.1194   25.8306 H   0  0  0  0  0  0  0  0  0  0  0  0
   10.4793    1.4568   25.3613 H   0  0  0  0  0  0  0  0  0  0  0  0
    9.7878    2.6129   21.9468 H   0  0  0  0  0  0  0  0  0  0  0  0
   10.5952    2.7515   23.5670 H   0  0  0  0  0  0  0  0  0  0  0  0
   10.1228    5.2116   23.5908 H   0  0  0  0  0  0  0  0  0  0  0  0
    9.3157    5.0716   21.9707 H   0  0  0  0  0  0  0  0  0  0  0  0
    7.5152   -2.5456   23.3338 H   0  0  0  0  0  0  0  0  0  0  0  0
    8.7649   -2.9030   22.1434 H   0  0  0  0  0  0  0  0  0  0  0  0
    7.0587   -2.7248   20.5721 H   0  0  0  0  0  0  0  0  0  0  0  0
    5.9518   -1.9952   21.7720 H   0  0  0  0  0  0  0  0  0  0  0  0
    6.8867    0.2641   23.5642 H   0  0  0  0  0  0  0  0  0  0  0  0
    7.6652   -0.8660   24.6733 H   0  0  0  0  0  0  0  0  0  0  0  0
    7.6838    4.3500   25.3607 H   0  0  0  0  0  0  0  0  0  0  0  0
    9.3513    3.7460   25.5050 H   0  0  0  0  0  0  0  0  0  0  0  0
    2.3979    0.3116   22.8208 H   0  0  0  0  0  0  0  0  0  0  0  0
  1 24  1  0  0  0  0
  1 28  3  0  0  0  0
  2  4  1  0  0  0  0
  2 10  2  0  0  0  0
  3  5  1  0  0  0  0
  3 12  2  0  0  0  0
  4 15  2  0  0  0  0
  5 16  2  0  0  0  0
  6 11  2  0  0  0  0
  6 15  1  0  0  0  0
  7 13  2  0  0  0  0
  7 16  1  0  0  0  0
  8 10  1  0  0  0  0
  8 29  2  0  0  0  0
  9 14  2  0  0  0  0
  9 29  1  0  0  0  0
 10 11  1  0  0  0  0
 11 14  1  0  0  0  0
 12 13  1  0  0  0  0
 12 18  1  0  0  0  0
 13 25  1  0  0  0  0
 14 30  1  0  0  0  0
 15 35  1  0  0  0  0
 16 39  1  0  0  0  0
 17 25  1  0  0  0  0
 17 30  1  0  0  0  0
 17 32  2  0  0  0  0
 18 31  1  0  0  0  0
 19 20  1  0  0  0  0
 19 24  1  0  0  0  0
 20 24  1  0  0  0  0
 21 22  1  0  0  0  0
 21 25  1  0  0  0  0
 22 30  1  0  0  0  0
 23 25  1  0  0  0  0
 23 31  1  0  0  0  0
 24 26  1  0  0  0  0
 26 38  1  0  0  0  0
 27 35  1  0  0  0  0
 27 36  1  0  0  0  0
 27 37  1  0  0  0  0
 31 38  1  6  0  0  0
 33 38  2  0  0  0  0
 34 38  2  0  0  0  0
  2 40  1  0  0  0  0
  3 41  1  0  0  0  0
  4 42  1  0  0  0  0
  5 43  1  0  0  0  0
  6 44  1  0  0  0  0
  7 45  1  0  0  0  0
  8 46  1  0  0  0  0
  9 47  1  0  0  0  0
 18 48  1  0  0  0  0
 18 49  1  0  0  0  0
 19 50  1  0  0  0  0
 19 51  1  0  0  0  0
 20 52  1  0  0  0  0
 20 53  1  0  0  0  0
 21 54  1  0  0  0  0
 21 55  1  0  0  0  0
 22 56  1  0  0  0  0
 22 57  1  0  0  0  0
 23 58  1  0  0  0  0
 23 59  1  0  0  0  0
 26 60  1  0  0  0  0
 26 61  1  0  0  0  0
 27 62  1  0  0  0  0
M  END
> <compound>
EDJ-MED-5cd3920d-1

> <compound_smiles>
c1cc2cncc(c2cc1OC(F)F)N3CCC4(C3=O)CN(Cc5c4cc(cc5)Cl)S(=O)(=O)CC6(CC6)C#N

> <enantiomer_smiles>
c1cc2cncc(c2cc1OC(F)F)N3CCC4(C3=O)C[N@](Cc5c4cc(cc5)Cl)S(=O)(=O)CC6(CC6)C#N

> <scaffold>
tetrahydroisoquinoline-5spiro-isoquinoline

> <clash_score>
0

> <docking_score>
-8.08319091796875

> <overlap_score>
0.9805974364280701

> <MMFF_internal_energy>
127.69563473749224

> <docked_smiles>
c1cc2cncc(c2cc1OC(F)F)N3CC[C@@]4(C3=O)C[N@](Cc5c4cc(cc5)Cl)S(=O)(=O)CC6(CC6)C#N

$$$$
EDJ-MED-9f4ac58c-7_1
  -OEChem-12272114583D

 68 73  0     1  0  0  0  0  0999 V2000
    4.8973    1.0233   21.2988 C   0  0  0  0  0  0  0  0  0  0  0  0
   12.0765    0.0316   24.1541 C   0  0  0  0  0  0  0  0  0  0  0  0
    3.8960    1.9291   21.5050 C   0  0  0  0  0  0  0  0  0  0  0  0
   12.9132   -0.6032   23.2569 C   0  0  0  0  0  0  0  0  0  0  0  0
    3.7865    2.4205   19.1660 C   0  0  0  0  0  0  0  0  0  0  0  0
   10.9991   -1.4331   22.0443 C   0  0  0  0  0  0  0  0  0  0  0  0
    5.3278    1.2339   17.6066 C   0  0  0  0  0  0  0  0  0  0  0  0
    6.8438   -0.2892   18.3752 C   0  0  0  0  0  0  0  0  0  0  0  0
    5.3982    0.7733   19.9948 C   0  0  0  0  0  0  0  0  0  0  0  0
    4.8226    1.4906   18.9054 C   0  0  0  0  0  0  0  0  0  0  0  0
   10.7040   -0.0625   23.9898 C   0  0  0  0  0  0  0  0  0  0  0  0
   10.1406   -0.7765   22.9250 C   0  0  0  0  0  0  0  0  0  0  0  0
    6.4440   -0.1472   19.6979 C   0  0  0  0  0  0  0  0  0  0  0  0
    3.3432    2.6279   20.4411 C   0  0  0  0  0  0  0  0  0  0  0  0
   12.3683   -1.3298   22.2234 C   0  0  0  0  0  0  0  0  0  0  0  0
    9.9479    0.5589   24.9534 C   0  0  0  0  0  0  0  0  0  0  0  0
    8.2490    0.0169   21.4271 C   0  0  0  0  0  0  0  0  0  0  0  0
    8.1670    5.6024   25.3403 C   0  0  0  0  0  0  0  0  0  0  0  0
    8.8837    6.0783   24.1072 C   0  0  0  0  0  0  0  0  0  0  0  0
    8.0140   -2.1541   22.4331 C   0  0  0  0  0  0  0  0  0  0  0  0
    6.9866   -1.9366   21.3580 C   0  0  0  0  0  0  0  0  0  0  0  0
    7.8721   -0.1194   23.8831 C   0  0  0  0  0  0  0  0  0  0  0  0
    8.6238   -0.7606   22.6929 C   0  0  3  0  0  0  0  0  0  0  0  0
    7.9595    4.8934   24.0293 C   0  0  0  0  0  0  0  0  0  0  0  0
    6.7645    4.8053   22.0077 C   0  0  0  0  0  0  0  0  0  0  0  0
   -0.1045    3.5784   21.9045 C   0  0  0  0  0  0  0  0  0  0  0  0
    8.5190    3.5037   23.8229 C   0  0  0  0  0  0  0  0  0  0  0  0
    6.3062    0.3769   17.3421 N   0  0  0  0  0  0  0  0  0  0  0  0
    7.2292   -0.6897   20.7790 N   0  0  0  0  0  0  0  0  0  0  0  0
    8.6609    1.0133   24.4995 N   0  0  0  0  0  0  0  0  0  0  0  0
    2.2936    3.5769   20.6955 N   0  0  0  0  0  0  0  0  0  0  0  0
   10.3194    0.7559   26.1196 O   0  0  0  0  0  0  0  0  0  0  0  0
    8.7569    1.0931   21.1285 O   0  0  0  0  0  0  0  0  0  0  0  0
    0.1306    3.9427   19.3394 O   0  0  0  0  0  0  0  0  0  0  0  0
    0.5760    1.6469   20.2754 O   0  0  0  0  0  0  0  0  0  0  0  0
    8.3529    2.7346   26.3145 O   0  0  0  0  0  0  0  0  0  0  0  0
    6.4575    2.1835   24.7368 O   0  0  0  0  0  0  0  0  0  0  0  0
    6.6935    5.1168   23.3866 O   0  0  0  0  0  0  0  0  0  0  0  0
    0.6721    3.0893   20.3807 S   0  0  0  0  0  0  0  0  0  0  0  0
    7.8660    2.3571   25.0077 S   0  0  0  0  0  0  0  0  0  0  0  0
   13.4278   -2.1472   21.1141 Cl  0  0  0  0  0  0  0  0  0  0  0  0
    5.3115    0.4893   22.1569 H   0  0  0  0  0  0  0  0  0  0  0  0
   12.5173    0.5967   24.9711 H   0  0  0  0  0  0  0  0  0  0  0  0
    3.5248    2.1066   22.5217 H   0  0  0  0  0  0  0  0  0  0  0  0
   13.9906   -0.5212   23.3817 H   0  0  0  0  0  0  0  0  0  0  0  0
    3.3477    2.9700   18.3285 H   0  0  0  0  0  0  0  0  0  0  0  0
   10.6154   -2.0259   21.2280 H   0  0  0  0  0  0  0  0  0  0  0  0
    4.9135    1.7517   16.7479 H   0  0  0  0  0  0  0  0  0  0  0  0
    7.6449   -0.9757   18.1043 H   0  0  0  0  0  0  0  0  0  0  0  0
    8.7566    5.1133   26.1063 H   0  0  0  0  0  0  0  0  0  0  0  0
    7.3618    6.2177   25.7234 H   0  0  0  0  0  0  0  0  0  0  0  0
    8.5587    7.0125   23.6649 H   0  0  0  0  0  0  0  0  0  0  0  0
    9.9518    5.9065   24.0496 H   0  0  0  0  0  0  0  0  0  0  0  0
    7.5103   -2.5286   23.3380 H   0  0  0  0  0  0  0  0  0  0  0  0
    8.7576   -2.9098   22.1428 H   0  0  0  0  0  0  0  0  0  0  0  0
    7.0599   -2.7254   20.5723 H   0  0  0  0  0  0  0  0  0  0  0  0
    5.9510   -1.9972   21.7703 H   0  0  0  0  0  0  0  0  0  0  0  0
    6.8972    0.2928   23.5636 H   0  0  0  0  0  0  0  0  0  0  0  0
    7.6441   -0.8835   24.6470 H   0  0  0  0  0  0  0  0  0  0  0  0
    5.7917    4.9830   21.5427 H   0  0  0  0  0  0  0  0  0  0  0  0
    7.0535    3.7585   21.8841 H   0  0  0  0  0  0  0  0  0  0  0  0
    7.5135    5.4461   21.5366 H   0  0  0  0  0  0  0  0  0  0  0  0
   -1.1642    3.3242   21.8480 H   0  0  0  0  0  0  0  0  0  0  0  0
    0.3747    3.0401   22.7235 H   0  0  0  0  0  0  0  0  0  0  0  0
    0.0245    4.6549   22.0267 H   0  0  0  0  0  0  0  0  0  0  0  0
    9.6067    3.4990   23.9355 H   0  0  0  0  0  0  0  0  0  0  0  0
    8.2638    3.1223   22.8305 H   0  0  0  0  0  0  0  0  0  0  0  0
    2.5150    4.5449   20.4090 H   0  0  0  0  0  0  0  0  0  0  0  0
  1  3  2  0  0  0  0
  1  9  1  0  0  0  0
  2  4  2  0  0  0  0
  2 11  1  0  0  0  0
  3 14  1  0  0  0  0
  4 15  1  0  0  0  0
  5 10  1  0  0  0  0
  5 14  2  0  0  0  0
  6 12  1  0  0  0  0
  6 15  2  0  0  0  0
  7 10  2  0  0  0  0
  7 28  1  0  0  0  0
  8 13  1  0  0  0  0
  8 28  2  0  0  0  0
  9 10  1  0  0  0  0
  9 13  2  0  0  0  0
 11 12  2  0  0  0  0
 11 16  1  0  0  0  0
 12 23  1  0  0  0  0
 13 29  1  0  0  0  0
 14 31  1  0  0  0  0
 15 41  1  0  0  0  0
 16 30  1  0  0  0  0
 16 32  2  0  0  0  0
 17 23  1  0  0  0  0
 17 29  1  0  0  0  0
 17 33  2  0  0  0  0
 18 19  1  0  0  0  0
 18 24  1  0  0  0  0
 19 24  1  0  0  0  0
 20 21  1  0  0  0  0
 20 23  1  0  0  0  0
 21 29  1  0  0  0  0
 22 23  1  0  0  0  0
 22 30  1  0  0  0  0
 24 27  1  0  0  0  0
 24 38  1  0  0  0  0
 25 38  1  0  0  0  0
 26 39  1  0  0  0  0
 27 40  1  0  0  0  0
 30 40  1  0  0  0  0
 31 39  1  0  0  0  0
 34 39  2  0  0  0  0
 35 39  2  0  0  0  0
 36 40  2  0  0  0  0
 37 40  2  0  0  0  0
  1 42  1  0  0  0  0
  2 43  1  0  0  0  0
  3 44  1  0  0  0  0
  4 45  1  0  0  0  0
  5 46  1  0  0  0  0
  6 47  1  0  0  0  0
  7 48  1  0  0  0  0
  8 49  1  0  0  0  0
 18 50  1  0  0  0  0
 18 51  1  0  0  0  0
 19 52  1  0  0  0  0
 19 53  1  0  0  0  0
 20 54  1  0  0  0  0
 20 55  1  0  0  0  0
 21 56  1  0  0  0  0
 21 57  1  0  0  0  0
 22 58  1  0  0  0  0
 22 59  1  0  0  0  0
 25 60  1  0  0  0  0
 25 61  1  0  0  0  0
 25 62  1  0  0  0  0
 26 63  1  0  0  0  0
 26 64  1  0  0  0  0
 26 65  1  0  0  0  0
 27 66  1  0  0  0  0
 27 67  1  0  0  0  0
 31 68  1  0  0  0  0
M  END
> <compound>
EDJ-MED-9f4ac58c-7

> <compound_smiles>
COC1(CC1)CS(=O)(=O)N2CC3(CCN(C3=O)c4cncc5c4ccc(c5)NS(=O)(=O)C)c6cc(ccc6C2=O)Cl

> <enantiomer_smiles>
COC1(CC1)CS(=O)(=O)N2CC3(CCN(C3=O)c4cncc5c4ccc(c5)NS(=O)(=O)C)c6cc(ccc6C2=O)Cl

> <scaffold>
tetrahydroisoquinoline-5spiro-isoquinoline

> <clash_score>
0

> <docking_score>
-7.892701148986816

> <overlap_score>
0.9851722717285156

> <MMFF_internal_energy>
56.77048987131425

> <docked_smiles>
COC1(CC1)CS(=O)(=O)N2C[C@]3(CCN(C3=O)c4cncc5c4ccc(c5)NS(=O)(=O)C)c6cc(ccc6C2=O)Cl

$$$$
EDJ-MED-ee81482e-1_2
  -OEChem-12272114583D

 69 75  0     1  0  0  0  0  0999 V2000
    7.3205    3.4054   22.7658 C   0  0  0  0  0  0  0  0  0  0  0  0
    3.7865    2.4205   19.1660 C   0  0  0  0  0  0  0  0  0  0  0  0
   12.0765    0.0316   24.1541 C   0  0  0  0  0  0  0  0  0  0  0  0
    3.3432    2.6279   20.4411 C   0  0  0  0  0  0  0  0  0  0  0  0
   12.9132   -0.6032   23.2569 C   0  0  0  0  0  0  0  0  0  0  0  0
    4.8973    1.0233   21.2988 C   0  0  0  0  0  0  0  0  0  0  0  0
   10.9991   -1.4331   22.0443 C   0  0  0  0  0  0  0  0  0  0  0  0
    5.3278    1.2339   17.6066 C   0  0  0  0  0  0  0  0  0  0  0  0
    6.8438   -0.2892   18.3752 C   0  0  0  0  0  0  0  0  0  0  0  0
    4.8226    1.4906   18.9054 C   0  0  0  0  0  0  0  0  0  0  0  0
    5.3982    0.7733   19.9948 C   0  0  0  0  0  0  0  0  0  0  0  0
   10.7040   -0.0625   23.9898 C   0  0  0  0  0  0  0  0  0  0  0  0
   10.1406   -0.7765   22.9250 C   0  0  0  0  0  0  0  0  0  0  0  0
    6.4440   -0.1472   19.6979 C   0  0  0  0  0  0  0  0  0  0  0  0
    3.8960    1.9291   21.5050 C   0  0  0  0  0  0  0  0  0  0  0  0
   12.3683   -1.3298   22.2234 C   0  0  0  0  0  0  0  0  0  0  0  0
    8.2490    0.0169   21.4271 C   0  0  0  0  0  0  0  0  0  0  0  0
    9.9479    0.5589   24.9534 C   0  0  0  0  0  0  0  0  0  0  0  0
    9.8217    3.1213   22.9038 C   0  0  0  0  0  0  0  0  0  0  0  0
    9.5383    4.5944   22.9183 C   0  0  0  0  0  0  0  0  0  0  0  0
    8.0140   -2.1541   22.4331 C   0  0  0  0  0  0  0  0  0  0  0  0
    6.9866   -1.9366   21.3580 C   0  0  0  0  0  0  0  0  0  0  0  0
    7.8721   -0.1194   23.8831 C   0  0  0  0  0  0  0  0  0  0  0  0
    1.1007    3.1144   23.0106 C   0  0  0  0  0  0  0  0  0  0  0  0
    1.6047    1.7132   24.4686 C   0  0  0  0  0  0  0  0  0  0  0  0
    2.0302    1.8928   23.0043 C   0  0  0  0  0  0  0  0  0  0  0  0
    8.5331    3.6312   23.5091 C   0  0  0  0  0  0  0  0  0  0  0  0
    8.6238   -0.7606   22.6929 C   0  0  3  0  0  0  0  0  0  0  0  0
    8.3874    3.5882   25.0137 C   0  0  0  0  0  0  0  0  0  0  0  0
    6.3436    3.2234   22.1669 N   0  0  0  0  0  0  0  0  0  0  0  0
    6.3062    0.3769   17.3421 N   0  0  0  0  0  0  0  0  0  0  0  0
    7.2292   -0.6897   20.7790 N   0  0  0  0  0  0  0  0  0  0  0  0
    8.6609    1.0133   24.4995 N   0  0  2  0  0  0  0  0  0  0  0  0
    0.4279    2.5496   24.1899 N   0  3  0  0  0  0  0  0  0  0  0  0
    8.8299    1.0397   21.0799 O   0  0  0  0  0  0  0  0  0  0  0  0
    8.2407    1.8013   26.9144 O   0  0  0  0  0  0  0  0  0  0  0  0
    6.3653    1.9471   25.2271 O   0  0  0  0  0  0  0  0  0  0  0  0
    3.4227    2.1582   22.7714 O   0  0  0  0  0  0  0  0  0  0  0  0
    7.7708    2.0177   25.5632 S   0  0  0  0  0  0  0  0  0  0  0  0
   13.4272   -2.1411   21.1086 Cl  0  0  0  0  0  0  0  0  0  0  0  0
    3.3406    2.9746   18.3368 H   0  0  0  0  0  0  0  0  0  0  0  0
   12.5024    0.5995   24.9735 H   0  0  0  0  0  0  0  0  0  0  0  0
    2.5407    3.3506   20.6306 H   0  0  0  0  0  0  0  0  0  0  0  0
   13.9910   -0.5177   23.3793 H   0  0  0  0  0  0  0  0  0  0  0  0
    5.3162    0.4858   22.1535 H   0  0  0  0  0  0  0  0  0  0  0  0
   10.6036   -2.0162   21.2241 H   0  0  0  0  0  0  0  0  0  0  0  0
    4.9131    1.7514   16.7479 H   0  0  0  0  0  0  0  0  0  0  0  0
    7.6448   -0.9758   18.1041 H   0  0  0  0  0  0  0  0  0  0  0  0
    9.7849   -0.1194   25.8306 H   0  0  0  0  0  0  0  0  0  0  0  0
   10.4793    1.4568   25.3613 H   0  0  0  0  0  0  0  0  0  0  0  0
    9.7878    2.6128   21.9468 H   0  0  0  0  0  0  0  0  0  0  0  0
   10.5952    2.7515   23.5671 H   0  0  0  0  0  0  0  0  0  0  0  0
   10.1228    5.2116   23.5908 H   0  0  0  0  0  0  0  0  0  0  0  0
    9.3157    5.0716   21.9707 H   0  0  0  0  0  0  0  0  0  0  0  0
    7.5152   -2.5456   23.3338 H   0  0  0  0  0  0  0  0  0  0  0  0
    8.7649   -2.9030   22.1434 H   0  0  0  0  0  0  0  0  0  0  0  0
    7.0587   -2.7248   20.5721 H   0  0  0  0  0  0  0  0  0  0  0  0
    5.9518   -1.9952   21.7720 H   0  0  0  0  0  0  0  0  0  0  0  0
    6.8867    0.2641   23.5642 H   0  0  0  0  0  0  0  0  0  0  0  0
    7.6652   -0.8660   24.6733 H   0  0  0  0  0  0  0  0  0  0  0  0
    1.5854    4.0727   23.2244 H   0  0  0  0  0  0  0  0  0  0  0  0
    0.4426    3.2145   22.1440 H   0  0  0  0  0  0  0  0  0  0  0  0
    1.3498    0.6933   24.7667 H   0  0  0  0  0  0  0  0  0  0  0  0
    2.2720    2.1637   25.2106 H   0  0  0  0  0  0  0  0  0  0  0  0
    1.6776    1.0882   22.3486 H   0  0  0  0  0  0  0  0  0  0  0  0
    7.6838    4.3500   25.3607 H   0  0  0  0  0  0  0  0  0  0  0  0
    9.3513    3.7460   25.5050 H   0  0  0  0  0  0  0  0  0  0  0  0
    0.2081    3.2342   24.9233 H   0  0  0  0  0  0  0  0  0  0  0  0
   -0.4150    2.0073   23.9600 H   0  0  0  0  0  0  0  0  0  0  0  0
  1 27  1  0  0  0  0
  1 30  3  0  0  0  0
  2  4  1  0  0  0  0
  2 10  2  0  0  0  0
  3  5  1  0  0  0  0
  3 12  2  0  0  0  0
  4 15  2  0  0  0  0
  5 16  2  0  0  0  0
  6 11  2  0  0  0  0
  6 15  1  0  0  0  0
  7 13  2  0  0  0  0
  7 16  1  0  0  0  0
  8 10  1  0  0  0  0
  8 31  2  0  0  0  0
  9 14  2  0  0  0  0
  9 31  1  0  0  0  0
 10 11  1  0  0  0  0
 11 14  1  0  0  0  0
 12 13  1  0  0  0  0
 12 18  1  0  0  0  0
 13 28  1  0  0  0  0
 14 32  1  0  0  0  0
 15 38  1  0  0  0  0
 16 40  1  0  0  0  0
 17 28  1  0  0  0  0
 17 32  1  0  0  0  0
 17 35  2  0  0  0  0
 18 33  1  0  0  0  0
 19 20  1  0  0  0  0
 19 27  1  0  0  0  0
 20 27  1  0  0  0  0
 21 22  1  0  0  0  0
 21 28  1  0  0  0  0
 22 32  1  0  0  0  0
 23 28  1  0  0  0  0
 23 33  1  0  0  0  0
 24 26  1  0  0  0  0
 24 34  1  0  0  0  0
 25 26  1  0  0  0  0
 25 34  1  0  0  0  0
 26 38  1  0  0  0  0
 27 29  1  0  0  0  0
 29 39  1  0  0  0  0
 33 39  1  6  0  0  0
 36 39  2  0  0  0  0
 37 39  2  0  0  0  0
  2 41  1  0  0  0  0
  3 42  1  0  0  0  0
  4 43  1  0  0  0  0
  5 44  1  0  0  0  0
  6 45  1  0  0  0  0
  7 46  1  0  0  0  0
  8 47  1  0  0  0  0
  9 48  1  0  0  0  0
 18 49  1  0  0  0  0
 18 50  1  0  0  0  0
 19 51  1  0  0  0  0
 19 52  1  0  0  0  0
 20 53  1  0  0  0  0
 20 54  1  0  0  0  0
 21 55  1  0  0  0  0
 21 56  1  0  0  0  0
 22 57  1  0  0  0  0
 22 58  1  0  0  0  0
 23 59  1  0  0  0  0
 23 60  1  0  0  0  0
 24 61  1  0  0  0  0
 24 62  1  0  0  0  0
 25 63  1  0  0  0  0
 25 64  1  0  0  0  0
 26 65  1  0  0  0  0
 29 66  1  0  0  0  0
 29 67  1  0  0  0  0
 34 68  1  0  0  0  0
 34 69  1  0  0  0  0
M  CHG  1  34   1
M  END
> <compound>
EDJ-MED-ee81482e-1

> <compound_smiles>
c1cc2cncc(c2cc1OC3CNC3)N4CCC5(C4=O)CN(Cc6c5cc(cc6)Cl)S(=O)(=O)CC7(CC7)C#N

> <enantiomer_smiles>
c1cc2cncc(c2cc1OC3CNC3)N4CCC5(C4=O)C[N@](Cc6c5cc(cc6)Cl)S(=O)(=O)CC7(CC7)C#N

> <scaffold>
tetrahydroisoquinoline-5spiro-isoquinoline

> <clash_score>
0

> <docking_score>
-7.776482105255127

> <overlap_score>
0.9783466458320618

> <MMFF_internal_energy>
146.66839654552038

> <docked_smiles>
c1cc2cncc(c2cc1OC3C[NH2+]C3)N4CC[C@@]5(C4=O)C[N@](Cc6c5cc(cc6)Cl)S(=O)(=O)CC7(CC7)C#N

$$$$
EDJ-MED-9f4ac58c-3_1
  -OEChem-12272114583D

 65 70  0     1  0  0  0  0  0999 V2000
    8.2175    5.4762   25.3207 C   0  0  0  0  0  0  0  0  0  0  0  0
    4.8973    1.0233   21.2988 C   0  0  0  0  0  0  0  0  0  0  0  0
   12.0765    0.0316   24.1541 C   0  0  0  0  0  0  0  0  0  0  0  0
    3.8960    1.9291   21.5050 C   0  0  0  0  0  0  0  0  0  0  0  0
   12.9132   -0.6032   23.2569 C   0  0  0  0  0  0  0  0  0  0  0  0
    3.7865    2.4205   19.1660 C   0  0  0  0  0  0  0  0  0  0  0  0
   10.9991   -1.4331   22.0443 C   0  0  0  0  0  0  0  0  0  0  0  0
    5.3278    1.2339   17.6066 C   0  0  0  0  0  0  0  0  0  0  0  0
    6.8438   -0.2892   18.3752 C   0  0  0  0  0  0  0  0  0  0  0  0
    5.3982    0.7733   19.9948 C   0  0  0  0  0  0  0  0  0  0  0  0
    4.8226    1.4906   18.9054 C   0  0  0  0  0  0  0  0  0  0  0  0
   10.7040   -0.0625   23.9898 C   0  0  0  0  0  0  0  0  0  0  0  0
   10.1406   -0.7765   22.9250 C   0  0  0  0  0  0  0  0  0  0  0  0
    6.4440   -0.1472   19.6979 C   0  0  0  0  0  0  0  0  0  0  0  0
    3.3432    2.6279   20.4411 C   0  0  0  0  0  0  0  0  0  0  0  0
   12.3683   -1.3298   22.2234 C   0  0  0  0  0  0  0  0  0  0  0  0
    9.9479    0.5589   24.9534 C   0  0  0  0  0  0  0  0  0  0  0  0
    8.2490    0.0169   21.4271 C   0  0  0  0  0  0  0  0  0  0  0  0
    6.6461    5.2382   23.3637 C   0  0  0  0  0  0  0  0  0  0  0  0
    7.9223    5.8296   22.8421 C   0  0  0  0  0  0  0  0  0  0  0  0
    8.0140   -2.1541   22.4331 C   0  0  0  0  0  0  0  0  0  0  0  0
    6.9866   -1.9366   21.3580 C   0  0  0  0  0  0  0  0  0  0  0  0
    7.8721   -0.1194   23.8831 C   0  0  0  0  0  0  0  0  0  0  0  0
    7.9595    4.8934   24.0293 C   0  0  0  0  0  0  0  0  0  0  0  0
    8.6238   -0.7606   22.6929 C   0  0  3  0  0  0  0  0  0  0  0  0
   -0.1045    3.5784   21.9045 C   0  0  0  0  0  0  0  0  0  0  0  0
    8.5190    3.5037   23.8229 C   0  0  0  0  0  0  0  0  0  0  0  0
    8.4254    5.9456   26.3612 N   0  0  0  0  0  0  0  0  0  0  0  0
    6.3062    0.3769   17.3421 N   0  0  0  0  0  0  0  0  0  0  0  0
    7.2292   -0.6897   20.7790 N   0  0  0  0  0  0  0  0  0  0  0  0
    8.6609    1.0133   24.4995 N   0  0  0  0  0  0  0  0  0  0  0  0
    2.2936    3.5769   20.6955 N   0  0  0  0  0  0  0  0  0  0  0  0
   10.3194    0.7559   26.1196 O   0  0  0  0  0  0  0  0  0  0  0  0
    8.7569    1.0931   21.1285 O   0  0  0  0  0  0  0  0  0  0  0  0
    0.1306    3.9427   19.3394 O   0  0  0  0  0  0  0  0  0  0  0  0
    0.5760    1.6469   20.2754 O   0  0  0  0  0  0  0  0  0  0  0  0
    8.3529    2.7346   26.3145 O   0  0  0  0  0  0  0  0  0  0  0  0
    6.4575    2.1835   24.7368 O   0  0  0  0  0  0  0  0  0  0  0  0
    0.6721    3.0893   20.3807 S   0  0  0  0  0  0  0  0  0  0  0  0
    7.8660    2.3571   25.0077 S   0  0  0  0  0  0  0  0  0  0  0  0
   13.4278   -2.1472   21.1141 Cl  0  0  0  0  0  0  0  0  0  0  0  0
    5.3115    0.4893   22.1569 H   0  0  0  0  0  0  0  0  0  0  0  0
   12.5173    0.5967   24.9711 H   0  0  0  0  0  0  0  0  0  0  0  0
    3.5248    2.1066   22.5217 H   0  0  0  0  0  0  0  0  0  0  0  0
   13.9906   -0.5212   23.3817 H   0  0  0  0  0  0  0  0  0  0  0  0
    3.3477    2.9700   18.3285 H   0  0  0  0  0  0  0  0  0  0  0  0
   10.6154   -2.0259   21.2280 H   0  0  0  0  0  0  0  0  0  0  0  0
    4.9135    1.7517   16.7479 H   0  0  0  0  0  0  0  0  0  0  0  0
    7.6449   -0.9757   18.1043 H   0  0  0  0  0  0  0  0  0  0  0  0
    5.9567    5.9017   23.8735 H   0  0  0  0  0  0  0  0  0  0  0  0
    6.1578    4.4830   22.7587 H   0  0  0  0  0  0  0  0  0  0  0  0
    8.2884    5.4710   21.8870 H   0  0  0  0  0  0  0  0  0  0  0  0
    8.0862    6.8892   23.0023 H   0  0  0  0  0  0  0  0  0  0  0  0
    7.5103   -2.5286   23.3380 H   0  0  0  0  0  0  0  0  0  0  0  0
    8.7576   -2.9098   22.1428 H   0  0  0  0  0  0  0  0  0  0  0  0
    7.0599   -2.7254   20.5723 H   0  0  0  0  0  0  0  0  0  0  0  0
    5.9510   -1.9972   21.7703 H   0  0  0  0  0  0  0  0  0  0  0  0
    6.8972    0.2928   23.5636 H   0  0  0  0  0  0  0  0  0  0  0  0
    7.6441   -0.8835   24.6470 H   0  0  0  0  0  0  0  0  0  0  0  0
   -1.1642    3.3242   21.8480 H   0  0  0  0  0  0  0  0  0  0  0  0
    0.3747    3.0401   22.7235 H   0  0  0  0  0  0  0  0  0  0  0  0
    0.0245    4.6549   22.0267 H   0  0  0  0  0  0  0  0  0  0  0  0
    9.6067    3.4990   23.9355 H   0  0  0  0  0  0  0  0  0  0  0  0
    8.2638    3.1223   22.8305 H   0  0  0  0  0  0  0  0  0  0  0  0
    2.5150    4.5449   20.4090 H   0  0  0  0  0  0  0  0  0  0  0  0
  1 24  1  0  0  0  0
  1 28  3  0  0  0  0
  2  4  2  0  0  0  0
  2 10  1  0  0  0  0
  3  5  1  0  0  0  0
  3 12  2  0  0  0  0
  4 15  1  0  0  0  0
  5 16  2  0  0  0  0
  6 11  1  0  0  0  0
  6 15  2  0  0  0  0
  7 13  2  0  0  0  0
  7 16  1  0  0  0  0
  8 11  2  0  0  0  0
  8 29  1  0  0  0  0
  9 14  1  0  0  0  0
  9 29  2  0  0  0  0
 10 11  1  0  0  0  0
 10 14  2  0  0  0  0
 12 13  1  0  0  0  0
 12 17  1  0  0  0  0
 13 25  1  0  0  0  0
 14 30  1  0  0  0  0
 15 32  1  0  0  0  0
 16 41  1  0  0  0  0
 17 31  1  0  0  0  0
 17 33  2  0  0  0  0
 18 25  1  0  0  0  0
 18 30  1  0  0  0  0
 18 34  2  0  0  0  0
 19 20  1  0  0  0  0
 19 24  1  0  0  0  0
 20 24  1  0  0  0  0
 21 22  1  0  0  0  0
 21 25  1  0  0  0  0
 22 30  1  0  0  0  0
 23 25  1  0  0  0  0
 23 31  1  0  0  0  0
 24 27  1  0  0  0  0
 26 39  1  0  0  0  0
 27 40  1  0  0  0  0
 31 40  1  0  0  0  0
 32 39  1  0  0  0  0
 35 39  2  0  0  0  0
 36 39  2  0  0  0  0
 37 40  2  0  0  0  0
 38 40  2  0  0  0  0
  2 42  1  0  0  0  0
  3 43  1  0  0  0  0
  4 44  1  0  0  0  0
  5 45  1  0  0  0  0
  6 46  1  0  0  0  0
  7 47  1  0  0  0  0
  8 48  1  0  0  0  0
  9 49  1  0  0  0  0
 19 50  1  0  0  0  0
 19 51  1  0  0  0  0
 20 52  1  0  0  0  0
 20 53  1  0  0  0  0
 21 54  1  0  0  0  0
 21 55  1  0  0  0  0
 22 56  1  0  0  0  0
 22 57  1  0  0  0  0
 23 58  1  0  0  0  0
 23 59  1  0  0  0  0
 26 60  1  0  0  0  0
 26 61  1  0  0  0  0
 26 62  1  0  0  0  0
 27 63  1  0  0  0  0
 27 64  1  0  0  0  0
 32 65  1  0  0  0  0
M  END
> <compound>
EDJ-MED-9f4ac58c-3

> <compound_smiles>
CS(=O)(=O)Nc1ccc2c(c1)cncc2N3CCC4(C3=O)CN(C(=O)c5c4cc(cc5)Cl)S(=O)(=O)CC6(CC6)C#N

> <enantiomer_smiles>
CS(=O)(=O)Nc1ccc2c(c1)cncc2N3CCC4(C3=O)CN(C(=O)c5c4cc(cc5)Cl)S(=O)(=O)CC6(CC6)C#N

> <scaffold>
tetrahydroisoquinoline-5spiro-isoquinoline

> <clash_score>
0

> <docking_score>
-7.624298095703125

> <overlap_score>
0.9850392937660217

> <MMFF_internal_energy>
38.76914162982968

> <docked_smiles>
CS(=O)(=O)Nc1ccc2c(c1)cncc2N3CC[C@@]4(C3=O)CN(C(=O)c5c4cc(cc5)Cl)S(=O)(=O)CC6(CC6)C#N

$$$$
EDJ-MED-ee81482e-4_2
  -OEChem-12272114583D

 75 81  0     1  0  0  0  0  0999 V2000
    9.7248    3.0135   22.9874 C   0  0  0  0  0  0  0  0  0  0  0  0
    3.7865    2.4205   19.1660 C   0  0  0  0  0  0  0  0  0  0  0  0
   12.0765    0.0316   24.1541 C   0  0  0  0  0  0  0  0  0  0  0  0
    3.3432    2.6279   20.4411 C   0  0  0  0  0  0  0  0  0  0  0  0
   12.9132   -0.6032   23.2569 C   0  0  0  0  0  0  0  0  0  0  0  0
    4.8973    1.0233   21.2988 C   0  0  0  0  0  0  0  0  0  0  0  0
   10.9991   -1.4331   22.0443 C   0  0  0  0  0  0  0  0  0  0  0  0
    5.3278    1.2339   17.6066 C   0  0  0  0  0  0  0  0  0  0  0  0
    6.8438   -0.2892   18.3752 C   0  0  0  0  0  0  0  0  0  0  0  0
    4.8226    1.4906   18.9054 C   0  0  0  0  0  0  0  0  0  0  0  0
    5.3982    0.7733   19.9948 C   0  0  0  0  0  0  0  0  0  0  0  0
   10.7040   -0.0625   23.9898 C   0  0  0  0  0  0  0  0  0  0  0  0
   10.1406   -0.7765   22.9250 C   0  0  0  0  0  0  0  0  0  0  0  0
    6.4440   -0.1472   19.6979 C   0  0  0  0  0  0  0  0  0  0  0  0
    3.8960    1.9291   21.5050 C   0  0  0  0  0  0  0  0  0  0  0  0
   12.3683   -1.3298   22.2234 C   0  0  0  0  0  0  0  0  0  0  0  0
    8.2490    0.0169   21.4271 C   0  0  0  0  0  0  0  0  0  0  0  0
    9.9479    0.5589   24.9534 C   0  0  0  0  0  0  0  0  0  0  0  0
    8.0042    4.8441   22.7770 C   0  0  0  0  0  0  0  0  0  0  0  0
    7.2790    3.5353   22.6693 C   0  0  0  0  0  0  0  0  0  0  0  0
    8.0140   -2.1541   22.4331 C   0  0  0  0  0  0  0  0  0  0  0  0
    1.1415    2.2493   23.5089 C   0  0  0  0  0  0  0  0  0  0  0  0
    2.7556    0.5560   24.4515 C   0  0  0  0  0  0  0  0  0  0  0  0
    6.9866   -1.9366   21.3580 C   0  0  0  0  0  0  0  0  0  0  0  0
    7.8721   -0.1194   23.8831 C   0  0  0  0  0  0  0  0  0  0  0  0
   -0.0164    1.4657   24.1046 C   0  0  0  0  0  0  0  0  0  0  0  0
    1.5876   -0.2166   25.0418 C   0  0  0  0  0  0  0  0  0  0  0  0
    2.3389    1.3478   23.2117 C   0  0  0  0  0  0  0  0  0  0  0  0
    8.5331    3.6312   23.5091 C   0  0  0  0  0  0  0  0  0  0  0  0
    8.6238   -0.7606   22.6929 C   0  0  3  0  0  0  0  0  0  0  0  0
    8.3874    3.5882   25.0137 C   0  0  0  0  0  0  0  0  0  0  0  0
   10.6850    2.5159   22.5671 N   0  0  0  0  0  0  0  0  0  0  0  0
    6.3062    0.3769   17.3421 N   0  0  0  0  0  0  0  0  0  0  0  0
    7.2292   -0.6897   20.7790 N   0  0  0  0  0  0  0  0  0  0  0  0
    8.6609    1.0133   24.4995 N   0  0  2  0  0  0  0  0  0  0  0  0
    0.4611    0.7269   25.3125 N   0  3  0  0  0  0  0  0  0  0  0  0
    8.8299    1.0397   21.0799 O   0  0  0  0  0  0  0  0  0  0  0  0
    8.2407    1.8013   26.9144 O   0  0  0  0  0  0  0  0  0  0  0  0
    6.3653    1.9471   25.2271 O   0  0  0  0  0  0  0  0  0  0  0  0
    3.4227    2.1582   22.7714 O   0  0  0  0  0  0  0  0  0  0  0  0
    7.7708    2.0177   25.5632 S   0  0  0  0  0  0  0  0  0  0  0  0
   13.4272   -2.1411   21.1086 Cl  0  0  0  0  0  0  0  0  0  0  0  0
    3.3406    2.9746   18.3368 H   0  0  0  0  0  0  0  0  0  0  0  0
   12.5024    0.5995   24.9735 H   0  0  0  0  0  0  0  0  0  0  0  0
    2.5407    3.3506   20.6306 H   0  0  0  0  0  0  0  0  0  0  0  0
   13.9910   -0.5177   23.3793 H   0  0  0  0  0  0  0  0  0  0  0  0
    5.3162    0.4858   22.1535 H   0  0  0  0  0  0  0  0  0  0  0  0
   10.6036   -2.0162   21.2241 H   0  0  0  0  0  0  0  0  0  0  0  0
    4.9131    1.7514   16.7479 H   0  0  0  0  0  0  0  0  0  0  0  0
    7.6448   -0.9758   18.1041 H   0  0  0  0  0  0  0  0  0  0  0  0
    9.7849   -0.1194   25.8306 H   0  0  0  0  0  0  0  0  0  0  0  0
   10.4793    1.4568   25.3613 H   0  0  0  0  0  0  0  0  0  0  0  0
    8.5318    5.1995   21.8990 H   0  0  0  0  0  0  0  0  0  0  0  0
    7.5347    5.6332   23.3529 H   0  0  0  0  0  0  0  0  0  0  0  0
    6.3229    3.4480   23.1725 H   0  0  0  0  0  0  0  0  0  0  0  0
    7.3207    3.0156   21.7188 H   0  0  0  0  0  0  0  0  0  0  0  0
    7.5152   -2.5456   23.3338 H   0  0  0  0  0  0  0  0  0  0  0  0
    8.7649   -2.9030   22.1434 H   0  0  0  0  0  0  0  0  0  0  0  0
    0.8200    2.7506   22.5881 H   0  0  0  0  0  0  0  0  0  0  0  0
    1.4430    3.0539   24.1927 H   0  0  0  0  0  0  0  0  0  0  0  0
    3.1769    1.2371   25.2026 H   0  0  0  0  0  0  0  0  0  0  0  0
    3.5675   -0.1343   24.1931 H   0  0  0  0  0  0  0  0  0  0  0  0
    7.0587   -2.7248   20.5721 H   0  0  0  0  0  0  0  0  0  0  0  0
    5.9518   -1.9952   21.7720 H   0  0  0  0  0  0  0  0  0  0  0  0
    6.8867    0.2641   23.5642 H   0  0  0  0  0  0  0  0  0  0  0  0
    7.6652   -0.8660   24.6733 H   0  0  0  0  0  0  0  0  0  0  0  0
   -0.8234    2.1270   24.4328 H   0  0  0  0  0  0  0  0  0  0  0  0
   -0.4165    0.7243   23.4054 H   0  0  0  0  0  0  0  0  0  0  0  0
    1.2126   -0.9842   24.3570 H   0  0  0  0  0  0  0  0  0  0  0  0
    1.8527   -0.6806   25.9962 H   0  0  0  0  0  0  0  0  0  0  0  0
    2.0825    0.6580   22.3982 H   0  0  0  0  0  0  0  0  0  0  0  0
    7.6838    4.3500   25.3607 H   0  0  0  0  0  0  0  0  0  0  0  0
    9.3513    3.7460   25.5050 H   0  0  0  0  0  0  0  0  0  0  0  0
    0.7466    1.4020   26.0358 H   0  0  0  0  0  0  0  0  0  0  0  0
   -0.3260    0.2030   25.7189 H   0  0  0  0  0  0  0  0  0  0  0  0
  1 29  1  0  0  0  0
  1 32  3  0  0  0  0
  2  4  1  0  0  0  0
  2 10  2  0  0  0  0
  3  5  1  0  0  0  0
  3 12  2  0  0  0  0
  4 15  2  0  0  0  0
  5 16  2  0  0  0  0
  6 11  2  0  0  0  0
  6 15  1  0  0  0  0
  7 13  2  0  0  0  0
  7 16  1  0  0  0  0
  8 10  1  0  0  0  0
  8 33  2  0  0  0  0
  9 14  2  0  0  0  0
  9 33  1  0  0  0  0
 10 11  1  0  0  0  0
 11 14  1  0  0  0  0
 12 13  1  0  0  0  0
 12 18  1  0  0  0  0
 13 30  1  0  0  0  0
 14 34  1  0  0  0  0
 15 40  1  0  0  0  0
 16 42  1  0  0  0  0
 17 30  1  0  0  0  0
 17 34  1  0  0  0  0
 17 37  2  0  0  0  0
 18 35  1  0  0  0  0
 19 20  1  0  0  0  0
 19 29  1  0  0  0  0
 20 29  1  0  0  0  0
 21 24  1  0  0  0  0
 21 30  1  0  0  0  0
 22 26  1  0  0  0  0
 22 28  1  0  0  0  0
 23 27  1  0  0  0  0
 23 28  1  0  0  0  0
 24 34  1  0  0  0  0
 25 30  1  0  0  0  0
 25 35  1  0  0  0  0
 26 36  1  0  0  0  0
 27 36  1  0  0  0  0
 28 40  1  0  0  0  0
 29 31  1  0  0  0  0
 31 41  1  0  0  0  0
 35 41  1  6  0  0  0
 38 41  2  0  0  0  0
 39 41  2  0  0  0  0
  2 43  1  0  0  0  0
  3 44  1  0  0  0  0
  4 45  1  0  0  0  0
  5 46  1  0  0  0  0
  6 47  1  0  0  0  0
  7 48  1  0  0  0  0
  8 49  1  0  0  0  0
  9 50  1  0  0  0  0
 18 51  1  0  0  0  0
 18 52  1  0  0  0  0
 19 53  1  0  0  0  0
 19 54  1  0  0  0  0
 20 55  1  0  0  0  0
 20 56  1  0  0  0  0
 21 57  1  0  0  0  0
 21 58  1  0  0  0  0
 22 59  1  0  0  0  0
 22 60  1  0  0  0  0
 23 61  1  0  0  0  0
 23 62  1  0  0  0  0
 24 63  1  0  0  0  0
 24 64  1  0  0  0  0
 25 65  1  0  0  0  0
 25 66  1  0  0  0  0
 26 67  1  0  0  0  0
 26 68  1  0  0  0  0
 27 69  1  0  0  0  0
 27 70  1  0  0  0  0
 28 71  1  0  0  0  0
 31 72  1  0  0  0  0
 31 73  1  0  0  0  0
 36 74  1  0  0  0  0
 36 75  1  0  0  0  0
M  CHG  1  36   1
M  END
> <compound>
EDJ-MED-ee81482e-4

> <compound_smiles>
c1cc2cncc(c2cc1OC3CCNCC3)N4CCC5(C4=O)CN(Cc6c5cc(cc6)Cl)S(=O)(=O)CC7(CC7)C#N

> <enantiomer_smiles>
c1cc2cncc(c2cc1OC3CCNCC3)N4CCC5(C4=O)C[N@](Cc6c5cc(cc6)Cl)S(=O)(=O)CC7(CC7)C#N

> <scaffold>
tetrahydroisoquinoline-5spiro-isoquinoline

> <clash_score>
0

> <docking_score>
-7.497780799865723

> <overlap_score>
0.9758626818656921

> <MMFF_internal_energy>
116.7212367582089

> <docked_smiles>
c1cc2cncc(c2cc1OC3CC[NH2+]CC3)N4CC[C@@]5(C4=O)C[N@](Cc6c5cc(cc6)Cl)S(=O)(=O)CC7(CC7)C#N

$$$$
EDJ-MED-ee81482e-1_1
  -OEChem-12272114583D

 69 75  0     1  0  0  0  0  0999 V2000
    9.5954    5.2677   24.4486 C   0  0  0  0  0  0  0  0  0  0  0  0
    3.7865    2.4205   19.1660 C   0  0  0  0  0  0  0  0  0  0  0  0
   12.0765    0.0316   24.1541 C   0  0  0  0  0  0  0  0  0  0  0  0
    3.3432    2.6279   20.4411 C   0  0  0  0  0  0  0  0  0  0  0  0
   12.9132   -0.6032   23.2569 C   0  0  0  0  0  0  0  0  0  0  0  0
    4.8973    1.0233   21.2988 C   0  0  0  0  0  0  0  0  0  0  0  0
   10.9991   -1.4331   22.0443 C   0  0  0  0  0  0  0  0  0  0  0  0
    5.3278    1.2339   17.6066 C   0  0  0  0  0  0  0  0  0  0  0  0
    6.8438   -0.2892   18.3752 C   0  0  0  0  0  0  0  0  0  0  0  0
    4.8226    1.4906   18.9054 C   0  0  0  0  0  0  0  0  0  0  0  0
    5.3982    0.7733   19.9948 C   0  0  0  0  0  0  0  0  0  0  0  0
   10.7040   -0.0625   23.9898 C   0  0  0  0  0  0  0  0  0  0  0  0
   10.1406   -0.7765   22.9250 C   0  0  0  0  0  0  0  0  0  0  0  0
    6.4440   -0.1472   19.6979 C   0  0  0  0  0  0  0  0  0  0  0  0
    3.8960    1.9291   21.5050 C   0  0  0  0  0  0  0  0  0  0  0  0
   12.3683   -1.3298   22.2234 C   0  0  0  0  0  0  0  0  0  0  0  0
    8.2490    0.0169   21.4271 C   0  0  0  0  0  0  0  0  0  0  0  0
    9.9479    0.5589   24.9534 C   0  0  0  0  0  0  0  0  0  0  0  0
    8.0063    5.8450   26.3187 C   0  0  0  0  0  0  0  0  0  0  0  0
    7.2173    5.8568   25.0427 C   0  0  0  0  0  0  0  0  0  0  0  0
    8.0140   -2.1541   22.4331 C   0  0  0  0  0  0  0  0  0  0  0  0
    6.9866   -1.9366   21.3580 C   0  0  0  0  0  0  0  0  0  0  0  0
    7.8721   -0.1194   23.8831 C   0  0  0  0  0  0  0  0  0  0  0  0
    2.5537    1.1510   24.9257 C   0  0  0  0  0  0  0  0  0  0  0  0
    4.6343    1.0763   24.7136 C   0  0  0  0  0  0  0  0  0  0  0  0
    3.4786    1.0633   23.7057 C   0  0  0  0  0  0  0  0  0  0  0  0
    8.4037    4.9293   25.1827 C   0  0  0  0  0  0  0  0  0  0  0  0
    8.6238   -0.7606   22.6929 C   0  0  3  0  0  0  0  0  0  0  0  0
    8.1358    3.4487   25.3348 C   0  0  0  0  0  0  0  0  0  0  0  0
   10.5556    5.5405   23.8571 N   0  0  0  0  0  0  0  0  0  0  0  0
    6.3062    0.3769   17.3421 N   0  0  0  0  0  0  0  0  0  0  0  0
    7.2292   -0.6897   20.7790 N   0  0  0  0  0  0  0  0  0  0  0  0
    8.6609    1.0133   24.4995 N   0  0  1  0  0  0  0  0  0  0  0  0
    3.7037    1.5881   25.7309 N   0  3  0  0  0  0  0  0  0  0  0  0
    8.7645    1.0869   21.1203 O   0  0  0  0  0  0  0  0  0  0  0  0
    7.3141    2.5934   23.0066 O   0  0  0  0  0  0  0  0  0  0  0  0
    9.7811    3.0185   23.3510 O   0  0  0  0  0  0  0  0  0  0  0  0
    3.4227    2.1582   22.7715 O   0  0  0  0  0  0  0  0  0  0  0  0
    8.4970    2.5650   23.8392 S   0  0  0  0  0  0  0  0  0  0  0  0
   13.4275   -2.1421   21.1097 Cl  0  0  0  0  0  0  0  0  0  0  0  0
    3.3406    2.9746   18.3368 H   0  0  0  0  0  0  0  0  0  0  0  0
   12.5015    0.5938   24.9776 H   0  0  0  0  0  0  0  0  0  0  0  0
    2.5407    3.3506   20.6306 H   0  0  0  0  0  0  0  0  0  0  0  0
   13.9911   -0.5212   23.3814 H   0  0  0  0  0  0  0  0  0  0  0  0
    5.3162    0.4858   22.1535 H   0  0  0  0  0  0  0  0  0  0  0  0
   10.6037   -2.0228   21.2288 H   0  0  0  0  0  0  0  0  0  0  0  0
    4.9131    1.7514   16.7479 H   0  0  0  0  0  0  0  0  0  0  0  0
    7.6448   -0.9758   18.1041 H   0  0  0  0  0  0  0  0  0  0  0  0
    9.7582   -0.1287   25.8172 H   0  0  0  0  0  0  0  0  0  0  0  0
   10.4932    1.4390   25.3828 H   0  0  0  0  0  0  0  0  0  0  0  0
    8.6222    6.7104   26.5361 H   0  0  0  0  0  0  0  0  0  0  0  0
    7.5388    5.4111   27.1950 H   0  0  0  0  0  0  0  0  0  0  0  0
    6.2206    5.4314   25.0648 H   0  0  0  0  0  0  0  0  0  0  0  0
    7.3047    6.7306   24.4071 H   0  0  0  0  0  0  0  0  0  0  0  0
    7.5801   -2.6060   23.3366 H   0  0  0  0  0  0  0  0  0  0  0  0
    8.7749   -2.8608   22.0657 H   0  0  0  0  0  0  0  0  0  0  0  0
    7.0227   -2.7506   20.5953 H   0  0  0  0  0  0  0  0  0  0  0  0
    5.9554   -1.9484   21.7832 H   0  0  0  0  0  0  0  0  0  0  0  0
    6.8886    0.2770   23.5668 H   0  0  0  0  0  0  0  0  0  0  0  0
    7.6579   -0.8709   24.6635 H   0  0  0  0  0  0  0  0  0  0  0  0
    1.7690    1.9146   24.8682 H   0  0  0  0  0  0  0  0  0  0  0  0
    2.1233    0.2040   25.2653 H   0  0  0  0  0  0  0  0  0  0  0  0
    5.0559    0.0986   24.9662 H   0  0  0  0  0  0  0  0  0  0  0  0
    5.4434    1.7829   24.4940 H   0  0  0  0  0  0  0  0  0  0  0  0
    3.3871    0.1048   23.1670 H   0  0  0  0  0  0  0  0  0  0  0  0
    7.0846    3.2635   25.5727 H   0  0  0  0  0  0  0  0  0  0  0  0
    8.7588    3.0171   26.1229 H   0  0  0  0  0  0  0  0  0  0  0  0
    3.7555    2.6041   25.8836 H   0  0  0  0  0  0  0  0  0  0  0  0
    3.7786    1.1026   26.6362 H   0  0  0  0  0  0  0  0  0  0  0  0
  1 27  1  0  0  0  0
  1 30  3  0  0  0  0
  2  4  1  0  0  0  0
  2 10  2  0  0  0  0
  3  5  1  0  0  0  0
  3 12  2  0  0  0  0
  4 15  2  0  0  0  0
  5 16  2  0  0  0  0
  6 11  2  0  0  0  0
  6 15  1  0  0  0  0
  7 13  2  0  0  0  0
  7 16  1  0  0  0  0
  8 10  1  0  0  0  0
  8 31  2  0  0  0  0
  9 14  2  0  0  0  0
  9 31  1  0  0  0  0
 10 11  1  0  0  0  0
 11 14  1  0  0  0  0
 12 13  1  0  0  0  0
 12 18  1  0  0  0  0
 13 28  1  0  0  0  0
 14 32  1  0  0  0  0
 15 38  1  0  0  0  0
 16 40  1  0  0  0  0
 17 28  1  0  0  0  0
 17 32  1  0  0  0  0
 17 35  2  0  0  0  0
 18 33  1  0  0  0  0
 19 20  1  0  0  0  0
 19 27  1  0  0  0  0
 20 27  1  0  0  0  0
 21 22  1  0  0  0  0
 21 28  1  0  0  0  0
 22 32  1  0  0  0  0
 23 28  1  0  0  0  0
 23 33  1  0  0  0  0
 24 26  1  0  0  0  0
 24 34  1  0  0  0  0
 25 26  1  0  0  0  0
 25 34  1  0  0  0  0
 26 38  1  0  0  0  0
 27 29  1  0  0  0  0
 29 39  1  0  0  0  0
 33 39  1  1  0  0  0
 36 39  2  0  0  0  0
 37 39  2  0  0  0  0
  2 41  1  0  0  0  0
  3 42  1  0  0  0  0
  4 43  1  0  0  0  0
  5 44  1  0  0  0  0
  6 45  1  0  0  0  0
  7 46  1  0  0  0  0
  8 47  1  0  0  0  0
  9 48  1  0  0  0  0
 18 49  1  0  0  0  0
 18 50  1  0  0  0  0
 19 51  1  0  0  0  0
 19 52  1  0  0  0  0
 20 53  1  0  0  0  0
 20 54  1  0  0  0  0
 21 55  1  0  0  0  0
 21 56  1  0  0  0  0
 22 57  1  0  0  0  0
 22 58  1  0  0  0  0
 23 59  1  0  0  0  0
 23 60  1  0  0  0  0
 24 61  1  0  0  0  0
 24 62  1  0  0  0  0
 25 63  1  0  0  0  0
 25 64  1  0  0  0  0
 26 65  1  0  0  0  0
 29 66  1  0  0  0  0
 29 67  1  0  0  0  0
 34 68  1  0  0  0  0
 34 69  1  0  0  0  0
M  CHG  1  34   1
M  END
> <compound>
EDJ-MED-ee81482e-1

> <compound_smiles>
c1cc2cncc(c2cc1OC3CNC3)N4CCC5(C4=O)CN(Cc6c5cc(cc6)Cl)S(=O)(=O)CC7(CC7)C#N

> <enantiomer_smiles>
c1cc2cncc(c2cc1OC3CNC3)N4CCC5(C4=O)C[N@@](Cc6c5cc(cc6)Cl)S(=O)(=O)CC7(CC7)C#N

> <scaffold>
tetrahydroisoquinoline-5spiro-isoquinoline

> <clash_score>
0

> <docking_score>
-8.09281063079834

> <overlap_score>
0.9762427806854248

> <MMFF_internal_energy>
171.31429127197214

> <docked_smiles>
c1cc2cncc(c2cc1OC3C[NH2+]C3)N4CC[C@@]5(C4=O)C[N@@](Cc6c5cc(cc6)Cl)S(=O)(=O)CC7(CC7)C#N

$$$$
MAT-POS-853c0ffa-10_1
  -OEChem-12272114583D

 77 82  0     1  0  0  0  0  0999 V2000
    3.7865    2.4205   19.1660 C   0  0  0  0  0  0  0  0  0  0  0  0
   12.0765    0.0316   24.1541 C   0  0  0  0  0  0  0  0  0  0  0  0
    3.3432    2.6279   20.4411 C   0  0  0  0  0  0  0  0  0  0  0  0
   12.9132   -0.6032   23.2569 C   0  0  0  0  0  0  0  0  0  0  0  0
    4.8973    1.0233   21.2988 C   0  0  0  0  0  0  0  0  0  0  0  0
   10.9991   -1.4331   22.0443 C   0  0  0  0  0  0  0  0  0  0  0  0
    5.3278    1.2339   17.6066 C   0  0  0  0  0  0  0  0  0  0  0  0
    6.8438   -0.2892   18.3752 C   0  0  0  0  0  0  0  0  0  0  0  0
    4.8226    1.4906   18.9054 C   0  0  0  0  0  0  0  0  0  0  0  0
    5.3982    0.7733   19.9948 C   0  0  0  0  0  0  0  0  0  0  0  0
   10.7040   -0.0625   23.9898 C   0  0  0  0  0  0  0  0  0  0  0  0
   10.1406   -0.7765   22.9250 C   0  0  0  0  0  0  0  0  0  0  0  0
    6.4440   -0.1472   19.6979 C   0  0  0  0  0  0  0  0  0  0  0  0
    3.8960    1.9291   21.5050 C   0  0  0  0  0  0  0  0  0  0  0  0
   12.3683   -1.3298   22.2234 C   0  0  0  0  0  0  0  0  0  0  0  0
    8.2490    0.0169   21.4271 C   0  0  0  0  0  0  0  0  0  0  0  0
    9.9479    0.5589   24.9534 C   0  0  0  0  0  0  0  0  0  0  0  0
    7.5775    5.3800   23.2665 C   0  0  0  0  0  0  0  0  0  0  0  0
    7.0196    5.7824   24.6035 C   0  0  0  0  0  0  0  0  0  0  0  0
    8.0140   -2.1541   22.4331 C   0  0  0  0  0  0  0  0  0  0  0  0
    6.9866   -1.9366   21.3580 C   0  0  0  0  0  0  0  0  0  0  0  0
    7.8721   -0.1194   23.8831 C   0  0  0  0  0  0  0  0  0  0  0  0
    8.6238   -0.7606   22.6929 C   0  0  3  0  0  0  0  0  0  0  0  0
    8.3214    5.0316   24.5273 C   0  0  0  0  0  0  0  0  0  0  0  0
    0.6627    0.8237   24.2565 C   0  0  0  0  0  0  0  0  0  0  0  0
    0.8890    2.4240   26.1508 C   0  0  0  0  0  0  0  0  0  0  0  0
   10.6011    5.3078   24.0277 C   0  0  0  0  0  0  0  0  0  0  0  0
    8.3989    3.5932   24.9882 C   0  0  0  0  0  0  0  0  0  0  0  0
    2.9234    1.5199   25.0352 C   0  0  0  0  0  0  0  0  0  0  0  0
    3.4781    1.0738   23.6967 C   0  0  0  0  0  0  0  0  0  0  0  0
    6.3062    0.3769   17.3421 N   0  0  0  0  0  0  0  0  0  0  0  0
    7.2292   -0.6897   20.7790 N   0  0  0  0  0  0  0  0  0  0  0  0
    8.6609    1.0133   24.4995 N   0  0  1  0  0  0  0  0  0  0  0  0
    1.5025    1.9171   24.8690 N   0  3  0  0  0  0  0  0  0  0  0  0
    8.7572    1.0941   21.1350 O   0  0  0  0  0  0  0  0  0  0  0  0
    7.4179    2.5201   22.8172 O   0  0  0  0  0  0  0  0  0  0  0  0
    9.9251    2.7322   23.0499 O   0  0  0  0  0  0  0  0  0  0  0  0
    3.4227    2.1582   22.7714 O   0  0  0  0  0  0  0  0  0  0  0  0
    9.5109    5.7951   24.7876 O   0  0  0  0  0  0  0  0  0  0  0  0
    8.6198    2.4832   23.6217 S   0  0  0  0  0  0  0  0  0  0  0  0
   13.4275   -2.1421   21.1097 Cl  0  0  0  0  0  0  0  0  0  0  0  0
    3.3406    2.9746   18.3368 H   0  0  0  0  0  0  0  0  0  0  0  0
   12.5015    0.5938   24.9776 H   0  0  0  0  0  0  0  0  0  0  0  0
    2.5407    3.3506   20.6306 H   0  0  0  0  0  0  0  0  0  0  0  0
   13.9911   -0.5212   23.3814 H   0  0  0  0  0  0  0  0  0  0  0  0
    5.3162    0.4858   22.1535 H   0  0  0  0  0  0  0  0  0  0  0  0
   10.6037   -2.0228   21.2288 H   0  0  0  0  0  0  0  0  0  0  0  0
    4.9131    1.7514   16.7479 H   0  0  0  0  0  0  0  0  0  0  0  0
    7.6448   -0.9758   18.1041 H   0  0  0  0  0  0  0  0  0  0  0  0
    9.7581   -0.1287   25.8173 H   0  0  0  0  0  0  0  0  0  0  0  0
   10.4931    1.4391   25.3829 H   0  0  0  0  0  0  0  0  0  0  0  0
    7.0702    4.5882   22.7287 H   0  0  0  0  0  0  0  0  0  0  0  0
    7.9799    6.1615   22.6333 H   0  0  0  0  0  0  0  0  0  0  0  0
    7.0481    6.8334   24.8653 H   0  0  0  0  0  0  0  0  0  0  0  0
    6.1401    5.2589   24.9585 H   0  0  0  0  0  0  0  0  0  0  0  0
    7.5801   -2.6060   23.3366 H   0  0  0  0  0  0  0  0  0  0  0  0
    8.7749   -2.8608   22.0657 H   0  0  0  0  0  0  0  0  0  0  0  0
    7.0227   -2.7506   20.5953 H   0  0  0  0  0  0  0  0  0  0  0  0
    5.9554   -1.9484   21.7832 H   0  0  0  0  0  0  0  0  0  0  0  0
    6.8886    0.2769   23.5666 H   0  0  0  0  0  0  0  0  0  0  0  0
    7.6579   -0.8710   24.6633 H   0  0  0  0  0  0  0  0  0  0  0  0
    0.6756   -0.0288   24.9381 H   0  0  0  0  0  0  0  0  0  0  0  0
   -0.3503    1.2108   24.1312 H   0  0  0  0  0  0  0  0  0  0  0  0
    1.1050    0.5626   23.2932 H   0  0  0  0  0  0  0  0  0  0  0  0
    0.9071    1.6077   26.8753 H   0  0  0  0  0  0  0  0  0  0  0  0
    1.4875    3.2690   26.4964 H   0  0  0  0  0  0  0  0  0  0  0  0
   -0.1353    2.7318   25.9321 H   0  0  0  0  0  0  0  0  0  0  0  0
   11.4915    5.9036   24.2430 H   0  0  0  0  0  0  0  0  0  0  0  0
   10.3594    5.3657   22.9634 H   0  0  0  0  0  0  0  0  0  0  0  0
   10.7875    4.2664   24.3008 H   0  0  0  0  0  0  0  0  0  0  0  0
    7.4792    3.2960   25.4995 H   0  0  0  0  0  0  0  0  0  0  0  0
    9.2447    3.4440   25.6648 H   0  0  0  0  0  0  0  0  0  0  0  0
    3.4453    2.3981   25.4256 H   0  0  0  0  0  0  0  0  0  0  0  0
    2.9389    0.7102   25.7695 H   0  0  0  0  0  0  0  0  0  0  0  0
    4.5260    0.7786   23.8085 H   0  0  0  0  0  0  0  0  0  0  0  0
    2.9161    0.2279   23.2877 H   0  0  0  0  0  0  0  0  0  0  0  0
    1.4719    2.7085   24.2041 H   0  0  0  0  0  0  0  0  0  0  0  0
  1  3  2  0  0  0  0
  1  9  1  0  0  0  0
  2  4  1  0  0  0  0
  2 11  2  0  0  0  0
  3 14  1  0  0  0  0
  4 15  2  0  0  0  0
  5 10  1  0  0  0  0
  5 14  2  0  0  0  0
  6 12  2  0  0  0  0
  6 15  1  0  0  0  0
  7  9  1  0  0  0  0
  7 31  2  0  0  0  0
  8 13  2  0  0  0  0
  8 31  1  0  0  0  0
  9 10  2  0  0  0  0
 10 13  1  0  0  0  0
 11 12  1  0  0  0  0
 11 17  1  0  0  0  0
 12 23  1  0  0  0  0
 13 32  1  0  0  0  0
 14 38  1  0  0  0  0
 15 41  1  0  0  0  0
 16 23  1  0  0  0  0
 16 32  1  0  0  0  0
 16 35  2  0  0  0  0
 17 33  1  0  0  0  0
 18 19  1  0  0  0  0
 18 24  1  0  0  0  0
 19 24  1  0  0  0  0
 20 21  1  0  0  0  0
 20 23  1  0  0  0  0
 21 32  1  0  0  0  0
 22 23  1  0  0  0  0
 22 33  1  0  0  0  0
 24 28  1  0  0  0  0
 24 39  1  0  0  0  0
 25 34  1  0  0  0  0
 26 34  1  0  0  0  0
 27 39  1  0  0  0  0
 28 40  1  0  0  0  0
 29 30  1  0  0  0  0
 29 34  1  0  0  0  0
 30 38  1  0  0  0  0
 33 40  1  1  0  0  0
 36 40  2  0  0  0  0
 37 40  2  0  0  0  0
  1 42  1  0  0  0  0
  2 43  1  0  0  0  0
  3 44  1  0  0  0  0
  4 45  1  0  0  0  0
  5 46  1  0  0  0  0
  6 47  1  0  0  0  0
  7 48  1  0  0  0  0
  8 49  1  0  0  0  0
 17 50  1  0  0  0  0
 17 51  1  0  0  0  0
 18 52  1  0  0  0  0
 18 53  1  0  0  0  0
 19 54  1  0  0  0  0
 19 55  1  0  0  0  0
 20 56  1  0  0  0  0
 20 57  1  0  0  0  0
 21 58  1  0  0  0  0
 21 59  1  0  0  0  0
 22 60  1  0  0  0  0
 22 61  1  0  0  0  0
 25 62  1  0  0  0  0
 25 63  1  0  0  0  0
 25 64  1  0  0  0  0
 26 65  1  0  0  0  0
 26 66  1  0  0  0  0
 26 67  1  0  0  0  0
 27 68  1  0  0  0  0
 27 69  1  0  0  0  0
 27 70  1  0  0  0  0
 28 71  1  0  0  0  0
 28 72  1  0  0  0  0
 29 73  1  0  0  0  0
 29 74  1  0  0  0  0
 30 75  1  0  0  0  0
 30 76  1  0  0  0  0
 34 77  1  0  0  0  0
M  CHG  1  34   1
M  END
> <compound>
MAT-POS-853c0ffa-10

> <compound_smiles>
CN(C)CCOc1ccc2cncc(c2c1)N3CCC4(C3=O)CN(Cc5c4cc(cc5)Cl)S(=O)(=O)CC6(CC6)OC

> <enantiomer_smiles>
CN(C)CCOc1ccc2cncc(c2c1)N3CCC4(C3=O)C[N@@](Cc5c4cc(cc5)Cl)S(=O)(=O)CC6(CC6)OC

> <scaffold>
tetrahydroisoquinoline-5spiro-isoquinoline

> <clash_score>
0

> <docking_score>
-7.813328742980957

> <overlap_score>
0.9768292903900146

> <MMFF_internal_energy>
178.36728549875244

> <docked_smiles>
C[NH+](C)CCOc1ccc2cncc(c2c1)N3CC[C@@]4(C3=O)C[N@@](Cc5c4cc(cc5)Cl)S(=O)(=O)CC6(CC6)OC

$$$$
MAT-POS-853c0ffa-9_1
  -OEChem-12272114583D

 74 79  0     1  0  0  0  0  0999 V2000
    7.0479    5.4398   23.9932 C   0  0  0  0  0  0  0  0  0  0  0  0
    3.7865    2.4205   19.1660 C   0  0  0  0  0  0  0  0  0  0  0  0
   12.0765    0.0316   24.1541 C   0  0  0  0  0  0  0  0  0  0  0  0
    3.3432    2.6279   20.4411 C   0  0  0  0  0  0  0  0  0  0  0  0
   12.9132   -0.6032   23.2569 C   0  0  0  0  0  0  0  0  0  0  0  0
    4.8973    1.0233   21.2988 C   0  0  0  0  0  0  0  0  0  0  0  0
   10.9991   -1.4331   22.0443 C   0  0  0  0  0  0  0  0  0  0  0  0
    5.3278    1.2339   17.6066 C   0  0  0  0  0  0  0  0  0  0  0  0
    6.8438   -0.2892   18.3752 C   0  0  0  0  0  0  0  0  0  0  0  0
    4.8226    1.4906   18.9054 C   0  0  0  0  0  0  0  0  0  0  0  0
    5.3982    0.7733   19.9948 C   0  0  0  0  0  0  0  0  0  0  0  0
   10.7040   -0.0625   23.9898 C   0  0  0  0  0  0  0  0  0  0  0  0
   10.1406   -0.7765   22.9250 C   0  0  0  0  0  0  0  0  0  0  0  0
    6.4440   -0.1472   19.6979 C   0  0  0  0  0  0  0  0  0  0  0  0
    3.8960    1.9291   21.5050 C   0  0  0  0  0  0  0  0  0  0  0  0
   12.3683   -1.3298   22.2234 C   0  0  0  0  0  0  0  0  0  0  0  0
    8.2490    0.0169   21.4271 C   0  0  0  0  0  0  0  0  0  0  0  0
    9.9479    0.5589   24.9534 C   0  0  0  0  0  0  0  0  0  0  0  0
    9.5590    5.6516   23.9183 C   0  0  0  0  0  0  0  0  0  0  0  0
    9.1166    6.0674   25.2901 C   0  0  0  0  0  0  0  0  0  0  0  0
    8.0140   -2.1541   22.4331 C   0  0  0  0  0  0  0  0  0  0  0  0
    6.9866   -1.9366   21.3580 C   0  0  0  0  0  0  0  0  0  0  0  0
    7.8721   -0.1194   23.8831 C   0  0  0  0  0  0  0  0  0  0  0  0
    8.3214    5.0316   24.5273 C   0  0  0  0  0  0  0  0  0  0  0  0
    8.6238   -0.7606   22.6929 C   0  0  3  0  0  0  0  0  0  0  0  0
    3.0746   -0.0466   26.3205 C   0  0  0  0  0  0  0  0  0  0  0  0
    0.7859   -0.7769   25.6654 C   0  0  0  0  0  0  0  0  0  0  0  0
    8.3989    3.5932   24.9882 C   0  0  0  0  0  0  0  0  0  0  0  0
    2.0789    0.7474   24.1804 C   0  0  0  0  0  0  0  0  0  0  0  0
    3.4781    1.0738   23.6967 C   0  0  0  0  0  0  0  0  0  0  0  0
    6.0219    5.7688   23.5627 N   0  0  0  0  0  0  0  0  0  0  0  0
    6.3062    0.3769   17.3421 N   0  0  0  0  0  0  0  0  0  0  0  0
    7.2292   -0.6897   20.7790 N   0  0  0  0  0  0  0  0  0  0  0  0
    8.6609    1.0133   24.4995 N   0  0  1  0  0  0  0  0  0  0  0  0
    2.1478   -0.3563   25.1710 N   0  3  0  0  0  0  0  0  0  0  0  0
    8.7572    1.0941   21.1350 O   0  0  0  0  0  0  0  0  0  0  0  0
    7.4179    2.5201   22.8172 O   0  0  0  0  0  0  0  0  0  0  0  0
    9.9251    2.7322   23.0499 O   0  0  0  0  0  0  0  0  0  0  0  0
    3.4227    2.1582   22.7714 O   0  0  0  0  0  0  0  0  0  0  0  0
    8.6198    2.4832   23.6217 S   0  0  0  0  0  0  0  0  0  0  0  0
   13.4275   -2.1421   21.1097 Cl  0  0  0  0  0  0  0  0  0  0  0  0
    3.3406    2.9746   18.3368 H   0  0  0  0  0  0  0  0  0  0  0  0
   12.5015    0.5938   24.9776 H   0  0  0  0  0  0  0  0  0  0  0  0
    2.5407    3.3506   20.6306 H   0  0  0  0  0  0  0  0  0  0  0  0
   13.9911   -0.5212   23.3814 H   0  0  0  0  0  0  0  0  0  0  0  0
    5.3162    0.4858   22.1535 H   0  0  0  0  0  0  0  0  0  0  0  0
   10.6037   -2.0228   21.2288 H   0  0  0  0  0  0  0  0  0  0  0  0
    4.9131    1.7514   16.7479 H   0  0  0  0  0  0  0  0  0  0  0  0
    7.6448   -0.9758   18.1041 H   0  0  0  0  0  0  0  0  0  0  0  0
    9.7581   -0.1287   25.8173 H   0  0  0  0  0  0  0  0  0  0  0  0
   10.4931    1.4391   25.3829 H   0  0  0  0  0  0  0  0  0  0  0  0
    9.4456    6.3705   23.1147 H   0  0  0  0  0  0  0  0  0  0  0  0
   10.4563    5.0485   23.8406 H   0  0  0  0  0  0  0  0  0  0  0  0
    9.7183    5.7435   26.1315 H   0  0  0  0  0  0  0  0  0  0  0  0
    8.7081    7.0651   25.4044 H   0  0  0  0  0  0  0  0  0  0  0  0
    7.5801   -2.6060   23.3366 H   0  0  0  0  0  0  0  0  0  0  0  0
    8.7749   -2.8608   22.0657 H   0  0  0  0  0  0  0  0  0  0  0  0
    7.0227   -2.7506   20.5953 H   0  0  0  0  0  0  0  0  0  0  0  0
    5.9554   -1.9484   21.7832 H   0  0  0  0  0  0  0  0  0  0  0  0
    6.8886    0.2769   23.5666 H   0  0  0  0  0  0  0  0  0  0  0  0
    7.6579   -0.8710   24.6633 H   0  0  0  0  0  0  0  0  0  0  0  0
    2.6772    0.8248   26.8443 H   0  0  0  0  0  0  0  0  0  0  0  0
    3.0993   -0.9203   26.9745 H   0  0  0  0  0  0  0  0  0  0  0  0
    4.0628    0.1616   25.9061 H   0  0  0  0  0  0  0  0  0  0  0  0
    0.3368    0.0779   26.1743 H   0  0  0  0  0  0  0  0  0  0  0  0
    0.1927   -1.0738   24.7984 H   0  0  0  0  0  0  0  0  0  0  0  0
    0.9237   -1.6144   26.3520 H   0  0  0  0  0  0  0  0  0  0  0  0
    7.4792    3.2960   25.4995 H   0  0  0  0  0  0  0  0  0  0  0  0
    9.2447    3.4440   25.6648 H   0  0  0  0  0  0  0  0  0  0  0  0
    1.4346    0.3946   23.3702 H   0  0  0  0  0  0  0  0  0  0  0  0
    1.6184    1.5979   24.6899 H   0  0  0  0  0  0  0  0  0  0  0  0
    4.1008    1.3828   24.5421 H   0  0  0  0  0  0  0  0  0  0  0  0
    3.9485    0.2137   23.2093 H   0  0  0  0  0  0  0  0  0  0  0  0
    2.5478   -1.1828   24.6951 H   0  0  0  0  0  0  0  0  0  0  0  0
  1 24  1  0  0  0  0
  1 31  3  0  0  0  0
  2  4  2  0  0  0  0
  2 10  1  0  0  0  0
  3  5  1  0  0  0  0
  3 12  2  0  0  0  0
  4 15  1  0  0  0  0
  5 16  2  0  0  0  0
  6 11  1  0  0  0  0
  6 15  2  0  0  0  0
  7 13  2  0  0  0  0
  7 16  1  0  0  0  0
  8 10  1  0  0  0  0
  8 32  2  0  0  0  0
  9 14  2  0  0  0  0
  9 32  1  0  0  0  0
 10 11  2  0  0  0  0
 11 14  1  0  0  0  0
 12 13  1  0  0  0  0
 12 18  1  0  0  0  0
 13 25  1  0  0  0  0
 14 33  1  0  0  0  0
 15 39  1  0  0  0  0
 16 41  1  0  0  0  0
 17 25  1  0  0  0  0
 17 33  1  0  0  0  0
 17 36  2  0  0  0  0
 18 34  1  0  0  0  0
 19 20  1  0  0  0  0
 19 24  1  0  0  0  0
 20 24  1  0  0  0  0
 21 22  1  0  0  0  0
 21 25  1  0  0  0  0
 22 33  1  0  0  0  0
 23 25  1  0  0  0  0
 23 34  1  0  0  0  0
 24 28  1  0  0  0  0
 26 35  1  0  0  0  0
 27 35  1  0  0  0  0
 28 40  1  0  0  0  0
 29 30  1  0  0  0  0
 29 35  1  0  0  0  0
 30 39  1  0  0  0  0
 34 40  1  1  0  0  0
 37 40  2  0  0  0  0
 38 40  2  0  0  0  0
  2 42  1  0  0  0  0
  3 43  1  0  0  0  0
  4 44  1  0  0  0  0
  5 45  1  0  0  0  0
  6 46  1  0  0  0  0
  7 47  1  0  0  0  0
  8 48  1  0  0  0  0
  9 49  1  0  0  0  0
 18 50  1  0  0  0  0
 18 51  1  0  0  0  0
 19 52  1  0  0  0  0
 19 53  1  0  0  0  0
 20 54  1  0  0  0  0
 20 55  1  0  0  0  0
 21 56  1  0  0  0  0
 21 57  1  0  0  0  0
 22 58  1  0  0  0  0
 22 59  1  0  0  0  0
 23 60  1  0  0  0  0
 23 61  1  0  0  0  0
 26 62  1  0  0  0  0
 26 63  1  0  0  0  0
 26 64  1  0  0  0  0
 27 65  1  0  0  0  0
 27 66  1  0  0  0  0
 27 67  1  0  0  0  0
 28 68  1  0  0  0  0
 28 69  1  0  0  0  0
 29 70  1  0  0  0  0
 29 71  1  0  0  0  0
 30 72  1  0  0  0  0
 30 73  1  0  0  0  0
 35 74  1  0  0  0  0
M  CHG  1  35   1
M  END
> <compound>
MAT-POS-853c0ffa-9

> <compound_smiles>
CN(C)CCOc1ccc2cncc(c2c1)N3CCC4(C3=O)CN(Cc5c4cc(cc5)Cl)S(=O)(=O)CC6(CC6)C#N

> <enantiomer_smiles>
CN(C)CCOc1ccc2cncc(c2c1)N3CCC4(C3=O)C[N@@](Cc5c4cc(cc5)Cl)S(=O)(=O)CC6(CC6)C#N

> <scaffold>
tetrahydroisoquinoline-5spiro-isoquinoline

> <clash_score>
0

> <docking_score>
-8.124106407165527

> <overlap_score>
0.9769473671913147

> <MMFF_internal_energy>
172.49025605251435

> <docked_smiles>
C[NH+](C)CCOc1ccc2cncc(c2c1)N3CC[C@@]4(C3=O)C[N@@](Cc5c4cc(cc5)Cl)S(=O)(=O)CC6(CC6)C#N

$$$$
MAT-POS-853c0ffa-9_2
  -OEChem-12272114583D

 74 79  0     1  0  0  0  0  0999 V2000
    7.3205    3.4054   22.7658 C   0  0  0  0  0  0  0  0  0  0  0  0
    3.7865    2.4205   19.1660 C   0  0  0  0  0  0  0  0  0  0  0  0
   12.0765    0.0316   24.1541 C   0  0  0  0  0  0  0  0  0  0  0  0
    3.3432    2.6279   20.4411 C   0  0  0  0  0  0  0  0  0  0  0  0
   12.9132   -0.6032   23.2569 C   0  0  0  0  0  0  0  0  0  0  0  0
    4.8973    1.0233   21.2988 C   0  0  0  0  0  0  0  0  0  0  0  0
   10.9991   -1.4331   22.0443 C   0  0  0  0  0  0  0  0  0  0  0  0
    5.3278    1.2339   17.6066 C   0  0  0  0  0  0  0  0  0  0  0  0
    6.8438   -0.2892   18.3752 C   0  0  0  0  0  0  0  0  0  0  0  0
    4.8226    1.4906   18.9054 C   0  0  0  0  0  0  0  0  0  0  0  0
    5.3982    0.7733   19.9948 C   0  0  0  0  0  0  0  0  0  0  0  0
   10.7040   -0.0625   23.9898 C   0  0  0  0  0  0  0  0  0  0  0  0
   10.1406   -0.7765   22.9250 C   0  0  0  0  0  0  0  0  0  0  0  0
    6.4440   -0.1472   19.6979 C   0  0  0  0  0  0  0  0  0  0  0  0
    3.8960    1.9291   21.5050 C   0  0  0  0  0  0  0  0  0  0  0  0
   12.3683   -1.3298   22.2234 C   0  0  0  0  0  0  0  0  0  0  0  0
    8.2490    0.0169   21.4271 C   0  0  0  0  0  0  0  0  0  0  0  0
    9.9479    0.5589   24.9534 C   0  0  0  0  0  0  0  0  0  0  0  0
    9.8217    3.1213   22.9038 C   0  0  0  0  0  0  0  0  0  0  0  0
    9.5383    4.5944   22.9183 C   0  0  0  0  0  0  0  0  0  0  0  0
    8.0140   -2.1541   22.4331 C   0  0  0  0  0  0  0  0  0  0  0  0
    6.9866   -1.9366   21.3580 C   0  0  0  0  0  0  0  0  0  0  0  0
    7.8721   -0.1194   23.8831 C   0  0  0  0  0  0  0  0  0  0  0  0
    8.5331    3.6312   23.5091 C   0  0  0  0  0  0  0  0  0  0  0  0
    8.6238   -0.7606   22.6929 C   0  0  3  0  0  0  0  0  0  0  0  0
    0.6675    0.8110   24.2541 C   0  0  0  0  0  0  0  0  0  0  0  0
    0.8944    2.4016   26.1565 C   0  0  0  0  0  0  0  0  0  0  0  0
    8.3874    3.5882   25.0137 C   0  0  0  0  0  0  0  0  0  0  0  0
    2.9283    1.5069   25.0326 C   0  0  0  0  0  0  0  0  0  0  0  0
    3.4815    1.0690   23.6908 C   0  0  0  0  0  0  0  0  0  0  0  0
    6.3436    3.2234   22.1669 N   0  0  0  0  0  0  0  0  0  0  0  0
    6.3062    0.3769   17.3421 N   0  0  0  0  0  0  0  0  0  0  0  0
    7.2292   -0.6897   20.7790 N   0  0  0  0  0  0  0  0  0  0  0  0
    8.6609    1.0133   24.4995 N   0  0  2  0  0  0  0  0  0  0  0  0
    1.5065    1.9026   24.8710 N   0  3  0  0  0  0  0  0  0  0  0  0
    8.8299    1.0397   21.0799 O   0  0  0  0  0  0  0  0  0  0  0  0
    8.2407    1.8013   26.9144 O   0  0  0  0  0  0  0  0  0  0  0  0
    6.3653    1.9471   25.2271 O   0  0  0  0  0  0  0  0  0  0  0  0
    3.4227    2.1582   22.7714 O   0  0  0  0  0  0  0  0  0  0  0  0
    7.7708    2.0177   25.5632 S   0  0  0  0  0  0  0  0  0  0  0  0
   13.4272   -2.1411   21.1086 Cl  0  0  0  0  0  0  0  0  0  0  0  0
    3.3406    2.9746   18.3368 H   0  0  0  0  0  0  0  0  0  0  0  0
   12.5024    0.5995   24.9735 H   0  0  0  0  0  0  0  0  0  0  0  0
    2.5407    3.3506   20.6306 H   0  0  0  0  0  0  0  0  0  0  0  0
   13.9910   -0.5177   23.3793 H   0  0  0  0  0  0  0  0  0  0  0  0
    5.3162    0.4858   22.1535 H   0  0  0  0  0  0  0  0  0  0  0  0
   10.6036   -2.0162   21.2241 H   0  0  0  0  0  0  0  0  0  0  0  0
    4.9131    1.7514   16.7479 H   0  0  0  0  0  0  0  0  0  0  0  0
    7.6448   -0.9758   18.1041 H   0  0  0  0  0  0  0  0  0  0  0  0
    9.7849   -0.1194   25.8306 H   0  0  0  0  0  0  0  0  0  0  0  0
   10.4793    1.4568   25.3613 H   0  0  0  0  0  0  0  0  0  0  0  0
    9.7878    2.6129   21.9468 H   0  0  0  0  0  0  0  0  0  0  0  0
   10.5952    2.7515   23.5670 H   0  0  0  0  0  0  0  0  0  0  0  0
   10.1228    5.2116   23.5908 H   0  0  0  0  0  0  0  0  0  0  0  0
    9.3157    5.0716   21.9707 H   0  0  0  0  0  0  0  0  0  0  0  0
    7.5152   -2.5456   23.3338 H   0  0  0  0  0  0  0  0  0  0  0  0
    8.7649   -2.9030   22.1434 H   0  0  0  0  0  0  0  0  0  0  0  0
    7.0587   -2.7248   20.5721 H   0  0  0  0  0  0  0  0  0  0  0  0
    5.9518   -1.9952   21.7720 H   0  0  0  0  0  0  0  0  0  0  0  0
    6.8867    0.2641   23.5642 H   0  0  0  0  0  0  0  0  0  0  0  0
    7.6652   -0.8660   24.6733 H   0  0  0  0  0  0  0  0  0  0  0  0
    0.6831   -0.0451   24.9310 H   0  0  0  0  0  0  0  0  0  0  0  0
   -0.3464    1.1971   24.1326 H   0  0  0  0  0  0  0  0  0  0  0  0
    1.1086    0.5559   23.2886 H   0  0  0  0  0  0  0  0  0  0  0  0
    0.9151    1.5815   26.8766 H   0  0  0  0  0  0  0  0  0  0  0  0
    1.4920    3.2458   26.5056 H   0  0  0  0  0  0  0  0  0  0  0  0
   -0.1308    2.7088   25.9412 H   0  0  0  0  0  0  0  0  0  0  0  0
    7.6838    4.3500   25.3607 H   0  0  0  0  0  0  0  0  0  0  0  0
    9.3513    3.7460   25.5050 H   0  0  0  0  0  0  0  0  0  0  0  0
    3.4495    2.3839   25.4268 H   0  0  0  0  0  0  0  0  0  0  0  0
    2.9465    0.6934   25.7626 H   0  0  0  0  0  0  0  0  0  0  0  0
    4.5301    0.7750   23.7992 H   0  0  0  0  0  0  0  0  0  0  0  0
    2.9203    0.2243   23.2782 H   0  0  0  0  0  0  0  0  0  0  0  0
    1.4735    2.6975   24.2104 H   0  0  0  0  0  0  0  0  0  0  0  0
  1 24  1  0  0  0  0
  1 31  3  0  0  0  0
  2  4  2  0  0  0  0
  2 10  1  0  0  0  0
  3  5  1  0  0  0  0
  3 12  2  0  0  0  0
  4 15  1  0  0  0  0
  5 16  2  0  0  0  0
  6 11  1  0  0  0  0
  6 15  2  0  0  0  0
  7 13  2  0  0  0  0
  7 16  1  0  0  0  0
  8 10  1  0  0  0  0
  8 32  2  0  0  0  0
  9 14  2  0  0  0  0
  9 32  1  0  0  0  0
 10 11  2  0  0  0  0
 11 14  1  0  0  0  0
 12 13  1  0  0  0  0
 12 18  1  0  0  0  0
 13 25  1  0  0  0  0
 14 33  1  0  0  0  0
 15 39  1  0  0  0  0
 16 41  1  0  0  0  0
 17 25  1  0  0  0  0
 17 33  1  0  0  0  0
 17 36  2  0  0  0  0
 18 34  1  0  0  0  0
 19 20  1  0  0  0  0
 19 24  1  0  0  0  0
 20 24  1  0  0  0  0
 21 22  1  0  0  0  0
 21 25  1  0  0  0  0
 22 33  1  0  0  0  0
 23 25  1  0  0  0  0
 23 34  1  0  0  0  0
 24 28  1  0  0  0  0
 26 35  1  0  0  0  0
 27 35  1  0  0  0  0
 28 40  1  0  0  0  0
 29 30  1  0  0  0  0
 29 35  1  0  0  0  0
 30 39  1  0  0  0  0
 34 40  1  6  0  0  0
 37 40  2  0  0  0  0
 38 40  2  0  0  0  0
  2 42  1  0  0  0  0
  3 43  1  0  0  0  0
  4 44  1  0  0  0  0
  5 45  1  0  0  0  0
  6 46  1  0  0  0  0
  7 47  1  0  0  0  0
  8 48  1  0  0  0  0
  9 49  1  0  0  0  0
 18 50  1  0  0  0  0
 18 51  1  0  0  0  0
 19 52  1  0  0  0  0
 19 53  1  0  0  0  0
 20 54  1  0  0  0  0
 20 55  1  0  0  0  0
 21 56  1  0  0  0  0
 21 57  1  0  0  0  0
 22 58  1  0  0  0  0
 22 59  1  0  0  0  0
 23 60  1  0  0  0  0
 23 61  1  0  0  0  0
 26 62  1  0  0  0  0
 26 63  1  0  0  0  0
 26 64  1  0  0  0  0
 27 65  1  0  0  0  0
 27 66  1  0  0  0  0
 27 67  1  0  0  0  0
 28 68  1  0  0  0  0
 28 69  1  0  0  0  0
 29 70  1  0  0  0  0
 29 71  1  0  0  0  0
 30 72  1  0  0  0  0
 30 73  1  0  0  0  0
 35 74  1  0  0  0  0
M  CHG  1  35   1
M  END
> <compound>
MAT-POS-853c0ffa-9

> <compound_smiles>
CN(C)CCOc1ccc2cncc(c2c1)N3CCC4(C3=O)CN(Cc5c4cc(cc5)Cl)S(=O)(=O)CC6(CC6)C#N

> <enantiomer_smiles>
CN(C)CCOc1ccc2cncc(c2c1)N3CCC4(C3=O)C[N@](Cc5c4cc(cc5)Cl)S(=O)(=O)CC6(CC6)C#N

> <scaffold>
tetrahydroisoquinoline-5spiro-isoquinoline

> <clash_score>
0

> <docking_score>
-7.4450554847717285

> <overlap_score>
0.977554202079773

> <MMFF_internal_energy>
146.26243811663835

> <docked_smiles>
C[NH+](C)CCOc1ccc2cncc(c2c1)N3CC[C@@]4(C3=O)C[N@](Cc5c4cc(cc5)Cl)S(=O)(=O)CC6(CC6)C#N

$$$$
LUO-POS-8484f2d3-2_1
  -OEChem-12272114583D

 74 79  0     1  0  0  0  0  0999 V2000
    7.0454    5.4390   23.9968 C   0  0  0  0  0  0  0  0  0  0  0  0
    3.7865    2.4205   19.1660 C   0  0  0  0  0  0  0  0  0  0  0  0
   12.0765    0.0316   24.1541 C   0  0  0  0  0  0  0  0  0  0  0  0
    3.3432    2.6279   20.4411 C   0  0  0  0  0  0  0  0  0  0  0  0
   12.9132   -0.6032   23.2569 C   0  0  0  0  0  0  0  0  0  0  0  0
    4.8973    1.0233   21.2988 C   0  0  0  0  0  0  0  0  0  0  0  0
   10.9991   -1.4331   22.0443 C   0  0  0  0  0  0  0  0  0  0  0  0
    5.3278    1.2339   17.6066 C   0  0  0  0  0  0  0  0  0  0  0  0
    6.8438   -0.2892   18.3752 C   0  0  0  0  0  0  0  0  0  0  0  0
    4.8226    1.4906   18.9054 C   0  0  0  0  0  0  0  0  0  0  0  0
    5.3982    0.7733   19.9948 C   0  0  0  0  0  0  0  0  0  0  0  0
   10.7040   -0.0625   23.9898 C   0  0  0  0  0  0  0  0  0  0  0  0
   10.1406   -0.7765   22.9250 C   0  0  0  0  0  0  0  0  0  0  0  0
    6.4440   -0.1472   19.6979 C   0  0  0  0  0  0  0  0  0  0  0  0
    3.8960    1.9291   21.5050 C   0  0  0  0  0  0  0  0  0  0  0  0
   12.3683   -1.3298   22.2234 C   0  0  0  0  0  0  0  0  0  0  0  0
    8.2490    0.0169   21.4271 C   0  0  0  0  0  0  0  0  0  0  0  0
    9.9479    0.5589   24.9534 C   0  0  0  0  0  0  0  0  0  0  0  0
    9.5563    5.6523   23.9226 C   0  0  0  0  0  0  0  0  0  0  0  0
    9.1135    6.0667   25.2947 C   0  0  0  0  0  0  0  0  0  0  0  0
    8.0140   -2.1541   22.4331 C   0  0  0  0  0  0  0  0  0  0  0  0
    6.9866   -1.9366   21.3580 C   0  0  0  0  0  0  0  0  0  0  0  0
    7.8721   -0.1194   23.8831 C   0  0  0  0  0  0  0  0  0  0  0  0
    8.3190    5.0310   24.5309 C   0  0  0  0  0  0  0  0  0  0  0  0
    8.6238   -0.7606   22.6929 C   0  0  1  0  0  0  0  0  0  0  0  0
    3.0751   -0.0477   26.3199 C   0  0  0  0  0  0  0  0  0  0  0  0
    0.7865   -0.7781   25.6647 C   0  0  0  0  0  0  0  0  0  0  0  0
    8.3973    3.5924   24.9905 C   0  0  0  0  0  0  0  0  0  0  0  0
    2.0792    0.7468   24.1801 C   0  0  0  0  0  0  0  0  0  0  0  0
    3.4783    1.0736   23.6964 C   0  0  0  0  0  0  0  0  0  0  0  0
    6.0193    5.7677   23.5665 N   0  0  0  0  0  0  0  0  0  0  0  0
    6.3062    0.3769   17.3421 N   0  0  0  0  0  0  0  0  0  0  0  0
    7.2292   -0.6897   20.7790 N   0  0  0  0  0  0  0  0  0  0  0  0
    8.6609    1.0133   24.4995 N   0  0  1  0  0  0  0  0  0  0  0  0
    2.1483   -0.3572   25.1703 N   0  3  0  0  0  0  0  0  0  0  0  0
    8.7576    1.0939   21.1347 O   0  0  0  0  0  0  0  0  0  0  0  0
    7.4170    2.5201   22.8188 O   0  0  0  0  0  0  0  0  0  0  0  0
    9.9241    2.7343   23.0514 O   0  0  0  0  0  0  0  0  0  0  0  0
    3.4227    2.1582   22.7715 O   0  0  0  0  0  0  0  0  0  0  0  0
    8.6190    2.4836   23.6231 S   0  0  0  0  0  0  0  0  0  0  0  0
   13.4269   -2.1431   21.1100 Cl  0  0  0  0  0  0  0  0  0  0  0  0
    3.3406    2.9746   18.3368 H   0  0  0  0  0  0  0  0  0  0  0  0
   12.5021    0.5936   24.9776 H   0  0  0  0  0  0  0  0  0  0  0  0
    2.5407    3.3506   20.6306 H   0  0  0  0  0  0  0  0  0  0  0  0
   13.9910   -0.5222   23.3823 H   0  0  0  0  0  0  0  0  0  0  0  0
    5.3162    0.4858   22.1535 H   0  0  0  0  0  0  0  0  0  0  0  0
   10.6038   -2.0223   21.2285 H   0  0  0  0  0  0  0  0  0  0  0  0
    4.9131    1.7514   16.7479 H   0  0  0  0  0  0  0  0  0  0  0  0
    7.6448   -0.9758   18.1041 H   0  0  0  0  0  0  0  0  0  0  0  0
    9.7593   -0.1283   25.8177 H   0  0  0  0  0  0  0  0  0  0  0  0
   10.4932    1.4394   25.3816 H   0  0  0  0  0  0  0  0  0  0  0  0
    9.4426    6.3719   23.1196 H   0  0  0  0  0  0  0  0  0  0  0  0
   10.4540    5.0499   23.8445 H   0  0  0  0  0  0  0  0  0  0  0  0
    9.7153    5.7425   26.1359 H   0  0  0  0  0  0  0  0  0  0  0  0
    8.7043    7.0641   25.4097 H   0  0  0  0  0  0  0  0  0  0  0  0
    7.5800   -2.6065   23.3362 H   0  0  0  0  0  0  0  0  0  0  0  0
    8.7751   -2.8606   22.0656 H   0  0  0  0  0  0  0  0  0  0  0  0
    7.0225   -2.7506   20.5953 H   0  0  0  0  0  0  0  0  0  0  0  0
    5.9555   -1.9476   21.7836 H   0  0  0  0  0  0  0  0  0  0  0  0
    6.8885    0.2772   23.5674 H   0  0  0  0  0  0  0  0  0  0  0  0
    7.6586   -0.8709   24.6639 H   0  0  0  0  0  0  0  0  0  0  0  0
    2.6778    0.8234   26.8439 H   0  0  0  0  0  0  0  0  0  0  0  0
    3.1000   -0.9216   26.9736 H   0  0  0  0  0  0  0  0  0  0  0  0
    4.0634    0.1607   25.9055 H   0  0  0  0  0  0  0  0  0  0  0  0
    0.3373    0.0765   26.1740 H   0  0  0  0  0  0  0  0  0  0  0  0
    0.1932   -1.0747   24.7977 H   0  0  0  0  0  0  0  0  0  0  0  0
    0.9244   -1.6157   26.3511 H   0  0  0  0  0  0  0  0  0  0  0  0
    7.4776    3.2942   25.5015 H   0  0  0  0  0  0  0  0  0  0  0  0
    9.2431    3.4431   25.6672 H   0  0  0  0  0  0  0  0  0  0  0  0
    1.4348    0.3942   23.3698 H   0  0  0  0  0  0  0  0  0  0  0  0
    1.6187    1.5971   24.6899 H   0  0  0  0  0  0  0  0  0  0  0  0
    4.1011    1.3824   24.5417 H   0  0  0  0  0  0  0  0  0  0  0  0
    3.9487    0.2136   23.2086 H   0  0  0  0  0  0  0  0  0  0  0  0
    2.5483   -1.1834   24.6941 H   0  0  0  0  0  0  0  0  0  0  0  0
  1 24  1  0  0  0  0
  1 31  3  0  0  0  0
  2  4  2  0  0  0  0
  2 10  1  0  0  0  0
  3  5  1  0  0  0  0
  3 12  2  0  0  0  0
  4 15  1  0  0  0  0
  5 16  2  0  0  0  0
  6 11  1  0  0  0  0
  6 15  2  0  0  0  0
  7 13  2  0  0  0  0
  7 16  1  0  0  0  0
  8 10  1  0  0  0  0
  8 32  2  0  0  0  0
  9 14  2  0  0  0  0
  9 32  1  0  0  0  0
 10 11  2  0  0  0  0
 11 14  1  0  0  0  0
 12 13  1  0  0  0  0
 12 18  1  0  0  0  0
 13 25  1  6  0  0  0
 14 33  1  0  0  0  0
 15 39  1  0  0  0  0
 16 41  1  0  0  0  0
 17 25  1  1  0  0  0
 17 33  1  0  0  0  0
 17 36  2  0  0  0  0
 18 34  1  0  0  0  0
 19 20  1  0  0  0  0
 19 24  1  0  0  0  0
 20 24  1  0  0  0  0
 21 22  1  0  0  0  0
 21 25  1  1  0  0  0
 22 33  1  0  0  0  0
 23 25  1  6  0  0  0
 23 34  1  0  0  0  0
 24 28  1  0  0  0  0
 26 35  1  0  0  0  0
 27 35  1  0  0  0  0
 28 40  1  0  0  0  0
 29 30  1  0  0  0  0
 29 35  1  0  0  0  0
 30 39  1  0  0  0  0
 34 40  1  1  0  0  0
 37 40  2  0  0  0  0
 38 40  2  0  0  0  0
  2 42  1  0  0  0  0
  3 43  1  0  0  0  0
  4 44  1  0  0  0  0
  5 45  1  0  0  0  0
  6 46  1  0  0  0  0
  7 47  1  0  0  0  0
  8 48  1  0  0  0  0
  9 49  1  0  0  0  0
 18 50  1  0  0  0  0
 18 51  1  0  0  0  0
 19 52  1  0  0  0  0
 19 53  1  0  0  0  0
 20 54  1  0  0  0  0
 20 55  1  0  0  0  0
 21 56  1  0  0  0  0
 21 57  1  0  0  0  0
 22 58  1  0  0  0  0
 22 59  1  0  0  0  0
 23 60  1  0  0  0  0
 23 61  1  0  0  0  0
 26 62  1  0  0  0  0
 26 63  1  0  0  0  0
 26 64  1  0  0  0  0
 27 65  1  0  0  0  0
 27 66  1  0  0  0  0
 27 67  1  0  0  0  0
 28 68  1  0  0  0  0
 28 69  1  0  0  0  0
 29 70  1  0  0  0  0
 29 71  1  0  0  0  0
 30 72  1  0  0  0  0
 30 73  1  0  0  0  0
 35 74  1  0  0  0  0
M  CHG  1  35   1
M  END
> <compound>
LUO-POS-8484f2d3-2

> <compound_smiles>
CN(C)CCOc1ccc2cncc(c2c1)N3CC[C@@]4(C3=O)CN(Cc5c4cc(cc5)Cl)S(=O)(=O)CC6(CC6)C#N

> <enantiomer_smiles>
CN(C)CCOc1ccc2cncc(c2c1)N3CC[C@@]4(C3=O)C[N@@](Cc5c4cc(cc5)Cl)S(=O)(=O)CC6(CC6)C#N

> <scaffold>
tetrahydroisoquinoline-5spiro-isoquinoline

> <clash_score>
0

> <docking_score>
-8.123679161071777

> <overlap_score>
0.9769416451454163

> <MMFF_internal_energy>
172.4314138489381

> <docked_smiles>
C[NH+](C)CCOc1ccc2cncc(c2c1)N3CC[C@@]4(C3=O)C[N@@](Cc5c4cc(cc5)Cl)S(=O)(=O)CC6(CC6)C#N

$$$$
MAT-POS-853c0ffa-10_2
  -OEChem-12272114583D

 77 82  0     1  0  0  0  0  0999 V2000
    3.7865    2.4205   19.1660 C   0  0  0  0  0  0  0  0  0  0  0  0
   12.0765    0.0316   24.1541 C   0  0  0  0  0  0  0  0  0  0  0  0
    3.3432    2.6279   20.4411 C   0  0  0  0  0  0  0  0  0  0  0  0
   12.9132   -0.6032   23.2569 C   0  0  0  0  0  0  0  0  0  0  0  0
    4.8973    1.0233   21.2988 C   0  0  0  0  0  0  0  0  0  0  0  0
   10.9991   -1.4331   22.0443 C   0  0  0  0  0  0  0  0  0  0  0  0
    5.3278    1.2339   17.6066 C   0  0  0  0  0  0  0  0  0  0  0  0
    6.8438   -0.2892   18.3752 C   0  0  0  0  0  0  0  0  0  0  0  0
    4.8226    1.4906   18.9054 C   0  0  0  0  0  0  0  0  0  0  0  0
    5.3982    0.7733   19.9948 C   0  0  0  0  0  0  0  0  0  0  0  0
   10.7040   -0.0625   23.9898 C   0  0  0  0  0  0  0  0  0  0  0  0
   10.1406   -0.7765   22.9250 C   0  0  0  0  0  0  0  0  0  0  0  0
    6.4440   -0.1472   19.6979 C   0  0  0  0  0  0  0  0  0  0  0  0
    3.8960    1.9291   21.5050 C   0  0  0  0  0  0  0  0  0  0  0  0
   12.3683   -1.3298   22.2234 C   0  0  0  0  0  0  0  0  0  0  0  0
    8.2490    0.0169   21.4271 C   0  0  0  0  0  0  0  0  0  0  0  0
    9.9479    0.5589   24.9534 C   0  0  0  0  0  0  0  0  0  0  0  0
    7.4895    5.2567   26.8140 C   0  0  0  0  0  0  0  0  0  0  0  0
    8.0138    6.0906   25.6780 C   0  0  0  0  0  0  0  0  0  0  0  0
    8.0140   -2.1541   22.4331 C   0  0  0  0  0  0  0  0  0  0  0  0
    6.9866   -1.9366   21.3580 C   0  0  0  0  0  0  0  0  0  0  0  0
    7.8721   -0.1194   23.8831 C   0  0  0  0  0  0  0  0  0  0  0  0
    8.6238   -0.7606   22.6929 C   0  0  3  0  0  0  0  0  0  0  0  0
    7.4618    4.7167   25.4097 C   0  0  0  0  0  0  0  0  0  0  0  0
    3.0844   -0.0662   26.3092 C   0  0  0  0  0  0  0  0  0  0  0  0
    0.7958   -0.7969   25.6541 C   0  0  0  0  0  0  0  0  0  0  0  0
    6.2952    4.5885   23.3737 C   0  0  0  0  0  0  0  0  0  0  0  0
    8.3874    3.5882   25.0137 C   0  0  0  0  0  0  0  0  0  0  0  0
    2.0837    0.7376   24.1751 C   0  0  0  0  0  0  0  0  0  0  0  0
    3.4815    1.0690   23.6908 C   0  0  0  0  0  0  0  0  0  0  0  0
    6.3062    0.3769   17.3421 N   0  0  0  0  0  0  0  0  0  0  0  0
    7.2292   -0.6897   20.7790 N   0  0  0  0  0  0  0  0  0  0  0  0
    8.6609    1.0133   24.4995 N   0  0  2  0  0  0  0  0  0  0  0  0
    2.1562   -0.3713   25.1597 N   0  3  0  0  0  0  0  0  0  0  0  0
    8.8299    1.0397   21.0799 O   0  0  0  0  0  0  0  0  0  0  0  0
    8.2407    1.8013   26.9144 O   0  0  0  0  0  0  0  0  0  0  0  0
    6.3653    1.9471   25.2271 O   0  0  0  0  0  0  0  0  0  0  0  0
    3.4227    2.1582   22.7714 O   0  0  0  0  0  0  0  0  0  0  0  0
    6.1702    4.6630   24.7816 O   0  0  0  0  0  0  0  0  0  0  0  0
    7.7708    2.0177   25.5632 S   0  0  0  0  0  0  0  0  0  0  0  0
   13.4272   -2.1411   21.1086 Cl  0  0  0  0  0  0  0  0  0  0  0  0
    3.3406    2.9746   18.3368 H   0  0  0  0  0  0  0  0  0  0  0  0
   12.5024    0.5995   24.9735 H   0  0  0  0  0  0  0  0  0  0  0  0
    2.5407    3.3506   20.6306 H   0  0  0  0  0  0  0  0  0  0  0  0
   13.9910   -0.5177   23.3793 H   0  0  0  0  0  0  0  0  0  0  0  0
    5.3162    0.4858   22.1535 H   0  0  0  0  0  0  0  0  0  0  0  0
   10.6036   -2.0162   21.2241 H   0  0  0  0  0  0  0  0  0  0  0  0
    4.9131    1.7514   16.7479 H   0  0  0  0  0  0  0  0  0  0  0  0
    7.6448   -0.9758   18.1041 H   0  0  0  0  0  0  0  0  0  0  0  0
    9.7849   -0.1194   25.8306 H   0  0  0  0  0  0  0  0  0  0  0  0
   10.4793    1.4568   25.3613 H   0  0  0  0  0  0  0  0  0  0  0  0
    8.2108    4.8489   27.5118 H   0  0  0  0  0  0  0  0  0  0  0  0
    6.5519    5.5558   27.2668 H   0  0  0  0  0  0  0  0  0  0  0  0
    7.4274    6.9482   25.3705 H   0  0  0  0  0  0  0  0  0  0  0  0
    9.0852    6.2390   25.6170 H   0  0  0  0  0  0  0  0  0  0  0  0
    7.5152   -2.5456   23.3338 H   0  0  0  0  0  0  0  0  0  0  0  0
    8.7649   -2.9030   22.1434 H   0  0  0  0  0  0  0  0  0  0  0  0
    7.0587   -2.7248   20.5721 H   0  0  0  0  0  0  0  0  0  0  0  0
    5.9518   -1.9952   21.7720 H   0  0  0  0  0  0  0  0  0  0  0  0
    6.8867    0.2641   23.5642 H   0  0  0  0  0  0  0  0  0  0  0  0
    7.6652   -0.8660   24.6733 H   0  0  0  0  0  0  0  0  0  0  0  0
    2.6865    0.8017   26.8383 H   0  0  0  0  0  0  0  0  0  0  0  0
    3.1118   -0.9433   26.9585 H   0  0  0  0  0  0  0  0  0  0  0  0
    4.0716    0.1460   25.8943 H   0  0  0  0  0  0  0  0  0  0  0  0
    0.3461    0.0544   26.1684 H   0  0  0  0  0  0  0  0  0  0  0  0
    0.2016   -1.0901   24.7866 H   0  0  0  0  0  0  0  0  0  0  0  0
    0.9362   -1.6377   26.3360 H   0  0  0  0  0  0  0  0  0  0  0  0
    5.3017    4.5488   22.9205 H   0  0  0  0  0  0  0  0  0  0  0  0
    6.8662    3.6964   23.1043 H   0  0  0  0  0  0  0  0  0  0  0  0
    6.8211    5.4769   23.0160 H   0  0  0  0  0  0  0  0  0  0  0  0
    9.3774    3.7195   25.4591 H   0  0  0  0  0  0  0  0  0  0  0  0
    8.4924    3.5311   23.9269 H   0  0  0  0  0  0  0  0  0  0  0  0
    1.4386    0.3881   23.3641 H   0  0  0  0  0  0  0  0  0  0  0  0
    1.6227    1.5846   24.6900 H   0  0  0  0  0  0  0  0  0  0  0  0
    4.1052    1.3745   24.5367 H   0  0  0  0  0  0  0  0  0  0  0  0
    3.9525    0.2123   23.1979 H   0  0  0  0  0  0  0  0  0  0  0  0
    2.5568   -1.1945   24.6786 H   0  0  0  0  0  0  0  0  0  0  0  0
  1  3  2  0  0  0  0
  1  9  1  0  0  0  0
  2  4  1  0  0  0  0
  2 11  2  0  0  0  0
  3 14  1  0  0  0  0
  4 15  2  0  0  0  0
  5 10  1  0  0  0  0
  5 14  2  0  0  0  0
  6 12  2  0  0  0  0
  6 15  1  0  0  0  0
  7  9  1  0  0  0  0
  7 31  2  0  0  0  0
  8 13  2  0  0  0  0
  8 31  1  0  0  0  0
  9 10  2  0  0  0  0
 10 13  1  0  0  0  0
 11 12  1  0  0  0  0
 11 17  1  0  0  0  0
 12 23  1  0  0  0  0
 13 32  1  0  0  0  0
 14 38  1  0  0  0  0
 15 41  1  0  0  0  0
 16 23  1  0  0  0  0
 16 32  1  0  0  0  0
 16 35  2  0  0  0  0
 17 33  1  0  0  0  0
 18 19  1  0  0  0  0
 18 24  1  0  0  0  0
 19 24  1  0  0  0  0
 20 21  1  0  0  0  0
 20 23  1  0  0  0  0
 21 32  1  0  0  0  0
 22 23  1  0  0  0  0
 22 33  1  0  0  0  0
 24 28  1  0  0  0  0
 24 39  1  0  0  0  0
 25 34  1  0  0  0  0
 26 34  1  0  0  0  0
 27 39  1  0  0  0  0
 28 40  1  0  0  0  0
 29 30  1  0  0  0  0
 29 34  1  0  0  0  0
 30 38  1  0  0  0  0
 33 40  1  6  0  0  0
 36 40  2  0  0  0  0
 37 40  2  0  0  0  0
  1 42  1  0  0  0  0
  2 43  1  0  0  0  0
  3 44  1  0  0  0  0
  4 45  1  0  0  0  0
  5 46  1  0  0  0  0
  6 47  1  0  0  0  0
  7 48  1  0  0  0  0
  8 49  1  0  0  0  0
 17 50  1  0  0  0  0
 17 51  1  0  0  0  0
 18 52  1  0  0  0  0
 18 53  1  0  0  0  0
 19 54  1  0  0  0  0
 19 55  1  0  0  0  0
 20 56  1  0  0  0  0
 20 57  1  0  0  0  0
 21 58  1  0  0  0  0
 21 59  1  0  0  0  0
 22 60  1  0  0  0  0
 22 61  1  0  0  0  0
 25 62  1  0  0  0  0
 25 63  1  0  0  0  0
 25 64  1  0  0  0  0
 26 65  1  0  0  0  0
 26 66  1  0  0  0  0
 26 67  1  0  0  0  0
 27 68  1  0  0  0  0
 27 69  1  0  0  0  0
 27 70  1  0  0  0  0
 28 71  1  0  0  0  0
 28 72  1  0  0  0  0
 29 73  1  0  0  0  0
 29 74  1  0  0  0  0
 30 75  1  0  0  0  0
 30 76  1  0  0  0  0
 34 77  1  0  0  0  0
M  CHG  1  34   1
M  END
> <compound>
MAT-POS-853c0ffa-10

> <compound_smiles>
CN(C)CCOc1ccc2cncc(c2c1)N3CCC4(C3=O)CN(Cc5c4cc(cc5)Cl)S(=O)(=O)CC6(CC6)OC

> <enantiomer_smiles>
CN(C)CCOc1ccc2cncc(c2c1)N3CCC4(C3=O)C[N@](Cc5c4cc(cc5)Cl)S(=O)(=O)CC6(CC6)OC

> <scaffold>
tetrahydroisoquinoline-5spiro-isoquinoline

> <clash_score>
0

> <docking_score>
-7.576014518737793

> <overlap_score>
0.9735221862792969

> <MMFF_internal_energy>
166.0751899742353

> <docked_smiles>
C[NH+](C)CCOc1ccc2cncc(c2c1)N3CC[C@@]4(C3=O)C[N@](Cc5c4cc(cc5)Cl)S(=O)(=O)CC6(CC6)OC

$$$$
EDJ-MED-dfa1d800-1_1
  -OEChem-12272114583D

 77 83  0     1  0  0  0  0  0999 V2000
    3.7865    2.4205   19.1660 C   0  0  0  0  0  0  0  0  0  0  0  0
   12.0765    0.0316   24.1541 C   0  0  0  0  0  0  0  0  0  0  0  0
    3.3432    2.6279   20.4411 C   0  0  0  0  0  0  0  0  0  0  0  0
   12.9132   -0.6032   23.2569 C   0  0  0  0  0  0  0  0  0  0  0  0
    4.8973    1.0233   21.2988 C   0  0  0  0  0  0  0  0  0  0  0  0
   10.9991   -1.4331   22.0443 C   0  0  0  0  0  0  0  0  0  0  0  0
    5.3278    1.2339   17.6066 C   0  0  0  0  0  0  0  0  0  0  0  0
    6.8438   -0.2892   18.3752 C   0  0  0  0  0  0  0  0  0  0  0  0
    4.8226    1.4906   18.9054 C   0  0  0  0  0  0  0  0  0  0  0  0
    5.3982    0.7733   19.9948 C   0  0  0  0  0  0  0  0  0  0  0  0
   10.7040   -0.0625   23.9898 C   0  0  0  0  0  0  0  0  0  0  0  0
   10.1406   -0.7765   22.9250 C   0  0  0  0  0  0  0  0  0  0  0  0
    6.4440   -0.1472   19.6979 C   0  0  0  0  0  0  0  0  0  0  0  0
    3.8960    1.9291   21.5050 C   0  0  0  0  0  0  0  0  0  0  0  0
   12.3683   -1.3298   22.2234 C   0  0  0  0  0  0  0  0  0  0  0  0
    9.9479    0.5589   24.9534 C   0  0  0  0  0  0  0  0  0  0  0  0
    8.2490    0.0169   21.4271 C   0  0  0  0  0  0  0  0  0  0  0  0
    8.4222    3.2568   23.7645 C   0  0  0  0  0  0  0  0  0  0  0  0
    2.4749    7.7874   22.2353 C   0  0  0  0  0  0  0  0  0  0  0  0
    3.9750    7.9826   22.1443 C   0  0  0  0  0  0  0  0  0  0  0  0
    7.9228    2.6746   26.2005 C   0  0  0  0  0  0  0  0  0  0  0  0
    6.7191    2.2853   25.4011 C   0  0  0  0  0  0  0  0  0  0  0  0
    8.0140   -2.1541   22.4331 C   0  0  0  0  0  0  0  0  0  0  0  0
    6.9866   -1.9366   21.3580 C   0  0  0  0  0  0  0  0  0  0  0  0
    7.8721   -0.1194   23.8831 C   0  0  0  0  0  0  0  0  0  0  0  0
    2.3402    6.2804   22.2752 C   0  0  0  0  0  0  0  0  0  0  0  0
    4.5401    6.9494   23.1031 C   0  0  0  0  0  0  0  0  0  0  0  0
    8.6238   -0.7606   22.6929 C   0  0  3  0  0  0  0  0  0  0  0  0
    8.0922    2.2237   24.7645 C   0  0  0  0  0  0  0  0  0  0  0  0
   10.1192    4.9707   23.1599 C   0  0  0  0  0  0  0  0  0  0  0  0
    4.0194    4.4866   22.8317 C   0  0  0  0  0  0  0  0  0  0  0  0
    2.9188    3.4653   23.0408 C   0  0  0  0  0  0  0  0  0  0  0  0
    6.3062    0.3769   17.3421 N   0  0  0  0  0  0  0  0  0  0  0  0
    7.2292   -0.6897   20.7790 N   0  0  0  0  0  0  0  0  0  0  0  0
    8.6609    1.0133   24.4995 N   0  0  0  0  0  0  0  0  0  0  0  0
    9.6069    3.9231   24.0138 N   0  0  0  0  0  0  0  0  0  0  0  0
    3.4953    5.8495   23.1523 N   0  3  0  0  0  0  0  0  0  0  0  0
   10.3214    0.7303   26.1092 O   0  0  0  0  0  0  0  0  0  0  0  0
    8.8193    1.0411   21.0780 O   0  0  0  0  0  0  0  0  0  0  0  0
    7.6637    3.4490   22.8214 O   0  0  0  0  0  0  0  0  0  0  0  0
    3.4227    2.1582   22.7714 O   0  0  0  0  0  0  0  0  0  0  0  0
   13.4266   -2.1450   21.1115 Cl  0  0  0  0  0  0  0  0  0  0  0  0
    3.3406    2.9746   18.3368 H   0  0  0  0  0  0  0  0  0  0  0  0
   12.5168    0.5969   24.9717 H   0  0  0  0  0  0  0  0  0  0  0  0
    2.5407    3.3506   20.6306 H   0  0  0  0  0  0  0  0  0  0  0  0
   13.9905   -0.5223   23.3823 H   0  0  0  0  0  0  0  0  0  0  0  0
    5.3162    0.4858   22.1535 H   0  0  0  0  0  0  0  0  0  0  0  0
   10.6130   -2.0239   21.2265 H   0  0  0  0  0  0  0  0  0  0  0  0
    4.9131    1.7514   16.7479 H   0  0  0  0  0  0  0  0  0  0  0  0
    7.6448   -0.9758   18.1041 H   0  0  0  0  0  0  0  0  0  0  0  0
    2.0834    8.2347   23.1566 H   0  0  0  0  0  0  0  0  0  0  0  0
    1.9470    8.2288   21.3854 H   0  0  0  0  0  0  0  0  0  0  0  0
    4.3210    7.7784   21.1240 H   0  0  0  0  0  0  0  0  0  0  0  0
    4.2770    9.0000   22.4092 H   0  0  0  0  0  0  0  0  0  0  0  0
    8.0542    3.7249   26.4335 H   0  0  0  0  0  0  0  0  0  0  0  0
    8.2388    2.0049   26.9919 H   0  0  0  0  0  0  0  0  0  0  0  0
    6.2266    1.3540   25.6549 H   0  0  0  0  0  0  0  0  0  0  0  0
    6.0407    3.0736   25.0964 H   0  0  0  0  0  0  0  0  0  0  0  0
    7.5107   -2.5270   23.3391 H   0  0  0  0  0  0  0  0  0  0  0  0
    8.7577   -2.9105   22.1439 H   0  0  0  0  0  0  0  0  0  0  0  0
    7.0584   -2.7260   20.5727 H   0  0  0  0  0  0  0  0  0  0  0  0
    5.9514   -1.9960   21.7715 H   0  0  0  0  0  0  0  0  0  0  0  0
    6.9260    0.3245   23.5638 H   0  0  0  0  0  0  0  0  0  0  0  0
    7.6512   -0.8549   24.6568 H   0  0  0  0  0  0  0  0  0  0  0  0
    1.4088    5.9314   22.7267 H   0  0  0  0  0  0  0  0  0  0  0  0
    2.4847    5.8371   21.2848 H   0  0  0  0  0  0  0  0  0  0  0  0
    5.4948    6.5364   22.7656 H   0  0  0  0  0  0  0  0  0  0  0  0
    4.6353    7.3415   24.1202 H   0  0  0  0  0  0  0  0  0  0  0  0
   10.7641    4.5304   22.3851 H   0  0  0  0  0  0  0  0  0  0  0  0
    9.2800    5.4976   22.6824 H   0  0  0  0  0  0  0  0  0  0  0  0
   10.7034    5.6817   23.7625 H   0  0  0  0  0  0  0  0  0  0  0  0
    4.3562    4.5226   21.7919 H   0  0  0  0  0  0  0  0  0  0  0  0
    4.8664    4.3111   23.5002 H   0  0  0  0  0  0  0  0  0  0  0  0
    2.5823    3.4895   24.0820 H   0  0  0  0  0  0  0  0  0  0  0  0
    2.0601    3.6570   22.3891 H   0  0  0  0  0  0  0  0  0  0  0  0
   10.1432    3.6642   24.8364 H   0  0  0  0  0  0  0  0  0  0  0  0
    3.1408    5.8205   24.1191 H   0  0  0  0  0  0  0  0  0  0  0  0
  1  3  2  0  0  0  0
  1  9  1  0  0  0  0
  2  4  2  0  0  0  0
  2 11  1  0  0  0  0
  3 14  1  0  0  0  0
  4 15  1  0  0  0  0
  5 10  1  0  0  0  0
  5 14  2  0  0  0  0
  6 12  1  0  0  0  0
  6 15  2  0  0  0  0
  7  9  2  0  0  0  0
  7 33  1  0  0  0  0
  8 13  1  0  0  0  0
  8 33  2  0  0  0  0
  9 10  1  0  0  0  0
 10 13  2  0  0  0  0
 11 12  2  0  0  0  0
 11 16  1  0  0  0  0
 12 28  1  0  0  0  0
 13 34  1  0  0  0  0
 14 41  1  0  0  0  0
 15 42  1  0  0  0  0
 16 35  1  0  0  0  0
 16 38  2  0  0  0  0
 17 28  1  0  0  0  0
 17 34  1  0  0  0  0
 17 39  2  0  0  0  0
 18 29  1  0  0  0  0
 18 36  1  0  0  0  0
 18 40  2  0  0  0  0
 19 20  1  0  0  0  0
 19 26  1  0  0  0  0
 20 27  1  0  0  0  0
 21 22  1  0  0  0  0
 21 29  1  0  0  0  0
 22 29  1  0  0  0  0
 23 24  1  0  0  0  0
 23 28  1  0  0  0  0
 24 34  1  0  0  0  0
 25 28  1  0  0  0  0
 25 35  1  0  0  0  0
 26 37  1  0  0  0  0
 27 37  1  0  0  0  0
 29 35  1  0  0  0  0
 30 36  1  0  0  0  0
 31 32  1  0  0  0  0
 31 37  1  0  0  0  0
 32 41  1  0  0  0  0
  1 43  1  0  0  0  0
  2 44  1  0  0  0  0
  3 45  1  0  0  0  0
  4 46  1  0  0  0  0
  5 47  1  0  0  0  0
  6 48  1  0  0  0  0
  7 49  1  0  0  0  0
  8 50  1  0  0  0  0
 19 51  1  0  0  0  0
 19 52  1  0  0  0  0
 20 53  1  0  0  0  0
 20 54  1  0  0  0  0
 21 55  1  0  0  0  0
 21 56  1  0  0  0  0
 22 57  1  0  0  0  0
 22 58  1  0  0  0  0
 23 59  1  0  0  0  0
 23 60  1  0  0  0  0
 24 61  1  0  0  0  0
 24 62  1  0  0  0  0
 25 63  1  0  0  0  0
 25 64  1  0  0  0  0
 26 65  1  0  0  0  0
 26 66  1  0  0  0  0
 27 67  1  0  0  0  0
 27 68  1  0  0  0  0
 30 69  1  0  0  0  0
 30 70  1  0  0  0  0
 30 71  1  0  0  0  0
 31 72  1  0  0  0  0
 31 73  1  0  0  0  0
 32 74  1  0  0  0  0
 32 75  1  0  0  0  0
 36 76  1  0  0  0  0
 37 77  1  0  0  0  0
M  CHG  1  37   1
M  END
> <compound>
EDJ-MED-dfa1d800-1

> <compound_smiles>
CNC(=O)C1(CC1)N2CC3(CCN(C3=O)c4cncc5c4cc(cc5)OCCN6CCCC6)c7cc(ccc7C2=O)Cl

> <enantiomer_smiles>
CNC(=O)C1(CC1)N2CC3(CCN(C3=O)c4cncc5c4cc(cc5)OCCN6CCCC6)c7cc(ccc7C2=O)Cl

> <scaffold>
tetrahydroisoquinoline-5spiro-isoquinoline

> <clash_score>
0

> <docking_score>
-7.950547218322754

> <overlap_score>
0.9887630939483643

> <MMFF_internal_energy>
187.74414036674185

> <docked_smiles>
CNC(=O)C1(CC1)N2C[C@]3(CCN(C3=O)c4cncc5c4cc(cc5)OCC[NH+]6CCCC6)c7cc(ccc7C2=O)Cl

$$$$
MAT-POS-38eb6498-1_1
  -OEChem-12272114583D

 74 79  0     1  0  0  0  0  0999 V2000
    7.0479    5.4398   23.9932 C   0  0  0  0  0  0  0  0  0  0  0  0
    3.7865    2.4205   19.1660 C   0  0  0  0  0  0  0  0  0  0  0  0
   12.0765    0.0316   24.1541 C   0  0  0  0  0  0  0  0  0  0  0  0
    3.3432    2.6279   20.4411 C   0  0  0  0  0  0  0  0  0  0  0  0
   12.9132   -0.6032   23.2569 C   0  0  0  0  0  0  0  0  0  0  0  0
    4.8973    1.0233   21.2988 C   0  0  0  0  0  0  0  0  0  0  0  0
   10.9991   -1.4331   22.0443 C   0  0  0  0  0  0  0  0  0  0  0  0
    5.3278    1.2339   17.6066 C   0  0  0  0  0  0  0  0  0  0  0  0
    6.8438   -0.2892   18.3752 C   0  0  0  0  0  0  0  0  0  0  0  0
    4.8226    1.4906   18.9054 C   0  0  0  0  0  0  0  0  0  0  0  0
    5.3982    0.7733   19.9948 C   0  0  0  0  0  0  0  0  0  0  0  0
   10.7040   -0.0625   23.9898 C   0  0  0  0  0  0  0  0  0  0  0  0
   10.1406   -0.7765   22.9250 C   0  0  0  0  0  0  0  0  0  0  0  0
    6.4440   -0.1472   19.6979 C   0  0  0  0  0  0  0  0  0  0  0  0
    3.8960    1.9291   21.5050 C   0  0  0  0  0  0  0  0  0  0  0  0
   12.3683   -1.3298   22.2234 C   0  0  0  0  0  0  0  0  0  0  0  0
    8.2490    0.0169   21.4271 C   0  0  0  0  0  0  0  0  0  0  0  0
    9.9479    0.5589   24.9534 C   0  0  0  0  0  0  0  0  0  0  0  0
    9.5590    5.6516   23.9183 C   0  0  0  0  0  0  0  0  0  0  0  0
    9.1166    6.0674   25.2901 C   0  0  0  0  0  0  0  0  0  0  0  0
    8.0140   -2.1541   22.4331 C   0  0  0  0  0  0  0  0  0  0  0  0
    6.9866   -1.9366   21.3580 C   0  0  0  0  0  0  0  0  0  0  0  0
    7.8721   -0.1194   23.8831 C   0  0  0  0  0  0  0  0  0  0  0  0
    8.3214    5.0316   24.5273 C   0  0  0  0  0  0  0  0  0  0  0  0
    8.6238   -0.7606   22.6929 C   0  0  3  0  0  0  0  0  0  0  0  0
    3.0746   -0.0466   26.3205 C   0  0  0  0  0  0  0  0  0  0  0  0
    0.7859   -0.7769   25.6654 C   0  0  0  0  0  0  0  0  0  0  0  0
    8.3989    3.5932   24.9882 C   0  0  0  0  0  0  0  0  0  0  0  0
    2.0789    0.7474   24.1804 C   0  0  0  0  0  0  0  0  0  0  0  0
    3.4781    1.0738   23.6967 C   0  0  0  0  0  0  0  0  0  0  0  0
    6.0219    5.7688   23.5627 N   0  0  0  0  0  0  0  0  0  0  0  0
    6.3062    0.3769   17.3421 N   0  0  0  0  0  0  0  0  0  0  0  0
    7.2292   -0.6897   20.7790 N   0  0  0  0  0  0  0  0  0  0  0  0
    8.6609    1.0133   24.4995 N   0  0  1  0  0  0  0  0  0  0  0  0
    2.1478   -0.3563   25.1710 N   0  3  0  0  0  0  0  0  0  0  0  0
    8.7572    1.0941   21.1350 O   0  0  0  0  0  0  0  0  0  0  0  0
    7.4179    2.5201   22.8172 O   0  0  0  0  0  0  0  0  0  0  0  0
    9.9251    2.7322   23.0499 O   0  0  0  0  0  0  0  0  0  0  0  0
    3.4227    2.1582   22.7714 O   0  0  0  0  0  0  0  0  0  0  0  0
    8.6198    2.4832   23.6217 S   0  0  0  0  0  0  0  0  0  0  0  0
   13.4275   -2.1421   21.1097 Cl  0  0  0  0  0  0  0  0  0  0  0  0
    3.3406    2.9746   18.3368 H   0  0  0  0  0  0  0  0  0  0  0  0
   12.5015    0.5938   24.9776 H   0  0  0  0  0  0  0  0  0  0  0  0
    2.5407    3.3506   20.6306 H   0  0  0  0  0  0  0  0  0  0  0  0
   13.9911   -0.5212   23.3814 H   0  0  0  0  0  0  0  0  0  0  0  0
    5.3162    0.4858   22.1535 H   0  0  0  0  0  0  0  0  0  0  0  0
   10.6037   -2.0228   21.2288 H   0  0  0  0  0  0  0  0  0  0  0  0
    4.9131    1.7514   16.7479 H   0  0  0  0  0  0  0  0  0  0  0  0
    7.6448   -0.9758   18.1041 H   0  0  0  0  0  0  0  0  0  0  0  0
    9.7581   -0.1287   25.8173 H   0  0  0  0  0  0  0  0  0  0  0  0
   10.4931    1.4391   25.3829 H   0  0  0  0  0  0  0  0  0  0  0  0
    9.4456    6.3705   23.1147 H   0  0  0  0  0  0  0  0  0  0  0  0
   10.4563    5.0485   23.8406 H   0  0  0  0  0  0  0  0  0  0  0  0
    9.7183    5.7435   26.1315 H   0  0  0  0  0  0  0  0  0  0  0  0
    8.7081    7.0651   25.4044 H   0  0  0  0  0  0  0  0  0  0  0  0
    7.5801   -2.6060   23.3366 H   0  0  0  0  0  0  0  0  0  0  0  0
    8.7749   -2.8608   22.0657 H   0  0  0  0  0  0  0  0  0  0  0  0
    7.0227   -2.7506   20.5953 H   0  0  0  0  0  0  0  0  0  0  0  0
    5.9554   -1.9484   21.7832 H   0  0  0  0  0  0  0  0  0  0  0  0
    6.8886    0.2769   23.5666 H   0  0  0  0  0  0  0  0  0  0  0  0
    7.6579   -0.8710   24.6633 H   0  0  0  0  0  0  0  0  0  0  0  0
    2.6772    0.8248   26.8443 H   0  0  0  0  0  0  0  0  0  0  0  0
    3.0993   -0.9203   26.9745 H   0  0  0  0  0  0  0  0  0  0  0  0
    4.0628    0.1616   25.9061 H   0  0  0  0  0  0  0  0  0  0  0  0
    0.3368    0.0779   26.1743 H   0  0  0  0  0  0  0  0  0  0  0  0
    0.1927   -1.0738   24.7984 H   0  0  0  0  0  0  0  0  0  0  0  0
    0.9237   -1.6144   26.3520 H   0  0  0  0  0  0  0  0  0  0  0  0
    7.4792    3.2960   25.4995 H   0  0  0  0  0  0  0  0  0  0  0  0
    9.2447    3.4440   25.6648 H   0  0  0  0  0  0  0  0  0  0  0  0
    1.4346    0.3946   23.3702 H   0  0  0  0  0  0  0  0  0  0  0  0
    1.6184    1.5979   24.6899 H   0  0  0  0  0  0  0  0  0  0  0  0
    4.1008    1.3828   24.5421 H   0  0  0  0  0  0  0  0  0  0  0  0
    3.9485    0.2137   23.2093 H   0  0  0  0  0  0  0  0  0  0  0  0
    2.5478   -1.1828   24.6951 H   0  0  0  0  0  0  0  0  0  0  0  0
  1 24  1  0  0  0  0
  1 31  3  0  0  0  0
  2  4  2  0  0  0  0
  2 10  1  0  0  0  0
  3  5  1  0  0  0  0
  3 12  2  0  0  0  0
  4 15  1  0  0  0  0
  5 16  2  0  0  0  0
  6 11  1  0  0  0  0
  6 15  2  0  0  0  0
  7 13  2  0  0  0  0
  7 16  1  0  0  0  0
  8 10  1  0  0  0  0
  8 32  2  0  0  0  0
  9 14  2  0  0  0  0
  9 32  1  0  0  0  0
 10 11  2  0  0  0  0
 11 14  1  0  0  0  0
 12 13  1  0  0  0  0
 12 18  1  0  0  0  0
 13 25  1  0  0  0  0
 14 33  1  0  0  0  0
 15 39  1  0  0  0  0
 16 41  1  0  0  0  0
 17 25  1  0  0  0  0
 17 33  1  0  0  0  0
 17 36  2  0  0  0  0
 18 34  1  0  0  0  0
 19 20  1  0  0  0  0
 19 24  1  0  0  0  0
 20 24  1  0  0  0  0
 21 22  1  0  0  0  0
 21 25  1  0  0  0  0
 22 33  1  0  0  0  0
 23 25  1  0  0  0  0
 23 34  1  0  0  0  0
 24 28  1  0  0  0  0
 26 35  1  0  0  0  0
 27 35  1  0  0  0  0
 28 40  1  0  0  0  0
 29 30  1  0  0  0  0
 29 35  1  0  0  0  0
 30 39  1  0  0  0  0
 34 40  1  1  0  0  0
 37 40  2  0  0  0  0
 38 40  2  0  0  0  0
  2 42  1  0  0  0  0
  3 43  1  0  0  0  0
  4 44  1  0  0  0  0
  5 45  1  0  0  0  0
  6 46  1  0  0  0  0
  7 47  1  0  0  0  0
  8 48  1  0  0  0  0
  9 49  1  0  0  0  0
 18 50  1  0  0  0  0
 18 51  1  0  0  0  0
 19 52  1  0  0  0  0
 19 53  1  0  0  0  0
 20 54  1  0  0  0  0
 20 55  1  0  0  0  0
 21 56  1  0  0  0  0
 21 57  1  0  0  0  0
 22 58  1  0  0  0  0
 22 59  1  0  0  0  0
 23 60  1  0  0  0  0
 23 61  1  0  0  0  0
 26 62  1  0  0  0  0
 26 63  1  0  0  0  0
 26 64  1  0  0  0  0
 27 65  1  0  0  0  0
 27 66  1  0  0  0  0
 27 67  1  0  0  0  0
 28 68  1  0  0  0  0
 28 69  1  0  0  0  0
 29 70  1  0  0  0  0
 29 71  1  0  0  0  0
 30 72  1  0  0  0  0
 30 73  1  0  0  0  0
 35 74  1  0  0  0  0
M  CHG  1  35   1
M  END
> <compound>
MAT-POS-38eb6498-1

> <compound_smiles>
CN(C)CCOc1ccc2cncc(c2c1)N3CCC4(C3=O)CN(Cc5c4cc(cc5)Cl)S(=O)(=O)CC6(CC6)C#N

> <enantiomer_smiles>
CN(C)CCOc1ccc2cncc(c2c1)N3CCC4(C3=O)C[N@@](Cc5c4cc(cc5)Cl)S(=O)(=O)CC6(CC6)C#N

> <scaffold>
tetrahydroisoquinoline-5spiro-isoquinoline

> <clash_score>
0

> <docking_score>
-8.124106407165527

> <overlap_score>
0.9769473671913147

> <MMFF_internal_energy>
172.49025605251435

> <docked_smiles>
C[NH+](C)CCOc1ccc2cncc(c2c1)N3CC[C@@]4(C3=O)C[N@@](Cc5c4cc(cc5)Cl)S(=O)(=O)CC6(CC6)C#N

$$$$
LUO-POS-8484f2d3-1_2
  -OEChem-12272114583D

 74 79  0     1  0  0  0  0  0999 V2000
    8.7500    5.6666   25.0560 C   0  0  0  0  0  0  0  0  0  0  0  0
    3.7865    2.4205   19.1660 C   0  0  0  0  0  0  0  0  0  0  0  0
   12.0765    0.0316   24.1541 C   0  0  0  0  0  0  0  0  0  0  0  0
    3.3432    2.6279   20.4411 C   0  0  0  0  0  0  0  0  0  0  0  0
   12.9132   -0.6032   23.2569 C   0  0  0  0  0  0  0  0  0  0  0  0
    4.8973    1.0233   21.2988 C   0  0  0  0  0  0  0  0  0  0  0  0
   10.9991   -1.4331   22.0443 C   0  0  0  0  0  0  0  0  0  0  0  0
    5.3278    1.2339   17.6066 C   0  0  0  0  0  0  0  0  0  0  0  0
    6.8438   -0.2892   18.3752 C   0  0  0  0  0  0  0  0  0  0  0  0
    4.8226    1.4906   18.9054 C   0  0  0  0  0  0  0  0  0  0  0  0
    5.3982    0.7733   19.9948 C   0  0  0  0  0  0  0  0  0  0  0  0
   10.7040   -0.0625   23.9898 C   0  0  0  0  0  0  0  0  0  0  0  0
   10.1406   -0.7765   22.9250 C   0  0  0  0  0  0  0  0  0  0  0  0
    6.4440   -0.1472   19.6979 C   0  0  0  0  0  0  0  0  0  0  0  0
    3.8960    1.9291   21.5050 C   0  0  0  0  0  0  0  0  0  0  0  0
   12.3683   -1.3298   22.2234 C   0  0  0  0  0  0  0  0  0  0  0  0
    8.2490    0.0169   21.4271 C   0  0  0  0  0  0  0  0  0  0  0  0
    9.9479    0.5589   24.9534 C   0  0  0  0  0  0  0  0  0  0  0  0
    6.6038    5.1905   23.8218 C   0  0  0  0  0  0  0  0  0  0  0  0
    7.5920    5.7047   22.8170 C   0  0  0  0  0  0  0  0  0  0  0  0
    8.0140   -2.1541   22.4331 C   0  0  0  0  0  0  0  0  0  0  0  0
    6.9866   -1.9366   21.3580 C   0  0  0  0  0  0  0  0  0  0  0  0
    7.8721   -0.1194   23.8831 C   0  0  0  0  0  0  0  0  0  0  0  0
    8.0798    4.9263   24.0184 C   0  0  0  0  0  0  0  0  0  0  0  0
    8.6238   -0.7606   22.6929 C   0  0  2  0  0  0  0  0  0  0  0  0
    0.6683    0.8088   24.2536 C   0  0  0  0  0  0  0  0  0  0  0  0
    0.8953    2.3975   26.1575 C   0  0  0  0  0  0  0  0  0  0  0  0
    8.5868    3.5188   23.7968 C   0  0  0  0  0  0  0  0  0  0  0  0
    2.9292    1.5046   25.0321 C   0  0  0  0  0  0  0  0  0  0  0  0
    3.4821    1.0681   23.6897 C   0  0  0  0  0  0  0  0  0  0  0  0
    9.2899    6.2631   25.8920 N   0  0  0  0  0  0  0  0  0  0  0  0
    6.3062    0.3769   17.3421 N   0  0  0  0  0  0  0  0  0  0  0  0
    7.2292   -0.6897   20.7790 N   0  0  0  0  0  0  0  0  0  0  0  0
    8.6609    1.0133   24.4995 N   0  0  2  0  0  0  0  0  0  0  0  0
    1.5072    1.9000   24.8713 N   0  3  0  0  0  0  0  0  0  0  0  0
    8.7495    1.0905   21.1251 O   0  0  0  0  0  0  0  0  0  0  0  0
    8.5137    2.7467   26.2919 O   0  0  0  0  0  0  0  0  0  0  0  0
    6.5109    2.3027   24.8164 O   0  0  0  0  0  0  0  0  0  0  0  0
    3.4227    2.1582   22.7714 O   0  0  0  0  0  0  0  0  0  0  0  0
    7.9416    2.3963   25.0101 S   0  0  0  0  0  0  0  0  0  0  0  0
   13.4272   -2.1412   21.1088 Cl  0  0  0  0  0  0  0  0  0  0  0  0
    3.3406    2.9746   18.3368 H   0  0  0  0  0  0  0  0  0  0  0  0
   12.5021    0.5986   24.9741 H   0  0  0  0  0  0  0  0  0  0  0  0
    2.5407    3.3506   20.6306 H   0  0  0  0  0  0  0  0  0  0  0  0
   13.9910   -0.5165   23.3784 H   0  0  0  0  0  0  0  0  0  0  0  0
    5.3162    0.4858   22.1535 H   0  0  0  0  0  0  0  0  0  0  0  0
   10.6039   -2.0167   21.2244 H   0  0  0  0  0  0  0  0  0  0  0  0
    4.9131    1.7514   16.7479 H   0  0  0  0  0  0  0  0  0  0  0  0
    7.6448   -0.9758   18.1041 H   0  0  0  0  0  0  0  0  0  0  0  0
    9.7844   -0.1186   25.8311 H   0  0  0  0  0  0  0  0  0  0  0  0
   10.4795    1.4569   25.3609 H   0  0  0  0  0  0  0  0  0  0  0  0
    6.1106    5.9167   24.4580 H   0  0  0  0  0  0  0  0  0  0  0  0
    5.9652    4.3672   23.5231 H   0  0  0  0  0  0  0  0  0  0  0  0
    7.6146    5.2263   21.8446 H   0  0  0  0  0  0  0  0  0  0  0  0
    7.7591    6.7752   22.7804 H   0  0  0  0  0  0  0  0  0  0  0  0
    7.5152   -2.5458   23.3338 H   0  0  0  0  0  0  0  0  0  0  0  0
    8.7651   -2.9029   22.1433 H   0  0  0  0  0  0  0  0  0  0  0  0
    7.0587   -2.7249   20.5720 H   0  0  0  0  0  0  0  0  0  0  0  0
    5.9516   -1.9961   21.7713 H   0  0  0  0  0  0  0  0  0  0  0  0
    6.8866    0.2645   23.5647 H   0  0  0  0  0  0  0  0  0  0  0  0
    7.6651   -0.8656   24.6736 H   0  0  0  0  0  0  0  0  0  0  0  0
    0.6844   -0.0480   24.9298 H   0  0  0  0  0  0  0  0  0  0  0  0
   -0.3457    1.1947   24.1328 H   0  0  0  0  0  0  0  0  0  0  0  0
    1.1093    0.5547   23.2878 H   0  0  0  0  0  0  0  0  0  0  0  0
    0.9165    1.5767   26.8768 H   0  0  0  0  0  0  0  0  0  0  0  0
    1.4928    3.2416   26.5073 H   0  0  0  0  0  0  0  0  0  0  0  0
   -0.1300    2.7046   25.9428 H   0  0  0  0  0  0  0  0  0  0  0  0
    9.6772    3.4797   23.8691 H   0  0  0  0  0  0  0  0  0  0  0  0
    8.2829    3.1431   22.8160 H   0  0  0  0  0  0  0  0  0  0  0  0
    3.4502    2.3813   25.4270 H   0  0  0  0  0  0  0  0  0  0  0  0
    2.9479    0.6903   25.7613 H   0  0  0  0  0  0  0  0  0  0  0  0
    4.5309    0.7743   23.7976 H   0  0  0  0  0  0  0  0  0  0  0  0
    2.9210    0.2236   23.2765 H   0  0  0  0  0  0  0  0  0  0  0  0
    1.4737    2.6956   24.2115 H   0  0  0  0  0  0  0  0  0  0  0  0
  1 24  1  0  0  0  0
  1 31  3  0  0  0  0
  2  4  2  0  0  0  0
  2 10  1  0  0  0  0
  3  5  1  0  0  0  0
  3 12  2  0  0  0  0
  4 15  1  0  0  0  0
  5 16  2  0  0  0  0
  6 11  1  0  0  0  0
  6 15  2  0  0  0  0
  7 13  2  0  0  0  0
  7 16  1  0  0  0  0
  8 10  1  0  0  0  0
  8 32  2  0  0  0  0
  9 14  2  0  0  0  0
  9 32  1  0  0  0  0
 10 11  2  0  0  0  0
 11 14  1  0  0  0  0
 12 13  1  0  0  0  0
 12 18  1  0  0  0  0
 13 25  1  1  0  0  0
 14 33  1  0  0  0  0
 15 39  1  0  0  0  0
 16 41  1  0  0  0  0
 17 25  1  6  0  0  0
 17 33  1  0  0  0  0
 17 36  2  0  0  0  0
 18 34  1  0  0  0  0
 19 20  1  0  0  0  0
 19 24  1  0  0  0  0
 20 24  1  0  0  0  0
 21 22  1  0  0  0  0
 21 25  1  6  0  0  0
 22 33  1  0  0  0  0
 23 25  1  1  0  0  0
 23 34  1  0  0  0  0
 24 28  1  0  0  0  0
 26 35  1  0  0  0  0
 27 35  1  0  0  0  0
 28 40  1  0  0  0  0
 29 30  1  0  0  0  0
 29 35  1  0  0  0  0
 30 39  1  0  0  0  0
 34 40  1  6  0  0  0
 37 40  2  0  0  0  0
 38 40  2  0  0  0  0
  2 42  1  0  0  0  0
  3 43  1  0  0  0  0
  4 44  1  0  0  0  0
  5 45  1  0  0  0  0
  6 46  1  0  0  0  0
  7 47  1  0  0  0  0
  8 48  1  0  0  0  0
  9 49  1  0  0  0  0
 18 50  1  0  0  0  0
 18 51  1  0  0  0  0
 19 52  1  0  0  0  0
 19 53  1  0  0  0  0
 20 54  1  0  0  0  0
 20 55  1  0  0  0  0
 21 56  1  0  0  0  0
 21 57  1  0  0  0  0
 22 58  1  0  0  0  0
 22 59  1  0  0  0  0
 23 60  1  0  0  0  0
 23 61  1  0  0  0  0
 26 62  1  0  0  0  0
 26 63  1  0  0  0  0
 26 64  1  0  0  0  0
 27 65  1  0  0  0  0
 27 66  1  0  0  0  0
 27 67  1  0  0  0  0
 28 68  1  0  0  0  0
 28 69  1  0  0  0  0
 29 70  1  0  0  0  0
 29 71  1  0  0  0  0
 30 72  1  0  0  0  0
 30 73  1  0  0  0  0
 35 74  1  0  0  0  0
M  CHG  1  35   1
M  END
> <compound>
LUO-POS-8484f2d3-1

> <compound_smiles>
CN(C)CCOc1ccc2cncc(c2c1)N3CC[C@]4(C3=O)CN(Cc5c4cc(cc5)Cl)S(=O)(=O)CC6(CC6)C#N

> <enantiomer_smiles>
CN(C)CCOc1ccc2cncc(c2c1)N3CC[C@]4(C3=O)C[N@](Cc5c4cc(cc5)Cl)S(=O)(=O)CC6(CC6)C#N

> <scaffold>
tetrahydroisoquinoline-5spiro-isoquinoline

> <clash_score>
0

> <docking_score>
-7.6888580322265625

> <overlap_score>
0.9740931987762451

> <MMFF_internal_energy>
138.2293265075648

> <docked_smiles>
C[NH+](C)CCOc1ccc2cncc(c2c1)N3CC[C@@]4(C3=O)C[N@](Cc5c4cc(cc5)Cl)S(=O)(=O)CC6(CC6)C#N

$$$$
EDJ-MED-ee81482e-2_1
  -OEChem-12272114583D

 72 78  0     1  0  0  0  0  0999 V2000
    9.5881    5.6615   24.2579 C   0  0  0  0  0  0  0  0  0  0  0  0
    3.7865    2.4205   19.1660 C   0  0  0  0  0  0  0  0  0  0  0  0
   12.0765    0.0316   24.1541 C   0  0  0  0  0  0  0  0  0  0  0  0
    3.3432    2.6279   20.4411 C   0  0  0  0  0  0  0  0  0  0  0  0
   12.9132   -0.6032   23.2569 C   0  0  0  0  0  0  0  0  0  0  0  0
    4.8973    1.0233   21.2988 C   0  0  0  0  0  0  0  0  0  0  0  0
   10.9991   -1.4331   22.0443 C   0  0  0  0  0  0  0  0  0  0  0  0
    5.3278    1.2339   17.6066 C   0  0  0  0  0  0  0  0  0  0  0  0
    6.8438   -0.2892   18.3752 C   0  0  0  0  0  0  0  0  0  0  0  0
    4.8226    1.4906   18.9054 C   0  0  0  0  0  0  0  0  0  0  0  0
    5.3982    0.7733   19.9948 C   0  0  0  0  0  0  0  0  0  0  0  0
   10.7040   -0.0625   23.9898 C   0  0  0  0  0  0  0  0  0  0  0  0
   10.1406   -0.7765   22.9250 C   0  0  0  0  0  0  0  0  0  0  0  0
    6.4440   -0.1472   19.6979 C   0  0  0  0  0  0  0  0  0  0  0  0
    3.8960    1.9291   21.5050 C   0  0  0  0  0  0  0  0  0  0  0  0
   12.3683   -1.3298   22.2234 C   0  0  0  0  0  0  0  0  0  0  0  0
    8.2490    0.0169   21.4271 C   0  0  0  0  0  0  0  0  0  0  0  0
    9.9479    0.5589   24.9534 C   0  0  0  0  0  0  0  0  0  0  0  0
    7.2213    5.9018   25.0923 C   0  0  0  0  0  0  0  0  0  0  0  0
    7.1474    5.4411   23.6665 C   0  0  0  0  0  0  0  0  0  0  0  0
    8.0140   -2.1541   22.4331 C   0  0  0  0  0  0  0  0  0  0  0  0
    6.9866   -1.9366   21.3580 C   0  0  0  0  0  0  0  0  0  0  0  0
    7.8721   -0.1194   23.8831 C   0  0  0  0  0  0  0  0  0  0  0  0
    3.6949   -0.0889   23.9000 C   0  0  0  0  0  0  0  0  0  0  0  0
    3.3114    1.4955   25.2058 C   0  0  0  0  0  0  0  0  0  0  0  0
    4.0226    1.4138   23.8438 C   0  0  0  0  0  0  0  0  0  0  0  0
    8.3214    5.0316   24.5273 C   0  0  0  0  0  0  0  0  0  0  0  0
    8.6238   -0.7606   22.6929 C   0  0  3  0  0  0  0  0  0  0  0  0
    2.3463   -0.6556   25.8615 C   0  0  0  0  0  0  0  0  0  0  0  0
    8.3989    3.5932   24.9882 C   0  0  0  0  0  0  0  0  0  0  0  0
   10.6086    6.1691   24.0409 N   0  0  0  0  0  0  0  0  0  0  0  0
    6.3062    0.3769   17.3421 N   0  0  0  0  0  0  0  0  0  0  0  0
    7.2292   -0.6897   20.7790 N   0  0  0  0  0  0  0  0  0  0  0  0
    8.6609    1.0133   24.4995 N   0  0  1  0  0  0  0  0  0  0  0  0
    3.5473    0.0481   25.3607 N   0  3  0  0  0  0  0  0  0  0  0  0
    8.7572    1.0941   21.1350 O   0  0  0  0  0  0  0  0  0  0  0  0
    7.4179    2.5201   22.8172 O   0  0  0  0  0  0  0  0  0  0  0  0
    9.9251    2.7322   23.0499 O   0  0  0  0  0  0  0  0  0  0  0  0
    3.4227    2.1582   22.7714 O   0  0  0  0  0  0  0  0  0  0  0  0
    8.6198    2.4832   23.6217 S   0  0  0  0  0  0  0  0  0  0  0  0
   13.4275   -2.1421   21.1097 Cl  0  0  0  0  0  0  0  0  0  0  0  0
    3.3406    2.9746   18.3368 H   0  0  0  0  0  0  0  0  0  0  0  0
   12.5015    0.5938   24.9776 H   0  0  0  0  0  0  0  0  0  0  0  0
    2.5407    3.3506   20.6306 H   0  0  0  0  0  0  0  0  0  0  0  0
   13.9911   -0.5212   23.3814 H   0  0  0  0  0  0  0  0  0  0  0  0
    5.3162    0.4858   22.1535 H   0  0  0  0  0  0  0  0  0  0  0  0
   10.6037   -2.0228   21.2288 H   0  0  0  0  0  0  0  0  0  0  0  0
    4.9131    1.7514   16.7479 H   0  0  0  0  0  0  0  0  0  0  0  0
    7.6448   -0.9758   18.1041 H   0  0  0  0  0  0  0  0  0  0  0  0
    9.7581   -0.1287   25.8173 H   0  0  0  0  0  0  0  0  0  0  0  0
   10.4931    1.4391   25.3829 H   0  0  0  0  0  0  0  0  0  0  0  0
    7.4214    6.9523   25.2708 H   0  0  0  0  0  0  0  0  0  0  0  0
    6.5254    5.4641   25.7988 H   0  0  0  0  0  0  0  0  0  0  0  0
    6.4012    4.6953   23.4178 H   0  0  0  0  0  0  0  0  0  0  0  0
    7.2972    6.1838   22.8911 H   0  0  0  0  0  0  0  0  0  0  0  0
    7.5801   -2.6060   23.3366 H   0  0  0  0  0  0  0  0  0  0  0  0
    8.7749   -2.8608   22.0657 H   0  0  0  0  0  0  0  0  0  0  0  0
    7.0227   -2.7506   20.5953 H   0  0  0  0  0  0  0  0  0  0  0  0
    5.9554   -1.9484   21.7832 H   0  0  0  0  0  0  0  0  0  0  0  0
    6.8886    0.2769   23.5666 H   0  0  0  0  0  0  0  0  0  0  0  0
    7.6579   -0.8710   24.6633 H   0  0  0  0  0  0  0  0  0  0  0  0
    2.7823   -0.3775   23.3665 H   0  0  0  0  0  0  0  0  0  0  0  0
    4.5118   -0.7566   23.6128 H   0  0  0  0  0  0  0  0  0  0  0  0
    3.8213    2.0964   25.9636 H   0  0  0  0  0  0  0  0  0  0  0  0
    2.2574    1.7911   25.1532 H   0  0  0  0  0  0  0  0  0  0  0  0
    5.0970    1.6244   23.9041 H   0  0  0  0  0  0  0  0  0  0  0  0
    1.4993   -0.3516   25.2438 H   0  0  0  0  0  0  0  0  0  0  0  0
    2.5284   -1.7286   25.7776 H   0  0  0  0  0  0  0  0  0  0  0  0
    2.1975   -0.3630   26.9027 H   0  0  0  0  0  0  0  0  0  0  0  0
    7.4792    3.2960   25.4995 H   0  0  0  0  0  0  0  0  0  0  0  0
    9.2447    3.4440   25.6648 H   0  0  0  0  0  0  0  0  0  0  0  0
    4.4049   -0.1753   25.8839 H   0  0  0  0  0  0  0  0  0  0  0  0
  1 27  1  0  0  0  0
  1 31  3  0  0  0  0
  2  4  2  0  0  0  0
  2 10  1  0  0  0  0
  3  5  1  0  0  0  0
  3 12  2  0  0  0  0
  4 15  1  0  0  0  0
  5 16  2  0  0  0  0
  6 11  1  0  0  0  0
  6 15  2  0  0  0  0
  7 13  2  0  0  0  0
  7 16  1  0  0  0  0
  8 10  1  0  0  0  0
  8 32  2  0  0  0  0
  9 14  2  0  0  0  0
  9 32  1  0  0  0  0
 10 11  2  0  0  0  0
 11 14  1  0  0  0  0
 12 13  1  0  0  0  0
 12 18  1  0  0  0  0
 13 28  1  0  0  0  0
 14 33  1  0  0  0  0
 15 39  1  0  0  0  0
 16 41  1  0  0  0  0
 17 28  1  0  0  0  0
 17 33  1  0  0  0  0
 17 36  2  0  0  0  0
 18 34  1  0  0  0  0
 19 20  1  0  0  0  0
 19 27  1  0  0  0  0
 20 27  1  0  0  0  0
 21 22  1  0  0  0  0
 21 28  1  0  0  0  0
 22 33  1  0  0  0  0
 23 28  1  0  0  0  0
 23 34  1  0  0  0  0
 24 26  1  0  0  0  0
 24 35  1  0  0  0  0
 25 26  1  0  0  0  0
 25 35  1  0  0  0  0
 26 39  1  0  0  0  0
 27 30  1  0  0  0  0
 29 35  1  0  0  0  0
 30 40  1  0  0  0  0
 34 40  1  1  0  0  0
 37 40  2  0  0  0  0
 38 40  2  0  0  0  0
  2 42  1  0  0  0  0
  3 43  1  0  0  0  0
  4 44  1  0  0  0  0
  5 45  1  0  0  0  0
  6 46  1  0  0  0  0
  7 47  1  0  0  0  0
  8 48  1  0  0  0  0
  9 49  1  0  0  0  0
 18 50  1  0  0  0  0
 18 51  1  0  0  0  0
 19 52  1  0  0  0  0
 19 53  1  0  0  0  0
 20 54  1  0  0  0  0
 20 55  1  0  0  0  0
 21 56  1  0  0  0  0
 21 57  1  0  0  0  0
 22 58  1  0  0  0  0
 22 59  1  0  0  0  0
 23 60  1  0  0  0  0
 23 61  1  0  0  0  0
 24 62  1  0  0  0  0
 24 63  1  0  0  0  0
 25 64  1  0  0  0  0
 25 65  1  0  0  0  0
 26 66  1  0  0  0  0
 29 67  1  0  0  0  0
 29 68  1  0  0  0  0
 29 69  1  0  0  0  0
 30 70  1  0  0  0  0
 30 71  1  0  0  0  0
 35 72  1  0  0  0  0
M  CHG  1  35   1
M  END
> <compound>
EDJ-MED-ee81482e-2

> <compound_smiles>
CN1CC(C1)Oc2ccc3cncc(c3c2)N4CCC5(C4=O)CN(Cc6c5cc(cc6)Cl)S(=O)(=O)CC7(CC7)C#N

> <enantiomer_smiles>
CN1CC(C1)Oc2ccc3cncc(c3c2)N4CCC5(C4=O)C[N@@](Cc6c5cc(cc6)Cl)S(=O)(=O)CC7(CC7)C#N

> <scaffold>
tetrahydroisoquinoline-5spiro-isoquinoline

> <clash_score>
0

> <docking_score>
-7.972982883453369

> <overlap_score>
0.9766103625297546

> <MMFF_internal_energy>
173.94290733471814

> <docked_smiles>
C[NH+]1CC(C1)Oc2ccc3cncc(c3c2)N4CC[C@@]5(C4=O)C[N@@](Cc6c5cc(cc6)Cl)S(=O)(=O)CC7(CC7)C#N

$$$$
EDJ-MED-ee81482e-2_2
  -OEChem-12272114583D

 72 78  0     1  0  0  0  0  0999 V2000
    6.1279    4.6370   24.8728 C   0  0  0  0  0  0  0  0  0  0  0  0
    3.7865    2.4205   19.1660 C   0  0  0  0  0  0  0  0  0  0  0  0
   12.0765    0.0316   24.1541 C   0  0  0  0  0  0  0  0  0  0  0  0
    3.3432    2.6279   20.4411 C   0  0  0  0  0  0  0  0  0  0  0  0
   12.9132   -0.6032   23.2569 C   0  0  0  0  0  0  0  0  0  0  0  0
    4.8973    1.0233   21.2988 C   0  0  0  0  0  0  0  0  0  0  0  0
   10.9991   -1.4331   22.0443 C   0  0  0  0  0  0  0  0  0  0  0  0
    5.3278    1.2339   17.6066 C   0  0  0  0  0  0  0  0  0  0  0  0
    6.8438   -0.2892   18.3752 C   0  0  0  0  0  0  0  0  0  0  0  0
    4.8226    1.4906   18.9054 C   0  0  0  0  0  0  0  0  0  0  0  0
    5.3982    0.7733   19.9948 C   0  0  0  0  0  0  0  0  0  0  0  0
   10.7040   -0.0625   23.9898 C   0  0  0  0  0  0  0  0  0  0  0  0
   10.1406   -0.7765   22.9250 C   0  0  0  0  0  0  0  0  0  0  0  0
    6.4440   -0.1472   19.6979 C   0  0  0  0  0  0  0  0  0  0  0  0
    3.8960    1.9291   21.5050 C   0  0  0  0  0  0  0  0  0  0  0  0
   12.3683   -1.3298   22.2234 C   0  0  0  0  0  0  0  0  0  0  0  0
    8.2490    0.0169   21.4271 C   0  0  0  0  0  0  0  0  0  0  0  0
    9.9479    0.5589   24.9534 C   0  0  0  0  0  0  0  0  0  0  0  0
    8.0560    6.0960   25.5866 C   0  0  0  0  0  0  0  0  0  0  0  0
    7.6180    5.3147   26.7900 C   0  0  0  0  0  0  0  0  0  0  0  0
    8.0140   -2.1541   22.4331 C   0  0  0  0  0  0  0  0  0  0  0  0
    6.9866   -1.9366   21.3580 C   0  0  0  0  0  0  0  0  0  0  0  0
    7.8721   -0.1194   23.8831 C   0  0  0  0  0  0  0  0  0  0  0  0
    1.9279    1.3617   24.6431 C   0  0  0  0  0  0  0  0  0  0  0  0
    3.7756    0.3505   24.4908 C   0  0  0  0  0  0  0  0  0  0  0  0
    2.8591    1.0339   23.4706 C   0  0  0  0  0  0  0  0  0  0  0  0
    7.4618    4.7167   25.4097 C   0  0  0  0  0  0  0  0  0  0  0  0
    8.6238   -0.7606   22.6929 C   0  0  3  0  0  0  0  0  0  0  0  0
    3.6151    1.9909   26.2935 C   0  0  0  0  0  0  0  0  0  0  0  0
    8.3874    3.5882   25.0137 C   0  0  0  0  0  0  0  0  0  0  0  0
    5.0533    4.5729   24.4401 N   0  0  0  0  0  0  0  0  0  0  0  0
    6.3062    0.3769   17.3421 N   0  0  0  0  0  0  0  0  0  0  0  0
    7.2292   -0.6897   20.7790 N   0  0  0  0  0  0  0  0  0  0  0  0
    8.6609    1.0133   24.4995 N   0  0  2  0  0  0  0  0  0  0  0  0
    2.9432    0.8693   25.5895 N   0  3  0  0  0  0  0  0  0  0  0  0
    8.8299    1.0397   21.0799 O   0  0  0  0  0  0  0  0  0  0  0  0
    8.2407    1.8013   26.9144 O   0  0  0  0  0  0  0  0  0  0  0  0
    6.3653    1.9471   25.2271 O   0  0  0  0  0  0  0  0  0  0  0  0
    3.4227    2.1582   22.7714 O   0  0  0  0  0  0  0  0  0  0  0  0
    7.7708    2.0177   25.5632 S   0  0  0  0  0  0  0  0  0  0  0  0
   13.4272   -2.1411   21.1086 Cl  0  0  0  0  0  0  0  0  0  0  0  0
    3.3406    2.9746   18.3368 H   0  0  0  0  0  0  0  0  0  0  0  0
   12.5024    0.5995   24.9735 H   0  0  0  0  0  0  0  0  0  0  0  0
    2.5407    3.3506   20.6306 H   0  0  0  0  0  0  0  0  0  0  0  0
   13.9910   -0.5177   23.3793 H   0  0  0  0  0  0  0  0  0  0  0  0
    5.3162    0.4858   22.1535 H   0  0  0  0  0  0  0  0  0  0  0  0
   10.6036   -2.0162   21.2241 H   0  0  0  0  0  0  0  0  0  0  0  0
    4.9131    1.7514   16.7479 H   0  0  0  0  0  0  0  0  0  0  0  0
    7.6448   -0.9758   18.1041 H   0  0  0  0  0  0  0  0  0  0  0  0
    9.7849   -0.1194   25.8306 H   0  0  0  0  0  0  0  0  0  0  0  0
   10.4793    1.4568   25.3613 H   0  0  0  0  0  0  0  0  0  0  0  0
    7.4662    6.9621   25.3083 H   0  0  0  0  0  0  0  0  0  0  0  0
    9.1209    6.2254   25.4314 H   0  0  0  0  0  0  0  0  0  0  0  0
    8.3898    4.9214   27.4416 H   0  0  0  0  0  0  0  0  0  0  0  0
    6.7355    5.6587   27.3174 H   0  0  0  0  0  0  0  0  0  0  0  0
    7.5152   -2.5456   23.3338 H   0  0  0  0  0  0  0  0  0  0  0  0
    8.7649   -2.9030   22.1434 H   0  0  0  0  0  0  0  0  0  0  0  0
    7.0587   -2.7248   20.5721 H   0  0  0  0  0  0  0  0  0  0  0  0
    5.9518   -1.9952   21.7720 H   0  0  0  0  0  0  0  0  0  0  0  0
    6.8867    0.2641   23.5642 H   0  0  0  0  0  0  0  0  0  0  0  0
    7.6652   -0.8660   24.6733 H   0  0  0  0  0  0  0  0  0  0  0  0
    1.6769    2.4318   24.7468 H   0  0  0  0  0  0  0  0  0  0  0  0
    0.9919    0.7821   24.6790 H   0  0  0  0  0  0  0  0  0  0  0  0
    3.7914   -0.7500   24.4479 H   0  0  0  0  0  0  0  0  0  0  0  0
    4.8188    0.7123   24.4876 H   0  0  0  0  0  0  0  0  0  0  0  0
    2.4146    0.3302   22.7457 H   0  0  0  0  0  0  0  0  0  0  0  0
    3.9454    2.7082   25.5399 H   0  0  0  0  0  0  0  0  0  0  0  0
    2.8892    2.4416   26.9730 H   0  0  0  0  0  0  0  0  0  0  0  0
    4.4643    1.5798   26.8428 H   0  0  0  0  0  0  0  0  0  0  0  0
    9.3774    3.7195   25.4591 H   0  0  0  0  0  0  0  0  0  0  0  0
    8.4924    3.5311   23.9269 H   0  0  0  0  0  0  0  0  0  0  0  0
    2.5970    0.1402   26.2293 H   0  0  0  0  0  0  0  0  0  0  0  0
  1 27  1  0  0  0  0
  1 31  3  0  0  0  0
  2  4  2  0  0  0  0
  2 10  1  0  0  0  0
  3  5  1  0  0  0  0
  3 12  2  0  0  0  0
  4 15  1  0  0  0  0
  5 16  2  0  0  0  0
  6 11  1  0  0  0  0
  6 15  2  0  0  0  0
  7 13  2  0  0  0  0
  7 16  1  0  0  0  0
  8 10  1  0  0  0  0
  8 32  2  0  0  0  0
  9 14  2  0  0  0  0
  9 32  1  0  0  0  0
 10 11  2  0  0  0  0
 11 14  1  0  0  0  0
 12 13  1  0  0  0  0
 12 18  1  0  0  0  0
 13 28  1  0  0  0  0
 14 33  1  0  0  0  0
 15 39  1  0  0  0  0
 16 41  1  0  0  0  0
 17 28  1  0  0  0  0
 17 33  1  0  0  0  0
 17 36  2  0  0  0  0
 18 34  1  0  0  0  0
 19 20  1  0  0  0  0
 19 27  1  0  0  0  0
 20 27  1  0  0  0  0
 21 22  1  0  0  0  0
 21 28  1  0  0  0  0
 22 33  1  0  0  0  0
 23 28  1  0  0  0  0
 23 34  1  0  0  0  0
 24 26  1  0  0  0  0
 24 35  1  0  0  0  0
 25 26  1  0  0  0  0
 25 35  1  0  0  0  0
 26 39  1  0  0  0  0
 27 30  1  0  0  0  0
 29 35  1  0  0  0  0
 30 40  1  0  0  0  0
 34 40  1  6  0  0  0
 37 40  2  0  0  0  0
 38 40  2  0  0  0  0
  2 42  1  0  0  0  0
  3 43  1  0  0  0  0
  4 44  1  0  0  0  0
  5 45  1  0  0  0  0
  6 46  1  0  0  0  0
  7 47  1  0  0  0  0
  8 48  1  0  0  0  0
  9 49  1  0  0  0  0
 18 50  1  0  0  0  0
 18 51  1  0  0  0  0
 19 52  1  0  0  0  0
 19 53  1  0  0  0  0
 20 54  1  0  0  0  0
 20 55  1  0  0  0  0
 21 56  1  0  0  0  0
 21 57  1  0  0  0  0
 22 58  1  0  0  0  0
 22 59  1  0  0  0  0
 23 60  1  0  0  0  0
 23 61  1  0  0  0  0
 24 62  1  0  0  0  0
 24 63  1  0  0  0  0
 25 64  1  0  0  0  0
 25 65  1  0  0  0  0
 26 66  1  0  0  0  0
 29 67  1  0  0  0  0
 29 68  1  0  0  0  0
 29 69  1  0  0  0  0
 30 70  1  0  0  0  0
 30 71  1  0  0  0  0
 35 72  1  0  0  0  0
M  CHG  1  35   1
M  END
> <compound>
EDJ-MED-ee81482e-2

> <compound_smiles>
CN1CC(C1)Oc2ccc3cncc(c3c2)N4CCC5(C4=O)CN(Cc6c5cc(cc6)Cl)S(=O)(=O)CC7(CC7)C#N

> <enantiomer_smiles>
CN1CC(C1)Oc2ccc3cncc(c3c2)N4CCC5(C4=O)C[N@](Cc6c5cc(cc6)Cl)S(=O)(=O)CC7(CC7)C#N

> <scaffold>
tetrahydroisoquinoline-5spiro-isoquinoline

> <clash_score>
0

> <docking_score>
-7.098514556884766

> <overlap_score>
0.972362220287323

> <MMFF_internal_energy>
140.78127488526508

> <docked_smiles>
C[NH+]1CC(C1)Oc2ccc3cncc(c3c2)N4CC[C@@]5(C4=O)C[N@](Cc6c5cc(cc6)Cl)S(=O)(=O)CC7(CC7)C#N

$$$$
MAT-POS-38eb6498-1_2
  -OEChem-12272114583D

 74 79  0     1  0  0  0  0  0999 V2000
    7.3205    3.4054   22.7658 C   0  0  0  0  0  0  0  0  0  0  0  0
    3.7865    2.4205   19.1660 C   0  0  0  0  0  0  0  0  0  0  0  0
   12.0765    0.0316   24.1541 C   0  0  0  0  0  0  0  0  0  0  0  0
    3.3432    2.6279   20.4411 C   0  0  0  0  0  0  0  0  0  0  0  0
   12.9132   -0.6032   23.2569 C   0  0  0  0  0  0  0  0  0  0  0  0
    4.8973    1.0233   21.2988 C   0  0  0  0  0  0  0  0  0  0  0  0
   10.9991   -1.4331   22.0443 C   0  0  0  0  0  0  0  0  0  0  0  0
    5.3278    1.2339   17.6066 C   0  0  0  0  0  0  0  0  0  0  0  0
    6.8438   -0.2892   18.3752 C   0  0  0  0  0  0  0  0  0  0  0  0
    4.8226    1.4906   18.9054 C   0  0  0  0  0  0  0  0  0  0  0  0
    5.3982    0.7733   19.9948 C   0  0  0  0  0  0  0  0  0  0  0  0
   10.7040   -0.0625   23.9898 C   0  0  0  0  0  0  0  0  0  0  0  0
   10.1406   -0.7765   22.9250 C   0  0  0  0  0  0  0  0  0  0  0  0
    6.4440   -0.1472   19.6979 C   0  0  0  0  0  0  0  0  0  0  0  0
    3.8960    1.9291   21.5050 C   0  0  0  0  0  0  0  0  0  0  0  0
   12.3683   -1.3298   22.2234 C   0  0  0  0  0  0  0  0  0  0  0  0
    8.2490    0.0169   21.4271 C   0  0  0  0  0  0  0  0  0  0  0  0
    9.9479    0.5589   24.9534 C   0  0  0  0  0  0  0  0  0  0  0  0
    9.8217    3.1213   22.9038 C   0  0  0  0  0  0  0  0  0  0  0  0
    9.5383    4.5944   22.9183 C   0  0  0  0  0  0  0  0  0  0  0  0
    8.0140   -2.1541   22.4331 C   0  0  0  0  0  0  0  0  0  0  0  0
    6.9866   -1.9366   21.3580 C   0  0  0  0  0  0  0  0  0  0  0  0
    7.8721   -0.1194   23.8831 C   0  0  0  0  0  0  0  0  0  0  0  0
    8.5331    3.6312   23.5091 C   0  0  0  0  0  0  0  0  0  0  0  0
    8.6238   -0.7606   22.6929 C   0  0  3  0  0  0  0  0  0  0  0  0
    0.6675    0.8110   24.2541 C   0  0  0  0  0  0  0  0  0  0  0  0
    0.8944    2.4016   26.1565 C   0  0  0  0  0  0  0  0  0  0  0  0
    8.3874    3.5882   25.0137 C   0  0  0  0  0  0  0  0  0  0  0  0
    2.9283    1.5069   25.0326 C   0  0  0  0  0  0  0  0  0  0  0  0
    3.4815    1.0690   23.6908 C   0  0  0  0  0  0  0  0  0  0  0  0
    6.3436    3.2234   22.1669 N   0  0  0  0  0  0  0  0  0  0  0  0
    6.3062    0.3769   17.3421 N   0  0  0  0  0  0  0  0  0  0  0  0
    7.2292   -0.6897   20.7790 N   0  0  0  0  0  0  0  0  0  0  0  0
    8.6609    1.0133   24.4995 N   0  0  2  0  0  0  0  0  0  0  0  0
    1.5065    1.9026   24.8710 N   0  3  0  0  0  0  0  0  0  0  0  0
    8.8299    1.0397   21.0799 O   0  0  0  0  0  0  0  0  0  0  0  0
    8.2407    1.8013   26.9144 O   0  0  0  0  0  0  0  0  0  0  0  0
    6.3653    1.9471   25.2271 O   0  0  0  0  0  0  0  0  0  0  0  0
    3.4227    2.1582   22.7714 O   0  0  0  0  0  0  0  0  0  0  0  0
    7.7708    2.0177   25.5632 S   0  0  0  0  0  0  0  0  0  0  0  0
   13.4272   -2.1411   21.1086 Cl  0  0  0  0  0  0  0  0  0  0  0  0
    3.3406    2.9746   18.3368 H   0  0  0  0  0  0  0  0  0  0  0  0
   12.5024    0.5995   24.9735 H   0  0  0  0  0  0  0  0  0  0  0  0
    2.5407    3.3506   20.6306 H   0  0  0  0  0  0  0  0  0  0  0  0
   13.9910   -0.5177   23.3793 H   0  0  0  0  0  0  0  0  0  0  0  0
    5.3162    0.4858   22.1535 H   0  0  0  0  0  0  0  0  0  0  0  0
   10.6036   -2.0162   21.2241 H   0  0  0  0  0  0  0  0  0  0  0  0
    4.9131    1.7514   16.7479 H   0  0  0  0  0  0  0  0  0  0  0  0
    7.6448   -0.9758   18.1041 H   0  0  0  0  0  0  0  0  0  0  0  0
    9.7849   -0.1194   25.8306 H   0  0  0  0  0  0  0  0  0  0  0  0
   10.4793    1.4568   25.3613 H   0  0  0  0  0  0  0  0  0  0  0  0
    9.7878    2.6129   21.9468 H   0  0  0  0  0  0  0  0  0  0  0  0
   10.5952    2.7515   23.5670 H   0  0  0  0  0  0  0  0  0  0  0  0
   10.1228    5.2116   23.5908 H   0  0  0  0  0  0  0  0  0  0  0  0
    9.3157    5.0716   21.9707 H   0  0  0  0  0  0  0  0  0  0  0  0
    7.5152   -2.5456   23.3338 H   0  0  0  0  0  0  0  0  0  0  0  0
    8.7649   -2.9030   22.1434 H   0  0  0  0  0  0  0  0  0  0  0  0
    7.0587   -2.7248   20.5721 H   0  0  0  0  0  0  0  0  0  0  0  0
    5.9518   -1.9952   21.7720 H   0  0  0  0  0  0  0  0  0  0  0  0
    6.8867    0.2641   23.5642 H   0  0  0  0  0  0  0  0  0  0  0  0
    7.6652   -0.8660   24.6733 H   0  0  0  0  0  0  0  0  0  0  0  0
    0.6831   -0.0451   24.9310 H   0  0  0  0  0  0  0  0  0  0  0  0
   -0.3464    1.1971   24.1326 H   0  0  0  0  0  0  0  0  0  0  0  0
    1.1086    0.5559   23.2886 H   0  0  0  0  0  0  0  0  0  0  0  0
    0.9151    1.5815   26.8766 H   0  0  0  0  0  0  0  0  0  0  0  0
    1.4920    3.2458   26.5056 H   0  0  0  0  0  0  0  0  0  0  0  0
   -0.1308    2.7088   25.9412 H   0  0  0  0  0  0  0  0  0  0  0  0
    7.6838    4.3500   25.3607 H   0  0  0  0  0  0  0  0  0  0  0  0
    9.3513    3.7460   25.5050 H   0  0  0  0  0  0  0  0  0  0  0  0
    3.4495    2.3839   25.4268 H   0  0  0  0  0  0  0  0  0  0  0  0
    2.9465    0.6934   25.7626 H   0  0  0  0  0  0  0  0  0  0  0  0
    4.5301    0.7750   23.7992 H   0  0  0  0  0  0  0  0  0  0  0  0
    2.9203    0.2243   23.2782 H   0  0  0  0  0  0  0  0  0  0  0  0
    1.4735    2.6975   24.2104 H   0  0  0  0  0  0  0  0  0  0  0  0
  1 24  1  0  0  0  0
  1 31  3  0  0  0  0
  2  4  2  0  0  0  0
  2 10  1  0  0  0  0
  3  5  1  0  0  0  0
  3 12  2  0  0  0  0
  4 15  1  0  0  0  0
  5 16  2  0  0  0  0
  6 11  1  0  0  0  0
  6 15  2  0  0  0  0
  7 13  2  0  0  0  0
  7 16  1  0  0  0  0
  8 10  1  0  0  0  0
  8 32  2  0  0  0  0
  9 14  2  0  0  0  0
  9 32  1  0  0  0  0
 10 11  2  0  0  0  0
 11 14  1  0  0  0  0
 12 13  1  0  0  0  0
 12 18  1  0  0  0  0
 13 25  1  0  0  0  0
 14 33  1  0  0  0  0
 15 39  1  0  0  0  0
 16 41  1  0  0  0  0
 17 25  1  0  0  0  0
 17 33  1  0  0  0  0
 17 36  2  0  0  0  0
 18 34  1  0  0  0  0
 19 20  1  0  0  0  0
 19 24  1  0  0  0  0
 20 24  1  0  0  0  0
 21 22  1  0  0  0  0
 21 25  1  0  0  0  0
 22 33  1  0  0  0  0
 23 25  1  0  0  0  0
 23 34  1  0  0  0  0
 24 28  1  0  0  0  0
 26 35  1  0  0  0  0
 27 35  1  0  0  0  0
 28 40  1  0  0  0  0
 29 30  1  0  0  0  0
 29 35  1  0  0  0  0
 30 39  1  0  0  0  0
 34 40  1  6  0  0  0
 37 40  2  0  0  0  0
 38 40  2  0  0  0  0
  2 42  1  0  0  0  0
  3 43  1  0  0  0  0
  4 44  1  0  0  0  0
  5 45  1  0  0  0  0
  6 46  1  0  0  0  0
  7 47  1  0  0  0  0
  8 48  1  0  0  0  0
  9 49  1  0  0  0  0
 18 50  1  0  0  0  0
 18 51  1  0  0  0  0
 19 52  1  0  0  0  0
 19 53  1  0  0  0  0
 20 54  1  0  0  0  0
 20 55  1  0  0  0  0
 21 56  1  0  0  0  0
 21 57  1  0  0  0  0
 22 58  1  0  0  0  0
 22 59  1  0  0  0  0
 23 60  1  0  0  0  0
 23 61  1  0  0  0  0
 26 62  1  0  0  0  0
 26 63  1  0  0  0  0
 26 64  1  0  0  0  0
 27 65  1  0  0  0  0
 27 66  1  0  0  0  0
 27 67  1  0  0  0  0
 28 68  1  0  0  0  0
 28 69  1  0  0  0  0
 29 70  1  0  0  0  0
 29 71  1  0  0  0  0
 30 72  1  0  0  0  0
 30 73  1  0  0  0  0
 35 74  1  0  0  0  0
M  CHG  1  35   1
M  END
> <compound>
MAT-POS-38eb6498-1

> <compound_smiles>
CN(C)CCOc1ccc2cncc(c2c1)N3CCC4(C3=O)CN(Cc5c4cc(cc5)Cl)S(=O)(=O)CC6(CC6)C#N

> <enantiomer_smiles>
CN(C)CCOc1ccc2cncc(c2c1)N3CCC4(C3=O)C[N@](Cc5c4cc(cc5)Cl)S(=O)(=O)CC6(CC6)C#N

> <scaffold>
tetrahydroisoquinoline-5spiro-isoquinoline

> <clash_score>
0

> <docking_score>
-7.4450554847717285

> <overlap_score>
0.977554202079773

> <MMFF_internal_energy>
146.26243811663835

> <docked_smiles>
C[NH+](C)CCOc1ccc2cncc(c2c1)N3CC[C@@]4(C3=O)C[N@](Cc5c4cc(cc5)Cl)S(=O)(=O)CC6(CC6)C#N

$$$$
LUO-POS-8484f2d3-1_1
  -OEChem-12272114583D

 74 79  0     1  0  0  0  0  0999 V2000
    8.7638    5.6734   24.9924 C   0  0  0  0  0  0  0  0  0  0  0  0
    3.7865    2.4205   19.1660 C   0  0  0  0  0  0  0  0  0  0  0  0
   12.0765    0.0316   24.1541 C   0  0  0  0  0  0  0  0  0  0  0  0
    3.3432    2.6279   20.4411 C   0  0  0  0  0  0  0  0  0  0  0  0
   12.9132   -0.6032   23.2569 C   0  0  0  0  0  0  0  0  0  0  0  0
    4.8973    1.0233   21.2988 C   0  0  0  0  0  0  0  0  0  0  0  0
   10.9991   -1.4331   22.0443 C   0  0  0  0  0  0  0  0  0  0  0  0
    5.3278    1.2339   17.6066 C   0  0  0  0  0  0  0  0  0  0  0  0
    6.8438   -0.2892   18.3752 C   0  0  0  0  0  0  0  0  0  0  0  0
    4.8226    1.4906   18.9054 C   0  0  0  0  0  0  0  0  0  0  0  0
    5.3982    0.7733   19.9948 C   0  0  0  0  0  0  0  0  0  0  0  0
   10.7040   -0.0625   23.9898 C   0  0  0  0  0  0  0  0  0  0  0  0
   10.1406   -0.7765   22.9250 C   0  0  0  0  0  0  0  0  0  0  0  0
    6.4440   -0.1472   19.6979 C   0  0  0  0  0  0  0  0  0  0  0  0
    3.8960    1.9291   21.5050 C   0  0  0  0  0  0  0  0  0  0  0  0
   12.3683   -1.3298   22.2234 C   0  0  0  0  0  0  0  0  0  0  0  0
    8.2490    0.0169   21.4271 C   0  0  0  0  0  0  0  0  0  0  0  0
    9.9479    0.5589   24.9534 C   0  0  0  0  0  0  0  0  0  0  0  0
    6.6120    5.1860   23.7725 C   0  0  0  0  0  0  0  0  0  0  0  0
    7.5977    5.6845   22.7573 C   0  0  0  0  0  0  0  0  0  0  0  0
    8.0140   -2.1541   22.4331 C   0  0  0  0  0  0  0  0  0  0  0  0
    6.9866   -1.9366   21.3580 C   0  0  0  0  0  0  0  0  0  0  0  0
    7.8721   -0.1194   23.8831 C   0  0  0  0  0  0  0  0  0  0  0  0
    8.0881    4.9210   23.9672 C   0  0  0  0  0  0  0  0  0  0  0  0
    8.6238   -0.7606   22.6929 C   0  0  2  0  0  0  0  0  0  0  0  0
    3.0773   -0.0521   26.3173 C   0  0  0  0  0  0  0  0  0  0  0  0
    0.7887   -0.7826   25.6622 C   0  0  0  0  0  0  0  0  0  0  0  0
    8.5910    3.5095   23.7626 C   0  0  0  0  0  0  0  0  0  0  0  0
    2.0803    0.7446   24.1789 C   0  0  0  0  0  0  0  0  0  0  0  0
    3.4790    1.0725   23.6951 C   0  0  0  0  0  0  0  0  0  0  0  0
    9.3082    6.2796   25.8185 N   0  0  0  0  0  0  0  0  0  0  0  0
    6.3062    0.3769   17.3421 N   0  0  0  0  0  0  0  0  0  0  0  0
    7.2292   -0.6897   20.7790 N   0  0  0  0  0  0  0  0  0  0  0  0
    8.6609    1.0133   24.4995 N   0  0  1  0  0  0  0  0  0  0  0  0
    2.1502   -0.3606   25.1678 N   0  3  0  0  0  0  0  0  0  0  0  0
    8.7500    1.0902   21.1250 O   0  0  0  0  0  0  0  0  0  0  0  0
    8.5253    2.7702   26.2678 O   0  0  0  0  0  0  0  0  0  0  0  0
    6.5164    2.3110   24.8053 O   0  0  0  0  0  0  0  0  0  0  0  0
    3.4227    2.1582   22.7714 O   0  0  0  0  0  0  0  0  0  0  0  0
    7.9476    2.4048   24.9929 S   0  0  0  0  0  0  0  0  0  0  0  0
   13.4284   -2.1463   21.1138 Cl  0  0  0  0  0  0  0  0  0  0  0  0
    3.3406    2.9746   18.3368 H   0  0  0  0  0  0  0  0  0  0  0  0
   12.5029    0.5851   24.9828 H   0  0  0  0  0  0  0  0  0  0  0  0
    2.5407    3.3506   20.6306 H   0  0  0  0  0  0  0  0  0  0  0  0
   13.9915   -0.5301   23.3880 H   0  0  0  0  0  0  0  0  0  0  0  0
    5.3162    0.4858   22.1535 H   0  0  0  0  0  0  0  0  0  0  0  0
   10.6126   -2.0323   21.2348 H   0  0  0  0  0  0  0  0  0  0  0  0
    4.9131    1.7514   16.7479 H   0  0  0  0  0  0  0  0  0  0  0  0
    7.6448   -0.9758   18.1041 H   0  0  0  0  0  0  0  0  0  0  0  0
    9.7572   -0.1308   25.8199 H   0  0  0  0  0  0  0  0  0  0  0  0
   10.4953    1.4368   25.3939 H   0  0  0  0  0  0  0  0  0  0  0  0
    6.1228    5.9218   24.4008 H   0  0  0  0  0  0  0  0  0  0  0  0
    5.9704    4.3604   23.4871 H   0  0  0  0  0  0  0  0  0  0  0  0
    7.6156    5.1931   21.7913 H   0  0  0  0  0  0  0  0  0  0  0  0
    7.7672    6.7540   22.7060 H   0  0  0  0  0  0  0  0  0  0  0  0
    7.5122   -2.5723   23.3177 H   0  0  0  0  0  0  0  0  0  0  0  0
    8.7695   -2.8991   22.1384 H   0  0  0  0  0  0  0  0  0  0  0  0
    7.0562   -2.7255   20.5717 H   0  0  0  0  0  0  0  0  0  0  0  0
    5.9511   -1.9953   21.7718 H   0  0  0  0  0  0  0  0  0  0  0  0
    6.8943    0.2848   23.5668 H   0  0  0  0  0  0  0  0  0  0  0  0
    7.6705   -0.8632   24.6721 H   0  0  0  0  0  0  0  0  0  0  0  0
    2.6798    0.8182   26.8426 H   0  0  0  0  0  0  0  0  0  0  0  0
    3.1028   -0.9268   26.9700 H   0  0  0  0  0  0  0  0  0  0  0  0
    4.0653    0.1572   25.9028 H   0  0  0  0  0  0  0  0  0  0  0  0
    0.3394    0.0713   26.1727 H   0  0  0  0  0  0  0  0  0  0  0  0
    0.1952   -1.0784   24.7950 H   0  0  0  0  0  0  0  0  0  0  0  0
    0.9272   -1.6210   26.3475 H   0  0  0  0  0  0  0  0  0  0  0  0
    9.6816    3.4687   23.8314 H   0  0  0  0  0  0  0  0  0  0  0  0
    8.2826    3.1215   22.7880 H   0  0  0  0  0  0  0  0  0  0  0  0
    1.4357    0.3927   23.3684 H   0  0  0  0  0  0  0  0  0  0  0  0
    1.6196    1.5941   24.6900 H   0  0  0  0  0  0  0  0  0  0  0  0
    4.1020    1.3805   24.5406 H   0  0  0  0  0  0  0  0  0  0  0  0
    3.9496    0.2133   23.2061 H   0  0  0  0  0  0  0  0  0  0  0  0
    2.5503   -1.1861   24.6904 H   0  0  0  0  0  0  0  0  0  0  0  0
  1 24  1  0  0  0  0
  1 31  3  0  0  0  0
  2  4  2  0  0  0  0
  2 10  1  0  0  0  0
  3  5  1  0  0  0  0
  3 12  2  0  0  0  0
  4 15  1  0  0  0  0
  5 16  2  0  0  0  0
  6 11  1  0  0  0  0
  6 15  2  0  0  0  0
  7 13  2  0  0  0  0
  7 16  1  0  0  0  0
  8 10  1  0  0  0  0
  8 32  2  0  0  0  0
  9 14  2  0  0  0  0
  9 32  1  0  0  0  0
 10 11  2  0  0  0  0
 11 14  1  0  0  0  0
 12 13  1  0  0  0  0
 12 18  1  0  0  0  0
 13 25  1  1  0  0  0
 14 33  1  0  0  0  0
 15 39  1  0  0  0  0
 16 41  1  0  0  0  0
 17 25  1  6  0  0  0
 17 33  1  0  0  0  0
 17 36  2  0  0  0  0
 18 34  1  0  0  0  0
 19 20  1  0  0  0  0
 19 24  1  0  0  0  0
 20 24  1  0  0  0  0
 21 22  1  0  0  0  0
 21 25  1  6  0  0  0
 22 33  1  0  0  0  0
 23 25  1  1  0  0  0
 23 34  1  0  0  0  0
 24 28  1  0  0  0  0
 26 35  1  0  0  0  0
 27 35  1  0  0  0  0
 28 40  1  0  0  0  0
 29 30  1  0  0  0  0
 29 35  1  0  0  0  0
 30 39  1  0  0  0  0
 34 40  1  1  0  0  0
 37 40  2  0  0  0  0
 38 40  2  0  0  0  0
  2 42  1  0  0  0  0
  3 43  1  0  0  0  0
  4 44  1  0  0  0  0
  5 45  1  0  0  0  0
  6 46  1  0  0  0  0
  7 47  1  0  0  0  0
  8 48  1  0  0  0  0
  9 49  1  0  0  0  0
 18 50  1  0  0  0  0
 18 51  1  0  0  0  0
 19 52  1  0  0  0  0
 19 53  1  0  0  0  0
 20 54  1  0  0  0  0
 20 55  1  0  0  0  0
 21 56  1  0  0  0  0
 21 57  1  0  0  0  0
 22 58  1  0  0  0  0
 22 59  1  0  0  0  0
 23 60  1  0  0  0  0
 23 61  1  0  0  0  0
 26 62  1  0  0  0  0
 26 63  1  0  0  0  0
 26 64  1  0  0  0  0
 27 65  1  0  0  0  0
 27 66  1  0  0  0  0
 27 67  1  0  0  0  0
 28 68  1  0  0  0  0
 28 69  1  0  0  0  0
 29 70  1  0  0  0  0
 29 71  1  0  0  0  0
 30 72  1  0  0  0  0
 30 73  1  0  0  0  0
 35 74  1  0  0  0  0
M  CHG  1  35   1
M  END
> <compound>
LUO-POS-8484f2d3-1

> <compound_smiles>
CN(C)CCOc1ccc2cncc(c2c1)N3CC[C@]4(C3=O)CN(Cc5c4cc(cc5)Cl)S(=O)(=O)CC6(CC6)C#N

> <enantiomer_smiles>
CN(C)CCOc1ccc2cncc(c2c1)N3CC[C@]4(C3=O)C[N@@](Cc5c4cc(cc5)Cl)S(=O)(=O)CC6(CC6)C#N

> <scaffold>
tetrahydroisoquinoline-5spiro-isoquinoline

> <clash_score>
0

> <docking_score>
-8.143563270568848

> <overlap_score>
0.9742066264152527

> <MMFF_internal_energy>
153.3124007017292

> <docked_smiles>
C[NH+](C)CCOc1ccc2cncc(c2c1)N3CC[C@@]4(C3=O)C[N@](Cc5c4cc(cc5)Cl)S(=O)(=O)CC6(CC6)C#N

$$$$
LUO-POS-8484f2d3-2_2
  -OEChem-12272114583D

 74 79  0     1  0  0  0  0  0999 V2000
    7.3094    3.4355   22.8011 C   0  0  0  0  0  0  0  0  0  0  0  0
    3.7865    2.4205   19.1660 C   0  0  0  0  0  0  0  0  0  0  0  0
   12.0765    0.0316   24.1541 C   0  0  0  0  0  0  0  0  0  0  0  0
    3.3432    2.6279   20.4411 C   0  0  0  0  0  0  0  0  0  0  0  0
   12.9132   -0.6032   23.2569 C   0  0  0  0  0  0  0  0  0  0  0  0
    4.8973    1.0233   21.2988 C   0  0  0  0  0  0  0  0  0  0  0  0
   10.9991   -1.4331   22.0443 C   0  0  0  0  0  0  0  0  0  0  0  0
    5.3278    1.2339   17.6066 C   0  0  0  0  0  0  0  0  0  0  0  0
    6.8438   -0.2892   18.3752 C   0  0  0  0  0  0  0  0  0  0  0  0
    4.8226    1.4906   18.9054 C   0  0  0  0  0  0  0  0  0  0  0  0
    5.3982    0.7733   19.9948 C   0  0  0  0  0  0  0  0  0  0  0  0
   10.7040   -0.0625   23.9898 C   0  0  0  0  0  0  0  0  0  0  0  0
   10.1406   -0.7765   22.9250 C   0  0  0  0  0  0  0  0  0  0  0  0
    6.4440   -0.1472   19.6979 C   0  0  0  0  0  0  0  0  0  0  0  0
    3.8960    1.9291   21.5050 C   0  0  0  0  0  0  0  0  0  0  0  0
   12.3683   -1.3298   22.2234 C   0  0  0  0  0  0  0  0  0  0  0  0
    8.2490    0.0169   21.4271 C   0  0  0  0  0  0  0  0  0  0  0  0
    9.9479    0.5589   24.9534 C   0  0  0  0  0  0  0  0  0  0  0  0
    9.8122    3.1638   22.9346 C   0  0  0  0  0  0  0  0  0  0  0  0
    9.5202    4.6348   22.9720 C   0  0  0  0  0  0  0  0  0  0  0  0
    8.0140   -2.1541   22.4331 C   0  0  0  0  0  0  0  0  0  0  0  0
    6.9866   -1.9366   21.3580 C   0  0  0  0  0  0  0  0  0  0  0  0
    7.8721   -0.1194   23.8831 C   0  0  0  0  0  0  0  0  0  0  0  0
    8.5207    3.6567   23.5478 C   0  0  0  0  0  0  0  0  0  0  0  0
    8.6238   -0.7606   22.6929 C   0  0  1  0  0  0  0  0  0  0  0  0
    0.6675    0.8109   24.2540 C   0  0  0  0  0  0  0  0  0  0  0  0
    0.8944    2.4014   26.1566 C   0  0  0  0  0  0  0  0  0  0  0  0
    8.3755    3.5895   25.0516 C   0  0  0  0  0  0  0  0  0  0  0  0
    2.9284    1.5068   25.0326 C   0  0  0  0  0  0  0  0  0  0  0  0
    3.4815    1.0690   23.6908 C   0  0  0  0  0  0  0  0  0  0  0  0
    6.3334    3.2573   22.1995 N   0  0  0  0  0  0  0  0  0  0  0  0
    6.3062    0.3769   17.3421 N   0  0  0  0  0  0  0  0  0  0  0  0
    7.2292   -0.6897   20.7790 N   0  0  0  0  0  0  0  0  0  0  0  0
    8.6609    1.0133   24.4995 N   0  0  2  0  0  0  0  0  0  0  0  0
    1.5065    1.9025   24.8710 N   0  3  0  0  0  0  0  0  0  0  0  0
    8.7588    1.0926   21.1315 O   0  0  0  0  0  0  0  0  0  0  0  0
    8.2494    1.7666   26.9193 O   0  0  0  0  0  0  0  0  0  0  0  0
    6.3609    1.9371   25.2489 O   0  0  0  0  0  0  0  0  0  0  0  0
    3.4227    2.1582   22.7715 O   0  0  0  0  0  0  0  0  0  0  0  0
    7.7681    2.0072   25.5765 S   0  0  0  0  0  0  0  0  0  0  0  0
   13.4284   -2.1375   21.1073 Cl  0  0  0  0  0  0  0  0  0  0  0  0
    3.3406    2.9746   18.3368 H   0  0  0  0  0  0  0  0  0  0  0  0
   12.5035    0.6053   24.9687 H   0  0  0  0  0  0  0  0  0  0  0  0
    2.5407    3.3506   20.6306 H   0  0  0  0  0  0  0  0  0  0  0  0
   13.9915   -0.5091   23.3734 H   0  0  0  0  0  0  0  0  0  0  0  0
    5.3162    0.4858   22.1535 H   0  0  0  0  0  0  0  0  0  0  0  0
   10.6130   -2.0083   21.2173 H   0  0  0  0  0  0  0  0  0  0  0  0
    4.9131    1.7514   16.7479 H   0  0  0  0  0  0  0  0  0  0  0  0
    7.6448   -0.9758   18.1041 H   0  0  0  0  0  0  0  0  0  0  0  0
    9.7904   -0.1142   25.8401 H   0  0  0  0  0  0  0  0  0  0  0  0
   10.4809    1.4598   25.3620 H   0  0  0  0  0  0  0  0  0  0  0  0
    9.7811    2.6702   21.9698 H   0  0  0  0  0  0  0  0  0  0  0  0
   10.5879    2.7883   23.5919 H   0  0  0  0  0  0  0  0  0  0  0  0
   10.1012    5.2449   23.6540 H   0  0  0  0  0  0  0  0  0  0  0  0
    9.2947    5.1254   22.0319 H   0  0  0  0  0  0  0  0  0  0  0  0
    7.5755   -2.6005   23.3392 H   0  0  0  0  0  0  0  0  0  0  0  0
    8.7528   -2.8828   22.0695 H   0  0  0  0  0  0  0  0  0  0  0  0
    7.0226   -2.7507   20.5946 H   0  0  0  0  0  0  0  0  0  0  0  0
    5.9544   -1.9486   21.7821 H   0  0  0  0  0  0  0  0  0  0  0  0
    6.8938    0.2792   23.5661 H   0  0  0  0  0  0  0  0  0  0  0  0
    7.6737   -0.8615   24.6765 H   0  0  0  0  0  0  0  0  0  0  0  0
    0.6831   -0.0452   24.9310 H   0  0  0  0  0  0  0  0  0  0  0  0
   -0.3463    1.1970   24.1326 H   0  0  0  0  0  0  0  0  0  0  0  0
    1.1086    0.5558   23.2886 H   0  0  0  0  0  0  0  0  0  0  0  0
    0.9151    1.5813   26.8766 H   0  0  0  0  0  0  0  0  0  0  0  0
    1.4920    3.2456   26.5057 H   0  0  0  0  0  0  0  0  0  0  0  0
   -0.1308    2.7086   25.9413 H   0  0  0  0  0  0  0  0  0  0  0  0
    7.6675    4.3417   25.4104 H   0  0  0  0  0  0  0  0  0  0  0  0
    9.3385    3.7452   25.5452 H   0  0  0  0  0  0  0  0  0  0  0  0
    3.4495    2.3838   25.4268 H   0  0  0  0  0  0  0  0  0  0  0  0
    2.9466    0.6933   25.7625 H   0  0  0  0  0  0  0  0  0  0  0  0
    4.5302    0.7750   23.7992 H   0  0  0  0  0  0  0  0  0  0  0  0
    2.9203    0.2243   23.2781 H   0  0  0  0  0  0  0  0  0  0  0  0
    1.4735    2.6975   24.2104 H   0  0  0  0  0  0  0  0  0  0  0  0
  1 24  1  0  0  0  0
  1 31  3  0  0  0  0
  2  4  2  0  0  0  0
  2 10  1  0  0  0  0
  3  5  1  0  0  0  0
  3 12  2  0  0  0  0
  4 15  1  0  0  0  0
  5 16  2  0  0  0  0
  6 11  1  0  0  0  0
  6 15  2  0  0  0  0
  7 13  2  0  0  0  0
  7 16  1  0  0  0  0
  8 10  1  0  0  0  0
  8 32  2  0  0  0  0
  9 14  2  0  0  0  0
  9 32  1  0  0  0  0
 10 11  2  0  0  0  0
 11 14  1  0  0  0  0
 12 13  1  0  0  0  0
 12 18  1  0  0  0  0
 13 25  1  6  0  0  0
 14 33  1  0  0  0  0
 15 39  1  0  0  0  0
 16 41  1  0  0  0  0
 17 25  1  1  0  0  0
 17 33  1  0  0  0  0
 17 36  2  0  0  0  0
 18 34  1  0  0  0  0
 19 20  1  0  0  0  0
 19 24  1  0  0  0  0
 20 24  1  0  0  0  0
 21 22  1  0  0  0  0
 21 25  1  1  0  0  0
 22 33  1  0  0  0  0
 23 25  1  6  0  0  0
 23 34  1  0  0  0  0
 24 28  1  0  0  0  0
 26 35  1  0  0  0  0
 27 35  1  0  0  0  0
 28 40  1  0  0  0  0
 29 30  1  0  0  0  0
 29 35  1  0  0  0  0
 30 39  1  0  0  0  0
 34 40  1  6  0  0  0
 37 40  2  0  0  0  0
 38 40  2  0  0  0  0
  2 42  1  0  0  0  0
  3 43  1  0  0  0  0
  4 44  1  0  0  0  0
  5 45  1  0  0  0  0
  6 46  1  0  0  0  0
  7 47  1  0  0  0  0
  8 48  1  0  0  0  0
  9 49  1  0  0  0  0
 18 50  1  0  0  0  0
 18 51  1  0  0  0  0
 19 52  1  0  0  0  0
 19 53  1  0  0  0  0
 20 54  1  0  0  0  0
 20 55  1  0  0  0  0
 21 56  1  0  0  0  0
 21 57  1  0  0  0  0
 22 58  1  0  0  0  0
 22 59  1  0  0  0  0
 23 60  1  0  0  0  0
 23 61  1  0  0  0  0
 26 62  1  0  0  0  0
 26 63  1  0  0  0  0
 26 64  1  0  0  0  0
 27 65  1  0  0  0  0
 27 66  1  0  0  0  0
 27 67  1  0  0  0  0
 28 68  1  0  0  0  0
 28 69  1  0  0  0  0
 29 70  1  0  0  0  0
 29 71  1  0  0  0  0
 30 72  1  0  0  0  0
 30 73  1  0  0  0  0
 35 74  1  0  0  0  0
M  CHG  1  35   1
M  END
> <compound>
LUO-POS-8484f2d3-2

> <compound_smiles>
CN(C)CCOc1ccc2cncc(c2c1)N3CC[C@@]4(C3=O)CN(Cc5c4cc(cc5)Cl)S(=O)(=O)CC6(CC6)C#N

> <enantiomer_smiles>
CN(C)CCOc1ccc2cncc(c2c1)N3CC[C@@]4(C3=O)C[N@](Cc5c4cc(cc5)Cl)S(=O)(=O)CC6(CC6)C#N

> <scaffold>
tetrahydroisoquinoline-5spiro-isoquinoline

> <clash_score>
0

> <docking_score>
-7.515608787536621

> <overlap_score>
0.9772638082504272

> <MMFF_internal_energy>
144.028020828485

> <docked_smiles>
C[NH+](C)CCOc1ccc2cncc(c2c1)N3CC[C@@]4(C3=O)C[N@](Cc5c4cc(cc5)Cl)S(=O)(=O)CC6(CC6)C#N

$$$$
EDJ-MED-ee81482e-4_1
  -OEChem-12272114583D

 75 81  0     1  0  0  0  0  0999 V2000
    9.9899    5.1222   23.8236 C   0  0  0  0  0  0  0  0  0  0  0  0
    3.7865    2.4205   19.1660 C   0  0  0  0  0  0  0  0  0  0  0  0
   12.0765    0.0316   24.1541 C   0  0  0  0  0  0  0  0  0  0  0  0
    3.3432    2.6279   20.4411 C   0  0  0  0  0  0  0  0  0  0  0  0
   12.9132   -0.6032   23.2569 C   0  0  0  0  0  0  0  0  0  0  0  0
    4.8973    1.0233   21.2988 C   0  0  0  0  0  0  0  0  0  0  0  0
   10.9991   -1.4331   22.0443 C   0  0  0  0  0  0  0  0  0  0  0  0
    5.3278    1.2339   17.6066 C   0  0  0  0  0  0  0  0  0  0  0  0
    6.8438   -0.2892   18.3752 C   0  0  0  0  0  0  0  0  0  0  0  0
    4.8226    1.4906   18.9054 C   0  0  0  0  0  0  0  0  0  0  0  0
    5.3982    0.7733   19.9948 C   0  0  0  0  0  0  0  0  0  0  0  0
   10.7040   -0.0625   23.9898 C   0  0  0  0  0  0  0  0  0  0  0  0
   10.1406   -0.7765   22.9250 C   0  0  0  0  0  0  0  0  0  0  0  0
    6.4440   -0.1472   19.6979 C   0  0  0  0  0  0  0  0  0  0  0  0
    3.8960    1.9291   21.5050 C   0  0  0  0  0  0  0  0  0  0  0  0
   12.3683   -1.3298   22.2234 C   0  0  0  0  0  0  0  0  0  0  0  0
    8.2490    0.0169   21.4271 C   0  0  0  0  0  0  0  0  0  0  0  0
    9.9479    0.5589   24.9534 C   0  0  0  0  0  0  0  0  0  0  0  0
    8.5324    6.1021   25.6323 C   0  0  0  0  0  0  0  0  0  0  0  0
    7.7014    6.0179   24.3861 C   0  0  0  0  0  0  0  0  0  0  0  0
    8.0140   -2.1541   22.4331 C   0  0  0  0  0  0  0  0  0  0  0  0
    1.3975    1.3539   23.7754 C   0  0  0  0  0  0  0  0  0  0  0  0
    3.6546    0.7964   24.7529 C   0  0  0  0  0  0  0  0  0  0  0  0
    6.9866   -1.9366   21.3580 C   0  0  0  0  0  0  0  0  0  0  0  0
    7.8721   -0.1194   23.8831 C   0  0  0  0  0  0  0  0  0  0  0  0
    0.7672    0.2677   24.6311 C   0  0  0  0  0  0  0  0  0  0  0  0
    3.0100   -0.2859   25.6030 C   0  0  0  0  0  0  0  0  0  0  0  0
    2.8637    1.0512   23.4695 C   0  0  0  0  0  0  0  0  0  0  0  0
    8.7994    5.0058   24.6255 C   0  0  0  0  0  0  0  0  0  0  0  0
    8.6238   -0.7606   22.6929 C   0  0  3  0  0  0  0  0  0  0  0  0
    8.3989    3.5932   24.9882 C   0  0  0  0  0  0  0  0  0  0  0  0
   10.9490    5.2161   23.1776 N   0  0  0  0  0  0  0  0  0  0  0  0
    6.3062    0.3769   17.3421 N   0  0  0  0  0  0  0  0  0  0  0  0
    7.2292   -0.6897   20.7790 N   0  0  0  0  0  0  0  0  0  0  0  0
    8.6609    1.0133   24.4995 N   0  0  1  0  0  0  0  0  0  0  0  0
    1.5857    0.0800   25.8672 N   0  3  0  0  0  0  0  0  0  0  0  0
    8.7572    1.0941   21.1350 O   0  0  0  0  0  0  0  0  0  0  0  0
    7.4179    2.5201   22.8172 O   0  0  0  0  0  0  0  0  0  0  0  0
    9.9251    2.7322   23.0499 O   0  0  0  0  0  0  0  0  0  0  0  0
    3.4227    2.1582   22.7714 O   0  0  0  0  0  0  0  0  0  0  0  0
    8.6198    2.4832   23.6217 S   0  0  0  0  0  0  0  0  0  0  0  0
   13.4275   -2.1421   21.1097 Cl  0  0  0  0  0  0  0  0  0  0  0  0
    3.3406    2.9746   18.3368 H   0  0  0  0  0  0  0  0  0  0  0  0
   12.5015    0.5938   24.9776 H   0  0  0  0  0  0  0  0  0  0  0  0
    2.5407    3.3506   20.6306 H   0  0  0  0  0  0  0  0  0  0  0  0
   13.9911   -0.5212   23.3814 H   0  0  0  0  0  0  0  0  0  0  0  0
    5.3162    0.4858   22.1535 H   0  0  0  0  0  0  0  0  0  0  0  0
   10.6037   -2.0228   21.2288 H   0  0  0  0  0  0  0  0  0  0  0  0
    4.9131    1.7514   16.7479 H   0  0  0  0  0  0  0  0  0  0  0  0
    7.6448   -0.9758   18.1041 H   0  0  0  0  0  0  0  0  0  0  0  0
    9.7581   -0.1287   25.8173 H   0  0  0  0  0  0  0  0  0  0  0  0
   10.4931    1.4391   25.3829 H   0  0  0  0  0  0  0  0  0  0  0  0
    9.2347    6.9241   25.7129 H   0  0  0  0  0  0  0  0  0  0  0  0
    8.0587    5.8395   26.5712 H   0  0  0  0  0  0  0  0  0  0  0  0
    6.6706    5.6996   24.4905 H   0  0  0  0  0  0  0  0  0  0  0  0
    7.8473    6.7843   23.6333 H   0  0  0  0  0  0  0  0  0  0  0  0
    7.5801   -2.6060   23.3366 H   0  0  0  0  0  0  0  0  0  0  0  0
    8.7749   -2.8608   22.0657 H   0  0  0  0  0  0  0  0  0  0  0  0
    0.8401    1.4623   22.8373 H   0  0  0  0  0  0  0  0  0  0  0  0
    1.3164    2.3256   24.2805 H   0  0  0  0  0  0  0  0  0  0  0  0
    3.7399    1.7281   25.3276 H   0  0  0  0  0  0  0  0  0  0  0  0
    4.6834    0.5111   24.5021 H   0  0  0  0  0  0  0  0  0  0  0  0
    7.0227   -2.7506   20.5953 H   0  0  0  0  0  0  0  0  0  0  0  0
    5.9554   -1.9484   21.7832 H   0  0  0  0  0  0  0  0  0  0  0  0
    6.8886    0.2769   23.5666 H   0  0  0  0  0  0  0  0  0  0  0  0
    7.6579   -0.8710   24.6633 H   0  0  0  0  0  0  0  0  0  0  0  0
   -0.2407    0.5438   24.9541 H   0  0  0  0  0  0  0  0  0  0  0  0
    0.7310   -0.6966   24.1140 H   0  0  0  0  0  0  0  0  0  0  0  0
    3.0089   -1.2589   25.1008 H   0  0  0  0  0  0  0  0  0  0  0  0
    3.5017   -0.3807   26.5755 H   0  0  0  0  0  0  0  0  0  0  0  0
    2.9254    0.1741   22.8138 H   0  0  0  0  0  0  0  0  0  0  0  0
    7.3445    3.5466   25.2742 H   0  0  0  0  0  0  0  0  0  0  0  0
    9.0072    3.2136   25.8136 H   0  0  0  0  0  0  0  0  0  0  0  0
    1.5527    0.9397   26.4331 H   0  0  0  0  0  0  0  0  0  0  0  0
    1.1532   -0.6505   26.4489 H   0  0  0  0  0  0  0  0  0  0  0  0
  1 29  1  0  0  0  0
  1 32  3  0  0  0  0
  2  4  1  0  0  0  0
  2 10  2  0  0  0  0
  3  5  1  0  0  0  0
  3 12  2  0  0  0  0
  4 15  2  0  0  0  0
  5 16  2  0  0  0  0
  6 11  2  0  0  0  0
  6 15  1  0  0  0  0
  7 13  2  0  0  0  0
  7 16  1  0  0  0  0
  8 10  1  0  0  0  0
  8 33  2  0  0  0  0
  9 14  2  0  0  0  0
  9 33  1  0  0  0  0
 10 11  1  0  0  0  0
 11 14  1  0  0  0  0
 12 13  1  0  0  0  0
 12 18  1  0  0  0  0
 13 30  1  0  0  0  0
 14 34  1  0  0  0  0
 15 40  1  0  0  0  0
 16 42  1  0  0  0  0
 17 30  1  0  0  0  0
 17 34  1  0  0  0  0
 17 37  2  0  0  0  0
 18 35  1  0  0  0  0
 19 20  1  0  0  0  0
 19 29  1  0  0  0  0
 20 29  1  0  0  0  0
 21 24  1  0  0  0  0
 21 30  1  0  0  0  0
 22 26  1  0  0  0  0
 22 28  1  0  0  0  0
 23 27  1  0  0  0  0
 23 28  1  0  0  0  0
 24 34  1  0  0  0  0
 25 30  1  0  0  0  0
 25 35  1  0  0  0  0
 26 36  1  0  0  0  0
 27 36  1  0  0  0  0
 28 40  1  0  0  0  0
 29 31  1  0  0  0  0
 31 41  1  0  0  0  0
 35 41  1  1  0  0  0
 38 41  2  0  0  0  0
 39 41  2  0  0  0  0
  2 43  1  0  0  0  0
  3 44  1  0  0  0  0
  4 45  1  0  0  0  0
  5 46  1  0  0  0  0
  6 47  1  0  0  0  0
  7 48  1  0  0  0  0
  8 49  1  0  0  0  0
  9 50  1  0  0  0  0
 18 51  1  0  0  0  0
 18 52  1  0  0  0  0
 19 53  1  0  0  0  0
 19 54  1  0  0  0  0
 20 55  1  0  0  0  0
 20 56  1  0  0  0  0
 21 57  1  0  0  0  0
 21 58  1  0  0  0  0
 22 59  1  0  0  0  0
 22 60  1  0  0  0  0
 23 61  1  0  0  0  0
 23 62  1  0  0  0  0
 24 63  1  0  0  0  0
 24 64  1  0  0  0  0
 25 65  1  0  0  0  0
 25 66  1  0  0  0  0
 26 67  1  0  0  0  0
 26 68  1  0  0  0  0
 27 69  1  0  0  0  0
 27 70  1  0  0  0  0
 28 71  1  0  0  0  0
 31 72  1  0  0  0  0
 31 73  1  0  0  0  0
 36 74  1  0  0  0  0
 36 75  1  0  0  0  0
M  CHG  1  36   1
M  END
> <compound>
EDJ-MED-ee81482e-4

> <compound_smiles>
c1cc2cncc(c2cc1OC3CCNCC3)N4CCC5(C4=O)CN(Cc6c5cc(cc6)Cl)S(=O)(=O)CC7(CC7)C#N

> <enantiomer_smiles>
c1cc2cncc(c2cc1OC3CCNCC3)N4CCC5(C4=O)C[N@@](Cc6c5cc(cc6)Cl)S(=O)(=O)CC7(CC7)C#N

> <scaffold>
tetrahydroisoquinoline-5spiro-isoquinoline

> <clash_score>
0

> <docking_score>
-8.242515563964844

> <overlap_score>
0.9745023250579834

> <MMFF_internal_energy>
138.19442168685296

> <docked_smiles>
c1cc2cncc(c2cc1OC3CC[NH2+]CC3)N4CC[C@@]5(C4=O)C[N@@](Cc6c5cc(cc6)Cl)S(=O)(=O)CC7(CC7)C#N

$$$$
MAT-POS-40ad851a-2_1
  -OEChem-12272114583D

 77 82  0     1  0  0  0  0  0999 V2000
    9.5894    5.6644   24.2412 C   0  0  0  0  0  0  0  0  0  0  0  0
    3.7865    2.4205   19.1660 C   0  0  0  0  0  0  0  0  0  0  0  0
   12.0765    0.0316   24.1541 C   0  0  0  0  0  0  0  0  0  0  0  0
    3.3432    2.6279   20.4411 C   0  0  0  0  0  0  0  0  0  0  0  0
   12.9132   -0.6032   23.2569 C   0  0  0  0  0  0  0  0  0  0  0  0
    4.8973    1.0233   21.2988 C   0  0  0  0  0  0  0  0  0  0  0  0
   10.9991   -1.4331   22.0443 C   0  0  0  0  0  0  0  0  0  0  0  0
    5.3278    1.2339   17.6066 C   0  0  0  0  0  0  0  0  0  0  0  0
    6.8438   -0.2892   18.3752 C   0  0  0  0  0  0  0  0  0  0  0  0
    4.8226    1.4906   18.9054 C   0  0  0  0  0  0  0  0  0  0  0  0
    5.3982    0.7733   19.9948 C   0  0  0  0  0  0  0  0  0  0  0  0
   10.7040   -0.0625   23.9898 C   0  0  0  0  0  0  0  0  0  0  0  0
   10.1406   -0.7765   22.9250 C   0  0  0  0  0  0  0  0  0  0  0  0
    6.4440   -0.1472   19.6979 C   0  0  0  0  0  0  0  0  0  0  0  0
    3.8960    1.9291   21.5050 C   0  0  0  0  0  0  0  0  0  0  0  0
   12.3683   -1.3298   22.2234 C   0  0  0  0  0  0  0  0  0  0  0  0
    8.2490    0.0169   21.4271 C   0  0  0  0  0  0  0  0  0  0  0  0
    9.9479    0.5589   24.9534 C   0  0  0  0  0  0  0  0  0  0  0  0
    7.2223    5.9104   25.0732 C   0  0  0  0  0  0  0  0  0  0  0  0
    7.1488    5.4420   23.6499 C   0  0  0  0  0  0  0  0  0  0  0  0
    8.0140   -2.1541   22.4331 C   0  0  0  0  0  0  0  0  0  0  0  0
    6.9866   -1.9366   21.3580 C   0  0  0  0  0  0  0  0  0  0  0  0
    7.8721   -0.1194   23.8831 C   0  0  0  0  0  0  0  0  0  0  0  0
    8.3223    5.0365   24.5134 C   0  0  0  0  0  0  0  0  0  0  0  0
    8.6238   -0.7606   22.6929 C   0  0  3  0  0  0  0  0  0  0  0  0
    0.6532   -0.1708   25.8632 C   0  0  0  0  0  0  0  0  0  0  0  0
    1.0029    2.7803   26.0011 C   0  0  0  0  0  0  0  0  0  0  0  0
    8.3989    3.6007   24.9821 C   0  0  0  0  0  0  0  0  0  0  0  0
    0.6021    0.7271   24.6465 C   0  0  0  0  0  0  0  0  0  0  0  0
    2.9234    1.5199   25.0352 C   0  0  0  0  0  0  0  0  0  0  0  0
    3.4781    1.0738   23.6967 C   0  0  0  0  0  0  0  0  0  0  0  0
   10.6102    6.1703   24.0219 N   0  0  0  0  0  0  0  0  0  0  0  0
    6.3062    0.3769   17.3421 N   0  0  0  0  0  0  0  0  0  0  0  0
    7.2292   -0.6897   20.7790 N   0  0  0  0  0  0  0  0  0  0  0  0
    8.6609    1.0133   24.4995 N   0  0  1  0  0  0  0  0  0  0  0  0
    1.5025    1.9171   24.8690 N   0  3  1  0  0  0  0  0  0  0  0  0
    8.7572    1.0941   21.1350 O   0  0  0  0  0  0  0  0  0  0  0  0
    7.4125    2.5052   22.8247 O   0  0  0  0  0  0  0  0  0  0  0  0
    9.9194    2.7386   23.0398 O   0  0  0  0  0  0  0  0  0  0  0  0
    3.4227    2.1582   22.7714 O   0  0  0  0  0  0  0  0  0  0  0  0
    8.6198    2.4832   23.6217 S   0  0  0  0  0  0  0  0  0  0  0  0
   13.4275   -2.1421   21.1097 Cl  0  0  0  0  0  0  0  0  0  0  0  0
    3.3406    2.9746   18.3368 H   0  0  0  0  0  0  0  0  0  0  0  0
   12.5015    0.5938   24.9776 H   0  0  0  0  0  0  0  0  0  0  0  0
    2.5407    3.3506   20.6306 H   0  0  0  0  0  0  0  0  0  0  0  0
   13.9911   -0.5212   23.3814 H   0  0  0  0  0  0  0  0  0  0  0  0
    5.3162    0.4858   22.1535 H   0  0  0  0  0  0  0  0  0  0  0  0
   10.6037   -2.0228   21.2288 H   0  0  0  0  0  0  0  0  0  0  0  0
    4.9131    1.7514   16.7479 H   0  0  0  0  0  0  0  0  0  0  0  0
    7.6448   -0.9758   18.1041 H   0  0  0  0  0  0  0  0  0  0  0  0
    9.7581   -0.1287   25.8173 H   0  0  0  0  0  0  0  0  0  0  0  0
   10.4931    1.4391   25.3829 H   0  0  0  0  0  0  0  0  0  0  0  0
    7.4229    6.9617   25.2461 H   0  0  0  0  0  0  0  0  0  0  0  0
    6.5260    5.4769   25.7817 H   0  0  0  0  0  0  0  0  0  0  0  0
    6.4024    4.6953   23.4049 H   0  0  0  0  0  0  0  0  0  0  0  0
    7.2994    6.1805   22.8706 H   0  0  0  0  0  0  0  0  0  0  0  0
    7.5801   -2.6060   23.3366 H   0  0  0  0  0  0  0  0  0  0  0  0
    8.7749   -2.8608   22.0657 H   0  0  0  0  0  0  0  0  0  0  0  0
    7.0227   -2.7506   20.5953 H   0  0  0  0  0  0  0  0  0  0  0  0
    5.9554   -1.9484   21.7832 H   0  0  0  0  0  0  0  0  0  0  0  0
    6.8886    0.2769   23.5667 H   0  0  0  0  0  0  0  0  0  0  0  0
    7.6579   -0.8710   24.6633 H   0  0  0  0  0  0  0  0  0  0  0  0
    1.6706   -0.5442   26.0149 H   0  0  0  0  0  0  0  0  0  0  0  0
    0.3528    0.3696   26.7669 H   0  0  0  0  0  0  0  0  0  0  0  0
   -0.0103   -1.0341   25.7463 H   0  0  0  0  0  0  0  0  0  0  0  0
    1.0646    2.1944   26.9200 H   0  0  0  0  0  0  0  0  0  0  0  0
    1.6421    3.6636   26.0550 H   0  0  0  0  0  0  0  0  0  0  0  0
   -0.0300    3.0561   25.7802 H   0  0  0  0  0  0  0  0  0  0  0  0
    7.4787    3.3067   25.4946 H   0  0  0  0  0  0  0  0  0  0  0  0
    9.2443    3.4547   25.6599 H   0  0  0  0  0  0  0  0  0  0  0  0
   -0.4053    1.1147   24.4718 H   0  0  0  0  0  0  0  0  0  0  0  0
    0.9627    0.2146   23.7503 H   0  0  0  0  0  0  0  0  0  0  0  0
    3.4453    2.3981   25.4256 H   0  0  0  0  0  0  0  0  0  0  0  0
    2.9389    0.7102   25.7696 H   0  0  0  0  0  0  0  0  0  0  0  0
    4.5260    0.7786   23.8085 H   0  0  0  0  0  0  0  0  0  0  0  0
    2.9161    0.2279   23.2877 H   0  0  0  0  0  0  0  0  0  0  0  0
    1.4327    2.4960   24.0149 H   0  0  0  0  0  0  0  0  0  0  0  0
  1 24  1  0  0  0  0
  1 32  3  0  0  0  0
  2  4  2  0  0  0  0
  2 10  1  0  0  0  0
  3  5  1  0  0  0  0
  3 12  2  0  0  0  0
  4 15  1  0  0  0  0
  5 16  2  0  0  0  0
  6 11  1  0  0  0  0
  6 15  2  0  0  0  0
  7 13  2  0  0  0  0
  7 16  1  0  0  0  0
  8 10  1  0  0  0  0
  8 33  2  0  0  0  0
  9 14  2  0  0  0  0
  9 33  1  0  0  0  0
 10 11  2  0  0  0  0
 11 14  1  0  0  0  0
 12 13  1  0  0  0  0
 12 18  1  0  0  0  0
 13 25  1  0  0  0  0
 14 34  1  0  0  0  0
 15 40  1  0  0  0  0
 16 42  1  0  0  0  0
 17 25  1  0  0  0  0
 17 34  1  0  0  0  0
 17 37  2  0  0  0  0
 18 35  1  0  0  0  0
 19 20  1  0  0  0  0
 19 24  1  0  0  0  0
 20 24  1  0  0  0  0
 21 22  1  0  0  0  0
 21 25  1  0  0  0  0
 22 34  1  0  0  0  0
 23 25  1  0  0  0  0
 23 35  1  0  0  0  0
 24 28  1  0  0  0  0
 26 29  1  0  0  0  0
 27 36  1  1  0  0  0
 28 41  1  0  0  0  0
 29 36  1  0  0  0  0
 30 31  1  0  0  0  0
 30 36  1  0  0  0  0
 31 40  1  0  0  0  0
 35 41  1  1  0  0  0
 38 41  2  0  0  0  0
 39 41  2  0  0  0  0
  2 43  1  0  0  0  0
  3 44  1  0  0  0  0
  4 45  1  0  0  0  0
  5 46  1  0  0  0  0
  6 47  1  0  0  0  0
  7 48  1  0  0  0  0
  8 49  1  0  0  0  0
  9 50  1  0  0  0  0
 18 51  1  0  0  0  0
 18 52  1  0  0  0  0
 19 53  1  0  0  0  0
 19 54  1  0  0  0  0
 20 55  1  0  0  0  0
 20 56  1  0  0  0  0
 21 57  1  0  0  0  0
 21 58  1  0  0  0  0
 22 59  1  0  0  0  0
 22 60  1  0  0  0  0
 23 61  1  0  0  0  0
 23 62  1  0  0  0  0
 26 63  1  0  0  0  0
 26 64  1  0  0  0  0
 26 65  1  0  0  0  0
 27 66  1  0  0  0  0
 27 67  1  0  0  0  0
 27 68  1  0  0  0  0
 28 69  1  0  0  0  0
 28 70  1  0  0  0  0
 29 71  1  0  0  0  0
 29 72  1  0  0  0  0
 30 73  1  0  0  0  0
 30 74  1  0  0  0  0
 31 75  1  0  0  0  0
 31 76  1  0  0  0  0
 36 77  1  0  0  0  0
M  CHG  1  36   1
M  END
> <compound>
MAT-POS-40ad851a-2

> <compound_smiles>
CCN(C)CCOc1ccc2cncc(c2c1)N3CCC4(C3=O)CN(Cc5c4cc(cc5)Cl)S(=O)(=O)CC6(CC6)C#N

> <enantiomer_smiles>
CC[N@@](C)CCOc1ccc2cncc(c2c1)N3CCC4(C3=O)C[N@@](Cc5c4cc(cc5)Cl)S(=O)(=O)CC6(CC6)C#N

> <scaffold>
tetrahydroisoquinoline-5spiro-isoquinoline

> <clash_score>
0

> <docking_score>
-7.730309009552002

> <overlap_score>
0.9753300547599792

> <MMFF_internal_energy>
165.76686532843058

> <docked_smiles>
CC[N@@H+](C)CCOc1ccc2cncc(c2c1)N3CC[C@@]4(C3=O)C[N@@](Cc5c4cc(cc5)Cl)S(=O)(=O)CC6(CC6)C#N

$$$$
MAT-POS-40ad851a-2_4
  -OEChem-12272114583D

 77 82  0     1  0  0  0  0  0999 V2000
    6.3365    4.8398   25.6864 C   0  0  0  0  0  0  0  0  0  0  0  0
    3.7865    2.4205   19.1660 C   0  0  0  0  0  0  0  0  0  0  0  0
   12.0765    0.0316   24.1541 C   0  0  0  0  0  0  0  0  0  0  0  0
    3.3432    2.6279   20.4411 C   0  0  0  0  0  0  0  0  0  0  0  0
   12.9132   -0.6032   23.2569 C   0  0  0  0  0  0  0  0  0  0  0  0
    4.8973    1.0233   21.2988 C   0  0  0  0  0  0  0  0  0  0  0  0
   10.9991   -1.4331   22.0443 C   0  0  0  0  0  0  0  0  0  0  0  0
    5.3278    1.2339   17.6066 C   0  0  0  0  0  0  0  0  0  0  0  0
    6.8438   -0.2892   18.3752 C   0  0  0  0  0  0  0  0  0  0  0  0
    4.8226    1.4906   18.9054 C   0  0  0  0  0  0  0  0  0  0  0  0
    5.3982    0.7733   19.9948 C   0  0  0  0  0  0  0  0  0  0  0  0
   10.7040   -0.0625   23.9898 C   0  0  0  0  0  0  0  0  0  0  0  0
   10.1406   -0.7765   22.9250 C   0  0  0  0  0  0  0  0  0  0  0  0
    6.4440   -0.1472   19.6979 C   0  0  0  0  0  0  0  0  0  0  0  0
    3.8960    1.9291   21.5050 C   0  0  0  0  0  0  0  0  0  0  0  0
   12.3683   -1.3298   22.2234 C   0  0  0  0  0  0  0  0  0  0  0  0
    8.2490    0.0169   21.4271 C   0  0  0  0  0  0  0  0  0  0  0  0
    9.9479    0.5589   24.9534 C   0  0  0  0  0  0  0  0  0  0  0  0
    8.5554    6.0147   25.9144 C   0  0  0  0  0  0  0  0  0  0  0  0
    8.3999    5.1188   27.1077 C   0  0  0  0  0  0  0  0  0  0  0  0
    8.0140   -2.1541   22.4331 C   0  0  0  0  0  0  0  0  0  0  0  0
    6.9866   -1.9366   21.3580 C   0  0  0  0  0  0  0  0  0  0  0  0
    7.8721   -0.1194   23.8831 C   0  0  0  0  0  0  0  0  0  0  0  0
    7.7686    4.7292   25.7898 C   0  0  0  0  0  0  0  0  0  0  0  0
    8.6238   -0.7606   22.6929 C   0  0  3  0  0  0  0  0  0  0  0  0
    0.8052   -0.4517   24.6857 C   0  0  0  0  0  0  0  0  0  0  0  0
    1.3521    3.3061   24.3395 C   0  0  0  0  0  0  0  0  0  0  0  0
    8.3874    3.5882   25.0137 C   0  0  0  0  0  0  0  0  0  0  0  0
    0.7210    0.9156   24.0433 C   0  0  0  0  0  0  0  0  0  0  0  0
    2.9283    1.5069   25.0326 C   0  0  0  0  0  0  0  0  0  0  0  0
    3.4815    1.0690   23.6908 C   0  0  0  0  0  0  0  0  0  0  0  0
    5.1827    4.9289   25.6030 N   0  0  0  0  0  0  0  0  0  0  0  0
    6.3062    0.3769   17.3421 N   0  0  0  0  0  0  0  0  0  0  0  0
    7.2292   -0.6897   20.7790 N   0  0  0  0  0  0  0  0  0  0  0  0
    8.6609    1.0133   24.4995 N   0  0  2  0  0  0  0  0  0  0  0  0
    1.5065    1.9026   24.8710 N   0  3  2  0  0  0  0  0  0  0  0  0
    8.8299    1.0397   21.0799 O   0  0  0  0  0  0  0  0  0  0  0  0
    8.2407    1.8013   26.9144 O   0  0  0  0  0  0  0  0  0  0  0  0
    6.3653    1.9471   25.2271 O   0  0  0  0  0  0  0  0  0  0  0  0
    3.4227    2.1582   22.7714 O   0  0  0  0  0  0  0  0  0  0  0  0
    7.7708    2.0177   25.5632 S   0  0  0  0  0  0  0  0  0  0  0  0
   13.4272   -2.1411   21.1086 Cl  0  0  0  0  0  0  0  0  0  0  0  0
    3.3406    2.9746   18.3368 H   0  0  0  0  0  0  0  0  0  0  0  0
   12.5024    0.5995   24.9735 H   0  0  0  0  0  0  0  0  0  0  0  0
    2.5407    3.3506   20.6306 H   0  0  0  0  0  0  0  0  0  0  0  0
   13.9910   -0.5177   23.3793 H   0  0  0  0  0  0  0  0  0  0  0  0
    5.3162    0.4858   22.1535 H   0  0  0  0  0  0  0  0  0  0  0  0
   10.6036   -2.0162   21.2241 H   0  0  0  0  0  0  0  0  0  0  0  0
    4.9131    1.7514   16.7479 H   0  0  0  0  0  0  0  0  0  0  0  0
    7.6448   -0.9758   18.1041 H   0  0  0  0  0  0  0  0  0  0  0  0
    9.7849   -0.1194   25.8306 H   0  0  0  0  0  0  0  0  0  0  0  0
   10.4793    1.4568   25.3613 H   0  0  0  0  0  0  0  0  0  0  0  0
    8.0222    6.9586   25.9223 H   0  0  0  0  0  0  0  0  0  0  0  0
    9.5340    6.0703   25.4517 H   0  0  0  0  0  0  0  0  0  0  0  0
    9.2748    4.5751   27.4449 H   0  0  0  0  0  0  0  0  0  0  0  0
    7.7632    5.4641   27.9144 H   0  0  0  0  0  0  0  0  0  0  0  0
    7.5152   -2.5456   23.3338 H   0  0  0  0  0  0  0  0  0  0  0  0
    8.7649   -2.9030   22.1434 H   0  0  0  0  0  0  0  0  0  0  0  0
    7.0587   -2.7248   20.5721 H   0  0  0  0  0  0  0  0  0  0  0  0
    5.9518   -1.9952   21.7720 H   0  0  0  0  0  0  0  0  0  0  0  0
    6.8867    0.2641   23.5642 H   0  0  0  0  0  0  0  0  0  0  0  0
    7.6652   -0.8660   24.6733 H   0  0  0  0  0  0  0  0  0  0  0  0
    1.8449   -0.7920   24.7154 H   0  0  0  0  0  0  0  0  0  0  0  0
    0.4266   -0.4304   25.7129 H   0  0  0  0  0  0  0  0  0  0  0  0
    0.2234   -1.1897   24.1236 H   0  0  0  0  0  0  0  0  0  0  0  0
    1.8048    3.3390   23.3469 H   0  0  0  0  0  0  0  0  0  0  0  0
    0.2847    3.5299   24.2919 H   0  0  0  0  0  0  0  0  0  0  0  0
    1.8645    3.9819   25.0270 H   0  0  0  0  0  0  0  0  0  0  0  0
    9.4732    3.5710   25.1421 H   0  0  0  0  0  0  0  0  0  0  0  0
    8.1577    3.6698   23.9479 H   0  0  0  0  0  0  0  0  0  0  0  0
   -0.3091    1.2799   24.0009 H   0  0  0  0  0  0  0  0  0  0  0  0
    1.1568    0.9187   23.0404 H   0  0  0  0  0  0  0  0  0  0  0  0
    3.4495    2.3839   25.4268 H   0  0  0  0  0  0  0  0  0  0  0  0
    2.9465    0.6934   25.7626 H   0  0  0  0  0  0  0  0  0  0  0  0
    4.5301    0.7750   23.7992 H   0  0  0  0  0  0  0  0  0  0  0  0
    2.9203    0.2243   23.2782 H   0  0  0  0  0  0  0  0  0  0  0  0
    1.0703    1.9016   25.8086 H   0  0  0  0  0  0  0  0  0  0  0  0
  1 24  1  0  0  0  0
  1 32  3  0  0  0  0
  2  4  2  0  0  0  0
  2 10  1  0  0  0  0
  3  5  1  0  0  0  0
  3 12  2  0  0  0  0
  4 15  1  0  0  0  0
  5 16  2  0  0  0  0
  6 11  1  0  0  0  0
  6 15  2  0  0  0  0
  7 13  2  0  0  0  0
  7 16  1  0  0  0  0
  8 10  1  0  0  0  0
  8 33  2  0  0  0  0
  9 14  2  0  0  0  0
  9 33  1  0  0  0  0
 10 11  2  0  0  0  0
 11 14  1  0  0  0  0
 12 13  1  0  0  0  0
 12 18  1  0  0  0  0
 13 25  1  0  0  0  0
 14 34  1  0  0  0  0
 15 40  1  0  0  0  0
 16 42  1  0  0  0  0
 17 25  1  0  0  0  0
 17 34  1  0  0  0  0
 17 37  2  0  0  0  0
 18 35  1  0  0  0  0
 19 20  1  0  0  0  0
 19 24  1  0  0  0  0
 20 24  1  0  0  0  0
 21 22  1  0  0  0  0
 21 25  1  0  0  0  0
 22 34  1  0  0  0  0
 23 25  1  0  0  0  0
 23 35  1  0  0  0  0
 24 28  1  0  0  0  0
 26 29  1  0  0  0  0
 27 36  1  6  0  0  0
 28 41  1  0  0  0  0
 29 36  1  0  0  0  0
 30 31  1  0  0  0  0
 30 36  1  0  0  0  0
 31 40  1  0  0  0  0
 35 41  1  6  0  0  0
 38 41  2  0  0  0  0
 39 41  2  0  0  0  0
  2 43  1  0  0  0  0
  3 44  1  0  0  0  0
  4 45  1  0  0  0  0
  5 46  1  0  0  0  0
  6 47  1  0  0  0  0
  7 48  1  0  0  0  0
  8 49  1  0  0  0  0
  9 50  1  0  0  0  0
 18 51  1  0  0  0  0
 18 52  1  0  0  0  0
 19 53  1  0  0  0  0
 19 54  1  0  0  0  0
 20 55  1  0  0  0  0
 20 56  1  0  0  0  0
 21 57  1  0  0  0  0
 21 58  1  0  0  0  0
 22 59  1  0  0  0  0
 22 60  1  0  0  0  0
 23 61  1  0  0  0  0
 23 62  1  0  0  0  0
 26 63  1  0  0  0  0
 26 64  1  0  0  0  0
 26 65  1  0  0  0  0
 27 66  1  0  0  0  0
 27 67  1  0  0  0  0
 27 68  1  0  0  0  0
 28 69  1  0  0  0  0
 28 70  1  0  0  0  0
 29 71  1  0  0  0  0
 29 72  1  0  0  0  0
 30 73  1  0  0  0  0
 30 74  1  0  0  0  0
 31 75  1  0  0  0  0
 31 76  1  0  0  0  0
 36 77  1  0  0  0  0
M  CHG  1  36   1
M  END
> <compound>
MAT-POS-40ad851a-2

> <compound_smiles>
CCN(C)CCOc1ccc2cncc(c2c1)N3CCC4(C3=O)CN(Cc5c4cc(cc5)Cl)S(=O)(=O)CC6(CC6)C#N

> <enantiomer_smiles>
CC[N@](C)CCOc1ccc2cncc(c2c1)N3CCC4(C3=O)C[N@](Cc5c4cc(cc5)Cl)S(=O)(=O)CC6(CC6)C#N

> <scaffold>
tetrahydroisoquinoline-5spiro-isoquinoline

> <clash_score>
0

> <docking_score>
-6.7119903564453125

> <overlap_score>
0.9717410802841187

> <MMFF_internal_energy>
137.7599761527259

> <docked_smiles>
CC[N@H+](C)CCOc1ccc2cncc(c2c1)N3CC[C@@]4(C3=O)C[N@](Cc5c4cc(cc5)Cl)S(=O)(=O)CC6(CC6)C#N

$$$$
MAT-POS-40ad851a-2_3
  -OEChem-12272114583D

 77 82  0     1  0  0  0  0  0999 V2000
    6.2946    4.8987   24.5806 C   0  0  0  0  0  0  0  0  0  0  0  0
    3.7865    2.4205   19.1660 C   0  0  0  0  0  0  0  0  0  0  0  0
   12.0765    0.0316   24.1541 C   0  0  0  0  0  0  0  0  0  0  0  0
    3.3432    2.6279   20.4411 C   0  0  0  0  0  0  0  0  0  0  0  0
   12.9132   -0.6032   23.2569 C   0  0  0  0  0  0  0  0  0  0  0  0
    4.8973    1.0233   21.2988 C   0  0  0  0  0  0  0  0  0  0  0  0
   10.9991   -1.4331   22.0443 C   0  0  0  0  0  0  0  0  0  0  0  0
    5.3278    1.2339   17.6066 C   0  0  0  0  0  0  0  0  0  0  0  0
    6.8438   -0.2892   18.3752 C   0  0  0  0  0  0  0  0  0  0  0  0
    4.8226    1.4906   18.9054 C   0  0  0  0  0  0  0  0  0  0  0  0
    5.3982    0.7733   19.9948 C   0  0  0  0  0  0  0  0  0  0  0  0
   10.7040   -0.0625   23.9898 C   0  0  0  0  0  0  0  0  0  0  0  0
   10.1406   -0.7765   22.9250 C   0  0  0  0  0  0  0  0  0  0  0  0
    6.4440   -0.1472   19.6979 C   0  0  0  0  0  0  0  0  0  0  0  0
    3.8960    1.9291   21.5050 C   0  0  0  0  0  0  0  0  0  0  0  0
   12.3683   -1.3298   22.2234 C   0  0  0  0  0  0  0  0  0  0  0  0
    8.2490    0.0169   21.4271 C   0  0  0  0  0  0  0  0  0  0  0  0
    9.9479    0.5589   24.9534 C   0  0  0  0  0  0  0  0  0  0  0  0
    8.0426    5.9528   26.0601 C   0  0  0  0  0  0  0  0  0  0  0  0
    7.2605    4.9930   26.9073 C   0  0  0  0  0  0  0  0  0  0  0  0
    8.0140   -2.1541   22.4331 C   0  0  0  0  0  0  0  0  0  0  0  0
    6.9866   -1.9366   21.3580 C   0  0  0  0  0  0  0  0  0  0  0  0
    7.8721   -0.1194   23.8831 C   0  0  0  0  0  0  0  0  0  0  0  0
    7.4417    4.7155   25.4317 C   0  0  0  0  0  0  0  0  0  0  0  0
    8.6238   -0.7606   22.6929 C   0  0  3  0  0  0  0  0  0  0  0  0
    0.6625   -0.1920   25.8555 C   0  0  0  0  0  0  0  0  0  0  0  0
    1.0074    2.7589   26.0085 C   0  0  0  0  0  0  0  0  0  0  0  0
    8.3760    3.5972   25.0271 C   0  0  0  0  0  0  0  0  0  0  0  0
    0.6078    0.7123   24.6436 C   0  0  0  0  0  0  0  0  0  0  0  0
    2.9283    1.5069   25.0326 C   0  0  0  0  0  0  0  0  0  0  0  0
    3.4815    1.0690   23.6908 C   0  0  0  0  0  0  0  0  0  0  0  0
    5.3705    5.0463   23.8948 N   0  0  0  0  0  0  0  0  0  0  0  0
    6.3062    0.3769   17.3421 N   0  0  0  0  0  0  0  0  0  0  0  0
    7.2292   -0.6897   20.7790 N   0  0  0  0  0  0  0  0  0  0  0  0
    8.6609    1.0133   24.4995 N   0  0  2  0  0  0  0  0  0  0  0  0
    1.5065    1.9026   24.8710 N   0  3  1  0  0  0  0  0  0  0  0  0
    8.8299    1.0397   21.0799 O   0  0  0  0  0  0  0  0  0  0  0  0
    8.2186    1.8058   26.9226 O   0  0  0  0  0  0  0  0  0  0  0  0
    6.3728    1.9285   25.2012 O   0  0  0  0  0  0  0  0  0  0  0  0
    3.4227    2.1582   22.7714 O   0  0  0  0  0  0  0  0  0  0  0  0
    7.7708    2.0177   25.5632 S   0  0  0  0  0  0  0  0  0  0  0  0
   13.4272   -2.1411   21.1086 Cl  0  0  0  0  0  0  0  0  0  0  0  0
    3.3406    2.9746   18.3368 H   0  0  0  0  0  0  0  0  0  0  0  0
   12.5024    0.5995   24.9735 H   0  0  0  0  0  0  0  0  0  0  0  0
    2.5407    3.3506   20.6306 H   0  0  0  0  0  0  0  0  0  0  0  0
   13.9910   -0.5177   23.3793 H   0  0  0  0  0  0  0  0  0  0  0  0
    5.3162    0.4858   22.1535 H   0  0  0  0  0  0  0  0  0  0  0  0
   10.6036   -2.0162   21.2241 H   0  0  0  0  0  0  0  0  0  0  0  0
    4.9131    1.7514   16.7479 H   0  0  0  0  0  0  0  0  0  0  0  0
    7.6448   -0.9758   18.1041 H   0  0  0  0  0  0  0  0  0  0  0  0
    9.7849   -0.1194   25.8306 H   0  0  0  0  0  0  0  0  0  0  0  0
   10.4793    1.4568   25.3613 H   0  0  0  0  0  0  0  0  0  0  0  0
    7.5954    6.9182   25.8518 H   0  0  0  0  0  0  0  0  0  0  0  0
    9.1161    5.9915   26.2047 H   0  0  0  0  0  0  0  0  0  0  0  0
    7.8103    4.3894   27.6202 H   0  0  0  0  0  0  0  0  0  0  0  0
    6.2903    5.3169   27.2665 H   0  0  0  0  0  0  0  0  0  0  0  0
    7.5152   -2.5456   23.3338 H   0  0  0  0  0  0  0  0  0  0  0  0
    8.7649   -2.9030   22.1434 H   0  0  0  0  0  0  0  0  0  0  0  0
    7.0587   -2.7248   20.5721 H   0  0  0  0  0  0  0  0  0  0  0  0
    5.9518   -1.9952   21.7720 H   0  0  0  0  0  0  0  0  0  0  0  0
    6.8867    0.2641   23.5642 H   0  0  0  0  0  0  0  0  0  0  0  0
    7.6652   -0.8660   24.6733 H   0  0  0  0  0  0  0  0  0  0  0  0
    1.6808   -0.5645   26.0034 H   0  0  0  0  0  0  0  0  0  0  0  0
    0.3627    0.3431   26.7625 H   0  0  0  0  0  0  0  0  0  0  0  0
    0.0003   -1.0558   25.7351 H   0  0  0  0  0  0  0  0  0  0  0  0
    1.0717    2.1682   26.9242 H   0  0  0  0  0  0  0  0  0  0  0  0
    1.6452    3.6430   26.0661 H   0  0  0  0  0  0  0  0  0  0  0  0
   -0.0263    3.0341   25.7909 H   0  0  0  0  0  0  0  0  0  0  0  0
    9.3648    3.7322   25.4741 H   0  0  0  0  0  0  0  0  0  0  0  0
    8.4820    3.5498   23.9399 H   0  0  0  0  0  0  0  0  0  0  0  0
   -0.4006    1.0991   24.4727 H   0  0  0  0  0  0  0  0  0  0  0  0
    0.9677    0.2053   23.7441 H   0  0  0  0  0  0  0  0  0  0  0  0
    3.4495    2.3839   25.4268 H   0  0  0  0  0  0  0  0  0  0  0  0
    2.9465    0.6934   25.7626 H   0  0  0  0  0  0  0  0  0  0  0  0
    4.5301    0.7750   23.7992 H   0  0  0  0  0  0  0  0  0  0  0  0
    2.9203    0.2243   23.2782 H   0  0  0  0  0  0  0  0  0  0  0  0
    1.4343    2.4859   24.0201 H   0  0  0  0  0  0  0  0  0  0  0  0
  1 24  1  0  0  0  0
  1 32  3  0  0  0  0
  2  4  2  0  0  0  0
  2 10  1  0  0  0  0
  3  5  1  0  0  0  0
  3 12  2  0  0  0  0
  4 15  1  0  0  0  0
  5 16  2  0  0  0  0
  6 11  1  0  0  0  0
  6 15  2  0  0  0  0
  7 13  2  0  0  0  0
  7 16  1  0  0  0  0
  8 10  1  0  0  0  0
  8 33  2  0  0  0  0
  9 14  2  0  0  0  0
  9 33  1  0  0  0  0
 10 11  2  0  0  0  0
 11 14  1  0  0  0  0
 12 13  1  0  0  0  0
 12 18  1  0  0  0  0
 13 25  1  0  0  0  0
 14 34  1  0  0  0  0
 15 40  1  0  0  0  0
 16 42  1  0  0  0  0
 17 25  1  0  0  0  0
 17 34  1  0  0  0  0
 17 37  2  0  0  0  0
 18 35  1  0  0  0  0
 19 20  1  0  0  0  0
 19 24  1  0  0  0  0
 20 24  1  0  0  0  0
 21 22  1  0  0  0  0
 21 25  1  0  0  0  0
 22 34  1  0  0  0  0
 23 25  1  0  0  0  0
 23 35  1  0  0  0  0
 24 28  1  0  0  0  0
 26 29  1  0  0  0  0
 27 36  1  1  0  0  0
 28 41  1  0  0  0  0
 29 36  1  0  0  0  0
 30 31  1  0  0  0  0
 30 36  1  0  0  0  0
 31 40  1  0  0  0  0
 35 41  1  6  0  0  0
 38 41  2  0  0  0  0
 39 41  2  0  0  0  0
  2 43  1  0  0  0  0
  3 44  1  0  0  0  0
  4 45  1  0  0  0  0
  5 46  1  0  0  0  0
  6 47  1  0  0  0  0
  7 48  1  0  0  0  0
  8 49  1  0  0  0  0
  9 50  1  0  0  0  0
 18 51  1  0  0  0  0
 18 52  1  0  0  0  0
 19 53  1  0  0  0  0
 19 54  1  0  0  0  0
 20 55  1  0  0  0  0
 20 56  1  0  0  0  0
 21 57  1  0  0  0  0
 21 58  1  0  0  0  0
 22 59  1  0  0  0  0
 22 60  1  0  0  0  0
 23 61  1  0  0  0  0
 23 62  1  0  0  0  0
 26 63  1  0  0  0  0
 26 64  1  0  0  0  0
 26 65  1  0  0  0  0
 27 66  1  0  0  0  0
 27 67  1  0  0  0  0
 27 68  1  0  0  0  0
 28 69  1  0  0  0  0
 28 70  1  0  0  0  0
 29 71  1  0  0  0  0
 29 72  1  0  0  0  0
 30 73  1  0  0  0  0
 30 74  1  0  0  0  0
 31 75  1  0  0  0  0
 31 76  1  0  0  0  0
 36 77  1  0  0  0  0
M  CHG  1  36   1
M  END
> <compound>
MAT-POS-40ad851a-2

> <compound_smiles>
CCN(C)CCOc1ccc2cncc(c2c1)N3CCC4(C3=O)CN(Cc5c4cc(cc5)Cl)S(=O)(=O)CC6(CC6)C#N

> <enantiomer_smiles>
CC[N@@](C)CCOc1ccc2cncc(c2c1)N3CCC4(C3=O)C[N@](Cc5c4cc(cc5)Cl)S(=O)(=O)CC6(CC6)C#N

> <scaffold>
tetrahydroisoquinoline-5spiro-isoquinoline

> <clash_score>
0

> <docking_score>
-6.830524444580078

> <overlap_score>
0.9718427658081055

> <MMFF_internal_energy>
136.67032545374744

> <docked_smiles>
CC[N@@H+](C)CCOc1ccc2cncc(c2c1)N3CC[C@@]4(C3=O)C[N@](Cc5c4cc(cc5)Cl)S(=O)(=O)CC6(CC6)C#N

$$$$
MAT-POS-40ad851a-2_2
  -OEChem-12272114583D

 77 82  0     1  0  0  0  0  0999 V2000
    9.5881    5.6615   24.2579 C   0  0  0  0  0  0  0  0  0  0  0  0
    3.7865    2.4205   19.1660 C   0  0  0  0  0  0  0  0  0  0  0  0
   12.0765    0.0316   24.1541 C   0  0  0  0  0  0  0  0  0  0  0  0
    3.3432    2.6279   20.4411 C   0  0  0  0  0  0  0  0  0  0  0  0
   12.9132   -0.6032   23.2569 C   0  0  0  0  0  0  0  0  0  0  0  0
    4.8973    1.0233   21.2988 C   0  0  0  0  0  0  0  0  0  0  0  0
   10.9991   -1.4331   22.0443 C   0  0  0  0  0  0  0  0  0  0  0  0
    5.3278    1.2339   17.6066 C   0  0  0  0  0  0  0  0  0  0  0  0
    6.8438   -0.2892   18.3752 C   0  0  0  0  0  0  0  0  0  0  0  0
    4.8226    1.4906   18.9054 C   0  0  0  0  0  0  0  0  0  0  0  0
    5.3982    0.7733   19.9948 C   0  0  0  0  0  0  0  0  0  0  0  0
   10.7040   -0.0625   23.9898 C   0  0  0  0  0  0  0  0  0  0  0  0
   10.1406   -0.7765   22.9250 C   0  0  0  0  0  0  0  0  0  0  0  0
    6.4440   -0.1472   19.6979 C   0  0  0  0  0  0  0  0  0  0  0  0
    3.8960    1.9291   21.5050 C   0  0  0  0  0  0  0  0  0  0  0  0
   12.3683   -1.3298   22.2234 C   0  0  0  0  0  0  0  0  0  0  0  0
    8.2490    0.0169   21.4271 C   0  0  0  0  0  0  0  0  0  0  0  0
    9.9479    0.5589   24.9534 C   0  0  0  0  0  0  0  0  0  0  0  0
    7.2213    5.9018   25.0923 C   0  0  0  0  0  0  0  0  0  0  0  0
    7.1474    5.4411   23.6665 C   0  0  0  0  0  0  0  0  0  0  0  0
    8.0140   -2.1541   22.4331 C   0  0  0  0  0  0  0  0  0  0  0  0
    6.9866   -1.9366   21.3580 C   0  0  0  0  0  0  0  0  0  0  0  0
    7.8721   -0.1194   23.8831 C   0  0  0  0  0  0  0  0  0  0  0  0
    8.3214    5.0316   24.5273 C   0  0  0  0  0  0  0  0  0  0  0  0
    8.6238   -0.7606   22.6929 C   0  0  3  0  0  0  0  0  0  0  0  0
    1.7346    3.6946   26.5590 C   0  0  0  0  0  0  0  0  0  0  0  0
    0.6464    0.7970   24.3317 C   0  0  0  0  0  0  0  0  0  0  0  0
    8.3989    3.5932   24.9882 C   0  0  0  0  0  0  0  0  0  0  0  0
    0.9125    2.4991   26.1298 C   0  0  0  0  0  0  0  0  0  0  0  0
    2.9234    1.5199   25.0352 C   0  0  0  0  0  0  0  0  0  0  0  0
    3.4781    1.0738   23.6967 C   0  0  0  0  0  0  0  0  0  0  0  0
   10.6086    6.1691   24.0409 N   0  0  0  0  0  0  0  0  0  0  0  0
    6.3062    0.3769   17.3421 N   0  0  0  0  0  0  0  0  0  0  0  0
    7.2292   -0.6897   20.7790 N   0  0  0  0  0  0  0  0  0  0  0  0
    8.6609    1.0133   24.4995 N   0  0  1  0  0  0  0  0  0  0  0  0
    1.5025    1.9171   24.8690 N   0  3  2  0  0  0  0  0  0  0  0  0
    8.7572    1.0941   21.1350 O   0  0  0  0  0  0  0  0  0  0  0  0
    7.4179    2.5201   22.8172 O   0  0  0  0  0  0  0  0  0  0  0  0
    9.9251    2.7322   23.0499 O   0  0  0  0  0  0  0  0  0  0  0  0
    3.4227    2.1582   22.7714 O   0  0  0  0  0  0  0  0  0  0  0  0
    8.6198    2.4832   23.6217 S   0  0  0  0  0  0  0  0  0  0  0  0
   13.4275   -2.1421   21.1097 Cl  0  0  0  0  0  0  0  0  0  0  0  0
    3.3406    2.9746   18.3368 H   0  0  0  0  0  0  0  0  0  0  0  0
   12.5015    0.5938   24.9776 H   0  0  0  0  0  0  0  0  0  0  0  0
    2.5407    3.3506   20.6306 H   0  0  0  0  0  0  0  0  0  0  0  0
   13.9911   -0.5212   23.3814 H   0  0  0  0  0  0  0  0  0  0  0  0
    5.3162    0.4858   22.1535 H   0  0  0  0  0  0  0  0  0  0  0  0
   10.6037   -2.0228   21.2288 H   0  0  0  0  0  0  0  0  0  0  0  0
    4.9131    1.7514   16.7479 H   0  0  0  0  0  0  0  0  0  0  0  0
    7.6448   -0.9758   18.1041 H   0  0  0  0  0  0  0  0  0  0  0  0
    9.7581   -0.1287   25.8173 H   0  0  0  0  0  0  0  0  0  0  0  0
   10.4931    1.4391   25.3829 H   0  0  0  0  0  0  0  0  0  0  0  0
    7.4214    6.9523   25.2708 H   0  0  0  0  0  0  0  0  0  0  0  0
    6.5254    5.4641   25.7988 H   0  0  0  0  0  0  0  0  0  0  0  0
    6.4012    4.6953   23.4178 H   0  0  0  0  0  0  0  0  0  0  0  0
    7.2972    6.1838   22.8911 H   0  0  0  0  0  0  0  0  0  0  0  0
    7.5801   -2.6060   23.3366 H   0  0  0  0  0  0  0  0  0  0  0  0
    8.7749   -2.8608   22.0657 H   0  0  0  0  0  0  0  0  0  0  0  0
    7.0227   -2.7506   20.5953 H   0  0  0  0  0  0  0  0  0  0  0  0
    5.9554   -1.9484   21.7832 H   0  0  0  0  0  0  0  0  0  0  0  0
    6.8886    0.2769   23.5666 H   0  0  0  0  0  0  0  0  0  0  0  0
    7.6579   -0.8710   24.6633 H   0  0  0  0  0  0  0  0  0  0  0  0
    2.7613    3.3874   26.7804 H   0  0  0  0  0  0  0  0  0  0  0  0
    1.7709    4.4535   25.7705 H   0  0  0  0  0  0  0  0  0  0  0  0
    1.3184    4.1586   27.4593 H   0  0  0  0  0  0  0  0  0  0  0  0
    0.6650   -0.0161   25.0597 H   0  0  0  0  0  0  0  0  0  0  0  0
   -0.3660    1.1836   24.2007 H   0  0  0  0  0  0  0  0  0  0  0  0
    1.0719    0.4794   23.3779 H   0  0  0  0  0  0  0  0  0  0  0  0
    7.4792    3.2960   25.4995 H   0  0  0  0  0  0  0  0  0  0  0  0
    9.2447    3.4440   25.6648 H   0  0  0  0  0  0  0  0  0  0  0  0
   -0.1198    2.7787   25.9020 H   0  0  0  0  0  0  0  0  0  0  0  0
    0.9242    1.7082   26.8848 H   0  0  0  0  0  0  0  0  0  0  0  0
    3.4453    2.3981   25.4256 H   0  0  0  0  0  0  0  0  0  0  0  0
    2.9389    0.7102   25.7695 H   0  0  0  0  0  0  0  0  0  0  0  0
    4.5260    0.7786   23.8085 H   0  0  0  0  0  0  0  0  0  0  0  0
    2.9161    0.2279   23.2877 H   0  0  0  0  0  0  0  0  0  0  0  0
    1.4662    2.6703   24.1614 H   0  0  0  0  0  0  0  0  0  0  0  0
  1 24  1  0  0  0  0
  1 32  3  0  0  0  0
  2  4  2  0  0  0  0
  2 10  1  0  0  0  0
  3  5  1  0  0  0  0
  3 12  2  0  0  0  0
  4 15  1  0  0  0  0
  5 16  2  0  0  0  0
  6 11  1  0  0  0  0
  6 15  2  0  0  0  0
  7 13  2  0  0  0  0
  7 16  1  0  0  0  0
  8 10  1  0  0  0  0
  8 33  2  0  0  0  0
  9 14  2  0  0  0  0
  9 33  1  0  0  0  0
 10 11  2  0  0  0  0
 11 14  1  0  0  0  0
 12 13  1  0  0  0  0
 12 18  1  0  0  0  0
 13 25  1  0  0  0  0
 14 34  1  0  0  0  0
 15 40  1  0  0  0  0
 16 42  1  0  0  0  0
 17 25  1  0  0  0  0
 17 34  1  0  0  0  0
 17 37  2  0  0  0  0
 18 35  1  0  0  0  0
 19 20  1  0  0  0  0
 19 24  1  0  0  0  0
 20 24  1  0  0  0  0
 21 22  1  0  0  0  0
 21 25  1  0  0  0  0
 22 34  1  0  0  0  0
 23 25  1  0  0  0  0
 23 35  1  0  0  0  0
 24 28  1  0  0  0  0
 26 29  1  0  0  0  0
 27 36  1  6  0  0  0
 28 41  1  0  0  0  0
 29 36  1  0  0  0  0
 30 31  1  0  0  0  0
 30 36  1  0  0  0  0
 31 40  1  0  0  0  0
 35 41  1  1  0  0  0
 38 41  2  0  0  0  0
 39 41  2  0  0  0  0
  2 43  1  0  0  0  0
  3 44  1  0  0  0  0
  4 45  1  0  0  0  0
  5 46  1  0  0  0  0
  6 47  1  0  0  0  0
  7 48  1  0  0  0  0
  8 49  1  0  0  0  0
  9 50  1  0  0  0  0
 18 51  1  0  0  0  0
 18 52  1  0  0  0  0
 19 53  1  0  0  0  0
 19 54  1  0  0  0  0
 20 55  1  0  0  0  0
 20 56  1  0  0  0  0
 21 57  1  0  0  0  0
 21 58  1  0  0  0  0
 22 59  1  0  0  0  0
 22 60  1  0  0  0  0
 23 61  1  0  0  0  0
 23 62  1  0  0  0  0
 26 63  1  0  0  0  0
 26 64  1  0  0  0  0
 26 65  1  0  0  0  0
 27 66  1  0  0  0  0
 27 67  1  0  0  0  0
 27 68  1  0  0  0  0
 28 69  1  0  0  0  0
 28 70  1  0  0  0  0
 29 71  1  0  0  0  0
 29 72  1  0  0  0  0
 30 73  1  0  0  0  0
 30 74  1  0  0  0  0
 31 75  1  0  0  0  0
 31 76  1  0  0  0  0
 36 77  1  0  0  0  0
M  CHG  1  36   1
M  END
> <compound>
MAT-POS-40ad851a-2

> <compound_smiles>
CCN(C)CCOc1ccc2cncc(c2c1)N3CCC4(C3=O)CN(Cc5c4cc(cc5)Cl)S(=O)(=O)CC6(CC6)C#N

> <enantiomer_smiles>
CC[N@](C)CCOc1ccc2cncc(c2c1)N3CCC4(C3=O)C[N@@](Cc5c4cc(cc5)Cl)S(=O)(=O)CC6(CC6)C#N

> <scaffold>
tetrahydroisoquinoline-5spiro-isoquinoline

> <clash_score>
0

> <docking_score>
-7.525826930999756

> <overlap_score>
0.9753419160842896

> <MMFF_internal_energy>
165.045357267389

> <docked_smiles>
CC[N@H+](C)CCOc1ccc2cncc(c2c1)N3CC[C@@]4(C3=O)C[N@@](Cc5c4cc(cc5)Cl)S(=O)(=O)CC6(CC6)C#N

$$$$
EDJ-MED-ee81482e-3_1
  -OEChem-12272114583D

 78 83  0     1  0  0  0  0  0999 V2000
    9.5881    5.6615   24.2579 C   0  0  0  0  0  0  0  0  0  0  0  0
    3.7865    2.4205   19.1660 C   0  0  0  0  0  0  0  0  0  0  0  0
   12.0765    0.0316   24.1541 C   0  0  0  0  0  0  0  0  0  0  0  0
    3.3432    2.6279   20.4411 C   0  0  0  0  0  0  0  0  0  0  0  0
   12.9132   -0.6032   23.2569 C   0  0  0  0  0  0  0  0  0  0  0  0
    4.8973    1.0233   21.2988 C   0  0  0  0  0  0  0  0  0  0  0  0
   10.9991   -1.4331   22.0443 C   0  0  0  0  0  0  0  0  0  0  0  0
    5.3278    1.2339   17.6066 C   0  0  0  0  0  0  0  0  0  0  0  0
    6.8438   -0.2892   18.3752 C   0  0  0  0  0  0  0  0  0  0  0  0
    4.8226    1.4906   18.9054 C   0  0  0  0  0  0  0  0  0  0  0  0
    5.3982    0.7733   19.9948 C   0  0  0  0  0  0  0  0  0  0  0  0
   10.7040   -0.0625   23.9898 C   0  0  0  0  0  0  0  0  0  0  0  0
   10.1406   -0.7765   22.9250 C   0  0  0  0  0  0  0  0  0  0  0  0
    6.4440   -0.1472   19.6979 C   0  0  0  0  0  0  0  0  0  0  0  0
    3.8960    1.9291   21.5050 C   0  0  0  0  0  0  0  0  0  0  0  0
   12.3683   -1.3298   22.2234 C   0  0  0  0  0  0  0  0  0  0  0  0
    8.2490    0.0169   21.4271 C   0  0  0  0  0  0  0  0  0  0  0  0
    9.9479    0.5589   24.9534 C   0  0  0  0  0  0  0  0  0  0  0  0
    7.2213    5.9018   25.0923 C   0  0  0  0  0  0  0  0  0  0  0  0
    7.1474    5.4411   23.6665 C   0  0  0  0  0  0  0  0  0  0  0  0
    8.0140   -2.1541   22.4331 C   0  0  0  0  0  0  0  0  0  0  0  0
    6.9866   -1.9366   21.3580 C   0  0  0  0  0  0  0  0  0  0  0  0
    7.8721   -0.1194   23.8831 C   0  0  0  0  0  0  0  0  0  0  0  0
    8.3214    5.0316   24.5273 C   0  0  0  0  0  0  0  0  0  0  0  0
    8.6238   -0.7606   22.6929 C   0  0  3  0  0  0  0  0  0  0  0  0
    3.3403   -1.7323   26.9319 C   0  0  0  0  0  0  0  0  0  0  0  0
    2.3158   -1.6815   24.6629 C   0  0  0  0  0  0  0  0  0  0  0  0
    8.3989    3.5932   24.9882 C   0  0  0  0  0  0  0  0  0  0  0  0
    2.5279    0.4209   25.9803 C   0  0  0  0  0  0  0  0  0  0  0  0
    3.4781    1.0738   23.6967 C   0  0  0  0  0  0  0  0  0  0  0  0
    2.3403    1.2297   24.7013 C   0  0  1  0  0  0  0  0  0  0  0  0
   10.6086    6.1691   24.0409 N   0  0  0  0  0  0  0  0  0  0  0  0
    6.3062    0.3769   17.3421 N   0  0  0  0  0  0  0  0  0  0  0  0
    7.2292   -0.6897   20.7790 N   0  0  0  0  0  0  0  0  0  0  0  0
    8.6609    1.0133   24.4995 N   0  0  1  0  0  0  0  0  0  0  0  0
    3.1129   -0.9112   25.6866 N   0  3  0  0  0  0  0  0  0  0  0  0
    8.7572    1.0941   21.1350 O   0  0  0  0  0  0  0  0  0  0  0  0
    7.4179    2.5201   22.8172 O   0  0  0  0  0  0  0  0  0  0  0  0
    9.9251    2.7322   23.0499 O   0  0  0  0  0  0  0  0  0  0  0  0
    1.1115    0.8327   24.0903 O   0  0  0  0  0  0  0  0  0  0  0  0
    3.4227    2.1582   22.7714 O   0  0  0  0  0  0  0  0  0  0  0  0
    8.6198    2.4832   23.6217 S   0  0  0  0  0  0  0  0  0  0  0  0
   13.4275   -2.1421   21.1097 Cl  0  0  0  0  0  0  0  0  0  0  0  0
    3.3406    2.9746   18.3368 H   0  0  0  0  0  0  0  0  0  0  0  0
   12.5015    0.5938   24.9776 H   0  0  0  0  0  0  0  0  0  0  0  0
    2.5407    3.3506   20.6306 H   0  0  0  0  0  0  0  0  0  0  0  0
   13.9911   -0.5212   23.3814 H   0  0  0  0  0  0  0  0  0  0  0  0
    5.3162    0.4858   22.1535 H   0  0  0  0  0  0  0  0  0  0  0  0
   10.6037   -2.0228   21.2288 H   0  0  0  0  0  0  0  0  0  0  0  0
    4.9131    1.7514   16.7479 H   0  0  0  0  0  0  0  0  0  0  0  0
    7.6448   -0.9758   18.1041 H   0  0  0  0  0  0  0  0  0  0  0  0
    9.7581   -0.1287   25.8173 H   0  0  0  0  0  0  0  0  0  0  0  0
   10.4931    1.4391   25.3829 H   0  0  0  0  0  0  0  0  0  0  0  0
    7.4214    6.9523   25.2708 H   0  0  0  0  0  0  0  0  0  0  0  0
    6.5254    5.4641   25.7988 H   0  0  0  0  0  0  0  0  0  0  0  0
    6.4012    4.6953   23.4178 H   0  0  0  0  0  0  0  0  0  0  0  0
    7.2972    6.1838   22.8911 H   0  0  0  0  0  0  0  0  0  0  0  0
    7.5801   -2.6060   23.3366 H   0  0  0  0  0  0  0  0  0  0  0  0
    8.7749   -2.8608   22.0657 H   0  0  0  0  0  0  0  0  0  0  0  0
    7.0227   -2.7506   20.5953 H   0  0  0  0  0  0  0  0  0  0  0  0
    5.9554   -1.9484   21.7832 H   0  0  0  0  0  0  0  0  0  0  0  0
    6.8886    0.2769   23.5666 H   0  0  0  0  0  0  0  0  0  0  0  0
    7.6579   -0.8710   24.6633 H   0  0  0  0  0  0  0  0  0  0  0  0
    2.3690   -1.9084   27.3978 H   0  0  0  0  0  0  0  0  0  0  0  0
    3.8079   -2.6720   26.6318 H   0  0  0  0  0  0  0  0  0  0  0  0
    3.9950   -1.1617   27.5934 H   0  0  0  0  0  0  0  0  0  0  0  0
    1.3211   -1.8564   25.0768 H   0  0  0  0  0  0  0  0  0  0  0  0
    2.2629   -1.0760   23.7561 H   0  0  0  0  0  0  0  0  0  0  0  0
    2.8342   -2.6239   24.4759 H   0  0  0  0  0  0  0  0  0  0  0  0
    7.4792    3.2960   25.4995 H   0  0  0  0  0  0  0  0  0  0  0  0
    9.2447    3.4440   25.6648 H   0  0  0  0  0  0  0  0  0  0  0  0
    3.2073    0.9161   26.6800 H   0  0  0  0  0  0  0  0  0  0  0  0
    1.5690    0.2263   26.4703 H   0  0  0  0  0  0  0  0  0  0  0  0
    3.3840    0.1472   23.1219 H   0  0  0  0  0  0  0  0  0  0  0  0
    4.4512    1.1032   24.1964 H   0  0  0  0  0  0  0  0  0  0  0  0
    2.2261    2.2868   24.9687 H   0  0  0  0  0  0  0  0  0  0  0  0
    4.0468   -0.7608   25.2684 H   0  0  0  0  0  0  0  0  0  0  0  0
    0.4130    1.0214   24.7345 H   0  0  0  0  0  0  0  0  0  0  0  0
  1 24  1  0  0  0  0
  1 32  3  0  0  0  0
  2  4  2  0  0  0  0
  2 10  1  0  0  0  0
  3  5  1  0  0  0  0
  3 12  2  0  0  0  0
  4 15  1  0  0  0  0
  5 16  2  0  0  0  0
  6 11  1  0  0  0  0
  6 15  2  0  0  0  0
  7 13  2  0  0  0  0
  7 16  1  0  0  0  0
  8 10  1  0  0  0  0
  8 33  2  0  0  0  0
  9 14  2  0  0  0  0
  9 33  1  0  0  0  0
 10 11  2  0  0  0  0
 11 14  1  0  0  0  0
 12 13  1  0  0  0  0
 12 18  1  0  0  0  0
 13 25  1  0  0  0  0
 14 34  1  0  0  0  0
 15 41  1  0  0  0  0
 16 43  1  0  0  0  0
 17 25  1  0  0  0  0
 17 34  1  0  0  0  0
 17 37  2  0  0  0  0
 18 35  1  0  0  0  0
 19 20  1  0  0  0  0
 19 24  1  0  0  0  0
 20 24  1  0  0  0  0
 21 22  1  0  0  0  0
 21 25  1  0  0  0  0
 22 34  1  0  0  0  0
 23 25  1  0  0  0  0
 23 35  1  0  0  0  0
 24 28  1  0  0  0  0
 26 36  1  0  0  0  0
 27 36  1  0  0  0  0
 28 42  1  0  0  0  0
 29 31  1  0  0  0  0
 29 36  1  0  0  0  0
 30 31  1  0  0  0  0
 30 41  1  0  0  0  0
 31 40  1  1  0  0  0
 35 42  1  1  0  0  0
 38 42  2  0  0  0  0
 39 42  2  0  0  0  0
  2 44  1  0  0  0  0
  3 45  1  0  0  0  0
  4 46  1  0  0  0  0
  5 47  1  0  0  0  0
  6 48  1  0  0  0  0
  7 49  1  0  0  0  0
  8 50  1  0  0  0  0
  9 51  1  0  0  0  0
 18 52  1  0  0  0  0
 18 53  1  0  0  0  0
 19 54  1  0  0  0  0
 19 55  1  0  0  0  0
 20 56  1  0  0  0  0
 20 57  1  0  0  0  0
 21 58  1  0  0  0  0
 21 59  1  0  0  0  0
 22 60  1  0  0  0  0
 22 61  1  0  0  0  0
 23 62  1  0  0  0  0
 23 63  1  0  0  0  0
 26 64  1  0  0  0  0
 26 65  1  0  0  0  0
 26 66  1  0  0  0  0
 27 67  1  0  0  0  0
 27 68  1  0  0  0  0
 27 69  1  0  0  0  0
 28 70  1  0  0  0  0
 28 71  1  0  0  0  0
 29 72  1  0  0  0  0
 29 73  1  0  0  0  0
 30 74  1  0  0  0  0
 30 75  1  0  0  0  0
 31 76  1  0  0  0  0
 36 77  1  0  0  0  0
 40 78  1  0  0  0  0
M  CHG  1  36   1
M  END
> <compound>
EDJ-MED-ee81482e-3

> <compound_smiles>
CN(C)CC(COc1ccc2cncc(c2c1)N3CCC4(C3=O)CN(Cc5c4cc(cc5)Cl)S(=O)(=O)CC6(CC6)C#N)O

> <enantiomer_smiles>
CN(C)C[C@@H](COc1ccc2cncc(c2c1)N3CCC4(C3=O)C[N@@](Cc5c4cc(cc5)Cl)S(=O)(=O)CC6(CC6)C#N)O

> <scaffold>
tetrahydroisoquinoline-5spiro-isoquinoline

> <clash_score>
0

> <docking_score>
-7.17939567565918

> <overlap_score>
0.973655104637146

> <MMFF_internal_energy>
202.40441819688846

> <docked_smiles>
C[NH+](C)C[C@@H](COc1ccc2cncc(c2c1)N3CC[C@@]4(C3=O)C[N@@](Cc5c4cc(cc5)Cl)S(=O)(=O)CC6(CC6)C#N)O

$$$$
MAT-POS-40ad851a-4_2
  -OEChem-12272114583D

 77 82  0     1  0  0  0  0  0999 V2000
    6.3365    4.8398   25.6864 C   0  0  0  0  0  0  0  0  0  0  0  0
    3.7865    2.4205   19.1660 C   0  0  0  0  0  0  0  0  0  0  0  0
   12.0765    0.0316   24.1541 C   0  0  0  0  0  0  0  0  0  0  0  0
    3.3432    2.6279   20.4411 C   0  0  0  0  0  0  0  0  0  0  0  0
   12.9132   -0.6032   23.2569 C   0  0  0  0  0  0  0  0  0  0  0  0
    4.8973    1.0233   21.2988 C   0  0  0  0  0  0  0  0  0  0  0  0
   10.9991   -1.4331   22.0443 C   0  0  0  0  0  0  0  0  0  0  0  0
    5.3278    1.2339   17.6066 C   0  0  0  0  0  0  0  0  0  0  0  0
    6.8438   -0.2892   18.3752 C   0  0  0  0  0  0  0  0  0  0  0  0
    4.8226    1.4906   18.9054 C   0  0  0  0  0  0  0  0  0  0  0  0
    5.3982    0.7733   19.9948 C   0  0  0  0  0  0  0  0  0  0  0  0
   10.7040   -0.0625   23.9898 C   0  0  0  0  0  0  0  0  0  0  0  0
   10.1406   -0.7765   22.9250 C   0  0  0  0  0  0  0  0  0  0  0  0
    6.4440   -0.1472   19.6979 C   0  0  0  0  0  0  0  0  0  0  0  0
    3.8960    1.9291   21.5050 C   0  0  0  0  0  0  0  0  0  0  0  0
   12.3683   -1.3298   22.2234 C   0  0  0  0  0  0  0  0  0  0  0  0
    8.2490    0.0169   21.4271 C   0  0  0  0  0  0  0  0  0  0  0  0
    9.9479    0.5589   24.9534 C   0  0  0  0  0  0  0  0  0  0  0  0
    8.5554    6.0147   25.9144 C   0  0  0  0  0  0  0  0  0  0  0  0
    8.3999    5.1188   27.1077 C   0  0  0  0  0  0  0  0  0  0  0  0
    8.0140   -2.1541   22.4331 C   0  0  0  0  0  0  0  0  0  0  0  0
    6.9866   -1.9366   21.3580 C   0  0  0  0  0  0  0  0  0  0  0  0
    7.8721   -0.1194   23.8831 C   0  0  0  0  0  0  0  0  0  0  0  0
    7.7686    4.7292   25.7898 C   0  0  0  0  0  0  0  0  0  0  0  0
    8.6238   -0.7606   22.6929 C   0  0  3  0  0  0  0  0  0  0  0  0
   -0.2910   -0.8573   24.4891 C   0  0  0  0  0  0  0  0  0  0  0  0
    0.5933   -1.7557   26.6365 C   0  0  0  0  0  0  0  0  0  0  0  0
    8.3874    3.5882   25.0137 C   0  0  0  0  0  0  0  0  0  0  0  0
    2.0729    0.7565   24.1750 C   0  0  0  0  0  0  0  0  0  0  0  0
    2.0682   -0.4092   25.1491 C   0  0  0  0  0  0  0  0  0  0  0  0
    3.4815    1.0690   23.6908 C   0  0  0  0  0  0  0  0  0  0  0  0
    5.1827    4.9289   25.6030 N   0  0  0  0  0  0  0  0  0  0  0  0
    6.3062    0.3769   17.3421 N   0  0  0  0  0  0  0  0  0  0  0  0
    7.2292   -0.6897   20.7790 N   0  0  0  0  0  0  0  0  0  0  0  0
    8.6609    1.0133   24.4995 N   0  0  2  0  0  0  0  0  0  0  0  0
    0.6824   -0.6411   25.6224 N   0  3  0  0  0  0  0  0  0  0  0  0
    8.8299    1.0397   21.0799 O   0  0  0  0  0  0  0  0  0  0  0  0
    8.2407    1.8013   26.9144 O   0  0  0  0  0  0  0  0  0  0  0  0
    6.3653    1.9471   25.2271 O   0  0  0  0  0  0  0  0  0  0  0  0
    3.4227    2.1582   22.7714 O   0  0  0  0  0  0  0  0  0  0  0  0
    7.7708    2.0177   25.5632 S   0  0  0  0  0  0  0  0  0  0  0  0
   13.4272   -2.1411   21.1086 Cl  0  0  0  0  0  0  0  0  0  0  0  0
    3.3406    2.9746   18.3368 H   0  0  0  0  0  0  0  0  0  0  0  0
   12.5024    0.5995   24.9735 H   0  0  0  0  0  0  0  0  0  0  0  0
    2.5407    3.3506   20.6306 H   0  0  0  0  0  0  0  0  0  0  0  0
   13.9910   -0.5177   23.3793 H   0  0  0  0  0  0  0  0  0  0  0  0
    5.3162    0.4858   22.1535 H   0  0  0  0  0  0  0  0  0  0  0  0
   10.6036   -2.0162   21.2241 H   0  0  0  0  0  0  0  0  0  0  0  0
    4.9131    1.7514   16.7479 H   0  0  0  0  0  0  0  0  0  0  0  0
    7.6448   -0.9758   18.1041 H   0  0  0  0  0  0  0  0  0  0  0  0
    9.7849   -0.1194   25.8306 H   0  0  0  0  0  0  0  0  0  0  0  0
   10.4793    1.4568   25.3613 H   0  0  0  0  0  0  0  0  0  0  0  0
    8.0222    6.9586   25.9223 H   0  0  0  0  0  0  0  0  0  0  0  0
    9.5340    6.0703   25.4517 H   0  0  0  0  0  0  0  0  0  0  0  0
    9.2748    4.5751   27.4449 H   0  0  0  0  0  0  0  0  0  0  0  0
    7.7632    5.4641   27.9144 H   0  0  0  0  0  0  0  0  0  0  0  0
    7.5152   -2.5456   23.3338 H   0  0  0  0  0  0  0  0  0  0  0  0
    8.7649   -2.9030   22.1434 H   0  0  0  0  0  0  0  0  0  0  0  0
    7.0587   -2.7248   20.5721 H   0  0  0  0  0  0  0  0  0  0  0  0
    5.9518   -1.9952   21.7720 H   0  0  0  0  0  0  0  0  0  0  0  0
    6.8867    0.2641   23.5642 H   0  0  0  0  0  0  0  0  0  0  0  0
    7.6652   -0.8660   24.6733 H   0  0  0  0  0  0  0  0  0  0  0  0
    0.0162   -1.7566   23.9521 H   0  0  0  0  0  0  0  0  0  0  0  0
   -1.2859   -0.9789   24.9217 H   0  0  0  0  0  0  0  0  0  0  0  0
   -0.2493    0.0202   23.8410 H   0  0  0  0  0  0  0  0  0  0  0  0
    0.9215   -2.6763   26.1505 H   0  0  0  0  0  0  0  0  0  0  0  0
    1.2460   -1.4991   27.4732 H   0  0  0  0  0  0  0  0  0  0  0  0
   -0.4468   -1.8316   26.9591 H   0  0  0  0  0  0  0  0  0  0  0  0
    9.4732    3.5710   25.1421 H   0  0  0  0  0  0  0  0  0  0  0  0
    8.1577    3.6698   23.9479 H   0  0  0  0  0  0  0  0  0  0  0  0
    1.6435    1.6510   24.6441 H   0  0  0  0  0  0  0  0  0  0  0  0
    1.4323    0.5381   23.3111 H   0  0  0  0  0  0  0  0  0  0  0  0
    2.6763   -0.2054   26.0353 H   0  0  0  0  0  0  0  0  0  0  0  0
    2.4024   -1.3383   24.6781 H   0  0  0  0  0  0  0  0  0  0  0  0
    3.9194    0.2055   23.1802 H   0  0  0  0  0  0  0  0  0  0  0  0
    4.1276    1.3540   24.5273 H   0  0  0  0  0  0  0  0  0  0  0  0
    0.3662    0.2147   26.1106 H   0  0  0  0  0  0  0  0  0  0  0  0
  1 24  1  0  0  0  0
  1 32  3  0  0  0  0
  2  4  2  0  0  0  0
  2 10  1  0  0  0  0
  3  5  1  0  0  0  0
  3 12  2  0  0  0  0
  4 15  1  0  0  0  0
  5 16  2  0  0  0  0
  6 11  1  0  0  0  0
  6 15  2  0  0  0  0
  7 13  2  0  0  0  0
  7 16  1  0  0  0  0
  8 10  1  0  0  0  0
  8 33  2  0  0  0  0
  9 14  2  0  0  0  0
  9 33  1  0  0  0  0
 10 11  2  0  0  0  0
 11 14  1  0  0  0  0
 12 13  1  0  0  0  0
 12 18  1  0  0  0  0
 13 25  1  0  0  0  0
 14 34  1  0  0  0  0
 15 40  1  0  0  0  0
 16 42  1  0  0  0  0
 17 25  1  0  0  0  0
 17 34  1  0  0  0  0
 17 37  2  0  0  0  0
 18 35  1  0  0  0  0
 19 20  1  0  0  0  0
 19 24  1  0  0  0  0
 20 24  1  0  0  0  0
 21 22  1  0  0  0  0
 21 25  1  0  0  0  0
 22 34  1  0  0  0  0
 23 25  1  0  0  0  0
 23 35  1  0  0  0  0
 24 28  1  0  0  0  0
 26 36  1  0  0  0  0
 27 36  1  0  0  0  0
 28 41  1  0  0  0  0
 29 30  1  0  0  0  0
 29 31  1  0  0  0  0
 30 36  1  0  0  0  0
 31 40  1  0  0  0  0
 35 41  1  6  0  0  0
 38 41  2  0  0  0  0
 39 41  2  0  0  0  0
  2 43  1  0  0  0  0
  3 44  1  0  0  0  0
  4 45  1  0  0  0  0
  5 46  1  0  0  0  0
  6 47  1  0  0  0  0
  7 48  1  0  0  0  0
  8 49  1  0  0  0  0
  9 50  1  0  0  0  0
 18 51  1  0  0  0  0
 18 52  1  0  0  0  0
 19 53  1  0  0  0  0
 19 54  1  0  0  0  0
 20 55  1  0  0  0  0
 20 56  1  0  0  0  0
 21 57  1  0  0  0  0
 21 58  1  0  0  0  0
 22 59  1  0  0  0  0
 22 60  1  0  0  0  0
 23 61  1  0  0  0  0
 23 62  1  0  0  0  0
 26 63  1  0  0  0  0
 26 64  1  0  0  0  0
 26 65  1  0  0  0  0
 27 66  1  0  0  0  0
 27 67  1  0  0  0  0
 27 68  1  0  0  0  0
 28 69  1  0  0  0  0
 28 70  1  0  0  0  0
 29 71  1  0  0  0  0
 29 72  1  0  0  0  0
 30 73  1  0  0  0  0
 30 74  1  0  0  0  0
 31 75  1  0  0  0  0
 31 76  1  0  0  0  0
 36 77  1  0  0  0  0
M  CHG  1  36   1
M  END
> <compound>
MAT-POS-40ad851a-4

> <compound_smiles>
CN(C)CCCOc1ccc2cncc(c2c1)N3CCC4(C3=O)CN(Cc5c4cc(cc5)Cl)S(=O)(=O)CC6(CC6)C#N

> <enantiomer_smiles>
CN(C)CCCOc1ccc2cncc(c2c1)N3CCC4(C3=O)C[N@](Cc5c4cc(cc5)Cl)S(=O)(=O)CC6(CC6)C#N

> <scaffold>
tetrahydroisoquinoline-5spiro-isoquinoline

> <clash_score>
0

> <docking_score>
-6.999276638031006

> <overlap_score>
0.9720219969749451

> <MMFF_internal_energy>
125.68826378578323

> <docked_smiles>
C[NH+](C)CCCOc1ccc2cncc(c2c1)N3CC[C@@]4(C3=O)C[N@](Cc5c4cc(cc5)Cl)S(=O)(=O)CC6(CC6)C#N

$$$$
MAT-POS-40ad851a-4_1
  -OEChem-12272114583D

 77 82  0     1  0  0  0  0  0999 V2000
    9.5881    5.6615   24.2579 C   0  0  0  0  0  0  0  0  0  0  0  0
    3.7865    2.4205   19.1660 C   0  0  0  0  0  0  0  0  0  0  0  0
   12.0765    0.0316   24.1541 C   0  0  0  0  0  0  0  0  0  0  0  0
    3.3432    2.6279   20.4411 C   0  0  0  0  0  0  0  0  0  0  0  0
   12.9132   -0.6032   23.2569 C   0  0  0  0  0  0  0  0  0  0  0  0
    4.8973    1.0233   21.2988 C   0  0  0  0  0  0  0  0  0  0  0  0
   10.9991   -1.4331   22.0443 C   0  0  0  0  0  0  0  0  0  0  0  0
    5.3278    1.2339   17.6066 C   0  0  0  0  0  0  0  0  0  0  0  0
    6.8438   -0.2892   18.3752 C   0  0  0  0  0  0  0  0  0  0  0  0
    4.8226    1.4906   18.9054 C   0  0  0  0  0  0  0  0  0  0  0  0
    5.3982    0.7733   19.9948 C   0  0  0  0  0  0  0  0  0  0  0  0
   10.7040   -0.0625   23.9898 C   0  0  0  0  0  0  0  0  0  0  0  0
   10.1406   -0.7765   22.9250 C   0  0  0  0  0  0  0  0  0  0  0  0
    6.4440   -0.1472   19.6979 C   0  0  0  0  0  0  0  0  0  0  0  0
    3.8960    1.9291   21.5050 C   0  0  0  0  0  0  0  0  0  0  0  0
   12.3683   -1.3298   22.2234 C   0  0  0  0  0  0  0  0  0  0  0  0
    8.2490    0.0169   21.4271 C   0  0  0  0  0  0  0  0  0  0  0  0
    9.9479    0.5589   24.9534 C   0  0  0  0  0  0  0  0  0  0  0  0
    7.2213    5.9018   25.0923 C   0  0  0  0  0  0  0  0  0  0  0  0
    7.1474    5.4411   23.6665 C   0  0  0  0  0  0  0  0  0  0  0  0
    8.0140   -2.1541   22.4331 C   0  0  0  0  0  0  0  0  0  0  0  0
    6.9866   -1.9366   21.3580 C   0  0  0  0  0  0  0  0  0  0  0  0
    7.8721   -0.1194   23.8831 C   0  0  0  0  0  0  0  0  0  0  0  0
    8.3214    5.0316   24.5273 C   0  0  0  0  0  0  0  0  0  0  0  0
    8.6238   -0.7606   22.6929 C   0  0  3  0  0  0  0  0  0  0  0  0
   -0.1266    0.1274   25.9448 C   0  0  0  0  0  0  0  0  0  0  0  0
   -0.0006    2.6115   25.8263 C   0  0  0  0  0  0  0  0  0  0  0  0
    8.3989    3.5932   24.9882 C   0  0  0  0  0  0  0  0  0  0  0  0
    2.3436    1.2240   24.7000 C   0  0  0  0  0  0  0  0  0  0  0  0
    0.9905    1.2267   24.0095 C   0  0  0  0  0  0  0  0  0  0  0  0
    3.4781    1.0738   23.6967 C   0  0  0  0  0  0  0  0  0  0  0  0
   10.6086    6.1691   24.0409 N   0  0  0  0  0  0  0  0  0  0  0  0
    6.3062    0.3769   17.3421 N   0  0  0  0  0  0  0  0  0  0  0  0
    7.2292   -0.6897   20.7790 N   0  0  0  0  0  0  0  0  0  0  0  0
    8.6609    1.0133   24.4995 N   0  0  1  0  0  0  0  0  0  0  0  0
   -0.0771    1.3295   25.0331 N   0  3  0  0  0  0  0  0  0  0  0  0
    8.7572    1.0941   21.1350 O   0  0  0  0  0  0  0  0  0  0  0  0
    7.4179    2.5201   22.8172 O   0  0  0  0  0  0  0  0  0  0  0  0
    9.9251    2.7322   23.0499 O   0  0  0  0  0  0  0  0  0  0  0  0
    3.4227    2.1582   22.7714 O   0  0  0  0  0  0  0  0  0  0  0  0
    8.6198    2.4832   23.6217 S   0  0  0  0  0  0  0  0  0  0  0  0
   13.4275   -2.1421   21.1097 Cl  0  0  0  0  0  0  0  0  0  0  0  0
    3.3406    2.9746   18.3368 H   0  0  0  0  0  0  0  0  0  0  0  0
   12.5015    0.5938   24.9776 H   0  0  0  0  0  0  0  0  0  0  0  0
    2.5407    3.3506   20.6306 H   0  0  0  0  0  0  0  0  0  0  0  0
   13.9911   -0.5212   23.3814 H   0  0  0  0  0  0  0  0  0  0  0  0
    5.3162    0.4858   22.1535 H   0  0  0  0  0  0  0  0  0  0  0  0
   10.6037   -2.0228   21.2288 H   0  0  0  0  0  0  0  0  0  0  0  0
    4.9131    1.7514   16.7479 H   0  0  0  0  0  0  0  0  0  0  0  0
    7.6448   -0.9758   18.1041 H   0  0  0  0  0  0  0  0  0  0  0  0
    9.7581   -0.1287   25.8173 H   0  0  0  0  0  0  0  0  0  0  0  0
   10.4931    1.4391   25.3829 H   0  0  0  0  0  0  0  0  0  0  0  0
    7.4214    6.9523   25.2708 H   0  0  0  0  0  0  0  0  0  0  0  0
    6.5254    5.4641   25.7988 H   0  0  0  0  0  0  0  0  0  0  0  0
    6.4012    4.6953   23.4178 H   0  0  0  0  0  0  0  0  0  0  0  0
    7.2972    6.1838   22.8911 H   0  0  0  0  0  0  0  0  0  0  0  0
    7.5801   -2.6060   23.3366 H   0  0  0  0  0  0  0  0  0  0  0  0
    8.7749   -2.8608   22.0657 H   0  0  0  0  0  0  0  0  0  0  0  0
    7.0227   -2.7506   20.5953 H   0  0  0  0  0  0  0  0  0  0  0  0
    5.9554   -1.9484   21.7832 H   0  0  0  0  0  0  0  0  0  0  0  0
    6.8886    0.2769   23.5666 H   0  0  0  0  0  0  0  0  0  0  0  0
    7.6579   -0.8710   24.6633 H   0  0  0  0  0  0  0  0  0  0  0  0
    0.8231    0.0751   26.4802 H   0  0  0  0  0  0  0  0  0  0  0  0
   -0.9600    0.2664   26.6361 H   0  0  0  0  0  0  0  0  0  0  0  0
   -0.2758   -0.7575   25.3231 H   0  0  0  0  0  0  0  0  0  0  0  0
    0.9522    2.6182   26.3589 H   0  0  0  0  0  0  0  0  0  0  0  0
   -0.0630    3.4439   25.1228 H   0  0  0  0  0  0  0  0  0  0  0  0
   -0.8402    2.6234   26.5239 H   0  0  0  0  0  0  0  0  0  0  0  0
    7.4792    3.2960   25.4995 H   0  0  0  0  0  0  0  0  0  0  0  0
    9.2447    3.4440   25.6648 H   0  0  0  0  0  0  0  0  0  0  0  0
    2.3985    0.4102   25.4345 H   0  0  0  0  0  0  0  0  0  0  0  0
    2.4852    2.1498   25.2720 H   0  0  0  0  0  0  0  0  0  0  0  0
    0.8110    0.3007   23.4555 H   0  0  0  0  0  0  0  0  0  0  0  0
    0.8731    2.0849   23.3412 H   0  0  0  0  0  0  0  0  0  0  0  0
    3.3855    0.1359   23.1401 H   0  0  0  0  0  0  0  0  0  0  0  0
    4.4499    1.0952   24.2002 H   0  0  0  0  0  0  0  0  0  0  0  0
   -0.9873    1.3522   24.5414 H   0  0  0  0  0  0  0  0  0  0  0  0
  1 24  1  0  0  0  0
  1 32  3  0  0  0  0
  2  4  2  0  0  0  0
  2 10  1  0  0  0  0
  3  5  1  0  0  0  0
  3 12  2  0  0  0  0
  4 15  1  0  0  0  0
  5 16  2  0  0  0  0
  6 11  1  0  0  0  0
  6 15  2  0  0  0  0
  7 13  2  0  0  0  0
  7 16  1  0  0  0  0
  8 10  1  0  0  0  0
  8 33  2  0  0  0  0
  9 14  2  0  0  0  0
  9 33  1  0  0  0  0
 10 11  2  0  0  0  0
 11 14  1  0  0  0  0
 12 13  1  0  0  0  0
 12 18  1  0  0  0  0
 13 25  1  0  0  0  0
 14 34  1  0  0  0  0
 15 40  1  0  0  0  0
 16 42  1  0  0  0  0
 17 25  1  0  0  0  0
 17 34  1  0  0  0  0
 17 37  2  0  0  0  0
 18 35  1  0  0  0  0
 19 20  1  0  0  0  0
 19 24  1  0  0  0  0
 20 24  1  0  0  0  0
 21 22  1  0  0  0  0
 21 25  1  0  0  0  0
 22 34  1  0  0  0  0
 23 25  1  0  0  0  0
 23 35  1  0  0  0  0
 24 28  1  0  0  0  0
 26 36  1  0  0  0  0
 27 36  1  0  0  0  0
 28 41  1  0  0  0  0
 29 30  1  0  0  0  0
 29 31  1  0  0  0  0
 30 36  1  0  0  0  0
 31 40  1  0  0  0  0
 35 41  1  1  0  0  0
 38 41  2  0  0  0  0
 39 41  2  0  0  0  0
  2 43  1  0  0  0  0
  3 44  1  0  0  0  0
  4 45  1  0  0  0  0
  5 46  1  0  0  0  0
  6 47  1  0  0  0  0
  7 48  1  0  0  0  0
  8 49  1  0  0  0  0
  9 50  1  0  0  0  0
 18 51  1  0  0  0  0
 18 52  1  0  0  0  0
 19 53  1  0  0  0  0
 19 54  1  0  0  0  0
 20 55  1  0  0  0  0
 20 56  1  0  0  0  0
 21 57  1  0  0  0  0
 21 58  1  0  0  0  0
 22 59  1  0  0  0  0
 22 60  1  0  0  0  0
 23 61  1  0  0  0  0
 23 62  1  0  0  0  0
 26 63  1  0  0  0  0
 26 64  1  0  0  0  0
 26 65  1  0  0  0  0
 27 66  1  0  0  0  0
 27 67  1  0  0  0  0
 27 68  1  0  0  0  0
 28 69  1  0  0  0  0
 28 70  1  0  0  0  0
 29 71  1  0  0  0  0
 29 72  1  0  0  0  0
 30 73  1  0  0  0  0
 30 74  1  0  0  0  0
 31 75  1  0  0  0  0
 31 76  1  0  0  0  0
 36 77  1  0  0  0  0
M  CHG  1  36   1
M  END
> <compound>
MAT-POS-40ad851a-4

> <compound_smiles>
CN(C)CCCOc1ccc2cncc(c2c1)N3CCC4(C3=O)CN(Cc5c4cc(cc5)Cl)S(=O)(=O)CC6(CC6)C#N

> <enantiomer_smiles>
CN(C)CCCOc1ccc2cncc(c2c1)N3CCC4(C3=O)C[N@@](Cc5c4cc(cc5)Cl)S(=O)(=O)CC6(CC6)C#N

> <scaffold>
tetrahydroisoquinoline-5spiro-isoquinoline

> <clash_score>
0

> <docking_score>
-7.691833972930908

> <overlap_score>
0.9754153490066528

> <MMFF_internal_energy>
141.8497427750815

> <docked_smiles>
C[NH+](C)CCCOc1ccc2cncc(c2c1)N3CC[C@@]4(C3=O)C[N@@](Cc5c4cc(cc5)Cl)S(=O)(=O)CC6(CC6)C#N

$$$$
EDJ-MED-ee81482e-3_2
  -OEChem-12272114583D

 78 83  0     1  0  0  0  0  0999 V2000
    7.0517    5.4474   23.9460 C   0  0  0  0  0  0  0  0  0  0  0  0
    3.7865    2.4205   19.1660 C   0  0  0  0  0  0  0  0  0  0  0  0
   12.0765    0.0316   24.1541 C   0  0  0  0  0  0  0  0  0  0  0  0
    3.3432    2.6279   20.4411 C   0  0  0  0  0  0  0  0  0  0  0  0
   12.9132   -0.6032   23.2569 C   0  0  0  0  0  0  0  0  0  0  0  0
    4.8973    1.0233   21.2988 C   0  0  0  0  0  0  0  0  0  0  0  0
   10.9991   -1.4331   22.0443 C   0  0  0  0  0  0  0  0  0  0  0  0
    5.3278    1.2339   17.6066 C   0  0  0  0  0  0  0  0  0  0  0  0
    6.8438   -0.2892   18.3752 C   0  0  0  0  0  0  0  0  0  0  0  0
    4.8226    1.4906   18.9054 C   0  0  0  0  0  0  0  0  0  0  0  0
    5.3982    0.7733   19.9948 C   0  0  0  0  0  0  0  0  0  0  0  0
   10.7040   -0.0625   23.9898 C   0  0  0  0  0  0  0  0  0  0  0  0
   10.1406   -0.7765   22.9250 C   0  0  0  0  0  0  0  0  0  0  0  0
    6.4440   -0.1472   19.6979 C   0  0  0  0  0  0  0  0  0  0  0  0
    3.8960    1.9291   21.5050 C   0  0  0  0  0  0  0  0  0  0  0  0
   12.3683   -1.3298   22.2234 C   0  0  0  0  0  0  0  0  0  0  0  0
    8.2490    0.0169   21.4271 C   0  0  0  0  0  0  0  0  0  0  0  0
    9.9479    0.5589   24.9534 C   0  0  0  0  0  0  0  0  0  0  0  0
    9.5631    5.6544   23.8712 C   0  0  0  0  0  0  0  0  0  0  0  0
    9.1196    6.0917   25.2359 C   0  0  0  0  0  0  0  0  0  0  0  0
    8.0140   -2.1541   22.4331 C   0  0  0  0  0  0  0  0  0  0  0  0
    6.9866   -1.9366   21.3580 C   0  0  0  0  0  0  0  0  0  0  0  0
    7.8721   -0.1194   23.8831 C   0  0  0  0  0  0  0  0  0  0  0  0
    8.3239    5.0455   24.4880 C   0  0  0  0  0  0  0  0  0  0  0  0
    8.6238   -0.7606   22.6929 C   0  0  3  0  0  0  0  0  0  0  0  0
   -0.1677    3.7573   23.2622 C   0  0  0  0  0  0  0  0  0  0  0  0
    1.4384    3.9607   25.1542 C   0  0  0  0  0  0  0  0  0  0  0  0
    8.3988    3.6143   24.9708 C   0  0  0  0  0  0  0  0  0  0  0  0
    1.0403    1.7439   24.0922 C   0  0  0  0  0  0  0  0  0  0  0  0
    3.4781    1.0738   23.6967 C   0  0  0  0  0  0  0  0  0  0  0  0
    2.3403    1.2297   24.7013 C   0  0  2  0  0  0  0  0  0  0  0  0
    6.0267    5.7712   23.5093 N   0  0  0  0  0  0  0  0  0  0  0  0
    6.3062    0.3769   17.3421 N   0  0  0  0  0  0  0  0  0  0  0  0
    7.2292   -0.6897   20.7790 N   0  0  0  0  0  0  0  0  0  0  0  0
    8.6609    1.0133   24.4995 N   0  0  1  0  0  0  0  0  0  0  0  0
    1.0919    3.2134   23.8900 N   0  3  0  0  0  0  0  0  0  0  0  0
    8.7572    1.0941   21.1350 O   0  0  0  0  0  0  0  0  0  0  0  0
    7.4280    2.5263   22.8026 O   0  0  0  0  0  0  0  0  0  0  0  0
    9.9351    2.7062   23.0622 O   0  0  0  0  0  0  0  0  0  0  0  0
    2.0836   -0.0323   25.3195 O   0  0  0  0  0  0  0  0  0  0  0  0
    3.4227    2.1582   22.7715 O   0  0  0  0  0  0  0  0  0  0  0  0
    8.6198    2.4832   23.6217 S   0  0  0  0  0  0  0  0  0  0  0  0
   13.4275   -2.1421   21.1097 Cl  0  0  0  0  0  0  0  0  0  0  0  0
    3.3406    2.9746   18.3368 H   0  0  0  0  0  0  0  0  0  0  0  0
   12.5015    0.5938   24.9776 H   0  0  0  0  0  0  0  0  0  0  0  0
    2.5407    3.3506   20.6306 H   0  0  0  0  0  0  0  0  0  0  0  0
   13.9911   -0.5212   23.3814 H   0  0  0  0  0  0  0  0  0  0  0  0
    5.3162    0.4858   22.1535 H   0  0  0  0  0  0  0  0  0  0  0  0
   10.6037   -2.0228   21.2288 H   0  0  0  0  0  0  0  0  0  0  0  0
    4.9131    1.7514   16.7479 H   0  0  0  0  0  0  0  0  0  0  0  0
    7.6448   -0.9758   18.1041 H   0  0  0  0  0  0  0  0  0  0  0  0
    9.7581   -0.1287   25.8173 H   0  0  0  0  0  0  0  0  0  0  0  0
   10.4931    1.4391   25.3829 H   0  0  0  0  0  0  0  0  0  0  0  0
    9.4518    6.3612   23.0566 H   0  0  0  0  0  0  0  0  0  0  0  0
   10.4597    5.0490   23.8038 H   0  0  0  0  0  0  0  0  0  0  0  0
    9.7198    5.7798   26.0829 H   0  0  0  0  0  0  0  0  0  0  0  0
    8.7124    7.0916   25.3344 H   0  0  0  0  0  0  0  0  0  0  0  0
    7.5801   -2.6060   23.3366 H   0  0  0  0  0  0  0  0  0  0  0  0
    8.7749   -2.8608   22.0657 H   0  0  0  0  0  0  0  0  0  0  0  0
    7.0227   -2.7506   20.5953 H   0  0  0  0  0  0  0  0  0  0  0  0
    5.9554   -1.9484   21.7832 H   0  0  0  0  0  0  0  0  0  0  0  0
    6.8886    0.2769   23.5666 H   0  0  0  0  0  0  0  0  0  0  0  0
    7.6579   -0.8710   24.6633 H   0  0  0  0  0  0  0  0  0  0  0  0
   -0.9942    3.5605   23.9475 H   0  0  0  0  0  0  0  0  0  0  0  0
   -0.0297    4.8297   23.1112 H   0  0  0  0  0  0  0  0  0  0  0  0
   -0.3158    3.2428   22.3108 H   0  0  0  0  0  0  0  0  0  0  0  0
    0.6486    3.7686   25.8828 H   0  0  0  0  0  0  0  0  0  0  0  0
    2.4004    3.5871   25.5103 H   0  0  0  0  0  0  0  0  0  0  0  0
    1.4962    5.0230   24.9092 H   0  0  0  0  0  0  0  0  0  0  0  0
    7.4779    3.3261   25.4854 H   0  0  0  0  0  0  0  0  0  0  0  0
    9.2435    3.4742   25.6507 H   0  0  0  0  0  0  0  0  0  0  0  0
    0.8441    1.2978   23.1130 H   0  0  0  0  0  0  0  0  0  0  0  0
    0.1915    1.5622   24.7586 H   0  0  0  0  0  0  0  0  0  0  0  0
    3.3840    0.1472   23.1219 H   0  0  0  0  0  0  0  0  0  0  0  0
    4.4512    1.1032   24.1964 H   0  0  0  0  0  0  0  0  0  0  0  0
    2.6453    1.9120   25.5034 H   0  0  0  0  0  0  0  0  0  0  0  0
    1.8548    3.4135   23.2209 H   0  0  0  0  0  0  0  0  0  0  0  0
    1.4130    0.1286   26.0000 H   0  0  0  0  0  0  0  0  0  0  0  0
  1 24  1  0  0  0  0
  1 32  3  0  0  0  0
  2  4  2  0  0  0  0
  2 10  1  0  0  0  0
  3  5  1  0  0  0  0
  3 12  2  0  0  0  0
  4 15  1  0  0  0  0
  5 16  2  0  0  0  0
  6 11  1  0  0  0  0
  6 15  2  0  0  0  0
  7 13  2  0  0  0  0
  7 16  1  0  0  0  0
  8 10  1  0  0  0  0
  8 33  2  0  0  0  0
  9 14  2  0  0  0  0
  9 33  1  0  0  0  0
 10 11  2  0  0  0  0
 11 14  1  0  0  0  0
 12 13  1  0  0  0  0
 12 18  1  0  0  0  0
 13 25  1  0  0  0  0
 14 34  1  0  0  0  0
 15 41  1  0  0  0  0
 16 43  1  0  0  0  0
 17 25  1  0  0  0  0
 17 34  1  0  0  0  0
 17 37  2  0  0  0  0
 18 35  1  0  0  0  0
 19 20  1  0  0  0  0
 19 24  1  0  0  0  0
 20 24  1  0  0  0  0
 21 22  1  0  0  0  0
 21 25  1  0  0  0  0
 22 34  1  0  0  0  0
 23 25  1  0  0  0  0
 23 35  1  0  0  0  0
 24 28  1  0  0  0  0
 26 36  1  0  0  0  0
 27 36  1  0  0  0  0
 28 42  1  0  0  0  0
 29 31  1  0  0  0  0
 29 36  1  0  0  0  0
 30 31  1  0  0  0  0
 30 41  1  0  0  0  0
 31 40  1  6  0  0  0
 35 42  1  1  0  0  0
 38 42  2  0  0  0  0
 39 42  2  0  0  0  0
  2 44  1  0  0  0  0
  3 45  1  0  0  0  0
  4 46  1  0  0  0  0
  5 47  1  0  0  0  0
  6 48  1  0  0  0  0
  7 49  1  0  0  0  0
  8 50  1  0  0  0  0
  9 51  1  0  0  0  0
 18 52  1  0  0  0  0
 18 53  1  0  0  0  0
 19 54  1  0  0  0  0
 19 55  1  0  0  0  0
 20 56  1  0  0  0  0
 20 57  1  0  0  0  0
 21 58  1  0  0  0  0
 21 59  1  0  0  0  0
 22 60  1  0  0  0  0
 22 61  1  0  0  0  0
 23 62  1  0  0  0  0
 23 63  1  0  0  0  0
 26 64  1  0  0  0  0
 26 65  1  0  0  0  0
 26 66  1  0  0  0  0
 27 67  1  0  0  0  0
 27 68  1  0  0  0  0
 27 69  1  0  0  0  0
 28 70  1  0  0  0  0
 28 71  1  0  0  0  0
 29 72  1  0  0  0  0
 29 73  1  0  0  0  0
 30 74  1  0  0  0  0
 30 75  1  0  0  0  0
 31 76  1  0  0  0  0
 36 77  1  0  0  0  0
 40 78  1  0  0  0  0
M  CHG  1  36   1
M  END
> <compound>
EDJ-MED-ee81482e-3

> <compound_smiles>
CN(C)CC(COc1ccc2cncc(c2c1)N3CCC4(C3=O)CN(Cc5c4cc(cc5)Cl)S(=O)(=O)CC6(CC6)C#N)O

> <enantiomer_smiles>
CN(C)C[C@H](COc1ccc2cncc(c2c1)N3CCC4(C3=O)C[N@@](Cc5c4cc(cc5)Cl)S(=O)(=O)CC6(CC6)C#N)O

> <scaffold>
tetrahydroisoquinoline-5spiro-isoquinoline

> <clash_score>
0

> <docking_score>
-7.118587970733643

> <overlap_score>
0.973818838596344

> <MMFF_internal_energy>
181.89732659763874

> <docked_smiles>
C[NH+](C)C[C@H](COc1ccc2cncc(c2c1)N3CC[C@@]4(C3=O)C[N@@](Cc5c4cc(cc5)Cl)S(=O)(=O)CC6(CC6)C#N)O

$$$$
EDJ-MED-ee81482e-3_3
  -OEChem-12272114583D

 78 83  0     1  0  0  0  0  0999 V2000
    6.3155    4.9014   24.5578 C   0  0  0  0  0  0  0  0  0  0  0  0
    3.7865    2.4205   19.1660 C   0  0  0  0  0  0  0  0  0  0  0  0
   12.0765    0.0316   24.1541 C   0  0  0  0  0  0  0  0  0  0  0  0
    3.3432    2.6279   20.4411 C   0  0  0  0  0  0  0  0  0  0  0  0
   12.9132   -0.6032   23.2569 C   0  0  0  0  0  0  0  0  0  0  0  0
    4.8973    1.0233   21.2988 C   0  0  0  0  0  0  0  0  0  0  0  0
   10.9991   -1.4331   22.0443 C   0  0  0  0  0  0  0  0  0  0  0  0
    5.3278    1.2339   17.6066 C   0  0  0  0  0  0  0  0  0  0  0  0
    6.8438   -0.2892   18.3752 C   0  0  0  0  0  0  0  0  0  0  0  0
    4.8226    1.4906   18.9054 C   0  0  0  0  0  0  0  0  0  0  0  0
    5.3982    0.7733   19.9948 C   0  0  0  0  0  0  0  0  0  0  0  0
   10.7040   -0.0625   23.9898 C   0  0  0  0  0  0  0  0  0  0  0  0
   10.1406   -0.7765   22.9250 C   0  0  0  0  0  0  0  0  0  0  0  0
    6.4440   -0.1472   19.6979 C   0  0  0  0  0  0  0  0  0  0  0  0
    3.8960    1.9291   21.5050 C   0  0  0  0  0  0  0  0  0  0  0  0
   12.3683   -1.3298   22.2234 C   0  0  0  0  0  0  0  0  0  0  0  0
    8.2490    0.0169   21.4271 C   0  0  0  0  0  0  0  0  0  0  0  0
    9.9479    0.5589   24.9534 C   0  0  0  0  0  0  0  0  0  0  0  0
    8.0723    5.9546   26.0276 C   0  0  0  0  0  0  0  0  0  0  0  0
    7.2836    5.0077   26.8831 C   0  0  0  0  0  0  0  0  0  0  0  0
    8.0140   -2.1541   22.4331 C   0  0  0  0  0  0  0  0  0  0  0  0
    6.9866   -1.9366   21.3580 C   0  0  0  0  0  0  0  0  0  0  0  0
    7.8721   -0.1194   23.8831 C   0  0  0  0  0  0  0  0  0  0  0  0
    7.4618    4.7167   25.4097 C   0  0  0  0  0  0  0  0  0  0  0  0
    8.6238   -0.7606   22.6929 C   0  0  3  0  0  0  0  0  0  0  0  0
    3.3540   -1.7547   26.9112 C   0  0  0  0  0  0  0  0  0  0  0  0
    2.3256   -1.6934   24.6442 C   0  0  0  0  0  0  0  0  0  0  0  0
    8.3874    3.5882   25.0137 C   0  0  0  0  0  0  0  0  0  0  0  0
    2.5364    0.4022   25.9725 C   0  0  0  0  0  0  0  0  0  0  0  0
    3.4815    1.0690   23.6908 C   0  0  0  0  0  0  0  0  0  0  0  0
    2.3452    1.2175   24.6981 C   0  0  1  0  0  0  0  0  0  0  0  0
    5.3920    5.0503   23.8713 N   0  0  0  0  0  0  0  0  0  0  0  0
    6.3062    0.3769   17.3421 N   0  0  0  0  0  0  0  0  0  0  0  0
    7.2292   -0.6897   20.7790 N   0  0  0  0  0  0  0  0  0  0  0  0
    8.6609    1.0133   24.4995 N   0  0  2  0  0  0  0  0  0  0  0  0
    3.1231   -0.9273   25.6707 N   0  3  0  0  0  0  0  0  0  0  0  0
    8.8299    1.0397   21.0799 O   0  0  0  0  0  0  0  0  0  0  0  0
    8.2407    1.8013   26.9144 O   0  0  0  0  0  0  0  0  0  0  0  0
    6.3653    1.9471   25.2271 O   0  0  0  0  0  0  0  0  0  0  0  0
    1.1161    0.8217   24.0872 O   0  0  0  0  0  0  0  0  0  0  0  0
    3.4227    2.1582   22.7714 O   0  0  0  0  0  0  0  0  0  0  0  0
    7.7708    2.0177   25.5632 S   0  0  0  0  0  0  0  0  0  0  0  0
   13.4272   -2.1411   21.1086 Cl  0  0  0  0  0  0  0  0  0  0  0  0
    3.3406    2.9746   18.3368 H   0  0  0  0  0  0  0  0  0  0  0  0
   12.5024    0.5995   24.9735 H   0  0  0  0  0  0  0  0  0  0  0  0
    2.5407    3.3506   20.6306 H   0  0  0  0  0  0  0  0  0  0  0  0
   13.9910   -0.5177   23.3793 H   0  0  0  0  0  0  0  0  0  0  0  0
    5.3162    0.4858   22.1535 H   0  0  0  0  0  0  0  0  0  0  0  0
   10.6036   -2.0162   21.2241 H   0  0  0  0  0  0  0  0  0  0  0  0
    4.9131    1.7514   16.7479 H   0  0  0  0  0  0  0  0  0  0  0  0
    7.6448   -0.9758   18.1041 H   0  0  0  0  0  0  0  0  0  0  0  0
    9.7849   -0.1194   25.8306 H   0  0  0  0  0  0  0  0  0  0  0  0
   10.4793    1.4568   25.3613 H   0  0  0  0  0  0  0  0  0  0  0  0
    7.6321    6.9216   25.8116 H   0  0  0  0  0  0  0  0  0  0  0  0
    9.1461    5.9865   26.1712 H   0  0  0  0  0  0  0  0  0  0  0  0
    7.8293    4.4058   27.6006 H   0  0  0  0  0  0  0  0  0  0  0  0
    6.3160    5.3417   27.2402 H   0  0  0  0  0  0  0  0  0  0  0  0
    7.5152   -2.5456   23.3338 H   0  0  0  0  0  0  0  0  0  0  0  0
    8.7649   -2.9030   22.1434 H   0  0  0  0  0  0  0  0  0  0  0  0
    7.0587   -2.7248   20.5721 H   0  0  0  0  0  0  0  0  0  0  0  0
    5.9518   -1.9952   21.7720 H   0  0  0  0  0  0  0  0  0  0  0  0
    6.8867    0.2641   23.5642 H   0  0  0  0  0  0  0  0  0  0  0  0
    7.6652   -0.8660   24.6733 H   0  0  0  0  0  0  0  0  0  0  0  0
    2.3838   -1.9349   27.3777 H   0  0  0  0  0  0  0  0  0  0  0  0
    3.8227   -2.6919   26.6052 H   0  0  0  0  0  0  0  0  0  0  0  0
    4.0089   -1.1865   27.5745 H   0  0  0  0  0  0  0  0  0  0  0  0
    1.3319   -1.8722   25.0589 H   0  0  0  0  0  0  0  0  0  0  0  0
    2.2700   -1.0832   23.7407 H   0  0  0  0  0  0  0  0  0  0  0  0
    2.8452   -2.6339   24.4513 H   0  0  0  0  0  0  0  0  0  0  0  0
    9.3774    3.7195   25.4591 H   0  0  0  0  0  0  0  0  0  0  0  0
    8.4924    3.5311   23.9269 H   0  0  0  0  0  0  0  0  0  0  0  0
    3.2161    0.8949   26.6737 H   0  0  0  0  0  0  0  0  0  0  0  0
    1.5787    0.2034   26.4631 H   0  0  0  0  0  0  0  0  0  0  0  0
    3.3880    0.1453   23.1112 H   0  0  0  0  0  0  0  0  0  0  0  0
    4.4554    1.0974   24.1889 H   0  0  0  0  0  0  0  0  0  0  0  0
    2.2296    2.2730   24.9714 H   0  0  0  0  0  0  0  0  0  0  0  0
    4.0560   -0.7731   25.2516 H   0  0  0  0  0  0  0  0  0  0  0  0
    0.4183    1.0058   24.7335 H   0  0  0  0  0  0  0  0  0  0  0  0
  1 24  1  0  0  0  0
  1 32  3  0  0  0  0
  2  4  2  0  0  0  0
  2 10  1  0  0  0  0
  3  5  1  0  0  0  0
  3 12  2  0  0  0  0
  4 15  1  0  0  0  0
  5 16  2  0  0  0  0
  6 11  1  0  0  0  0
  6 15  2  0  0  0  0
  7 13  2  0  0  0  0
  7 16  1  0  0  0  0
  8 10  1  0  0  0  0
  8 33  2  0  0  0  0
  9 14  2  0  0  0  0
  9 33  1  0  0  0  0
 10 11  2  0  0  0  0
 11 14  1  0  0  0  0
 12 13  1  0  0  0  0
 12 18  1  0  0  0  0
 13 25  1  0  0  0  0
 14 34  1  0  0  0  0
 15 41  1  0  0  0  0
 16 43  1  0  0  0  0
 17 25  1  0  0  0  0
 17 34  1  0  0  0  0
 17 37  2  0  0  0  0
 18 35  1  0  0  0  0
 19 20  1  0  0  0  0
 19 24  1  0  0  0  0
 20 24  1  0  0  0  0
 21 22  1  0  0  0  0
 21 25  1  0  0  0  0
 22 34  1  0  0  0  0
 23 25  1  0  0  0  0
 23 35  1  0  0  0  0
 24 28  1  0  0  0  0
 26 36  1  0  0  0  0
 27 36  1  0  0  0  0
 28 42  1  0  0  0  0
 29 31  1  0  0  0  0
 29 36  1  0  0  0  0
 30 31  1  0  0  0  0
 30 41  1  0  0  0  0
 31 40  1  1  0  0  0
 35 42  1  6  0  0  0
 38 42  2  0  0  0  0
 39 42  2  0  0  0  0
  2 44  1  0  0  0  0
  3 45  1  0  0  0  0
  4 46  1  0  0  0  0
  5 47  1  0  0  0  0
  6 48  1  0  0  0  0
  7 49  1  0  0  0  0
  8 50  1  0  0  0  0
  9 51  1  0  0  0  0
 18 52  1  0  0  0  0
 18 53  1  0  0  0  0
 19 54  1  0  0  0  0
 19 55  1  0  0  0  0
 20 56  1  0  0  0  0
 20 57  1  0  0  0  0
 21 58  1  0  0  0  0
 21 59  1  0  0  0  0
 22 60  1  0  0  0  0
 22 61  1  0  0  0  0
 23 62  1  0  0  0  0
 23 63  1  0  0  0  0
 26 64  1  0  0  0  0
 26 65  1  0  0  0  0
 26 66  1  0  0  0  0
 27 67  1  0  0  0  0
 27 68  1  0  0  0  0
 27 69  1  0  0  0  0
 28 70  1  0  0  0  0
 28 71  1  0  0  0  0
 29 72  1  0  0  0  0
 29 73  1  0  0  0  0
 30 74  1  0  0  0  0
 30 75  1  0  0  0  0
 31 76  1  0  0  0  0
 36 77  1  0  0  0  0
 40 78  1  0  0  0  0
M  CHG  1  36   1
M  END
> <compound>
EDJ-MED-ee81482e-3

> <compound_smiles>
CN(C)CC(COc1ccc2cncc(c2c1)N3CCC4(C3=O)CN(Cc5c4cc(cc5)Cl)S(=O)(=O)CC6(CC6)C#N)O

> <enantiomer_smiles>
CN(C)C[C@@H](COc1ccc2cncc(c2c1)N3CCC4(C3=O)C[N@](Cc5c4cc(cc5)Cl)S(=O)(=O)CC6(CC6)C#N)O

> <scaffold>
tetrahydroisoquinoline-5spiro-isoquinoline

> <clash_score>
0

> <docking_score>
-6.302249908447266

> <overlap_score>
0.9701929092407227

> <MMFF_internal_energy>
175.82728387841811

> <docked_smiles>
C[NH+](C)C[C@@H](COc1ccc2cncc(c2c1)N3CC[C@@]4(C3=O)C[N@](Cc5c4cc(cc5)Cl)S(=O)(=O)CC6(CC6)C#N)O

$$$$
EDJ-MED-ee81482e-3_4
  -OEChem-12272114583D

 78 83  0     1  0  0  0  0  0999 V2000
    6.3151    4.9014   24.5583 C   0  0  0  0  0  0  0  0  0  0  0  0
    3.7865    2.4205   19.1660 C   0  0  0  0  0  0  0  0  0  0  0  0
   12.0765    0.0316   24.1541 C   0  0  0  0  0  0  0  0  0  0  0  0
    3.3432    2.6279   20.4411 C   0  0  0  0  0  0  0  0  0  0  0  0
   12.9132   -0.6032   23.2569 C   0  0  0  0  0  0  0  0  0  0  0  0
    4.8973    1.0233   21.2988 C   0  0  0  0  0  0  0  0  0  0  0  0
   10.9991   -1.4331   22.0443 C   0  0  0  0  0  0  0  0  0  0  0  0
    5.3278    1.2339   17.6066 C   0  0  0  0  0  0  0  0  0  0  0  0
    6.8438   -0.2892   18.3752 C   0  0  0  0  0  0  0  0  0  0  0  0
    4.8226    1.4906   18.9054 C   0  0  0  0  0  0  0  0  0  0  0  0
    5.3982    0.7733   19.9948 C   0  0  0  0  0  0  0  0  0  0  0  0
   10.7040   -0.0625   23.9898 C   0  0  0  0  0  0  0  0  0  0  0  0
   10.1406   -0.7765   22.9250 C   0  0  0  0  0  0  0  0  0  0  0  0
    6.4440   -0.1472   19.6979 C   0  0  0  0  0  0  0  0  0  0  0  0
    3.8960    1.9291   21.5050 C   0  0  0  0  0  0  0  0  0  0  0  0
   12.3683   -1.3298   22.2234 C   0  0  0  0  0  0  0  0  0  0  0  0
    8.2490    0.0169   21.4271 C   0  0  0  0  0  0  0  0  0  0  0  0
    9.9479    0.5589   24.9534 C   0  0  0  0  0  0  0  0  0  0  0  0
    8.0716    5.9546   26.0283 C   0  0  0  0  0  0  0  0  0  0  0  0
    7.2831    5.0074   26.8836 C   0  0  0  0  0  0  0  0  0  0  0  0
    8.0140   -2.1541   22.4331 C   0  0  0  0  0  0  0  0  0  0  0  0
    6.9866   -1.9366   21.3580 C   0  0  0  0  0  0  0  0  0  0  0  0
    7.8721   -0.1194   23.8831 C   0  0  0  0  0  0  0  0  0  0  0  0
    7.4613    4.7167   25.4102 C   0  0  0  0  0  0  0  0  0  0  0  0
    8.6238   -0.7606   22.6929 C   0  0  3  0  0  0  0  0  0  0  0  0
   -0.1695    3.7486   23.2769 C   0  0  0  0  0  0  0  0  0  0  0  0
    1.4395    3.9446   25.1673 C   0  0  0  0  0  0  0  0  0  0  0  0
    8.3871    3.5884   25.0140 C   0  0  0  0  0  0  0  0  0  0  0  0
    1.0432    1.7328   24.0941 C   0  0  0  0  0  0  0  0  0  0  0  0
    3.4815    1.0690   23.6908 C   0  0  0  0  0  0  0  0  0  0  0  0
    2.3452    1.2175   24.6981 C   0  0  2  0  0  0  0  0  0  0  0  0
    5.3916    5.0502   23.8719 N   0  0  0  0  0  0  0  0  0  0  0  0
    6.3062    0.3769   17.3421 N   0  0  0  0  0  0  0  0  0  0  0  0
    7.2292   -0.6897   20.7790 N   0  0  0  0  0  0  0  0  0  0  0  0
    8.6609    1.0133   24.4995 N   0  0  2  0  0  0  0  0  0  0  0  0
    1.0921    3.2035   23.8997 N   0  3  0  0  0  0  0  0  0  0  0  0
    8.8299    1.0397   21.0799 O   0  0  0  0  0  0  0  0  0  0  0  0
    8.2289    1.8075   26.9194 O   0  0  0  0  0  0  0  0  0  0  0  0
    6.3687    1.9411   25.2144 O   0  0  0  0  0  0  0  0  0  0  0  0
    2.0917   -0.0481   25.3100 O   0  0  0  0  0  0  0  0  0  0  0  0
    3.4227    2.1582   22.7714 O   0  0  0  0  0  0  0  0  0  0  0  0
    7.7708    2.0177   25.5632 S   0  0  0  0  0  0  0  0  0  0  0  0
   13.4272   -2.1411   21.1086 Cl  0  0  0  0  0  0  0  0  0  0  0  0
    3.3406    2.9746   18.3368 H   0  0  0  0  0  0  0  0  0  0  0  0
   12.5024    0.5995   24.9735 H   0  0  0  0  0  0  0  0  0  0  0  0
    2.5407    3.3506   20.6306 H   0  0  0  0  0  0  0  0  0  0  0  0
   13.9910   -0.5177   23.3793 H   0  0  0  0  0  0  0  0  0  0  0  0
    5.3162    0.4858   22.1535 H   0  0  0  0  0  0  0  0  0  0  0  0
   10.6036   -2.0162   21.2241 H   0  0  0  0  0  0  0  0  0  0  0  0
    4.9131    1.7514   16.7479 H   0  0  0  0  0  0  0  0  0  0  0  0
    7.6448   -0.9758   18.1041 H   0  0  0  0  0  0  0  0  0  0  0  0
    9.7849   -0.1194   25.8306 H   0  0  0  0  0  0  0  0  0  0  0  0
   10.4793    1.4568   25.3613 H   0  0  0  0  0  0  0  0  0  0  0  0
    7.6313    6.9215   25.8125 H   0  0  0  0  0  0  0  0  0  0  0  0
    9.1455    5.9866   26.1719 H   0  0  0  0  0  0  0  0  0  0  0  0
    7.8289    4.4055   27.6010 H   0  0  0  0  0  0  0  0  0  0  0  0
    6.3154    5.3412   27.2408 H   0  0  0  0  0  0  0  0  0  0  0  0
    7.5152   -2.5456   23.3338 H   0  0  0  0  0  0  0  0  0  0  0  0
    8.7649   -2.9030   22.1434 H   0  0  0  0  0  0  0  0  0  0  0  0
    7.0587   -2.7248   20.5721 H   0  0  0  0  0  0  0  0  0  0  0  0
    5.9518   -1.9952   21.7720 H   0  0  0  0  0  0  0  0  0  0  0  0
    6.8867    0.2641   23.5642 H   0  0  0  0  0  0  0  0  0  0  0  0
    7.6652   -0.8660   24.6733 H   0  0  0  0  0  0  0  0  0  0  0  0
   -0.9945    3.5467   23.9626 H   0  0  0  0  0  0  0  0  0  0  0  0
   -0.0336    4.8219   23.1314 H   0  0  0  0  0  0  0  0  0  0  0  0
   -0.3185    3.2389   22.3231 H   0  0  0  0  0  0  0  0  0  0  0  0
    0.6513    3.7472   25.8961 H   0  0  0  0  0  0  0  0  0  0  0  0
    2.4027    3.5707   25.5196 H   0  0  0  0  0  0  0  0  0  0  0  0
    1.4950    5.0082   24.9278 H   0  0  0  0  0  0  0  0  0  0  0  0
    9.3772    3.7198   25.4594 H   0  0  0  0  0  0  0  0  0  0  0  0
    8.4921    3.5315   23.9272 H   0  0  0  0  0  0  0  0  0  0  0  0
    0.8461    1.2916   23.1128 H   0  0  0  0  0  0  0  0  0  0  0  0
    0.1959    1.5461   24.7609 H   0  0  0  0  0  0  0  0  0  0  0  0
    3.3880    0.1453   23.1112 H   0  0  0  0  0  0  0  0  0  0  0  0
    4.4554    1.0974   24.1889 H   0  0  0  0  0  0  0  0  0  0  0  0
    2.6505    1.8960   25.5034 H   0  0  0  0  0  0  0  0  0  0  0  0
    1.8535    3.4085   23.2303 H   0  0  0  0  0  0  0  0  0  0  0  0
    1.4220    0.1079   25.9925 H   0  0  0  0  0  0  0  0  0  0  0  0
  1 24  1  0  0  0  0
  1 32  3  0  0  0  0
  2  4  2  0  0  0  0
  2 10  1  0  0  0  0
  3  5  1  0  0  0  0
  3 12  2  0  0  0  0
  4 15  1  0  0  0  0
  5 16  2  0  0  0  0
  6 11  1  0  0  0  0
  6 15  2  0  0  0  0
  7 13  2  0  0  0  0
  7 16  1  0  0  0  0
  8 10  1  0  0  0  0
  8 33  2  0  0  0  0
  9 14  2  0  0  0  0
  9 33  1  0  0  0  0
 10 11  2  0  0  0  0
 11 14  1  0  0  0  0
 12 13  1  0  0  0  0
 12 18  1  0  0  0  0
 13 25  1  0  0  0  0
 14 34  1  0  0  0  0
 15 41  1  0  0  0  0
 16 43  1  0  0  0  0
 17 25  1  0  0  0  0
 17 34  1  0  0  0  0
 17 37  2  0  0  0  0
 18 35  1  0  0  0  0
 19 20  1  0  0  0  0
 19 24  1  0  0  0  0
 20 24  1  0  0  0  0
 21 22  1  0  0  0  0
 21 25  1  0  0  0  0
 22 34  1  0  0  0  0
 23 25  1  0  0  0  0
 23 35  1  0  0  0  0
 24 28  1  0  0  0  0
 26 36  1  0  0  0  0
 27 36  1  0  0  0  0
 28 42  1  0  0  0  0
 29 31  1  0  0  0  0
 29 36  1  0  0  0  0
 30 31  1  0  0  0  0
 30 41  1  0  0  0  0
 31 40  1  6  0  0  0
 35 42  1  6  0  0  0
 38 42  2  0  0  0  0
 39 42  2  0  0  0  0
  2 44  1  0  0  0  0
  3 45  1  0  0  0  0
  4 46  1  0  0  0  0
  5 47  1  0  0  0  0
  6 48  1  0  0  0  0
  7 49  1  0  0  0  0
  8 50  1  0  0  0  0
  9 51  1  0  0  0  0
 18 52  1  0  0  0  0
 18 53  1  0  0  0  0
 19 54  1  0  0  0  0
 19 55  1  0  0  0  0
 20 56  1  0  0  0  0
 20 57  1  0  0  0  0
 21 58  1  0  0  0  0
 21 59  1  0  0  0  0
 22 60  1  0  0  0  0
 22 61  1  0  0  0  0
 23 62  1  0  0  0  0
 23 63  1  0  0  0  0
 26 64  1  0  0  0  0
 26 65  1  0  0  0  0
 26 66  1  0  0  0  0
 27 67  1  0  0  0  0
 27 68  1  0  0  0  0
 27 69  1  0  0  0  0
 28 70  1  0  0  0  0
 28 71  1  0  0  0  0
 29 72  1  0  0  0  0
 29 73  1  0  0  0  0
 30 74  1  0  0  0  0
 30 75  1  0  0  0  0
 31 76  1  0  0  0  0
 36 77  1  0  0  0  0
 40 78  1  0  0  0  0
M  CHG  1  36   1
M  END
> <compound>
EDJ-MED-ee81482e-3

> <compound_smiles>
CN(C)CC(COc1ccc2cncc(c2c1)N3CCC4(C3=O)CN(Cc5c4cc(cc5)Cl)S(=O)(=O)CC6(CC6)C#N)O

> <enantiomer_smiles>
CN(C)C[C@H](COc1ccc2cncc(c2c1)N3CCC4(C3=O)C[N@](Cc5c4cc(cc5)Cl)S(=O)(=O)CC6(CC6)C#N)O

> <scaffold>
tetrahydroisoquinoline-5spiro-isoquinoline

> <clash_score>
0

> <docking_score>
-6.427927494049072

> <overlap_score>
0.9702813625335693

> <MMFF_internal_energy>
162.8006637268062

> <docked_smiles>
C[NH+](C)C[C@H](COc1ccc2cncc(c2c1)N3CC[C@@]4(C3=O)C[N@](Cc5c4cc(cc5)Cl)S(=O)(=O)CC6(CC6)C#N)O

$$$$
EDJ-MED-ee81482e-5_1
  -OEChem-12272114583D

 76 83  0     1  0  0  0  0  0999 V2000
    9.9898    5.1222   23.8236 C   0  0  0  0  0  0  0  0  0  0  0  0
    3.7865    2.4205   19.1660 C   0  0  0  0  0  0  0  0  0  0  0  0
   12.0765    0.0316   24.1541 C   0  0  0  0  0  0  0  0  0  0  0  0
    3.3432    2.6279   20.4411 C   0  0  0  0  0  0  0  0  0  0  0  0
   12.9132   -0.6032   23.2569 C   0  0  0  0  0  0  0  0  0  0  0  0
    4.8973    1.0233   21.2988 C   0  0  0  0  0  0  0  0  0  0  0  0
   10.9991   -1.4331   22.0443 C   0  0  0  0  0  0  0  0  0  0  0  0
    5.3278    1.2339   17.6066 C   0  0  0  0  0  0  0  0  0  0  0  0
    6.8438   -0.2892   18.3752 C   0  0  0  0  0  0  0  0  0  0  0  0
    4.8226    1.4906   18.9054 C   0  0  0  0  0  0  0  0  0  0  0  0
    5.3982    0.7733   19.9948 C   0  0  0  0  0  0  0  0  0  0  0  0
   10.7040   -0.0625   23.9898 C   0  0  0  0  0  0  0  0  0  0  0  0
   10.1406   -0.7765   22.9250 C   0  0  0  0  0  0  0  0  0  0  0  0
    3.8960    1.9291   21.5050 C   0  0  0  0  0  0  0  0  0  0  0  0
    6.4440   -0.1472   19.6979 C   0  0  0  0  0  0  0  0  0  0  0  0
   12.3683   -1.3298   22.2234 C   0  0  0  0  0  0  0  0  0  0  0  0
    8.2490    0.0169   21.4271 C   0  0  0  0  0  0  0  0  0  0  0  0
    9.9479    0.5589   24.9534 C   0  0  0  0  0  0  0  0  0  0  0  0
    8.5324    6.1021   25.6323 C   0  0  0  0  0  0  0  0  0  0  0  0
    7.7014    6.0179   24.3861 C   0  0  0  0  0  0  0  0  0  0  0  0
    8.0140   -2.1541   22.4331 C   0  0  0  0  0  0  0  0  0  0  0  0
    6.9866   -1.9366   21.3580 C   0  0  0  0  0  0  0  0  0  0  0  0
    7.8721   -0.1194   23.8831 C   0  0  0  0  0  0  0  0  0  0  0  0
    1.6696    0.4231   22.9617 C   0  0  0  0  0  0  0  0  0  0  0  0
    1.5178    1.9213   24.4685 C   0  0  0  0  0  0  0  0  0  0  0  0
    0.2645   -0.2827   25.0276 C   0  0  0  0  0  0  0  0  0  0  0  0
    2.3164   -0.3852   25.3364 C   0  0  0  0  0  0  0  0  0  0  0  0
    8.7994    5.0058   24.6255 C   0  0  0  0  0  0  0  0  0  0  0  0
    8.6238   -0.7606   22.6929 C   0  0  3  0  0  0  0  0  0  0  0  0
    1.4379    0.4277   24.4395 C   0  0  0  0  0  0  0  0  0  0  0  0
    3.3796    2.1809   22.8922 C   0  0  0  0  0  0  0  0  0  0  0  0
    8.3989    3.5932   24.9882 C   0  0  0  0  0  0  0  0  0  0  0  0
   10.9490    5.2161   23.1776 N   0  0  0  0  0  0  0  0  0  0  0  0
    6.3062    0.3769   17.3421 N   0  0  0  0  0  0  0  0  0  0  0  0
    7.2292   -0.6897   20.7790 N   0  0  0  0  0  0  0  0  0  0  0  0
    8.6609    1.0133   24.4995 N   0  0  1  0  0  0  0  0  0  0  0  0
    1.9321    1.8844   23.0411 N   0  3  0  0  0  0  0  0  0  0  0  0
    8.7572    1.0941   21.1350 O   0  0  0  0  0  0  0  0  0  0  0  0
    7.4179    2.5201   22.8172 O   0  0  0  0  0  0  0  0  0  0  0  0
    9.9251    2.7322   23.0499 O   0  0  0  0  0  0  0  0  0  0  0  0
    1.1477   -1.0589   25.8893 O   0  0  0  0  0  0  0  0  0  0  0  0
    8.6198    2.4832   23.6217 S   0  0  0  0  0  0  0  0  0  0  0  0
   13.4275   -2.1421   21.1097 Cl  0  0  0  0  0  0  0  0  0  0  0  0
    3.3419    2.9747   18.3362 H   0  0  0  0  0  0  0  0  0  0  0  0
   12.5015    0.5938   24.9776 H   0  0  0  0  0  0  0  0  0  0  0  0
    2.5411    3.3529   20.6267 H   0  0  0  0  0  0  0  0  0  0  0  0
   13.9911   -0.5212   23.3814 H   0  0  0  0  0  0  0  0  0  0  0  0
    5.3175    0.4836   22.1518 H   0  0  0  0  0  0  0  0  0  0  0  0
   10.6037   -2.0228   21.2288 H   0  0  0  0  0  0  0  0  0  0  0  0
    4.9134    1.7510   16.7475 H   0  0  0  0  0  0  0  0  0  0  0  0
    7.6450   -0.9758   18.1044 H   0  0  0  0  0  0  0  0  0  0  0  0
    9.7581   -0.1287   25.8173 H   0  0  0  0  0  0  0  0  0  0  0  0
   10.4931    1.4391   25.3829 H   0  0  0  0  0  0  0  0  0  0  0  0
    9.2347    6.9241   25.7129 H   0  0  0  0  0  0  0  0  0  0  0  0
    8.0587    5.8395   26.5712 H   0  0  0  0  0  0  0  0  0  0  0  0
    6.6706    5.6996   24.4905 H   0  0  0  0  0  0  0  0  0  0  0  0
    7.8473    6.7843   23.6333 H   0  0  0  0  0  0  0  0  0  0  0  0
    7.5801   -2.6060   23.3366 H   0  0  0  0  0  0  0  0  0  0  0  0
    8.7749   -2.8608   22.0657 H   0  0  0  0  0  0  0  0  0  0  0  0
    7.0227   -2.7506   20.5953 H   0  0  0  0  0  0  0  0  0  0  0  0
    5.9554   -1.9484   21.7832 H   0  0  0  0  0  0  0  0  0  0  0  0
    6.8886    0.2769   23.5666 H   0  0  0  0  0  0  0  0  0  0  0  0
    7.6579   -0.8710   24.6633 H   0  0  0  0  0  0  0  0  0  0  0  0
    2.5283   -0.1766   22.6247 H   0  0  0  0  0  0  0  0  0  0  0  0
    0.8052    0.1893   22.3258 H   0  0  0  0  0  0  0  0  0  0  0  0
    0.5746    2.4650   24.6143 H   0  0  0  0  0  0  0  0  0  0  0  0
    2.2738    2.3360   25.1519 H   0  0  0  0  0  0  0  0  0  0  0  0
   -0.4297    0.3220   25.6208 H   0  0  0  0  0  0  0  0  0  0  0  0
   -0.3010   -0.9372   24.3556 H   0  0  0  0  0  0  0  0  0  0  0  0
    2.9843   -1.0961   24.8440 H   0  0  0  0  0  0  0  0  0  0  0  0
    2.8581    0.1636   26.1105 H   0  0  0  0  0  0  0  0  0  0  0  0
    3.8985    1.5671   23.6409 H   0  0  0  0  0  0  0  0  0  0  0  0
    3.5105    3.2318   23.1840 H   0  0  0  0  0  0  0  0  0  0  0  0
    7.3445    3.5466   25.2742 H   0  0  0  0  0  0  0  0  0  0  0  0
    9.0072    3.2136   25.8136 H   0  0  0  0  0  0  0  0  0  0  0  0
    1.3360    2.4458   22.4224 H   0  0  0  0  0  0  0  0  0  0  0  0
  1 28  1  0  0  0  0
  1 33  3  0  0  0  0
  2  4  1  0  0  0  0
  2 10  2  0  0  0  0
  3  5  1  0  0  0  0
  3 12  2  0  0  0  0
  4 14  2  0  0  0  0
  5 16  2  0  0  0  0
  6 11  2  0  0  0  0
  6 14  1  0  0  0  0
  7 13  2  0  0  0  0
  7 16  1  0  0  0  0
  8 10  1  0  0  0  0
  8 34  2  0  0  0  0
  9 15  2  0  0  0  0
  9 34  1  0  0  0  0
 10 11  1  0  0  0  0
 11 15  1  0  0  0  0
 12 13  1  0  0  0  0
 12 18  1  0  0  0  0
 13 29  1  0  0  0  0
 14 31  1  0  0  0  0
 15 35  1  0  0  0  0
 16 43  1  0  0  0  0
 17 29  1  0  0  0  0
 17 35  1  0  0  0  0
 17 38  2  0  0  0  0
 18 36  1  0  0  0  0
 19 20  1  0  0  0  0
 19 28  1  0  0  0  0
 20 28  1  0  0  0  0
 21 22  1  0  0  0  0
 21 29  1  0  0  0  0
 22 35  1  0  0  0  0
 23 29  1  0  0  0  0
 23 36  1  0  0  0  0
 24 30  1  0  0  0  0
 24 37  1  0  0  0  0
 25 30  1  0  0  0  0
 25 37  1  0  0  0  0
 26 30  1  0  0  0  0
 26 41  1  0  0  0  0
 27 30  1  0  0  0  0
 27 41  1  0  0  0  0
 28 32  1  0  0  0  0
 31 37  1  0  0  0  0
 32 42  1  0  0  0  0
 36 42  1  1  0  0  0
 39 42  2  0  0  0  0
 40 42  2  0  0  0  0
  2 44  1  0  0  0  0
  3 45  1  0  0  0  0
  4 46  1  0  0  0  0
  5 47  1  0  0  0  0
  6 48  1  0  0  0  0
  7 49  1  0  0  0  0
  8 50  1  0  0  0  0
  9 51  1  0  0  0  0
 18 52  1  0  0  0  0
 18 53  1  0  0  0  0
 19 54  1  0  0  0  0
 19 55  1  0  0  0  0
 20 56  1  0  0  0  0
 20 57  1  0  0  0  0
 21 58  1  0  0  0  0
 21 59  1  0  0  0  0
 22 60  1  0  0  0  0
 22 61  1  0  0  0  0
 23 62  1  0  0  0  0
 23 63  1  0  0  0  0
 24 64  1  0  0  0  0
 24 65  1  0  0  0  0
 25 66  1  0  0  0  0
 25 67  1  0  0  0  0
 26 68  1  0  0  0  0
 26 69  1  0  0  0  0
 27 70  1  0  0  0  0
 27 71  1  0  0  0  0
 31 72  1  0  0  0  0
 31 73  1  0  0  0  0
 32 74  1  0  0  0  0
 32 75  1  0  0  0  0
 37 76  1  0  0  0  0
M  CHG  1  37   1
M  END
> <compound>
EDJ-MED-ee81482e-5

> <compound_smiles>
c1cc2cncc(c2cc1CN3CC4(C3)COC4)N5CCC6(C5=O)CN(Cc7c6cc(cc7)Cl)S(=O)(=O)CC8(CC8)C#N

> <enantiomer_smiles>
c1cc2cncc(c2cc1CN3CC4(C3)COC4)N5CCC6(C5=O)C[N@@](Cc7c6cc(cc7)Cl)S(=O)(=O)CC8(CC8)C#N

> <scaffold>
tetrahydroisoquinoline-5spiro-isoquinoline

> <clash_score>
0

> <docking_score>
-7.578139305114746

> <overlap_score>
0.9702057242393494

> <MMFF_internal_energy>
142.4550890596457

> <docked_smiles>
c1cc2cncc(c2cc1C[NH+]3CC4(C3)COC4)N5CC[C@@]6(C5=O)C[N@@](Cc7c6cc(cc7)Cl)S(=O)(=O)CC8(CC8)C#N

$$$$
EDJ-MED-dfa1d800-5_1
  -OEChem-12272114583D

 73 79  0     1  0  0  0  0  0999 V2000
    3.7865    2.4205   19.1660 C   0  0  0  0  0  0  0  0  0  0  0  0
   12.0765    0.0316   24.1541 C   0  0  0  0  0  0  0  0  0  0  0  0
    3.3432    2.6279   20.4411 C   0  0  0  0  0  0  0  0  0  0  0  0
   12.9132   -0.6032   23.2569 C   0  0  0  0  0  0  0  0  0  0  0  0
    4.8973    1.0233   21.2988 C   0  0  0  0  0  0  0  0  0  0  0  0
   10.9991   -1.4331   22.0443 C   0  0  0  0  0  0  0  0  0  0  0  0
    5.3278    1.2339   17.6066 C   0  0  0  0  0  0  0  0  0  0  0  0
    6.8438   -0.2892   18.3752 C   0  0  0  0  0  0  0  0  0  0  0  0
    4.8226    1.4906   18.9054 C   0  0  0  0  0  0  0  0  0  0  0  0
    5.3982    0.7733   19.9948 C   0  0  0  0  0  0  0  0  0  0  0  0
   10.7040   -0.0625   23.9898 C   0  0  0  0  0  0  0  0  0  0  0  0
   10.1406   -0.7765   22.9250 C   0  0  0  0  0  0  0  0  0  0  0  0
    6.4440   -0.1472   19.6979 C   0  0  0  0  0  0  0  0  0  0  0  0
    3.8960    1.9291   21.5050 C   0  0  0  0  0  0  0  0  0  0  0  0
   12.3683   -1.3298   22.2234 C   0  0  0  0  0  0  0  0  0  0  0  0
    9.9479    0.5589   24.9534 C   0  0  0  0  0  0  0  0  0  0  0  0
    8.2490    0.0169   21.4271 C   0  0  0  0  0  0  0  0  0  0  0  0
    8.4222    3.2568   23.7645 C   0  0  0  0  0  0  0  0  0  0  0  0
    7.9228    2.6746   26.2005 C   0  0  0  0  0  0  0  0  0  0  0  0
    6.7191    2.2854   25.4011 C   0  0  0  0  0  0  0  0  0  0  0  0
    8.0140   -2.1541   22.4331 C   0  0  0  0  0  0  0  0  0  0  0  0
    6.9866   -1.9366   21.3580 C   0  0  0  0  0  0  0  0  0  0  0  0
    7.8721   -0.1194   23.8831 C   0  0  0  0  0  0  0  0  0  0  0  0
    2.7079    6.2954   21.8930 C   0  0  0  0  0  0  0  0  0  0  0  0
    4.5250    6.8485   22.7482 C   0  0  0  0  0  0  0  0  0  0  0  0
    8.6238   -0.7606   22.6929 C   0  0  3  0  0  0  0  0  0  0  0  0
    8.0922    2.2237   24.7645 C   0  0  0  0  0  0  0  0  0  0  0  0
    3.4308    7.6527   22.0159 C   0  0  0  0  0  0  0  0  0  0  0  0
   10.1192    4.9707   23.1599 C   0  0  0  0  0  0  0  0  0  0  0  0
    4.0189    4.4862   22.8144 C   0  0  0  0  0  0  0  0  0  0  0  0
    2.9188    3.4653   23.0408 C   0  0  0  0  0  0  0  0  0  0  0  0
    6.3062    0.3769   17.3421 N   0  0  0  0  0  0  0  0  0  0  0  0
    7.2292   -0.6897   20.7790 N   0  0  0  0  0  0  0  0  0  0  0  0
    8.6609    1.0133   24.4995 N   0  0  0  0  0  0  0  0  0  0  0  0
    3.4983    5.8274   23.0533 N   0  0  0  0  0  0  0  0  0  0  0  0
    9.6069    3.9231   24.0138 N   0  0  0  0  0  0  0  0  0  0  0  0
   10.3214    0.7303   26.1092 O   0  0  0  0  0  0  0  0  0  0  0  0
    8.8193    1.0411   21.0780 O   0  0  0  0  0  0  0  0  0  0  0  0
    7.6637    3.4490   22.8214 O   0  0  0  0  0  0  0  0  0  0  0  0
    3.4227    2.1582   22.7714 O   0  0  0  0  0  0  0  0  0  0  0  0
    3.7987    8.2379   20.8558 F   0  0  0  0  0  0  0  0  0  0  0  0
    2.7977    8.5927   22.7540 F   0  0  0  0  0  0  0  0  0  0  0  0
   13.4266   -2.1450   21.1115 Cl  0  0  0  0  0  0  0  0  0  0  0  0
    3.3406    2.9746   18.3368 H   0  0  0  0  0  0  0  0  0  0  0  0
   12.5168    0.5969   24.9717 H   0  0  0  0  0  0  0  0  0  0  0  0
    2.5407    3.3506   20.6306 H   0  0  0  0  0  0  0  0  0  0  0  0
   13.9905   -0.5223   23.3823 H   0  0  0  0  0  0  0  0  0  0  0  0
    5.3162    0.4858   22.1535 H   0  0  0  0  0  0  0  0  0  0  0  0
   10.6130   -2.0239   21.2265 H   0  0  0  0  0  0  0  0  0  0  0  0
    4.9131    1.7514   16.7479 H   0  0  0  0  0  0  0  0  0  0  0  0
    7.6448   -0.9758   18.1041 H   0  0  0  0  0  0  0  0  0  0  0  0
    8.0542    3.7249   26.4335 H   0  0  0  0  0  0  0  0  0  0  0  0
    8.2388    2.0049   26.9919 H   0  0  0  0  0  0  0  0  0  0  0  0
    6.2266    1.3540   25.6549 H   0  0  0  0  0  0  0  0  0  0  0  0
    6.0407    3.0736   25.0964 H   0  0  0  0  0  0  0  0  0  0  0  0
    7.5107   -2.5270   23.3391 H   0  0  0  0  0  0  0  0  0  0  0  0
    8.7577   -2.9105   22.1439 H   0  0  0  0  0  0  0  0  0  0  0  0
    7.0584   -2.7260   20.5727 H   0  0  0  0  0  0  0  0  0  0  0  0
    5.9514   -1.9960   21.7715 H   0  0  0  0  0  0  0  0  0  0  0  0
    6.9260    0.3245   23.5638 H   0  0  0  0  0  0  0  0  0  0  0  0
    7.6512   -0.8549   24.6568 H   0  0  0  0  0  0  0  0  0  0  0  0
    1.6290    6.3279   22.0767 H   0  0  0  0  0  0  0  0  0  0  0  0
    2.8852    5.7907   20.9340 H   0  0  0  0  0  0  0  0  0  0  0  0
    5.3531    6.5419   22.0955 H   0  0  0  0  0  0  0  0  0  0  0  0
    4.9416    7.3362   23.6355 H   0  0  0  0  0  0  0  0  0  0  0  0
   10.7641    4.5304   22.3851 H   0  0  0  0  0  0  0  0  0  0  0  0
    9.2800    5.4976   22.6824 H   0  0  0  0  0  0  0  0  0  0  0  0
   10.7034    5.6817   23.7625 H   0  0  0  0  0  0  0  0  0  0  0  0
    4.8610    4.3192   23.4934 H   0  0  0  0  0  0  0  0  0  0  0  0
    4.3765    4.4380   21.7815 H   0  0  0  0  0  0  0  0  0  0  0  0
    2.0859    3.6539   22.3563 H   0  0  0  0  0  0  0  0  0  0  0  0
    2.5481    3.4945   24.0706 H   0  0  0  0  0  0  0  0  0  0  0  0
   10.1432    3.6642   24.8364 H   0  0  0  0  0  0  0  0  0  0  0  0
  1  3  2  0  0  0  0
  1  9  1  0  0  0  0
  2  4  2  0  0  0  0
  2 11  1  0  0  0  0
  3 14  1  0  0  0  0
  4 15  1  0  0  0  0
  5 10  1  0  0  0  0
  5 14  2  0  0  0  0
  6 12  1  0  0  0  0
  6 15  2  0  0  0  0
  7  9  2  0  0  0  0
  7 32  1  0  0  0  0
  8 13  1  0  0  0  0
  8 32  2  0  0  0  0
  9 10  1  0  0  0  0
 10 13  2  0  0  0  0
 11 12  2  0  0  0  0
 11 16  1  0  0  0  0
 12 26  1  0  0  0  0
 13 33  1  0  0  0  0
 14 40  1  0  0  0  0
 15 43  1  0  0  0  0
 16 34  1  0  0  0  0
 16 37  2  0  0  0  0
 17 26  1  0  0  0  0
 17 33  1  0  0  0  0
 17 38  2  0  0  0  0
 18 27  1  0  0  0  0
 18 36  1  0  0  0  0
 18 39  2  0  0  0  0
 19 20  1  0  0  0  0
 19 27  1  0  0  0  0
 20 27  1  0  0  0  0
 21 22  1  0  0  0  0
 21 26  1  0  0  0  0
 22 33  1  0  0  0  0
 23 26  1  0  0  0  0
 23 34  1  0  0  0  0
 24 28  1  0  0  0  0
 24 35  1  0  0  0  0
 25 28  1  0  0  0  0
 25 35  1  0  0  0  0
 27 34  1  0  0  0  0
 28 41  1  0  0  0  0
 28 42  1  0  0  0  0
 29 36  1  0  0  0  0
 30 31  1  0  0  0  0
 30 35  1  0  0  0  0
 31 40  1  0  0  0  0
  1 44  1  0  0  0  0
  2 45  1  0  0  0  0
  3 46  1  0  0  0  0
  4 47  1  0  0  0  0
  5 48  1  0  0  0  0
  6 49  1  0  0  0  0
  7 50  1  0  0  0  0
  8 51  1  0  0  0  0
 19 52  1  0  0  0  0
 19 53  1  0  0  0  0
 20 54  1  0  0  0  0
 20 55  1  0  0  0  0
 21 56  1  0  0  0  0
 21 57  1  0  0  0  0
 22 58  1  0  0  0  0
 22 59  1  0  0  0  0
 23 60  1  0  0  0  0
 23 61  1  0  0  0  0
 24 62  1  0  0  0  0
 24 63  1  0  0  0  0
 25 64  1  0  0  0  0
 25 65  1  0  0  0  0
 29 66  1  0  0  0  0
 29 67  1  0  0  0  0
 29 68  1  0  0  0  0
 30 69  1  0  0  0  0
 30 70  1  0  0  0  0
 31 71  1  0  0  0  0
 31 72  1  0  0  0  0
 36 73  1  0  0  0  0
M  END
> <compound>
EDJ-MED-dfa1d800-5

> <compound_smiles>
CNC(=O)C1(CC1)N2CC3(CCN(C3=O)c4cncc5c4cc(cc5)OCCN6CC(C6)(F)F)c7cc(ccc7C2=O)Cl

> <enantiomer_smiles>
CNC(=O)C1(CC1)N2CC3(CCN(C3=O)c4cncc5c4cc(cc5)OCCN6CC(C6)(F)F)c7cc(ccc7C2=O)Cl

> <scaffold>
tetrahydroisoquinoline-5spiro-isoquinoline

> <clash_score>
0

> <docking_score>
-7.846688270568848

> <overlap_score>
0.986547589302063

> <MMFF_internal_energy>
221.5522443463853

> <docked_smiles>
CNC(=O)C1(CC1)N2C[C@]3(CCN(C3=O)c4cncc5c4cc(cc5)OCCN6CC(C6)(F)F)c7cc(ccc7C2=O)Cl

$$$$
EDJ-MED-ee81482e-5_2
  -OEChem-12272114583D

 76 83  0     1  0  0  0  0  0999 V2000
    7.3205    3.4054   22.7658 C   0  0  0  0  0  0  0  0  0  0  0  0
    3.7865    2.4205   19.1660 C   0  0  0  0  0  0  0  0  0  0  0  0
   12.0765    0.0316   24.1541 C   0  0  0  0  0  0  0  0  0  0  0  0
    3.3432    2.6279   20.4411 C   0  0  0  0  0  0  0  0  0  0  0  0
   12.9132   -0.6032   23.2569 C   0  0  0  0  0  0  0  0  0  0  0  0
    4.8973    1.0233   21.2988 C   0  0  0  0  0  0  0  0  0  0  0  0
   10.9991   -1.4331   22.0443 C   0  0  0  0  0  0  0  0  0  0  0  0
    5.3278    1.2339   17.6066 C   0  0  0  0  0  0  0  0  0  0  0  0
    6.8438   -0.2892   18.3752 C   0  0  0  0  0  0  0  0  0  0  0  0
    4.8226    1.4906   18.9054 C   0  0  0  0  0  0  0  0  0  0  0  0
    5.3982    0.7733   19.9948 C   0  0  0  0  0  0  0  0  0  0  0  0
   10.7040   -0.0625   23.9898 C   0  0  0  0  0  0  0  0  0  0  0  0
   10.1406   -0.7765   22.9250 C   0  0  0  0  0  0  0  0  0  0  0  0
    3.8960    1.9291   21.5050 C   0  0  0  0  0  0  0  0  0  0  0  0
    6.4440   -0.1472   19.6979 C   0  0  0  0  0  0  0  0  0  0  0  0
   12.3683   -1.3298   22.2234 C   0  0  0  0  0  0  0  0  0  0  0  0
    8.2490    0.0169   21.4271 C   0  0  0  0  0  0  0  0  0  0  0  0
    9.9479    0.5589   24.9534 C   0  0  0  0  0  0  0  0  0  0  0  0
    9.8217    3.1213   22.9038 C   0  0  0  0  0  0  0  0  0  0  0  0
    9.5383    4.5944   22.9183 C   0  0  0  0  0  0  0  0  0  0  0  0
    8.0140   -2.1541   22.4331 C   0  0  0  0  0  0  0  0  0  0  0  0
    6.9866   -1.9366   21.3580 C   0  0  0  0  0  0  0  0  0  0  0  0
    7.8721   -0.1194   23.8831 C   0  0  0  0  0  0  0  0  0  0  0  0
    1.6647    0.4283   22.9717 C   0  0  0  0  0  0  0  0  0  0  0  0
    1.5252    1.9280   24.4783 C   0  0  0  0  0  0  0  0  0  0  0  0
    0.2682   -0.2718   25.0454 C   0  0  0  0  0  0  0  0  0  0  0  0
    2.3213   -0.3803   25.3437 C   0  0  0  0  0  0  0  0  0  0  0  0
    8.5331    3.6312   23.5091 C   0  0  0  0  0  0  0  0  0  0  0  0
    8.6238   -0.7606   22.6929 C   0  0  3  0  0  0  0  0  0  0  0  0
    1.4407    0.4347   24.4508 C   0  0  0  0  0  0  0  0  0  0  0  0
    3.3796    2.1809   22.8922 C   0  0  0  0  0  0  0  0  0  0  0  0
    8.3874    3.5882   25.0137 C   0  0  0  0  0  0  0  0  0  0  0  0
    6.3436    3.2234   22.1669 N   0  0  0  0  0  0  0  0  0  0  0  0
    6.3062    0.3769   17.3421 N   0  0  0  0  0  0  0  0  0  0  0  0
    7.2292   -0.6897   20.7790 N   0  0  0  0  0  0  0  0  0  0  0  0
    8.6609    1.0133   24.4995 N   0  0  2  0  0  0  0  0  0  0  0  0
    1.9320    1.8889   23.0488 N   0  3  0  0  0  0  0  0  0  0  0  0
    8.8299    1.0397   21.0799 O   0  0  0  0  0  0  0  0  0  0  0  0
    8.2407    1.8013   26.9144 O   0  0  0  0  0  0  0  0  0  0  0  0
    6.3653    1.9471   25.2271 O   0  0  0  0  0  0  0  0  0  0  0  0
    1.1534   -1.0501   25.9031 O   0  0  0  0  0  0  0  0  0  0  0  0
    7.7708    2.0177   25.5632 S   0  0  0  0  0  0  0  0  0  0  0  0
   13.4272   -2.1411   21.1086 Cl  0  0  0  0  0  0  0  0  0  0  0  0
    3.3419    2.9747   18.3362 H   0  0  0  0  0  0  0  0  0  0  0  0
   12.5024    0.5995   24.9735 H   0  0  0  0  0  0  0  0  0  0  0  0
    2.5411    3.3529   20.6267 H   0  0  0  0  0  0  0  0  0  0  0  0
   13.9910   -0.5177   23.3793 H   0  0  0  0  0  0  0  0  0  0  0  0
    5.3175    0.4836   22.1518 H   0  0  0  0  0  0  0  0  0  0  0  0
   10.6036   -2.0162   21.2241 H   0  0  0  0  0  0  0  0  0  0  0  0
    4.9134    1.7510   16.7475 H   0  0  0  0  0  0  0  0  0  0  0  0
    7.6450   -0.9758   18.1044 H   0  0  0  0  0  0  0  0  0  0  0  0
    9.7849   -0.1194   25.8306 H   0  0  0  0  0  0  0  0  0  0  0  0
   10.4793    1.4568   25.3613 H   0  0  0  0  0  0  0  0  0  0  0  0
    9.7878    2.6128   21.9468 H   0  0  0  0  0  0  0  0  0  0  0  0
   10.5952    2.7515   23.5671 H   0  0  0  0  0  0  0  0  0  0  0  0
   10.1228    5.2116   23.5908 H   0  0  0  0  0  0  0  0  0  0  0  0
    9.3157    5.0716   21.9707 H   0  0  0  0  0  0  0  0  0  0  0  0
    7.5152   -2.5456   23.3338 H   0  0  0  0  0  0  0  0  0  0  0  0
    8.7649   -2.9030   22.1434 H   0  0  0  0  0  0  0  0  0  0  0  0
    7.0587   -2.7248   20.5721 H   0  0  0  0  0  0  0  0  0  0  0  0
    5.9518   -1.9952   21.7720 H   0  0  0  0  0  0  0  0  0  0  0  0
    6.8867    0.2641   23.5642 H   0  0  0  0  0  0  0  0  0  0  0  0
    7.6652   -0.8660   24.6733 H   0  0  0  0  0  0  0  0  0  0  0  0
    2.5198   -0.1741   22.6307 H   0  0  0  0  0  0  0  0  0  0  0  0
    0.7962    0.1968   22.3405 H   0  0  0  0  0  0  0  0  0  0  0  0
    0.5844    2.4747   24.6286 H   0  0  0  0  0  0  0  0  0  0  0  0
    2.2860    2.3409   25.1574 H   0  0  0  0  0  0  0  0  0  0  0  0
   -0.4212    0.3354   25.6418 H   0  0  0  0  0  0  0  0  0  0  0  0
   -0.3028   -0.9250   24.3768 H   0  0  0  0  0  0  0  0  0  0  0  0
    2.9845   -1.0935   24.8483 H   0  0  0  0  0  0  0  0  0  0  0  0
    2.8686    0.1673   26.1145 H   0  0  0  0  0  0  0  0  0  0  0  0
    3.9005    1.5656   23.6382 H   0  0  0  0  0  0  0  0  0  0  0  0
    3.5153    3.2314   23.1831 H   0  0  0  0  0  0  0  0  0  0  0  0
    7.6838    4.3500   25.3607 H   0  0  0  0  0  0  0  0  0  0  0  0
    9.3513    3.7460   25.5050 H   0  0  0  0  0  0  0  0  0  0  0  0
    1.3344    2.4517   22.4328 H   0  0  0  0  0  0  0  0  0  0  0  0
  1 28  1  0  0  0  0
  1 33  3  0  0  0  0
  2  4  1  0  0  0  0
  2 10  2  0  0  0  0
  3  5  1  0  0  0  0
  3 12  2  0  0  0  0
  4 14  2  0  0  0  0
  5 16  2  0  0  0  0
  6 11  2  0  0  0  0
  6 14  1  0  0  0  0
  7 13  2  0  0  0  0
  7 16  1  0  0  0  0
  8 10  1  0  0  0  0
  8 34  2  0  0  0  0
  9 15  2  0  0  0  0
  9 34  1  0  0  0  0
 10 11  1  0  0  0  0
 11 15  1  0  0  0  0
 12 13  1  0  0  0  0
 12 18  1  0  0  0  0
 13 29  1  0  0  0  0
 14 31  1  0  0  0  0
 15 35  1  0  0  0  0
 16 43  1  0  0  0  0
 17 29  1  0  0  0  0
 17 35  1  0  0  0  0
 17 38  2  0  0  0  0
 18 36  1  0  0  0  0
 19 20  1  0  0  0  0
 19 28  1  0  0  0  0
 20 28  1  0  0  0  0
 21 22  1  0  0  0  0
 21 29  1  0  0  0  0
 22 35  1  0  0  0  0
 23 29  1  0  0  0  0
 23 36  1  0  0  0  0
 24 30  1  0  0  0  0
 24 37  1  0  0  0  0
 25 30  1  0  0  0  0
 25 37  1  0  0  0  0
 26 30  1  0  0  0  0
 26 41  1  0  0  0  0
 27 30  1  0  0  0  0
 27 41  1  0  0  0  0
 28 32  1  0  0  0  0
 31 37  1  0  0  0  0
 32 42  1  0  0  0  0
 36 42  1  6  0  0  0
 39 42  2  0  0  0  0
 40 42  2  0  0  0  0
  2 44  1  0  0  0  0
  3 45  1  0  0  0  0
  4 46  1  0  0  0  0
  5 47  1  0  0  0  0
  6 48  1  0  0  0  0
  7 49  1  0  0  0  0
  8 50  1  0  0  0  0
  9 51  1  0  0  0  0
 18 52  1  0  0  0  0
 18 53  1  0  0  0  0
 19 54  1  0  0  0  0
 19 55  1  0  0  0  0
 20 56  1  0  0  0  0
 20 57  1  0  0  0  0
 21 58  1  0  0  0  0
 21 59  1  0  0  0  0
 22 60  1  0  0  0  0
 22 61  1  0  0  0  0
 23 62  1  0  0  0  0
 23 63  1  0  0  0  0
 24 64  1  0  0  0  0
 24 65  1  0  0  0  0
 25 66  1  0  0  0  0
 25 67  1  0  0  0  0
 26 68  1  0  0  0  0
 26 69  1  0  0  0  0
 27 70  1  0  0  0  0
 27 71  1  0  0  0  0
 31 72  1  0  0  0  0
 31 73  1  0  0  0  0
 32 74  1  0  0  0  0
 32 75  1  0  0  0  0
 37 76  1  0  0  0  0
M  CHG  1  37   1
M  END
> <compound>
EDJ-MED-ee81482e-5

> <compound_smiles>
c1cc2cncc(c2cc1CN3CC4(C3)COC4)N5CCC6(C5=O)CN(Cc7c6cc(cc7)Cl)S(=O)(=O)CC8(CC8)C#N

> <enantiomer_smiles>
c1cc2cncc(c2cc1CN3CC4(C3)COC4)N5CCC6(C5=O)C[N@](Cc7c6cc(cc7)Cl)S(=O)(=O)CC8(CC8)C#N

> <scaffold>
tetrahydroisoquinoline-5spiro-isoquinoline

> <clash_score>
0

> <docking_score>
-7.083064556121826

> <overlap_score>
0.9710506200790405

> <MMFF_internal_energy>
113.96378862932184

> <docked_smiles>
c1cc2cncc(c2cc1C[NH+]3CC4(C3)COC4)N5CC[C@@]6(C5=O)C[N@](Cc7c6cc(cc7)Cl)S(=O)(=O)CC8(CC8)C#N

$$$$
EDJ-MED-dfa1d800-2_1
  -OEChem-12272114583D

 78 84  0     1  0  0  0  0  0999 V2000
    3.7865    2.4205   19.1660 C   0  0  0  0  0  0  0  0  0  0  0  0
   12.0765    0.0316   24.1541 C   0  0  0  0  0  0  0  0  0  0  0  0
    3.3432    2.6279   20.4411 C   0  0  0  0  0  0  0  0  0  0  0  0
   12.9132   -0.6032   23.2569 C   0  0  0  0  0  0  0  0  0  0  0  0
    4.8973    1.0233   21.2988 C   0  0  0  0  0  0  0  0  0  0  0  0
   10.9991   -1.4331   22.0443 C   0  0  0  0  0  0  0  0  0  0  0  0
    5.3278    1.2339   17.6066 C   0  0  0  0  0  0  0  0  0  0  0  0
    6.8438   -0.2892   18.3752 C   0  0  0  0  0  0  0  0  0  0  0  0
    4.8226    1.4906   18.9054 C   0  0  0  0  0  0  0  0  0  0  0  0
    5.3982    0.7733   19.9948 C   0  0  0  0  0  0  0  0  0  0  0  0
   10.7040   -0.0625   23.9898 C   0  0  0  0  0  0  0  0  0  0  0  0
   10.1406   -0.7765   22.9250 C   0  0  0  0  0  0  0  0  0  0  0  0
    6.4440   -0.1472   19.6979 C   0  0  0  0  0  0  0  0  0  0  0  0
    3.8960    1.9291   21.5050 C   0  0  0  0  0  0  0  0  0  0  0  0
   12.3683   -1.3298   22.2234 C   0  0  0  0  0  0  0  0  0  0  0  0
    9.9479    0.5589   24.9534 C   0  0  0  0  0  0  0  0  0  0  0  0
    8.2490    0.0169   21.4271 C   0  0  0  0  0  0  0  0  0  0  0  0
    8.4330    3.2597   23.7801 C   0  0  0  0  0  0  0  0  0  0  0  0
    7.9387    2.6608   26.2131 C   0  0  0  0  0  0  0  0  0  0  0  0
    6.7298    2.2855   25.4149 C   0  0  0  0  0  0  0  0  0  0  0  0
    8.0140   -2.1541   22.4331 C   0  0  0  0  0  0  0  0  0  0  0  0
    6.9866   -1.9366   21.3580 C   0  0  0  0  0  0  0  0  0  0  0  0
    7.8721   -0.1194   23.8831 C   0  0  0  0  0  0  0  0  0  0  0  0
    2.6975    6.4505   22.0362 C   0  0  0  0  0  0  0  0  0  0  0  0
    4.5813    6.7943   23.6218 C   0  0  0  0  0  0  0  0  0  0  0  0
    2.1612    7.8005   22.4812 C   0  0  0  0  0  0  0  0  0  0  0  0
    3.9481    8.1268   23.9845 C   0  0  0  0  0  0  0  0  0  0  0  0
    8.6238   -0.7606   22.6929 C   0  0  3  0  0  0  0  0  0  0  0  0
    8.1001    2.2206   24.7728 C   0  0  0  0  0  0  0  0  0  0  0  0
   10.1385    4.9679   23.1833 C   0  0  0  0  0  0  0  0  0  0  0  0
    4.0147    4.4874   22.8458 C   0  0  0  0  0  0  0  0  0  0  0  0
    2.9166    3.4625   23.0504 C   0  0  0  0  0  0  0  0  0  0  0  0
    6.3062    0.3769   17.3421 N   0  0  0  0  0  0  0  0  0  0  0  0
    7.2292   -0.6897   20.7790 N   0  0  0  0  0  0  0  0  0  0  0  0
    8.6609    1.0133   24.4995 N   0  0  0  0  0  0  0  0  0  0  0  0
    9.6227    3.9165   24.0305 N   0  0  0  0  0  0  0  0  0  0  0  0
    3.4861    5.8533   23.1778 N   0  3  0  0  0  0  0  0  0  0  0  0
   10.3189    0.7351   26.1117 O   0  0  0  0  0  0  0  0  0  0  0  0
    8.7583    1.0935   21.1353 O   0  0  0  0  0  0  0  0  0  0  0  0
    7.6723    3.4643   22.8414 O   0  0  0  0  0  0  0  0  0  0  0  0
    3.2325    8.6616   22.8700 O   0  0  0  0  0  0  0  0  0  0  0  0
    3.4227    2.1582   22.7714 O   0  0  0  0  0  0  0  0  0  0  0  0
   13.4277   -2.1397   21.1088 Cl  0  0  0  0  0  0  0  0  0  0  0  0
    3.3406    2.9746   18.3368 H   0  0  0  0  0  0  0  0  0  0  0  0
   12.5170    0.5914   24.9756 H   0  0  0  0  0  0  0  0  0  0  0  0
    2.5407    3.3506   20.6306 H   0  0  0  0  0  0  0  0  0  0  0  0
   13.9904   -0.5162   23.3783 H   0  0  0  0  0  0  0  0  0  0  0  0
    5.3162    0.4858   22.1535 H   0  0  0  0  0  0  0  0  0  0  0  0
   10.6131   -2.0184   21.2223 H   0  0  0  0  0  0  0  0  0  0  0  0
    4.9131    1.7514   16.7479 H   0  0  0  0  0  0  0  0  0  0  0  0
    7.6448   -0.9758   18.1041 H   0  0  0  0  0  0  0  0  0  0  0  0
    8.0776    3.7082   26.4542 H   0  0  0  0  0  0  0  0  0  0  0  0
    8.2534    1.9826   26.9978 H   0  0  0  0  0  0  0  0  0  0  0  0
    6.2323    1.3552   25.6629 H   0  0  0  0  0  0  0  0  0  0  0  0
    6.0552    3.0805   25.1192 H   0  0  0  0  0  0  0  0  0  0  0  0
    7.5778   -2.6152   23.3309 H   0  0  0  0  0  0  0  0  0  0  0  0
    8.7844   -2.8455   22.0573 H   0  0  0  0  0  0  0  0  0  0  0  0
    7.0224   -2.7504   20.5947 H   0  0  0  0  0  0  0  0  0  0  0  0
    5.9553   -1.9483   21.7835 H   0  0  0  0  0  0  0  0  0  0  0  0
    6.8937    0.2571   23.5799 H   0  0  0  0  0  0  0  0  0  0  0  0
    7.7158   -0.8401   24.6911 H   0  0  0  0  0  0  0  0  0  0  0  0
    1.8861    5.7600   21.7949 H   0  0  0  0  0  0  0  0  0  0  0  0
    3.3832    6.5493   21.1900 H   0  0  0  0  0  0  0  0  0  0  0  0
    5.2764    6.8939   22.7834 H   0  0  0  0  0  0  0  0  0  0  0  0
    5.0794    6.3424   24.4827 H   0  0  0  0  0  0  0  0  0  0  0  0
    1.6370    8.2813   21.6492 H   0  0  0  0  0  0  0  0  0  0  0  0
    1.4465    7.7022   23.3071 H   0  0  0  0  0  0  0  0  0  0  0  0
    3.2767    8.0368   24.8468 H   0  0  0  0  0  0  0  0  0  0  0  0
    4.7295    8.8457   24.2502 H   0  0  0  0  0  0  0  0  0  0  0  0
   10.7777    4.5299   22.4026 H   0  0  0  0  0  0  0  0  0  0  0  0
    9.3008    5.5039   22.7132 H   0  0  0  0  0  0  0  0  0  0  0  0
   10.7293    5.6703   23.7895 H   0  0  0  0  0  0  0  0  0  0  0  0
    4.3492    4.5309   21.8054 H   0  0  0  0  0  0  0  0  0  0  0  0
    4.8634    4.3092   23.5113 H   0  0  0  0  0  0  0  0  0  0  0  0
    2.5823    3.4791   24.0924 H   0  0  0  0  0  0  0  0  0  0  0  0
    2.0562    3.6566   22.4018 H   0  0  0  0  0  0  0  0  0  0  0  0
   10.1604    3.6476   24.8490 H   0  0  0  0  0  0  0  0  0  0  0  0
    2.8386    5.7405   23.9718 H   0  0  0  0  0  0  0  0  0  0  0  0
  1  3  2  0  0  0  0
  1  9  1  0  0  0  0
  2  4  2  0  0  0  0
  2 11  1  0  0  0  0
  3 14  1  0  0  0  0
  4 15  1  0  0  0  0
  5 10  1  0  0  0  0
  5 14  2  0  0  0  0
  6 12  1  0  0  0  0
  6 15  2  0  0  0  0
  7  9  2  0  0  0  0
  7 33  1  0  0  0  0
  8 13  1  0  0  0  0
  8 33  2  0  0  0  0
  9 10  1  0  0  0  0
 10 13  2  0  0  0  0
 11 12  2  0  0  0  0
 11 16  1  0  0  0  0
 12 28  1  0  0  0  0
 13 34  1  0  0  0  0
 14 42  1  0  0  0  0
 15 43  1  0  0  0  0
 16 35  1  0  0  0  0
 16 38  2  0  0  0  0
 17 28  1  0  0  0  0
 17 34  1  0  0  0  0
 17 39  2  0  0  0  0
 18 29  1  0  0  0  0
 18 36  1  0  0  0  0
 18 40  2  0  0  0  0
 19 20  1  0  0  0  0
 19 29  1  0  0  0  0
 20 29  1  0  0  0  0
 21 22  1  0  0  0  0
 21 28  1  0  0  0  0
 22 34  1  0  0  0  0
 23 28  1  0  0  0  0
 23 35  1  0  0  0  0
 24 26  1  0  0  0  0
 24 37  1  0  0  0  0
 25 27  1  0  0  0  0
 25 37  1  0  0  0  0
 26 41  1  0  0  0  0
 27 41  1  0  0  0  0
 29 35  1  0  0  0  0
 30 36  1  0  0  0  0
 31 32  1  0  0  0  0
 31 37  1  0  0  0  0
 32 42  1  0  0  0  0
  1 44  1  0  0  0  0
  2 45  1  0  0  0  0
  3 46  1  0  0  0  0
  4 47  1  0  0  0  0
  5 48  1  0  0  0  0
  6 49  1  0  0  0  0
  7 50  1  0  0  0  0
  8 51  1  0  0  0  0
 19 52  1  0  0  0  0
 19 53  1  0  0  0  0
 20 54  1  0  0  0  0
 20 55  1  0  0  0  0
 21 56  1  0  0  0  0
 21 57  1  0  0  0  0
 22 58  1  0  0  0  0
 22 59  1  0  0  0  0
 23 60  1  0  0  0  0
 23 61  1  0  0  0  0
 24 62  1  0  0  0  0
 24 63  1  0  0  0  0
 25 64  1  0  0  0  0
 25 65  1  0  0  0  0
 26 66  1  0  0  0  0
 26 67  1  0  0  0  0
 27 68  1  0  0  0  0
 27 69  1  0  0  0  0
 30 70  1  0  0  0  0
 30 71  1  0  0  0  0
 30 72  1  0  0  0  0
 31 73  1  0  0  0  0
 31 74  1  0  0  0  0
 32 75  1  0  0  0  0
 32 76  1  0  0  0  0
 36 77  1  0  0  0  0
 37 78  1  0  0  0  0
M  CHG  1  37   1
M  END
> <compound>
EDJ-MED-dfa1d800-2

> <compound_smiles>
CNC(=O)C1(CC1)N2CC3(CCN(C3=O)c4cncc5c4cc(cc5)OCCN6CCOCC6)c7cc(ccc7C2=O)Cl

> <enantiomer_smiles>
CNC(=O)C1(CC1)N2CC3(CCN(C3=O)c4cncc5c4cc(cc5)OCCN6CCOCC6)c7cc(ccc7C2=O)Cl

> <scaffold>
tetrahydroisoquinoline-5spiro-isoquinoline

> <clash_score>
0

> <docking_score>
-7.631565093994141

> <overlap_score>
0.9870114922523499

> <MMFF_internal_energy>
253.49353054380623

> <docked_smiles>
CNC(=O)C1(CC1)N2C[C@]3(CCN(C3=O)c4cncc5c4cc(cc5)OCC[NH+]6CCOCC6)c7cc(ccc7C2=O)Cl

$$$$
MAT-POS-40ad851a-1_3
  -OEChem-12272114583D

 78 84  0     1  0  0  0  0  0999 V2000
    9.5881    5.6615   24.2579 C   0  0  0  0  0  0  0  0  0  0  0  0
    3.7865    2.4205   19.1660 C   0  0  0  0  0  0  0  0  0  0  0  0
   12.0765    0.0316   24.1541 C   0  0  0  0  0  0  0  0  0  0  0  0
    3.3432    2.6279   20.4411 C   0  0  0  0  0  0  0  0  0  0  0  0
   12.9132   -0.6032   23.2569 C   0  0  0  0  0  0  0  0  0  0  0  0
    4.8973    1.0233   21.2988 C   0  0  0  0  0  0  0  0  0  0  0  0
   10.9991   -1.4331   22.0443 C   0  0  0  0  0  0  0  0  0  0  0  0
    5.3278    1.2339   17.6066 C   0  0  0  0  0  0  0  0  0  0  0  0
    6.8438   -0.2892   18.3752 C   0  0  0  0  0  0  0  0  0  0  0  0
    4.8226    1.4906   18.9054 C   0  0  0  0  0  0  0  0  0  0  0  0
    5.3982    0.7733   19.9948 C   0  0  0  0  0  0  0  0  0  0  0  0
   10.7040   -0.0625   23.9898 C   0  0  0  0  0  0  0  0  0  0  0  0
   10.1406   -0.7765   22.9250 C   0  0  0  0  0  0  0  0  0  0  0  0
    6.4440   -0.1472   19.6979 C   0  0  0  0  0  0  0  0  0  0  0  0
    3.8960    1.9291   21.5050 C   0  0  0  0  0  0  0  0  0  0  0  0
   12.3683   -1.3298   22.2234 C   0  0  0  0  0  0  0  0  0  0  0  0
    8.2490    0.0169   21.4271 C   0  0  0  0  0  0  0  0  0  0  0  0
    9.9479    0.5589   24.9534 C   0  0  0  0  0  0  0  0  0  0  0  0
    0.3071    2.2920   25.2568 C   0  0  0  0  0  0  0  0  0  0  0  0
    1.0409    1.6965   24.0726 C   0  0  0  0  0  0  0  0  0  0  0  0
    7.2213    5.9018   25.0923 C   0  0  0  0  0  0  0  0  0  0  0  0
    7.1474    5.4411   23.6665 C   0  0  0  0  0  0  0  0  0  0  0  0
    8.0140   -2.1541   22.4331 C   0  0  0  0  0  0  0  0  0  0  0  0
    6.9866   -1.9366   21.3580 C   0  0  0  0  0  0  0  0  0  0  0  0
    7.8721   -0.1194   23.8831 C   0  0  0  0  0  0  0  0  0  0  0  0
    1.3855    3.0669   25.9895 C   0  0  0  0  0  0  0  0  0  0  0  0
    2.3444    1.2177   24.6953 C   0  0  1  0  0  0  0  0  0  0  0  0
    8.3214    5.0316   24.5273 C   0  0  0  0  0  0  0  0  0  0  0  0
    8.6238   -0.7606   22.6929 C   0  0  3  0  0  0  0  0  0  0  0  0
    3.3409    1.7890   26.9495 C   0  0  0  0  0  0  0  0  0  0  0  0
    3.4781    1.0738   23.6967 C   0  0  0  0  0  0  0  0  0  0  0  0
    8.3989    3.5932   24.9882 C   0  0  0  0  0  0  0  0  0  0  0  0
   10.6086    6.1691   24.0409 N   0  0  0  0  0  0  0  0  0  0  0  0
    6.3062    0.3769   17.3421 N   0  0  0  0  0  0  0  0  0  0  0  0
    7.2292   -0.6897   20.7790 N   0  0  0  0  0  0  0  0  0  0  0  0
    8.6609    1.0133   24.4995 N   0  0  1  0  0  0  0  0  0  0  0  0
    2.6704    2.3037   25.7125 N   0  3  2  0  0  0  0  0  0  0  0  0
    8.7572    1.0941   21.1350 O   0  0  0  0  0  0  0  0  0  0  0  0
    7.4179    2.5201   22.8172 O   0  0  0  0  0  0  0  0  0  0  0  0
    9.9251    2.7322   23.0499 O   0  0  0  0  0  0  0  0  0  0  0  0
    3.4227    2.1582   22.7715 O   0  0  0  0  0  0  0  0  0  0  0  0
    8.6198    2.4832   23.6217 S   0  0  0  0  0  0  0  0  0  0  0  0
   13.4275   -2.1421   21.1097 Cl  0  0  0  0  0  0  0  0  0  0  0  0
    3.3406    2.9746   18.3368 H   0  0  0  0  0  0  0  0  0  0  0  0
   12.5015    0.5938   24.9776 H   0  0  0  0  0  0  0  0  0  0  0  0
    2.5407    3.3506   20.6306 H   0  0  0  0  0  0  0  0  0  0  0  0
   13.9911   -0.5212   23.3814 H   0  0  0  0  0  0  0  0  0  0  0  0
    5.3162    0.4858   22.1535 H   0  0  0  0  0  0  0  0  0  0  0  0
   10.6037   -2.0228   21.2288 H   0  0  0  0  0  0  0  0  0  0  0  0
    4.9131    1.7514   16.7479 H   0  0  0  0  0  0  0  0  0  0  0  0
    7.6448   -0.9758   18.1041 H   0  0  0  0  0  0  0  0  0  0  0  0
    9.7581   -0.1287   25.8173 H   0  0  0  0  0  0  0  0  0  0  0  0
   10.4931    1.4391   25.3829 H   0  0  0  0  0  0  0  0  0  0  0  0
   -0.5243    2.9326   24.9492 H   0  0  0  0  0  0  0  0  0  0  0  0
   -0.0911    1.4965   25.8979 H   0  0  0  0  0  0  0  0  0  0  0  0
    0.4793    0.8773   23.6137 H   0  0  0  0  0  0  0  0  0  0  0  0
    1.2187    2.4622   23.3078 H   0  0  0  0  0  0  0  0  0  0  0  0
    7.4214    6.9523   25.2708 H   0  0  0  0  0  0  0  0  0  0  0  0
    6.5254    5.4641   25.7988 H   0  0  0  0  0  0  0  0  0  0  0  0
    6.4012    4.6953   23.4178 H   0  0  0  0  0  0  0  0  0  0  0  0
    7.2972    6.1838   22.8911 H   0  0  0  0  0  0  0  0  0  0  0  0
    7.5801   -2.6060   23.3366 H   0  0  0  0  0  0  0  0  0  0  0  0
    8.7749   -2.8608   22.0657 H   0  0  0  0  0  0  0  0  0  0  0  0
    7.0227   -2.7506   20.5953 H   0  0  0  0  0  0  0  0  0  0  0  0
    5.9554   -1.9484   21.7832 H   0  0  0  0  0  0  0  0  0  0  0  0
    6.8886    0.2769   23.5666 H   0  0  0  0  0  0  0  0  0  0  0  0
    7.6579   -0.8710   24.6633 H   0  0  0  0  0  0  0  0  0  0  0  0
    1.5241    4.0690   25.5707 H   0  0  0  0  0  0  0  0  0  0  0  0
    1.2118    3.1304   27.0677 H   0  0  0  0  0  0  0  0  0  0  0  0
    2.1839    0.2848   25.2488 H   0  0  0  0  0  0  0  0  0  0  0  0
    2.6621    1.0801   27.4269 H   0  0  0  0  0  0  0  0  0  0  0  0
    4.2697    1.3011   26.6477 H   0  0  0  0  0  0  0  0  0  0  0  0
    3.5395    2.6420   27.6013 H   0  0  0  0  0  0  0  0  0  0  0  0
    3.3858    0.1340   23.1442 H   0  0  0  0  0  0  0  0  0  0  0  0
    4.4451    1.0956   24.2079 H   0  0  0  0  0  0  0  0  0  0  0  0
    7.4792    3.2960   25.4995 H   0  0  0  0  0  0  0  0  0  0  0  0
    9.2447    3.4440   25.6648 H   0  0  0  0  0  0  0  0  0  0  0  0
    3.3207    2.9699   25.2734 H   0  0  0  0  0  0  0  0  0  0  0  0
  1 28  1  0  0  0  0
  1 33  3  0  0  0  0
  2  4  2  0  0  0  0
  2 10  1  0  0  0  0
  3  5  1  0  0  0  0
  3 12  2  0  0  0  0
  4 15  1  0  0  0  0
  5 16  2  0  0  0  0
  6 11  1  0  0  0  0
  6 15  2  0  0  0  0
  7 13  2  0  0  0  0
  7 16  1  0  0  0  0
  8 10  1  0  0  0  0
  8 34  2  0  0  0  0
  9 14  2  0  0  0  0
  9 34  1  0  0  0  0
 10 11  2  0  0  0  0
 11 14  1  0  0  0  0
 12 13  1  0  0  0  0
 12 18  1  0  0  0  0
 13 29  1  0  0  0  0
 14 35  1  0  0  0  0
 15 41  1  0  0  0  0
 16 43  1  0  0  0  0
 17 29  1  0  0  0  0
 17 35  1  0  0  0  0
 17 38  2  0  0  0  0
 18 36  1  0  0  0  0
 19 20  1  0  0  0  0
 19 26  1  0  0  0  0
 20 27  1  0  0  0  0
 21 22  1  0  0  0  0
 21 28  1  0  0  0  0
 22 28  1  0  0  0  0
 23 24  1  0  0  0  0
 23 29  1  0  0  0  0
 24 35  1  0  0  0  0
 25 29  1  0  0  0  0
 25 36  1  0  0  0  0
 26 37  1  0  0  0  0
 27 31  1  6  0  0  0
 27 37  1  0  0  0  0
 28 32  1  0  0  0  0
 30 37  1  1  0  0  0
 31 41  1  0  0  0  0
 32 42  1  0  0  0  0
 36 42  1  1  0  0  0
 39 42  2  0  0  0  0
 40 42  2  0  0  0  0
  2 44  1  0  0  0  0
  3 45  1  0  0  0  0
  4 46  1  0  0  0  0
  5 47  1  0  0  0  0
  6 48  1  0  0  0  0
  7 49  1  0  0  0  0
  8 50  1  0  0  0  0
  9 51  1  0  0  0  0
 18 52  1  0  0  0  0
 18 53  1  0  0  0  0
 19 54  1  0  0  0  0
 19 55  1  0  0  0  0
 20 56  1  0  0  0  0
 20 57  1  0  0  0  0
 21 58  1  0  0  0  0
 21 59  1  0  0  0  0
 22 60  1  0  0  0  0
 22 61  1  0  0  0  0
 23 62  1  0  0  0  0
 23 63  1  0  0  0  0
 24 64  1  0  0  0  0
 24 65  1  0  0  0  0
 25 66  1  0  0  0  0
 25 67  1  0  0  0  0
 26 68  1  0  0  0  0
 26 69  1  0  0  0  0
 27 70  1  0  0  0  0
 30 71  1  0  0  0  0
 30 72  1  0  0  0  0
 30 73  1  0  0  0  0
 31 74  1  0  0  0  0
 31 75  1  0  0  0  0
 32 76  1  0  0  0  0
 32 77  1  0  0  0  0
 37 78  1  0  0  0  0
M  CHG  1  37   1
M  END
> <compound>
MAT-POS-40ad851a-1

> <compound_smiles>
CN1CCCC1COc2ccc3cncc(c3c2)N4CCC5(C4=O)CN(Cc6c5cc(cc6)Cl)S(=O)(=O)CC7(CC7)C#N

> <enantiomer_smiles>
C[N@@]1CCC[C@H]1COc2ccc3cncc(c3c2)N4CCC5(C4=O)C[N@@](Cc6c5cc(cc6)Cl)S(=O)(=O)CC7(CC7)C#N

> <scaffold>
tetrahydroisoquinoline-5spiro-isoquinoline

> <clash_score>
0

> <docking_score>
-7.229255199432373

> <overlap_score>
0.9730022549629211

> <MMFF_internal_energy>
165.77364961157895

> <docked_smiles>
C[N@@H+]1CCC[C@H]1COc2ccc3cncc(c3c2)N4CC[C@@]5(C4=O)C[N@@](Cc6c5cc(cc6)Cl)S(=O)(=O)CC7(CC7)C#N

$$$$
MAT-POS-40ad851a-1_5
  -OEChem-12272114583D

 78 84  0     1  0  0  0  0  0999 V2000
    6.4538    5.1270   25.3576 C   0  0  0  0  0  0  0  0  0  0  0  0
    3.7865    2.4205   19.1660 C   0  0  0  0  0  0  0  0  0  0  0  0
   12.0765    0.0316   24.1541 C   0  0  0  0  0  0  0  0  0  0  0  0
    3.3432    2.6279   20.4411 C   0  0  0  0  0  0  0  0  0  0  0  0
   12.9132   -0.6032   23.2569 C   0  0  0  0  0  0  0  0  0  0  0  0
    4.8973    1.0233   21.2988 C   0  0  0  0  0  0  0  0  0  0  0  0
   10.9991   -1.4331   22.0443 C   0  0  0  0  0  0  0  0  0  0  0  0
    5.3278    1.2339   17.6066 C   0  0  0  0  0  0  0  0  0  0  0  0
    6.8438   -0.2892   18.3752 C   0  0  0  0  0  0  0  0  0  0  0  0
    4.8226    1.4906   18.9054 C   0  0  0  0  0  0  0  0  0  0  0  0
    5.3982    0.7733   19.9948 C   0  0  0  0  0  0  0  0  0  0  0  0
   10.7040   -0.0625   23.9898 C   0  0  0  0  0  0  0  0  0  0  0  0
   10.1406   -0.7765   22.9250 C   0  0  0  0  0  0  0  0  0  0  0  0
    6.4440   -0.1472   19.6979 C   0  0  0  0  0  0  0  0  0  0  0  0
    3.8960    1.9291   21.5050 C   0  0  0  0  0  0  0  0  0  0  0  0
   12.3683   -1.3298   22.2234 C   0  0  0  0  0  0  0  0  0  0  0  0
    8.2490    0.0169   21.4271 C   0  0  0  0  0  0  0  0  0  0  0  0
    9.9479    0.5589   24.9534 C   0  0  0  0  0  0  0  0  0  0  0  0
    0.0513    0.7084   25.1301 C   0  0  0  0  0  0  0  0  0  0  0  0
    0.9710    1.2058   24.0340 C   0  0  0  0  0  0  0  0  0  0  0  0
    8.6838    5.8140   26.3119 C   0  0  0  0  0  0  0  0  0  0  0  0
    8.0725    4.8325   27.2677 C   0  0  0  0  0  0  0  0  0  0  0  0
    8.0140   -2.1541   22.4331 C   0  0  0  0  0  0  0  0  0  0  0  0
    6.9866   -1.9366   21.3580 C   0  0  0  0  0  0  0  0  0  0  0  0
    7.8721   -0.1194   23.8831 C   0  0  0  0  0  0  0  0  0  0  0  0
    0.8446   -0.4327   25.7284 C   0  0  0  0  0  0  0  0  0  0  0  0
    2.3484    1.2057   24.6928 C   0  0  2  0  0  0  0  0  0  0  0  0
    7.7686    4.7292   25.7898 C   0  0  0  0  0  0  0  0  0  0  0  0
    8.6238   -0.7606   22.6929 C   0  0  3  0  0  0  0  0  0  0  0  0
    3.2803   -1.0277   25.6596 C   0  0  0  0  0  0  0  0  0  0  0  0
    3.4815    1.0690   23.6908 C   0  0  0  0  0  0  0  0  0  0  0  0
    8.3874    3.5882   25.0137 C   0  0  0  0  0  0  0  0  0  0  0  0
    5.3944    5.4475   25.0094 N   0  0  0  0  0  0  0  0  0  0  0  0
    6.3062    0.3769   17.3421 N   0  0  0  0  0  0  0  0  0  0  0  0
    7.2292   -0.6897   20.7790 N   0  0  0  0  0  0  0  0  0  0  0  0
    8.6609    1.0133   24.4995 N   0  0  2  0  0  0  0  0  0  0  0  0
    2.2742    0.0795   25.7250 N   0  3  2  0  0  0  0  0  0  0  0  0
    8.8299    1.0397   21.0799 O   0  0  0  0  0  0  0  0  0  0  0  0
    8.2407    1.8013   26.9144 O   0  0  0  0  0  0  0  0  0  0  0  0
    6.3653    1.9471   25.2271 O   0  0  0  0  0  0  0  0  0  0  0  0
    3.4227    2.1582   22.7715 O   0  0  0  0  0  0  0  0  0  0  0  0
    7.7708    2.0177   25.5632 S   0  0  0  0  0  0  0  0  0  0  0  0
   13.4272   -2.1411   21.1086 Cl  0  0  0  0  0  0  0  0  0  0  0  0
    3.3406    2.9746   18.3368 H   0  0  0  0  0  0  0  0  0  0  0  0
   12.5024    0.5995   24.9735 H   0  0  0  0  0  0  0  0  0  0  0  0
    2.5407    3.3506   20.6306 H   0  0  0  0  0  0  0  0  0  0  0  0
   13.9910   -0.5177   23.3793 H   0  0  0  0  0  0  0  0  0  0  0  0
    5.3162    0.4858   22.1535 H   0  0  0  0  0  0  0  0  0  0  0  0
   10.6036   -2.0162   21.2241 H   0  0  0  0  0  0  0  0  0  0  0  0
    4.9131    1.7514   16.7479 H   0  0  0  0  0  0  0  0  0  0  0  0
    7.6448   -0.9758   18.1041 H   0  0  0  0  0  0  0  0  0  0  0  0
    9.7849   -0.1194   25.8306 H   0  0  0  0  0  0  0  0  0  0  0  0
   10.4793    1.4568   25.3613 H   0  0  0  0  0  0  0  0  0  0  0  0
   -0.1700    1.4814   25.8549 H   0  0  0  0  0  0  0  0  0  0  0  0
   -0.8775    0.3397   24.7066 H   0  0  0  0  0  0  0  0  0  0  0  0
    0.9255    0.5809   23.1393 H   0  0  0  0  0  0  0  0  0  0  0  0
    0.6954    2.2271   23.7496 H   0  0  0  0  0  0  0  0  0  0  0  0
    8.3233    6.8360   26.3427 H   0  0  0  0  0  0  0  0  0  0  0  0
    9.7473    5.7322   26.1189 H   0  0  0  0  0  0  0  0  0  0  0  0
    8.7270    4.0937   27.7158 H   0  0  0  0  0  0  0  0  0  0  0  0
    7.3036    5.1984   27.9387 H   0  0  0  0  0  0  0  0  0  0  0  0
    7.5152   -2.5456   23.3338 H   0  0  0  0  0  0  0  0  0  0  0  0
    8.7649   -2.9030   22.1434 H   0  0  0  0  0  0  0  0  0  0  0  0
    7.0587   -2.7248   20.5721 H   0  0  0  0  0  0  0  0  0  0  0  0
    5.9518   -1.9952   21.7720 H   0  0  0  0  0  0  0  0  0  0  0  0
    6.8867    0.2641   23.5642 H   0  0  0  0  0  0  0  0  0  0  0  0
    7.6652   -0.8660   24.6733 H   0  0  0  0  0  0  0  0  0  0  0  0
    0.5827   -0.6405   26.7648 H   0  0  0  0  0  0  0  0  0  0  0  0
    0.7902   -1.3347   25.1201 H   0  0  0  0  0  0  0  0  0  0  0  0
    2.4963    2.1581   25.2747 H   0  0  0  0  0  0  0  0  0  0  0  0
    3.1637   -1.5285   24.6968 H   0  0  0  0  0  0  0  0  0  0  0  0
    4.2730   -0.5831   25.7532 H   0  0  0  0  0  0  0  0  0  0  0  0
    3.0775   -1.7126   26.4852 H   0  0  0  0  0  0  0  0  0  0  0  0
    3.3899    0.1320   23.1334 H   0  0  0  0  0  0  0  0  0  0  0  0
    4.4494    1.0897   24.2004 H   0  0  0  0  0  0  0  0  0  0  0  0
    9.4732    3.5710   25.1421 H   0  0  0  0  0  0  0  0  0  0  0  0
    8.1578    3.6698   23.9479 H   0  0  0  0  0  0  0  0  0  0  0  0
    2.4081    0.5259   26.6321 H   0  0  0  0  0  0  0  0  0  0  0  0
  1 28  1  0  0  0  0
  1 33  3  0  0  0  0
  2  4  2  0  0  0  0
  2 10  1  0  0  0  0
  3  5  1  0  0  0  0
  3 12  2  0  0  0  0
  4 15  1  0  0  0  0
  5 16  2  0  0  0  0
  6 11  1  0  0  0  0
  6 15  2  0  0  0  0
  7 13  2  0  0  0  0
  7 16  1  0  0  0  0
  8 10  1  0  0  0  0
  8 34  2  0  0  0  0
  9 14  2  0  0  0  0
  9 34  1  0  0  0  0
 10 11  2  0  0  0  0
 11 14  1  0  0  0  0
 12 13  1  0  0  0  0
 12 18  1  0  0  0  0
 13 29  1  0  0  0  0
 14 35  1  0  0  0  0
 15 41  1  0  0  0  0
 16 43  1  0  0  0  0
 17 29  1  0  0  0  0
 17 35  1  0  0  0  0
 17 38  2  0  0  0  0
 18 36  1  0  0  0  0
 19 20  1  0  0  0  0
 19 26  1  0  0  0  0
 20 27  1  0  0  0  0
 21 22  1  0  0  0  0
 21 28  1  0  0  0  0
 22 28  1  0  0  0  0
 23 24  1  0  0  0  0
 23 29  1  0  0  0  0
 24 35  1  0  0  0  0
 25 29  1  0  0  0  0
 25 36  1  0  0  0  0
 26 37  1  0  0  0  0
 27 31  1  1  0  0  0
 27 37  1  0  0  0  0
 28 32  1  0  0  0  0
 30 37  1  1  0  0  0
 31 41  1  0  0  0  0
 32 42  1  0  0  0  0
 36 42  1  6  0  0  0
 39 42  2  0  0  0  0
 40 42  2  0  0  0  0
  2 44  1  0  0  0  0
  3 45  1  0  0  0  0
  4 46  1  0  0  0  0
  5 47  1  0  0  0  0
  6 48  1  0  0  0  0
  7 49  1  0  0  0  0
  8 50  1  0  0  0  0
  9 51  1  0  0  0  0
 18 52  1  0  0  0  0
 18 53  1  0  0  0  0
 19 54  1  0  0  0  0
 19 55  1  0  0  0  0
 20 56  1  0  0  0  0
 20 57  1  0  0  0  0
 21 58  1  0  0  0  0
 21 59  1  0  0  0  0
 22 60  1  0  0  0  0
 22 61  1  0  0  0  0
 23 62  1  0  0  0  0
 23 63  1  0  0  0  0
 24 64  1  0  0  0  0
 24 65  1  0  0  0  0
 25 66  1  0  0  0  0
 25 67  1  0  0  0  0
 26 68  1  0  0  0  0
 26 69  1  0  0  0  0
 27 70  1  0  0  0  0
 30 71  1  0  0  0  0
 30 72  1  0  0  0  0
 30 73  1  0  0  0  0
 31 74  1  0  0  0  0
 31 75  1  0  0  0  0
 32 76  1  0  0  0  0
 32 77  1  0  0  0  0
 37 78  1  0  0  0  0
M  CHG  1  37   1
M  END
> <compound>
MAT-POS-40ad851a-1

> <compound_smiles>
CN1CCCC1COc2ccc3cncc(c3c2)N4CCC5(C4=O)CN(Cc6c5cc(cc6)Cl)S(=O)(=O)CC7(CC7)C#N

> <enantiomer_smiles>
C[N@@]1CCC[C@@H]1COc2ccc3cncc(c3c2)N4CCC5(C4=O)C[N@](Cc6c5cc(cc6)Cl)S(=O)(=O)CC7(CC7)C#N

> <scaffold>
tetrahydroisoquinoline-5spiro-isoquinoline

> <clash_score>
0

> <docking_score>
-7.050679683685303

> <overlap_score>
0.9695767760276794

> <MMFF_internal_energy>
147.4662319482136

> <docked_smiles>
C[N@@H+]1CCC[C@@H]1COc2ccc3cncc(c3c2)N4CC[C@@]5(C4=O)C[N@](Cc6c5cc(cc6)Cl)S(=O)(=O)CC7(CC7)C#N

$$$$
MAT-POS-40ad851a-1_1
  -OEChem-12272114583D

 78 84  0     1  0  0  0  0  0999 V2000
    9.5881    5.6615   24.2579 C   0  0  0  0  0  0  0  0  0  0  0  0
    3.7865    2.4205   19.1660 C   0  0  0  0  0  0  0  0  0  0  0  0
   12.0765    0.0316   24.1541 C   0  0  0  0  0  0  0  0  0  0  0  0
    3.3432    2.6279   20.4411 C   0  0  0  0  0  0  0  0  0  0  0  0
   12.9132   -0.6032   23.2569 C   0  0  0  0  0  0  0  0  0  0  0  0
    4.8973    1.0233   21.2988 C   0  0  0  0  0  0  0  0  0  0  0  0
   10.9991   -1.4331   22.0443 C   0  0  0  0  0  0  0  0  0  0  0  0
    5.3278    1.2339   17.6066 C   0  0  0  0  0  0  0  0  0  0  0  0
    6.8438   -0.2892   18.3752 C   0  0  0  0  0  0  0  0  0  0  0  0
    4.8226    1.4906   18.9054 C   0  0  0  0  0  0  0  0  0  0  0  0
    5.3982    0.7733   19.9948 C   0  0  0  0  0  0  0  0  0  0  0  0
   10.7040   -0.0625   23.9898 C   0  0  0  0  0  0  0  0  0  0  0  0
   10.1406   -0.7765   22.9250 C   0  0  0  0  0  0  0  0  0  0  0  0
    6.4440   -0.1472   19.6979 C   0  0  0  0  0  0  0  0  0  0  0  0
    3.8960    1.9291   21.5050 C   0  0  0  0  0  0  0  0  0  0  0  0
   12.3683   -1.3298   22.2234 C   0  0  0  0  0  0  0  0  0  0  0  0
    8.2490    0.0169   21.4271 C   0  0  0  0  0  0  0  0  0  0  0  0
    9.9479    0.5589   24.9534 C   0  0  0  0  0  0  0  0  0  0  0  0
    0.0448    0.7267   25.1320 C   0  0  0  0  0  0  0  0  0  0  0  0
    0.9672    1.2168   24.0348 C   0  0  0  0  0  0  0  0  0  0  0  0
    7.2212    5.9018   25.0923 C   0  0  0  0  0  0  0  0  0  0  0  0
    7.1474    5.4411   23.6665 C   0  0  0  0  0  0  0  0  0  0  0  0
    8.0140   -2.1541   22.4331 C   0  0  0  0  0  0  0  0  0  0  0  0
    6.9866   -1.9366   21.3580 C   0  0  0  0  0  0  0  0  0  0  0  0
    7.8721   -0.1194   23.8831 C   0  0  0  0  0  0  0  0  0  0  0  0
    0.8351   -0.4125   25.7378 C   0  0  0  0  0  0  0  0  0  0  0  0
    2.3435    1.2178   24.6961 C   0  0  2  0  0  0  0  0  0  0  0  0
    8.3214    5.0316   24.5273 C   0  0  0  0  0  0  0  0  0  0  0  0
    8.6238   -0.7606   22.6929 C   0  0  3  0  0  0  0  0  0  0  0  0
    3.2700   -1.0119   25.6764 C   0  0  0  0  0  0  0  0  0  0  0  0
    3.4781    1.0738   23.6967 C   0  0  0  0  0  0  0  0  0  0  0  0
    8.3989    3.5932   24.9881 C   0  0  0  0  0  0  0  0  0  0  0  0
   10.6086    6.1691   24.0409 N   0  0  0  0  0  0  0  0  0  0  0  0
    6.3062    0.3769   17.3421 N   0  0  0  0  0  0  0  0  0  0  0  0
    7.2292   -0.6897   20.7790 N   0  0  0  0  0  0  0  0  0  0  0  0
    8.6609    1.0133   24.4995 N   0  0  1  0  0  0  0  0  0  0  0  0
    2.2656    0.0973   25.7341 N   0  3  2  0  0  0  0  0  0  0  0  0
    8.7572    1.0941   21.1350 O   0  0  0  0  0  0  0  0  0  0  0  0
    7.4179    2.5201   22.8172 O   0  0  0  0  0  0  0  0  0  0  0  0
    9.9251    2.7322   23.0499 O   0  0  0  0  0  0  0  0  0  0  0  0
    3.4227    2.1582   22.7714 O   0  0  0  0  0  0  0  0  0  0  0  0
    8.6198    2.4832   23.6217 S   0  0  0  0  0  0  0  0  0  0  0  0
   13.4275   -2.1421   21.1097 Cl  0  0  0  0  0  0  0  0  0  0  0  0
    3.3406    2.9746   18.3368 H   0  0  0  0  0  0  0  0  0  0  0  0
   12.5015    0.5938   24.9776 H   0  0  0  0  0  0  0  0  0  0  0  0
    2.5407    3.3506   20.6306 H   0  0  0  0  0  0  0  0  0  0  0  0
   13.9911   -0.5212   23.3814 H   0  0  0  0  0  0  0  0  0  0  0  0
    5.3162    0.4858   22.1535 H   0  0  0  0  0  0  0  0  0  0  0  0
   10.6037   -2.0228   21.2288 H   0  0  0  0  0  0  0  0  0  0  0  0
    4.9131    1.7514   16.7479 H   0  0  0  0  0  0  0  0  0  0  0  0
    7.6448   -0.9758   18.1041 H   0  0  0  0  0  0  0  0  0  0  0  0
    9.7581   -0.1287   25.8173 H   0  0  0  0  0  0  0  0  0  0  0  0
   10.4931    1.4391   25.3829 H   0  0  0  0  0  0  0  0  0  0  0  0
   -0.1764    1.5040   25.8523 H   0  0  0  0  0  0  0  0  0  0  0  0
   -0.8839    0.3574   24.7090 H   0  0  0  0  0  0  0  0  0  0  0  0
    0.9222    0.5871   23.1434 H   0  0  0  0  0  0  0  0  0  0  0  0
    0.6939    2.2370   23.7445 H   0  0  0  0  0  0  0  0  0  0  0  0
    7.4214    6.9523   25.2708 H   0  0  0  0  0  0  0  0  0  0  0  0
    6.5254    5.4641   25.7988 H   0  0  0  0  0  0  0  0  0  0  0  0
    6.4012    4.6953   23.4178 H   0  0  0  0  0  0  0  0  0  0  0  0
    7.2972    6.1838   22.8911 H   0  0  0  0  0  0  0  0  0  0  0  0
    7.5801   -2.6060   23.3366 H   0  0  0  0  0  0  0  0  0  0  0  0
    8.7749   -2.8608   22.0657 H   0  0  0  0  0  0  0  0  0  0  0  0
    7.0227   -2.7506   20.5953 H   0  0  0  0  0  0  0  0  0  0  0  0
    5.9554   -1.9484   21.7832 H   0  0  0  0  0  0  0  0  0  0  0  0
    6.8886    0.2769   23.5666 H   0  0  0  0  0  0  0  0  0  0  0  0
    7.6579   -0.8710   24.6633 H   0  0  0  0  0  0  0  0  0  0  0  0
    0.5711   -0.6142   26.7749 H   0  0  0  0  0  0  0  0  0  0  0  0
    0.7803   -1.3176   25.1342 H   0  0  0  0  0  0  0  0  0  0  0  0
    2.4920    2.1731   25.2731 H   0  0  0  0  0  0  0  0  0  0  0  0
    3.1541   -1.5177   24.7161 H   0  0  0  0  0  0  0  0  0  0  0  0
    4.2632   -0.5686   25.7693 H   0  0  0  0  0  0  0  0  0  0  0  0
    3.0646   -1.6920   26.5053 H   0  0  0  0  0  0  0  0  0  0  0  0
    3.3858    0.1340   23.1442 H   0  0  0  0  0  0  0  0  0  0  0  0
    4.4451    1.0956   24.2079 H   0  0  0  0  0  0  0  0  0  0  0  0
    7.4792    3.2960   25.4995 H   0  0  0  0  0  0  0  0  0  0  0  0
    9.2447    3.4440   25.6648 H   0  0  0  0  0  0  0  0  0  0  0  0
    2.3987    0.5484   26.6391 H   0  0  0  0  0  0  0  0  0  0  0  0
  1 28  1  0  0  0  0
  1 33  3  0  0  0  0
  2  4  2  0  0  0  0
  2 10  1  0  0  0  0
  3  5  1  0  0  0  0
  3 12  2  0  0  0  0
  4 15  1  0  0  0  0
  5 16  2  0  0  0  0
  6 11  1  0  0  0  0
  6 15  2  0  0  0  0
  7 13  2  0  0  0  0
  7 16  1  0  0  0  0
  8 10  1  0  0  0  0
  8 34  2  0  0  0  0
  9 14  2  0  0  0  0
  9 34  1  0  0  0  0
 10 11  2  0  0  0  0
 11 14  1  0  0  0  0
 12 13  1  0  0  0  0
 12 18  1  0  0  0  0
 13 29  1  0  0  0  0
 14 35  1  0  0  0  0
 15 41  1  0  0  0  0
 16 43  1  0  0  0  0
 17 29  1  0  0  0  0
 17 35  1  0  0  0  0
 17 38  2  0  0  0  0
 18 36  1  0  0  0  0
 19 20  1  0  0  0  0
 19 26  1  0  0  0  0
 20 27  1  0  0  0  0
 21 22  1  0  0  0  0
 21 28  1  0  0  0  0
 22 28  1  0  0  0  0
 23 24  1  0  0  0  0
 23 29  1  0  0  0  0
 24 35  1  0  0  0  0
 25 29  1  0  0  0  0
 25 36  1  0  0  0  0
 26 37  1  0  0  0  0
 27 31  1  1  0  0  0
 27 37  1  0  0  0  0
 28 32  1  0  0  0  0
 30 37  1  1  0  0  0
 31 41  1  0  0  0  0
 32 42  1  0  0  0  0
 36 42  1  1  0  0  0
 39 42  2  0  0  0  0
 40 42  2  0  0  0  0
  2 44  1  0  0  0  0
  3 45  1  0  0  0  0
  4 46  1  0  0  0  0
  5 47  1  0  0  0  0
  6 48  1  0  0  0  0
  7 49  1  0  0  0  0
  8 50  1  0  0  0  0
  9 51  1  0  0  0  0
 18 52  1  0  0  0  0
 18 53  1  0  0  0  0
 19 54  1  0  0  0  0
 19 55  1  0  0  0  0
 20 56  1  0  0  0  0
 20 57  1  0  0  0  0
 21 58  1  0  0  0  0
 21 59  1  0  0  0  0
 22 60  1  0  0  0  0
 22 61  1  0  0  0  0
 23 62  1  0  0  0  0
 23 63  1  0  0  0  0
 24 64  1  0  0  0  0
 24 65  1  0  0  0  0
 25 66  1  0  0  0  0
 25 67  1  0  0  0  0
 26 68  1  0  0  0  0
 26 69  1  0  0  0  0
 27 70  1  0  0  0  0
 30 71  1  0  0  0  0
 30 72  1  0  0  0  0
 30 73  1  0  0  0  0
 31 74  1  0  0  0  0
 31 75  1  0  0  0  0
 32 76  1  0  0  0  0
 32 77  1  0  0  0  0
 37 78  1  0  0  0  0
M  CHG  1  37   1
M  END
> <compound>
MAT-POS-40ad851a-1

> <compound_smiles>
CN1CCCC1COc2ccc3cncc(c3c2)N4CCC5(C4=O)CN(Cc6c5cc(cc6)Cl)S(=O)(=O)CC7(CC7)C#N

> <enantiomer_smiles>
C[N@@]1CCC[C@@H]1COc2ccc3cncc(c3c2)N4CCC5(C4=O)C[N@@](Cc6c5cc(cc6)Cl)S(=O)(=O)CC7(CC7)C#N

> <scaffold>
tetrahydroisoquinoline-5spiro-isoquinoline

> <clash_score>
0

> <docking_score>
-8.011938095092773

> <overlap_score>
0.9730435013771057

> <MMFF_internal_energy>
174.52959458716427

> <docked_smiles>
C[N@@H+]1CCC[C@@H]1COc2ccc3cncc(c3c2)N4CC[C@@]5(C4=O)C[N@@](Cc6c5cc(cc6)Cl)S(=O)(=O)CC7(CC7)C#N

$$$$
MAT-POS-40ad851a-1_4
  -OEChem-12272114583D

 78 84  0     1  0  0  0  0  0999 V2000
    9.5881    5.6615   24.2579 C   0  0  0  0  0  0  0  0  0  0  0  0
    3.7865    2.4205   19.1660 C   0  0  0  0  0  0  0  0  0  0  0  0
   12.0765    0.0316   24.1541 C   0  0  0  0  0  0  0  0  0  0  0  0
    3.3432    2.6279   20.4411 C   0  0  0  0  0  0  0  0  0  0  0  0
   12.9132   -0.6032   23.2569 C   0  0  0  0  0  0  0  0  0  0  0  0
    4.8973    1.0233   21.2988 C   0  0  0  0  0  0  0  0  0  0  0  0
   10.9991   -1.4331   22.0443 C   0  0  0  0  0  0  0  0  0  0  0  0
    5.3278    1.2339   17.6066 C   0  0  0  0  0  0  0  0  0  0  0  0
    6.8438   -0.2892   18.3752 C   0  0  0  0  0  0  0  0  0  0  0  0
    4.8226    1.4906   18.9054 C   0  0  0  0  0  0  0  0  0  0  0  0
    5.3982    0.7733   19.9948 C   0  0  0  0  0  0  0  0  0  0  0  0
   10.7040   -0.0625   23.9898 C   0  0  0  0  0  0  0  0  0  0  0  0
   10.1406   -0.7765   22.9250 C   0  0  0  0  0  0  0  0  0  0  0  0
    6.4440   -0.1472   19.6979 C   0  0  0  0  0  0  0  0  0  0  0  0
    3.8960    1.9291   21.5050 C   0  0  0  0  0  0  0  0  0  0  0  0
   12.3683   -1.3298   22.2234 C   0  0  0  0  0  0  0  0  0  0  0  0
    8.2490    0.0169   21.4271 C   0  0  0  0  0  0  0  0  0  0  0  0
    9.9479    0.5589   24.9534 C   0  0  0  0  0  0  0  0  0  0  0  0
    2.4184   -0.5428   26.1222 C   0  0  0  0  0  0  0  0  0  0  0  0
    3.3559    0.6507   26.1989 C   0  0  0  0  0  0  0  0  0  0  0  0
    7.2213    5.9018   25.0923 C   0  0  0  0  0  0  0  0  0  0  0  0
    7.1474    5.4411   23.6665 C   0  0  0  0  0  0  0  0  0  0  0  0
    8.0140   -2.1541   22.4331 C   0  0  0  0  0  0  0  0  0  0  0  0
    6.9866   -1.9366   21.3580 C   0  0  0  0  0  0  0  0  0  0  0  0
    7.8721   -0.1194   23.8831 C   0  0  0  0  0  0  0  0  0  0  0  0
    1.0989    0.0053   25.5973 C   0  0  0  0  0  0  0  0  0  0  0  0
    2.9223    1.5374   25.0392 C   0  0  1  0  0  0  0  0  0  0  0  0
    8.3214    5.0316   24.5273 C   0  0  0  0  0  0  0  0  0  0  0  0
    8.6238   -0.7606   22.6929 C   0  0  3  0  0  0  0  0  0  0  0  0
    0.6256    1.8437   23.9178 C   0  0  0  0  0  0  0  0  0  0  0  0
    3.4781    1.0738   23.6967 C   0  0  0  0  0  0  0  0  0  0  0  0
    8.3989    3.5932   24.9882 C   0  0  0  0  0  0  0  0  0  0  0  0
   10.6086    6.1691   24.0409 N   0  0  0  0  0  0  0  0  0  0  0  0
    6.3062    0.3769   17.3421 N   0  0  0  0  0  0  0  0  0  0  0  0
    7.2292   -0.6897   20.7790 N   0  0  0  0  0  0  0  0  0  0  0  0
    8.6609    1.0133   24.4995 N   0  0  1  0  0  0  0  0  0  0  0  0
    1.4128    1.4056   25.1102 N   0  3  1  0  0  0  0  0  0  0  0  0
    8.7572    1.0941   21.1350 O   0  0  0  0  0  0  0  0  0  0  0  0
    7.4179    2.5201   22.8172 O   0  0  0  0  0  0  0  0  0  0  0  0
    9.9251    2.7322   23.0499 O   0  0  0  0  0  0  0  0  0  0  0  0
    3.4227    2.1582   22.7715 O   0  0  0  0  0  0  0  0  0  0  0  0
    8.6198    2.4832   23.6217 S   0  0  0  0  0  0  0  0  0  0  0  0
   13.4275   -2.1421   21.1097 Cl  0  0  0  0  0  0  0  0  0  0  0  0
    3.3406    2.9746   18.3368 H   0  0  0  0  0  0  0  0  0  0  0  0
   12.5015    0.5938   24.9776 H   0  0  0  0  0  0  0  0  0  0  0  0
    2.5407    3.3506   20.6306 H   0  0  0  0  0  0  0  0  0  0  0  0
   13.9911   -0.5212   23.3814 H   0  0  0  0  0  0  0  0  0  0  0  0
    5.3162    0.4858   22.1535 H   0  0  0  0  0  0  0  0  0  0  0  0
   10.6037   -2.0228   21.2288 H   0  0  0  0  0  0  0  0  0  0  0  0
    4.9131    1.7514   16.7479 H   0  0  0  0  0  0  0  0  0  0  0  0
    7.6448   -0.9758   18.1041 H   0  0  0  0  0  0  0  0  0  0  0  0
    9.7581   -0.1287   25.8173 H   0  0  0  0  0  0  0  0  0  0  0  0
   10.4931    1.4391   25.3829 H   0  0  0  0  0  0  0  0  0  0  0  0
    2.8147   -1.2916   25.4267 H   0  0  0  0  0  0  0  0  0  0  0  0
    2.3006   -1.0271   27.0965 H   0  0  0  0  0  0  0  0  0  0  0  0
    3.2078    1.1784   27.1493 H   0  0  0  0  0  0  0  0  0  0  0  0
    4.4072    0.3522   26.1419 H   0  0  0  0  0  0  0  0  0  0  0  0
    7.4214    6.9523   25.2708 H   0  0  0  0  0  0  0  0  0  0  0  0
    6.5254    5.4641   25.7988 H   0  0  0  0  0  0  0  0  0  0  0  0
    6.4012    4.6953   23.4178 H   0  0  0  0  0  0  0  0  0  0  0  0
    7.2972    6.1838   22.8911 H   0  0  0  0  0  0  0  0  0  0  0  0
    7.5801   -2.6060   23.3366 H   0  0  0  0  0  0  0  0  0  0  0  0
    8.7749   -2.8608   22.0657 H   0  0  0  0  0  0  0  0  0  0  0  0
    7.0227   -2.7506   20.5953 H   0  0  0  0  0  0  0  0  0  0  0  0
    5.9554   -1.9484   21.7832 H   0  0  0  0  0  0  0  0  0  0  0  0
    6.8886    0.2769   23.5666 H   0  0  0  0  0  0  0  0  0  0  0  0
    7.6579   -0.8710   24.6633 H   0  0  0  0  0  0  0  0  0  0  0  0
    0.7169   -0.5873   24.7601 H   0  0  0  0  0  0  0  0  0  0  0  0
    0.3374    0.0989   26.3772 H   0  0  0  0  0  0  0  0  0  0  0  0
    3.1735    2.5880   25.2136 H   0  0  0  0  0  0  0  0  0  0  0  0
    0.9000    1.1985   23.0812 H   0  0  0  0  0  0  0  0  0  0  0  0
   -0.4338    1.7421   24.1610 H   0  0  0  0  0  0  0  0  0  0  0  0
    0.8830    2.8844   23.7116 H   0  0  0  0  0  0  0  0  0  0  0  0
    2.8852    0.2432   23.3022 H   0  0  0  0  0  0  0  0  0  0  0  0
    4.5188    0.7531   23.8021 H   0  0  0  0  0  0  0  0  0  0  0  0
    7.4792    3.2960   25.4995 H   0  0  0  0  0  0  0  0  0  0  0  0
    9.2447    3.4440   25.6648 H   0  0  0  0  0  0  0  0  0  0  0  0
    1.1262    2.0356   25.8725 H   0  0  0  0  0  0  0  0  0  0  0  0
  1 28  1  0  0  0  0
  1 33  3  0  0  0  0
  2  4  2  0  0  0  0
  2 10  1  0  0  0  0
  3  5  1  0  0  0  0
  3 12  2  0  0  0  0
  4 15  1  0  0  0  0
  5 16  2  0  0  0  0
  6 11  1  0  0  0  0
  6 15  2  0  0  0  0
  7 13  2  0  0  0  0
  7 16  1  0  0  0  0
  8 10  1  0  0  0  0
  8 34  2  0  0  0  0
  9 14  2  0  0  0  0
  9 34  1  0  0  0  0
 10 11  2  0  0  0  0
 11 14  1  0  0  0  0
 12 13  1  0  0  0  0
 12 18  1  0  0  0  0
 13 29  1  0  0  0  0
 14 35  1  0  0  0  0
 15 41  1  0  0  0  0
 16 43  1  0  0  0  0
 17 29  1  0  0  0  0
 17 35  1  0  0  0  0
 17 38  2  0  0  0  0
 18 36  1  0  0  0  0
 19 20  1  0  0  0  0
 19 26  1  0  0  0  0
 20 27  1  0  0  0  0
 21 22  1  0  0  0  0
 21 28  1  0  0  0  0
 22 28  1  0  0  0  0
 23 24  1  0  0  0  0
 23 29  1  0  0  0  0
 24 35  1  0  0  0  0
 25 29  1  0  0  0  0
 25 36  1  0  0  0  0
 26 37  1  0  0  0  0
 27 31  1  6  0  0  0
 27 37  1  0  0  0  0
 28 32  1  0  0  0  0
 30 37  1  6  0  0  0
 31 41  1  0  0  0  0
 32 42  1  0  0  0  0
 36 42  1  1  0  0  0
 39 42  2  0  0  0  0
 40 42  2  0  0  0  0
  2 44  1  0  0  0  0
  3 45  1  0  0  0  0
  4 46  1  0  0  0  0
  5 47  1  0  0  0  0
  6 48  1  0  0  0  0
  7 49  1  0  0  0  0
  8 50  1  0  0  0  0
  9 51  1  0  0  0  0
 18 52  1  0  0  0  0
 18 53  1  0  0  0  0
 19 54  1  0  0  0  0
 19 55  1  0  0  0  0
 20 56  1  0  0  0  0
 20 57  1  0  0  0  0
 21 58  1  0  0  0  0
 21 59  1  0  0  0  0
 22 60  1  0  0  0  0
 22 61  1  0  0  0  0
 23 62  1  0  0  0  0
 23 63  1  0  0  0  0
 24 64  1  0  0  0  0
 24 65  1  0  0  0  0
 25 66  1  0  0  0  0
 25 67  1  0  0  0  0
 26 68  1  0  0  0  0
 26 69  1  0  0  0  0
 27 70  1  0  0  0  0
 30 71  1  0  0  0  0
 30 72  1  0  0  0  0
 30 73  1  0  0  0  0
 31 74  1  0  0  0  0
 31 75  1  0  0  0  0
 32 76  1  0  0  0  0
 32 77  1  0  0  0  0
 37 78  1  0  0  0  0
M  CHG  1  37   1
M  END
> <compound>
MAT-POS-40ad851a-1

> <compound_smiles>
CN1CCCC1COc2ccc3cncc(c3c2)N4CCC5(C4=O)CN(Cc6c5cc(cc6)Cl)S(=O)(=O)CC7(CC7)C#N

> <enantiomer_smiles>
C[N@]1CCC[C@H]1COc2ccc3cncc(c3c2)N4CCC5(C4=O)C[N@@](Cc6c5cc(cc6)Cl)S(=O)(=O)CC7(CC7)C#N

> <scaffold>
tetrahydroisoquinoline-5spiro-isoquinoline

> <clash_score>
0

> <docking_score>
-7.661576747894287

> <overlap_score>
0.9729846715927124

> <MMFF_internal_energy>
168.9279243226876

> <docked_smiles>
C[N@H+]1CCC[C@H]1COc2ccc3cncc(c3c2)N4CC[C@@]5(C4=O)C[N@@](Cc6c5cc(cc6)Cl)S(=O)(=O)CC7(CC7)C#N

$$$$
MAT-POS-40ad851a-3_2
  -OEChem-12272114583D

 80 85  0     1  0  0  0  0  0999 V2000
    6.3155    4.9014   24.5578 C   0  0  0  0  0  0  0  0  0  0  0  0
    3.7865    2.4205   19.1660 C   0  0  0  0  0  0  0  0  0  0  0  0
   12.0765    0.0316   24.1541 C   0  0  0  0  0  0  0  0  0  0  0  0
    3.3432    2.6279   20.4411 C   0  0  0  0  0  0  0  0  0  0  0  0
   12.9132   -0.6032   23.2569 C   0  0  0  0  0  0  0  0  0  0  0  0
    4.8973    1.0233   21.2988 C   0  0  0  0  0  0  0  0  0  0  0  0
   10.9991   -1.4331   22.0443 C   0  0  0  0  0  0  0  0  0  0  0  0
    5.3278    1.2339   17.6066 C   0  0  0  0  0  0  0  0  0  0  0  0
    6.8438   -0.2892   18.3752 C   0  0  0  0  0  0  0  0  0  0  0  0
    4.8226    1.4906   18.9054 C   0  0  0  0  0  0  0  0  0  0  0  0
    5.3982    0.7733   19.9948 C   0  0  0  0  0  0  0  0  0  0  0  0
   10.7040   -0.0625   23.9898 C   0  0  0  0  0  0  0  0  0  0  0  0
   10.1406   -0.7765   22.9250 C   0  0  0  0  0  0  0  0  0  0  0  0
    6.4440   -0.1472   19.6979 C   0  0  0  0  0  0  0  0  0  0  0  0
    3.8960    1.9291   21.5050 C   0  0  0  0  0  0  0  0  0  0  0  0
   12.3683   -1.3298   22.2234 C   0  0  0  0  0  0  0  0  0  0  0  0
    8.2490    0.0169   21.4271 C   0  0  0  0  0  0  0  0  0  0  0  0
    9.9479    0.5589   24.9534 C   0  0  0  0  0  0  0  0  0  0  0  0
    8.0723    5.9546   26.0276 C   0  0  0  0  0  0  0  0  0  0  0  0
    7.2836    5.0077   26.8831 C   0  0  0  0  0  0  0  0  0  0  0  0
    8.0140   -2.1541   22.4331 C   0  0  0  0  0  0  0  0  0  0  0  0
    6.9866   -1.9366   21.3580 C   0  0  0  0  0  0  0  0  0  0  0  0
    7.8721   -0.1194   23.8831 C   0  0  0  0  0  0  0  0  0  0  0  0
    7.4618    4.7167   25.4097 C   0  0  0  0  0  0  0  0  0  0  0  0
    8.6238   -0.7606   22.6929 C   0  0  3  0  0  0  0  0  0  0  0  0
    0.6583   -0.3683   25.3098 C   0  0  0  0  0  0  0  0  0  0  0  0
    1.7385    3.6714   26.5700 C   0  0  0  0  0  0  0  0  0  0  0  0
    8.3874    3.5882   25.0137 C   0  0  0  0  0  0  0  0  0  0  0  0
    0.6514    0.7840   24.3292 C   0  0  0  0  0  0  0  0  0  0  0  0
    0.9177    2.4768   26.1358 C   0  0  0  0  0  0  0  0  0  0  0  0
    2.9283    1.5069   25.0326 C   0  0  0  0  0  0  0  0  0  0  0  0
    3.4815    1.0690   23.6908 C   0  0  0  0  0  0  0  0  0  0  0  0
    5.3920    5.0503   23.8713 N   0  0  0  0  0  0  0  0  0  0  0  0
    6.3062    0.3769   17.3421 N   0  0  0  0  0  0  0  0  0  0  0  0
    7.2292   -0.6897   20.7790 N   0  0  0  0  0  0  0  0  0  0  0  0
    8.6609    1.0133   24.4995 N   0  0  2  0  0  0  0  0  0  0  0  0
    1.5065    1.9026   24.8710 N   0  3  0  0  0  0  0  0  0  0  0  0
    8.8299    1.0397   21.0799 O   0  0  0  0  0  0  0  0  0  0  0  0
    8.2407    1.8013   26.9144 O   0  0  0  0  0  0  0  0  0  0  0  0
    6.3653    1.9471   25.2271 O   0  0  0  0  0  0  0  0  0  0  0  0
    3.4227    2.1582   22.7714 O   0  0  0  0  0  0  0  0  0  0  0  0
    7.7708    2.0177   25.5632 S   0  0  0  0  0  0  0  0  0  0  0  0
   13.4272   -2.1411   21.1086 Cl  0  0  0  0  0  0  0  0  0  0  0  0
    3.3406    2.9746   18.3368 H   0  0  0  0  0  0  0  0  0  0  0  0
   12.5024    0.5995   24.9735 H   0  0  0  0  0  0  0  0  0  0  0  0
    2.5407    3.3506   20.6306 H   0  0  0  0  0  0  0  0  0  0  0  0
   13.9910   -0.5177   23.3793 H   0  0  0  0  0  0  0  0  0  0  0  0
    5.3162    0.4858   22.1535 H   0  0  0  0  0  0  0  0  0  0  0  0
   10.6036   -2.0162   21.2241 H   0  0  0  0  0  0  0  0  0  0  0  0
    4.9131    1.7514   16.7479 H   0  0  0  0  0  0  0  0  0  0  0  0
    7.6448   -0.9758   18.1041 H   0  0  0  0  0  0  0  0  0  0  0  0
    9.7849   -0.1194   25.8306 H   0  0  0  0  0  0  0  0  0  0  0  0
   10.4793    1.4568   25.3613 H   0  0  0  0  0  0  0  0  0  0  0  0
    7.6321    6.9216   25.8116 H   0  0  0  0  0  0  0  0  0  0  0  0
    9.1461    5.9865   26.1712 H   0  0  0  0  0  0  0  0  0  0  0  0
    7.8293    4.4058   27.6006 H   0  0  0  0  0  0  0  0  0  0  0  0
    6.3160    5.3417   27.2402 H   0  0  0  0  0  0  0  0  0  0  0  0
    7.5152   -2.5456   23.3338 H   0  0  0  0  0  0  0  0  0  0  0  0
    8.7649   -2.9030   22.1434 H   0  0  0  0  0  0  0  0  0  0  0  0
    7.0587   -2.7248   20.5721 H   0  0  0  0  0  0  0  0  0  0  0  0
    5.9518   -1.9952   21.7720 H   0  0  0  0  0  0  0  0  0  0  0  0
    6.8867    0.2641   23.5642 H   0  0  0  0  0  0  0  0  0  0  0  0
    7.6652   -0.8660   24.6733 H   0  0  0  0  0  0  0  0  0  0  0  0
    1.6751   -0.7535   25.4332 H   0  0  0  0  0  0  0  0  0  0  0  0
    0.2941   -0.0532   26.2932 H   0  0  0  0  0  0  0  0  0  0  0  0
    0.0251   -1.1901   24.9594 H   0  0  0  0  0  0  0  0  0  0  0  0
    2.7661    3.3648   26.7880 H   0  0  0  0  0  0  0  0  0  0  0  0
    1.7722    4.4346   25.7856 H   0  0  0  0  0  0  0  0  0  0  0  0
    1.3231    4.1299   27.4735 H   0  0  0  0  0  0  0  0  0  0  0  0
    9.3774    3.7195   25.4591 H   0  0  0  0  0  0  0  0  0  0  0  0
    8.4924    3.5311   23.9269 H   0  0  0  0  0  0  0  0  0  0  0  0
   -0.3546    1.1884   24.1873 H   0  0  0  0  0  0  0  0  0  0  0  0
    1.0745    0.4953   23.3631 H   0  0  0  0  0  0  0  0  0  0  0  0
   -0.1155    2.7559   25.9114 H   0  0  0  0  0  0  0  0  0  0  0  0
    0.9321    1.6819   26.8866 H   0  0  0  0  0  0  0  0  0  0  0  0
    3.4495    2.3839   25.4268 H   0  0  0  0  0  0  0  0  0  0  0  0
    2.9465    0.6934   25.7626 H   0  0  0  0  0  0  0  0  0  0  0  0
    4.5301    0.7750   23.7992 H   0  0  0  0  0  0  0  0  0  0  0  0
    2.9203    0.2243   23.2782 H   0  0  0  0  0  0  0  0  0  0  0  0
    1.4678    2.6596   24.1675 H   0  0  0  0  0  0  0  0  0  0  0  0
  1 24  1  0  0  0  0
  1 33  3  0  0  0  0
  2  4  2  0  0  0  0
  2 10  1  0  0  0  0
  3  5  1  0  0  0  0
  3 12  2  0  0  0  0
  4 15  1  0  0  0  0
  5 16  2  0  0  0  0
  6 11  1  0  0  0  0
  6 15  2  0  0  0  0
  7 13  2  0  0  0  0
  7 16  1  0  0  0  0
  8 10  1  0  0  0  0
  8 34  2  0  0  0  0
  9 14  2  0  0  0  0
  9 34  1  0  0  0  0
 10 11  2  0  0  0  0
 11 14  1  0  0  0  0
 12 13  1  0  0  0  0
 12 18  1  0  0  0  0
 13 25  1  0  0  0  0
 14 35  1  0  0  0  0
 15 41  1  0  0  0  0
 16 43  1  0  0  0  0
 17 25  1  0  0  0  0
 17 35  1  0  0  0  0
 17 38  2  0  0  0  0
 18 36  1  0  0  0  0
 19 20  1  0  0  0  0
 19 24  1  0  0  0  0
 20 24  1  0  0  0  0
 21 22  1  0  0  0  0
 21 25  1  0  0  0  0
 22 35  1  0  0  0  0
 23 25  1  0  0  0  0
 23 36  1  0  0  0  0
 24 28  1  0  0  0  0
 26 29  1  0  0  0  0
 27 30  1  0  0  0  0
 28 42  1  0  0  0  0
 29 37  1  0  0  0  0
 30 37  1  0  0  0  0
 31 32  1  0  0  0  0
 31 37  1  0  0  0  0
 32 41  1  0  0  0  0
 36 42  1  6  0  0  0
 39 42  2  0  0  0  0
 40 42  2  0  0  0  0
  2 44  1  0  0  0  0
  3 45  1  0  0  0  0
  4 46  1  0  0  0  0
  5 47  1  0  0  0  0
  6 48  1  0  0  0  0
  7 49  1  0  0  0  0
  8 50  1  0  0  0  0
  9 51  1  0  0  0  0
 18 52  1  0  0  0  0
 18 53  1  0  0  0  0
 19 54  1  0  0  0  0
 19 55  1  0  0  0  0
 20 56  1  0  0  0  0
 20 57  1  0  0  0  0
 21 58  1  0  0  0  0
 21 59  1  0  0  0  0
 22 60  1  0  0  0  0
 22 61  1  0  0  0  0
 23 62  1  0  0  0  0
 23 63  1  0  0  0  0
 26 64  1  0  0  0  0
 26 65  1  0  0  0  0
 26 66  1  0  0  0  0
 27 67  1  0  0  0  0
 27 68  1  0  0  0  0
 27 69  1  0  0  0  0
 28 70  1  0  0  0  0
 28 71  1  0  0  0  0
 29 72  1  0  0  0  0
 29 73  1  0  0  0  0
 30 74  1  0  0  0  0
 30 75  1  0  0  0  0
 31 76  1  0  0  0  0
 31 77  1  0  0  0  0
 32 78  1  0  0  0  0
 32 79  1  0  0  0  0
 37 80  1  0  0  0  0
M  CHG  1  37   1
M  END
> <compound>
MAT-POS-40ad851a-3

> <compound_smiles>
CCN(CC)CCOc1ccc2cncc(c2c1)N3CCC4(C3=O)CN(Cc5c4cc(cc5)Cl)S(=O)(=O)CC6(CC6)C#N

> <enantiomer_smiles>
CCN(CC)CCOc1ccc2cncc(c2c1)N3CCC4(C3=O)C[N@](Cc5c4cc(cc5)Cl)S(=O)(=O)CC6(CC6)C#N

> <scaffold>
tetrahydroisoquinoline-5spiro-isoquinoline

> <clash_score>
0

> <docking_score>
-6.5297465324401855

> <overlap_score>
0.9703388214111328

> <MMFF_internal_energy>
140.14929068251908

> <docked_smiles>
CC[NH+](CC)CCOc1ccc2cncc(c2c1)N3CC[C@@]4(C3=O)C[N@](Cc5c4cc(cc5)Cl)S(=O)(=O)CC6(CC6)C#N

$$$$
EDJ-MED-468565e0-5_2
  -OEChem-12272114583D

 74 80  0     1  0  0  0  0  0999 V2000
    6.3155    4.9014   24.5578 C   0  0  0  0  0  0  0  0  0  0  0  0
    3.7865    2.4205   19.1660 C   0  0  0  0  0  0  0  0  0  0  0  0
   12.0765    0.0316   24.1541 C   0  0  0  0  0  0  0  0  0  0  0  0
    3.3432    2.6279   20.4411 C   0  0  0  0  0  0  0  0  0  0  0  0
   12.9132   -0.6032   23.2569 C   0  0  0  0  0  0  0  0  0  0  0  0
    4.8973    1.0233   21.2988 C   0  0  0  0  0  0  0  0  0  0  0  0
   10.9991   -1.4331   22.0443 C   0  0  0  0  0  0  0  0  0  0  0  0
    5.3278    1.2339   17.6066 C   0  0  0  0  0  0  0  0  0  0  0  0
    6.8438   -0.2892   18.3752 C   0  0  0  0  0  0  0  0  0  0  0  0
    4.8226    1.4906   18.9054 C   0  0  0  0  0  0  0  0  0  0  0  0
    5.3982    0.7733   19.9948 C   0  0  0  0  0  0  0  0  0  0  0  0
   10.7040   -0.0625   23.9898 C   0  0  0  0  0  0  0  0  0  0  0  0
   10.1406   -0.7765   22.9250 C   0  0  0  0  0  0  0  0  0  0  0  0
    6.4440   -0.1472   19.6979 C   0  0  0  0  0  0  0  0  0  0  0  0
    3.8960    1.9291   21.5050 C   0  0  0  0  0  0  0  0  0  0  0  0
   12.3683   -1.3298   22.2234 C   0  0  0  0  0  0  0  0  0  0  0  0
    8.2490    0.0169   21.4271 C   0  0  0  0  0  0  0  0  0  0  0  0
    9.9479    0.5589   24.9534 C   0  0  0  0  0  0  0  0  0  0  0  0
    8.0723    5.9546   26.0276 C   0  0  0  0  0  0  0  0  0  0  0  0
    7.2836    5.0077   26.8831 C   0  0  0  0  0  0  0  0  0  0  0  0
    8.0140   -2.1541   22.4331 C   0  0  0  0  0  0  0  0  0  0  0  0
    6.9866   -1.9366   21.3580 C   0  0  0  0  0  0  0  0  0  0  0  0
    7.8721   -0.1194   23.8831 C   0  0  0  0  0  0  0  0  0  0  0  0
    1.8088   -1.1557   24.9650 C   0  0  0  0  0  0  0  0  0  0  0  0
    1.2152    0.0929   26.5231 C   0  0  0  0  0  0  0  0  0  0  0  0
    7.4618    4.7167   25.4097 C   0  0  0  0  0  0  0  0  0  0  0  0
    8.6238   -0.7606   22.6929 C   0  0  3  0  0  0  0  0  0  0  0  0
    1.0336   -1.4186   26.2728 C   0  0  0  0  0  0  0  0  0  0  0  0
    8.3874    3.5882   25.0137 C   0  0  0  0  0  0  0  0  0  0  0  0
    2.3394    1.1852   24.6837 C   0  0  0  0  0  0  0  0  0  0  0  0
    3.4815    1.0690   23.6908 C   0  0  0  0  0  0  0  0  0  0  0  0
    5.3920    5.0503   23.8713 N   0  0  0  0  0  0  0  0  0  0  0  0
    6.3062    0.3769   17.3421 N   0  0  0  0  0  0  0  0  0  0  0  0
    7.2292   -0.6897   20.7790 N   0  0  0  0  0  0  0  0  0  0  0  0
    8.6609    1.0133   24.4995 N   0  0  2  0  0  0  0  0  0  0  0  0
    2.3737    0.0539   25.6034 N   0  0  0  0  0  0  0  0  0  0  0  0
    8.8299    1.0397   21.0799 O   0  0  0  0  0  0  0  0  0  0  0  0
    8.2407    1.8013   26.9144 O   0  0  0  0  0  0  0  0  0  0  0  0
    6.3653    1.9471   25.2271 O   0  0  0  0  0  0  0  0  0  0  0  0
    3.4227    2.1582   22.7714 O   0  0  0  0  0  0  0  0  0  0  0  0
   -0.2386   -1.8498   26.1337 F   0  0  0  0  0  0  0  0  0  0  0  0
    1.6385   -2.2394   27.1613 F   0  0  0  0  0  0  0  0  0  0  0  0
    7.7708    2.0177   25.5632 S   0  0  0  0  0  0  0  0  0  0  0  0
   13.4272   -2.1411   21.1086 Cl  0  0  0  0  0  0  0  0  0  0  0  0
    3.3406    2.9746   18.3368 H   0  0  0  0  0  0  0  0  0  0  0  0
   12.5024    0.5995   24.9735 H   0  0  0  0  0  0  0  0  0  0  0  0
    2.5407    3.3506   20.6306 H   0  0  0  0  0  0  0  0  0  0  0  0
   13.9910   -0.5177   23.3793 H   0  0  0  0  0  0  0  0  0  0  0  0
    5.3162    0.4858   22.1535 H   0  0  0  0  0  0  0  0  0  0  0  0
   10.6036   -2.0162   21.2241 H   0  0  0  0  0  0  0  0  0  0  0  0
    4.9131    1.7514   16.7479 H   0  0  0  0  0  0  0  0  0  0  0  0
    7.6448   -0.9758   18.1041 H   0  0  0  0  0  0  0  0  0  0  0  0
    9.7849   -0.1194   25.8306 H   0  0  0  0  0  0  0  0  0  0  0  0
   10.4793    1.4568   25.3613 H   0  0  0  0  0  0  0  0  0  0  0  0
    7.6321    6.9216   25.8116 H   0  0  0  0  0  0  0  0  0  0  0  0
    9.1461    5.9865   26.1712 H   0  0  0  0  0  0  0  0  0  0  0  0
    7.8293    4.4058   27.6006 H   0  0  0  0  0  0  0  0  0  0  0  0
    6.3160    5.3417   27.2402 H   0  0  0  0  0  0  0  0  0  0  0  0
    7.5152   -2.5456   23.3338 H   0  0  0  0  0  0  0  0  0  0  0  0
    8.7649   -2.9030   22.1434 H   0  0  0  0  0  0  0  0  0  0  0  0
    7.0587   -2.7248   20.5721 H   0  0  0  0  0  0  0  0  0  0  0  0
    5.9518   -1.9952   21.7720 H   0  0  0  0  0  0  0  0  0  0  0  0
    6.8867    0.2641   23.5642 H   0  0  0  0  0  0  0  0  0  0  0  0
    7.6652   -0.8660   24.6733 H   0  0  0  0  0  0  0  0  0  0  0  0
    2.5578   -1.9130   24.7114 H   0  0  0  0  0  0  0  0  0  0  0  0
    1.1579   -1.0010   24.0943 H   0  0  0  0  0  0  0  0  0  0  0  0
    0.3517    0.6948   26.2105 H   0  0  0  0  0  0  0  0  0  0  0  0
    1.4755    0.3632   27.5518 H   0  0  0  0  0  0  0  0  0  0  0  0
    9.3774    3.7195   25.4591 H   0  0  0  0  0  0  0  0  0  0  0  0
    8.4924    3.5311   23.9269 H   0  0  0  0  0  0  0  0  0  0  0  0
    2.4155    2.1064   25.2700 H   0  0  0  0  0  0  0  0  0  0  0  0
    1.3779    1.1713   24.1615 H   0  0  0  0  0  0  0  0  0  0  0  0
    3.3887    0.1398   23.1200 H   0  0  0  0  0  0  0  0  0  0  0  0
    4.4544    1.0840   24.1928 H   0  0  0  0  0  0  0  0  0  0  0  0
  1 26  1  0  0  0  0
  1 32  3  0  0  0  0
  2  4  1  0  0  0  0
  2 10  2  0  0  0  0
  3  5  1  0  0  0  0
  3 12  2  0  0  0  0
  4 15  2  0  0  0  0
  5 16  2  0  0  0  0
  6 11  2  0  0  0  0
  6 15  1  0  0  0  0
  7 13  2  0  0  0  0
  7 16  1  0  0  0  0
  8 10  1  0  0  0  0
  8 33  2  0  0  0  0
  9 14  2  0  0  0  0
  9 33  1  0  0  0  0
 10 11  1  0  0  0  0
 11 14  1  0  0  0  0
 12 13  1  0  0  0  0
 12 18  1  0  0  0  0
 13 27  1  0  0  0  0
 14 34  1  0  0  0  0
 15 40  1  0  0  0  0
 16 44  1  0  0  0  0
 17 27  1  0  0  0  0
 17 34  1  0  0  0  0
 17 37  2  0  0  0  0
 18 35  1  0  0  0  0
 19 20  1  0  0  0  0
 19 26  1  0  0  0  0
 20 26  1  0  0  0  0
 21 22  1  0  0  0  0
 21 27  1  0  0  0  0
 22 34  1  0  0  0  0
 23 27  1  0  0  0  0
 23 35  1  0  0  0  0
 24 28  1  0  0  0  0
 24 36  1  0  0  0  0
 25 28  1  0  0  0  0
 25 36  1  0  0  0  0
 26 29  1  0  0  0  0
 28 41  1  0  0  0  0
 28 42  1  0  0  0  0
 29 43  1  0  0  0  0
 30 31  1  0  0  0  0
 30 36  1  0  0  0  0
 31 40  1  0  0  0  0
 35 43  1  6  0  0  0
 38 43  2  0  0  0  0
 39 43  2  0  0  0  0
  2 45  1  0  0  0  0
  3 46  1  0  0  0  0
  4 47  1  0  0  0  0
  5 48  1  0  0  0  0
  6 49  1  0  0  0  0
  7 50  1  0  0  0  0
  8 51  1  0  0  0  0
  9 52  1  0  0  0  0
 18 53  1  0  0  0  0
 18 54  1  0  0  0  0
 19 55  1  0  0  0  0
 19 56  1  0  0  0  0
 20 57  1  0  0  0  0
 20 58  1  0  0  0  0
 21 59  1  0  0  0  0
 21 60  1  0  0  0  0
 22 61  1  0  0  0  0
 22 62  1  0  0  0  0
 23 63  1  0  0  0  0
 23 64  1  0  0  0  0
 24 65  1  0  0  0  0
 24 66  1  0  0  0  0
 25 67  1  0  0  0  0
 25 68  1  0  0  0  0
 29 69  1  0  0  0  0
 29 70  1  0  0  0  0
 30 71  1  0  0  0  0
 30 72  1  0  0  0  0
 31 73  1  0  0  0  0
 31 74  1  0  0  0  0
M  END
> <compound>
EDJ-MED-468565e0-5

> <compound_smiles>
c1cc2cncc(c2cc1OCCN3CC(C3)(F)F)N4CCC5(C4=O)CN(Cc6c5cc(cc6)Cl)S(=O)(=O)CC7(CC7)C#N

> <enantiomer_smiles>
c1cc2cncc(c2cc1OCCN3CC(C3)(F)F)N4CCC5(C4=O)C[N@](Cc6c5cc(cc6)Cl)S(=O)(=O)CC7(CC7)C#N

> <scaffold>
tetrahydroisoquinoline-5spiro-isoquinoline

> <clash_score>
0

> <docking_score>
-6.147470474243164

> <overlap_score>
0.9674496054649353

> <MMFF_internal_energy>
175.35635873580577

> <docked_smiles>
c1cc2cncc(c2cc1OCCN3CC(C3)(F)F)N4CC[C@@]5(C4=O)C[N@](Cc6c5cc(cc6)Cl)S(=O)(=O)CC7(CC7)C#N

$$$$
MAT-POS-40ad851a-3_1
  -OEChem-12272114583D

 80 85  0     1  0  0  0  0  0999 V2000
    9.5881    5.6615   24.2579 C   0  0  0  0  0  0  0  0  0  0  0  0
    3.7865    2.4205   19.1660 C   0  0  0  0  0  0  0  0  0  0  0  0
   12.0765    0.0316   24.1541 C   0  0  0  0  0  0  0  0  0  0  0  0
    3.3432    2.6279   20.4411 C   0  0  0  0  0  0  0  0  0  0  0  0
   12.9132   -0.6032   23.2569 C   0  0  0  0  0  0  0  0  0  0  0  0
    4.8973    1.0233   21.2988 C   0  0  0  0  0  0  0  0  0  0  0  0
   10.9991   -1.4331   22.0443 C   0  0  0  0  0  0  0  0  0  0  0  0
    5.3278    1.2339   17.6066 C   0  0  0  0  0  0  0  0  0  0  0  0
    6.8438   -0.2892   18.3752 C   0  0  0  0  0  0  0  0  0  0  0  0
    4.8226    1.4906   18.9054 C   0  0  0  0  0  0  0  0  0  0  0  0
    5.3982    0.7733   19.9948 C   0  0  0  0  0  0  0  0  0  0  0  0
   10.7040   -0.0625   23.9898 C   0  0  0  0  0  0  0  0  0  0  0  0
   10.1406   -0.7765   22.9250 C   0  0  0  0  0  0  0  0  0  0  0  0
    6.4440   -0.1472   19.6979 C   0  0  0  0  0  0  0  0  0  0  0  0
    3.8960    1.9291   21.5050 C   0  0  0  0  0  0  0  0  0  0  0  0
   12.3683   -1.3298   22.2234 C   0  0  0  0  0  0  0  0  0  0  0  0
    8.2490    0.0169   21.4271 C   0  0  0  0  0  0  0  0  0  0  0  0
    9.9479    0.5589   24.9534 C   0  0  0  0  0  0  0  0  0  0  0  0
    7.2213    5.9018   25.0923 C   0  0  0  0  0  0  0  0  0  0  0  0
    7.1474    5.4411   23.6665 C   0  0  0  0  0  0  0  0  0  0  0  0
    8.0140   -2.1541   22.4331 C   0  0  0  0  0  0  0  0  0  0  0  0
    6.9866   -1.9366   21.3580 C   0  0  0  0  0  0  0  0  0  0  0  0
    7.8721   -0.1194   23.8831 C   0  0  0  0  0  0  0  0  0  0  0  0
    8.3214    5.0316   24.5273 C   0  0  0  0  0  0  0  0  0  0  0  0
    8.6238   -0.7606   22.6929 C   0  0  3  0  0  0  0  0  0  0  0  0
    0.6497   -0.3500   25.3185 C   0  0  0  0  0  0  0  0  0  0  0  0
    1.7346    3.6946   26.5590 C   0  0  0  0  0  0  0  0  0  0  0  0
    8.3989    3.5932   24.9882 C   0  0  0  0  0  0  0  0  0  0  0  0
    0.6464    0.7970   24.3317 C   0  0  0  0  0  0  0  0  0  0  0  0
    0.9125    2.4991   26.1298 C   0  0  0  0  0  0  0  0  0  0  0  0
    2.9234    1.5199   25.0352 C   0  0  0  0  0  0  0  0  0  0  0  0
    3.4781    1.0738   23.6967 C   0  0  0  0  0  0  0  0  0  0  0  0
   10.6086    6.1691   24.0409 N   0  0  0  0  0  0  0  0  0  0  0  0
    6.3062    0.3769   17.3421 N   0  0  0  0  0  0  0  0  0  0  0  0
    7.2292   -0.6897   20.7790 N   0  0  0  0  0  0  0  0  0  0  0  0
    8.6609    1.0133   24.4995 N   0  0  1  0  0  0  0  0  0  0  0  0
    1.5025    1.9171   24.8690 N   0  3  0  0  0  0  0  0  0  0  0  0
    8.7572    1.0941   21.1350 O   0  0  0  0  0  0  0  0  0  0  0  0
    7.4179    2.5201   22.8172 O   0  0  0  0  0  0  0  0  0  0  0  0
    9.9251    2.7322   23.0499 O   0  0  0  0  0  0  0  0  0  0  0  0
    3.4227    2.1582   22.7714 O   0  0  0  0  0  0  0  0  0  0  0  0
    8.6198    2.4832   23.6217 S   0  0  0  0  0  0  0  0  0  0  0  0
   13.4275   -2.1421   21.1097 Cl  0  0  0  0  0  0  0  0  0  0  0  0
    3.3406    2.9746   18.3368 H   0  0  0  0  0  0  0  0  0  0  0  0
   12.5015    0.5938   24.9776 H   0  0  0  0  0  0  0  0  0  0  0  0
    2.5407    3.3506   20.6306 H   0  0  0  0  0  0  0  0  0  0  0  0
   13.9911   -0.5212   23.3814 H   0  0  0  0  0  0  0  0  0  0  0  0
    5.3162    0.4858   22.1535 H   0  0  0  0  0  0  0  0  0  0  0  0
   10.6037   -2.0228   21.2288 H   0  0  0  0  0  0  0  0  0  0  0  0
    4.9131    1.7514   16.7479 H   0  0  0  0  0  0  0  0  0  0  0  0
    7.6448   -0.9758   18.1041 H   0  0  0  0  0  0  0  0  0  0  0  0
    9.7581   -0.1287   25.8173 H   0  0  0  0  0  0  0  0  0  0  0  0
   10.4931    1.4391   25.3829 H   0  0  0  0  0  0  0  0  0  0  0  0
    7.4214    6.9523   25.2708 H   0  0  0  0  0  0  0  0  0  0  0  0
    6.5254    5.4641   25.7988 H   0  0  0  0  0  0  0  0  0  0  0  0
    6.4012    4.6953   23.4178 H   0  0  0  0  0  0  0  0  0  0  0  0
    7.2972    6.1838   22.8911 H   0  0  0  0  0  0  0  0  0  0  0  0
    7.5801   -2.6060   23.3366 H   0  0  0  0  0  0  0  0  0  0  0  0
    8.7749   -2.8608   22.0657 H   0  0  0  0  0  0  0  0  0  0  0  0
    7.0227   -2.7506   20.5953 H   0  0  0  0  0  0  0  0  0  0  0  0
    5.9554   -1.9484   21.7832 H   0  0  0  0  0  0  0  0  0  0  0  0
    6.8886    0.2769   23.5666 H   0  0  0  0  0  0  0  0  0  0  0  0
    7.6579   -0.8710   24.6633 H   0  0  0  0  0  0  0  0  0  0  0  0
    1.6656   -0.7362   25.4457 H   0  0  0  0  0  0  0  0  0  0  0  0
    0.2843   -0.0291   26.2996 H   0  0  0  0  0  0  0  0  0  0  0  0
    0.0157   -1.1726   24.9715 H   0  0  0  0  0  0  0  0  0  0  0  0
    2.7613    3.3874   26.7804 H   0  0  0  0  0  0  0  0  0  0  0  0
    1.7709    4.4535   25.7705 H   0  0  0  0  0  0  0  0  0  0  0  0
    1.3184    4.1586   27.4593 H   0  0  0  0  0  0  0  0  0  0  0  0
    7.4792    3.2960   25.4995 H   0  0  0  0  0  0  0  0  0  0  0  0
    9.2447    3.4440   25.6648 H   0  0  0  0  0  0  0  0  0  0  0  0
   -0.3586    1.2024   24.1859 H   0  0  0  0  0  0  0  0  0  0  0  0
    1.0707    0.5024   23.3679 H   0  0  0  0  0  0  0  0  0  0  0  0
   -0.1198    2.7787   25.9020 H   0  0  0  0  0  0  0  0  0  0  0  0
    0.9242    1.7082   26.8848 H   0  0  0  0  0  0  0  0  0  0  0  0
    3.4453    2.3981   25.4256 H   0  0  0  0  0  0  0  0  0  0  0  0
    2.9389    0.7102   25.7695 H   0  0  0  0  0  0  0  0  0  0  0  0
    4.5260    0.7786   23.8085 H   0  0  0  0  0  0  0  0  0  0  0  0
    2.9161    0.2279   23.2877 H   0  0  0  0  0  0  0  0  0  0  0  0
    1.4662    2.6703   24.1614 H   0  0  0  0  0  0  0  0  0  0  0  0
  1 24  1  0  0  0  0
  1 33  3  0  0  0  0
  2  4  2  0  0  0  0
  2 10  1  0  0  0  0
  3  5  1  0  0  0  0
  3 12  2  0  0  0  0
  4 15  1  0  0  0  0
  5 16  2  0  0  0  0
  6 11  1  0  0  0  0
  6 15  2  0  0  0  0
  7 13  2  0  0  0  0
  7 16  1  0  0  0  0
  8 10  1  0  0  0  0
  8 34  2  0  0  0  0
  9 14  2  0  0  0  0
  9 34  1  0  0  0  0
 10 11  2  0  0  0  0
 11 14  1  0  0  0  0
 12 13  1  0  0  0  0
 12 18  1  0  0  0  0
 13 25  1  0  0  0  0
 14 35  1  0  0  0  0
 15 41  1  0  0  0  0
 16 43  1  0  0  0  0
 17 25  1  0  0  0  0
 17 35  1  0  0  0  0
 17 38  2  0  0  0  0
 18 36  1  0  0  0  0
 19 20  1  0  0  0  0
 19 24  1  0  0  0  0
 20 24  1  0  0  0  0
 21 22  1  0  0  0  0
 21 25  1  0  0  0  0
 22 35  1  0  0  0  0
 23 25  1  0  0  0  0
 23 36  1  0  0  0  0
 24 28  1  0  0  0  0
 26 29  1  0  0  0  0
 27 30  1  0  0  0  0
 28 42  1  0  0  0  0
 29 37  1  0  0  0  0
 30 37  1  0  0  0  0
 31 32  1  0  0  0  0
 31 37  1  0  0  0  0
 32 41  1  0  0  0  0
 36 42  1  1  0  0  0
 39 42  2  0  0  0  0
 40 42  2  0  0  0  0
  2 44  1  0  0  0  0
  3 45  1  0  0  0  0
  4 46  1  0  0  0  0
  5 47  1  0  0  0  0
  6 48  1  0  0  0  0
  7 49  1  0  0  0  0
  8 50  1  0  0  0  0
  9 51  1  0  0  0  0
 18 52  1  0  0  0  0
 18 53  1  0  0  0  0
 19 54  1  0  0  0  0
 19 55  1  0  0  0  0
 20 56  1  0  0  0  0
 20 57  1  0  0  0  0
 21 58  1  0  0  0  0
 21 59  1  0  0  0  0
 22 60  1  0  0  0  0
 22 61  1  0  0  0  0
 23 62  1  0  0  0  0
 23 63  1  0  0  0  0
 26 64  1  0  0  0  0
 26 65  1  0  0  0  0
 26 66  1  0  0  0  0
 27 67  1  0  0  0  0
 27 68  1  0  0  0  0
 27 69  1  0  0  0  0
 28 70  1  0  0  0  0
 28 71  1  0  0  0  0
 29 72  1  0  0  0  0
 29 73  1  0  0  0  0
 30 74  1  0  0  0  0
 30 75  1  0  0  0  0
 31 76  1  0  0  0  0
 31 77  1  0  0  0  0
 32 78  1  0  0  0  0
 32 79  1  0  0  0  0
 37 80  1  0  0  0  0
M  CHG  1  37   1
M  END
> <compound>
MAT-POS-40ad851a-3

> <compound_smiles>
CCN(CC)CCOc1ccc2cncc(c2c1)N3CCC4(C3=O)CN(Cc5c4cc(cc5)Cl)S(=O)(=O)CC6(CC6)C#N

> <enantiomer_smiles>
CCN(CC)CCOc1ccc2cncc(c2c1)N3CCC4(C3=O)C[N@@](Cc5c4cc(cc5)Cl)S(=O)(=O)CC6(CC6)C#N

> <scaffold>
tetrahydroisoquinoline-5spiro-isoquinoline

> <clash_score>
0

> <docking_score>
-7.417301654815674

> <overlap_score>
0.9738104939460754

> <MMFF_internal_energy>
169.35055388829494

> <docked_smiles>
CC[NH+](CC)CCOc1ccc2cncc(c2c1)N3CC[C@@]4(C3=O)C[N@@](Cc5c4cc(cc5)Cl)S(=O)(=O)CC6(CC6)C#N

$$$$
MAT-POS-40ad851a-1_8
  -OEChem-12272114583D

 78 84  0     1  0  0  0  0  0999 V2000
    6.3155    4.9014   24.5578 C   0  0  0  0  0  0  0  0  0  0  0  0
    3.7865    2.4205   19.1660 C   0  0  0  0  0  0  0  0  0  0  0  0
   12.0765    0.0316   24.1541 C   0  0  0  0  0  0  0  0  0  0  0  0
    3.3432    2.6279   20.4411 C   0  0  0  0  0  0  0  0  0  0  0  0
   12.9132   -0.6032   23.2569 C   0  0  0  0  0  0  0  0  0  0  0  0
    4.8973    1.0233   21.2988 C   0  0  0  0  0  0  0  0  0  0  0  0
   10.9991   -1.4331   22.0443 C   0  0  0  0  0  0  0  0  0  0  0  0
    5.3278    1.2339   17.6066 C   0  0  0  0  0  0  0  0  0  0  0  0
    6.8438   -0.2892   18.3752 C   0  0  0  0  0  0  0  0  0  0  0  0
    4.8226    1.4906   18.9054 C   0  0  0  0  0  0  0  0  0  0  0  0
    5.3982    0.7733   19.9948 C   0  0  0  0  0  0  0  0  0  0  0  0
   10.7040   -0.0625   23.9898 C   0  0  0  0  0  0  0  0  0  0  0  0
   10.1406   -0.7765   22.9250 C   0  0  0  0  0  0  0  0  0  0  0  0
    6.4440   -0.1472   19.6979 C   0  0  0  0  0  0  0  0  0  0  0  0
    3.8960    1.9291   21.5050 C   0  0  0  0  0  0  0  0  0  0  0  0
   12.3683   -1.3298   22.2234 C   0  0  0  0  0  0  0  0  0  0  0  0
    8.2490    0.0169   21.4271 C   0  0  0  0  0  0  0  0  0  0  0  0
    9.9479    0.5589   24.9534 C   0  0  0  0  0  0  0  0  0  0  0  0
    2.4287   -0.5624   26.1094 C   0  0  0  0  0  0  0  0  0  0  0  0
    3.3643    0.6322   26.1909 C   0  0  0  0  0  0  0  0  0  0  0  0
    8.0723    5.9546   26.0276 C   0  0  0  0  0  0  0  0  0  0  0  0
    7.2836    5.0077   26.8831 C   0  0  0  0  0  0  0  0  0  0  0  0
    8.0140   -2.1541   22.4331 C   0  0  0  0  0  0  0  0  0  0  0  0
    6.9866   -1.9366   21.3580 C   0  0  0  0  0  0  0  0  0  0  0  0
    7.8721   -0.1194   23.8831 C   0  0  0  0  0  0  0  0  0  0  0  0
    1.1074   -0.0137   25.5897 C   0  0  0  0  0  0  0  0  0  0  0  0
    2.9272    1.5244   25.0366 C   0  0  1  0  0  0  0  0  0  0  0  0
    7.4618    4.7167   25.4097 C   0  0  0  0  0  0  0  0  0  0  0  0
    8.6238   -0.7606   22.6929 C   0  0  3  0  0  0  0  0  0  0  0  0
    0.6281    1.8328   23.9209 C   0  0  0  0  0  0  0  0  0  0  0  0
    3.4815    1.0690   23.6908 C   0  0  0  0  0  0  0  0  0  0  0  0
    8.3874    3.5882   25.0137 C   0  0  0  0  0  0  0  0  0  0  0  0
    5.3921    5.0503   23.8713 N   0  0  0  0  0  0  0  0  0  0  0  0
    6.3062    0.3769   17.3421 N   0  0  0  0  0  0  0  0  0  0  0  0
    7.2292   -0.6897   20.7790 N   0  0  0  0  0  0  0  0  0  0  0  0
    8.6609    1.0133   24.4995 N   0  0  2  0  0  0  0  0  0  0  0  0
    1.4181    1.3897   25.1096 N   0  3  1  0  0  0  0  0  0  0  0  0
    8.8299    1.0397   21.0799 O   0  0  0  0  0  0  0  0  0  0  0  0
    8.2407    1.8013   26.9144 O   0  0  0  0  0  0  0  0  0  0  0  0
    6.3653    1.9471   25.2271 O   0  0  0  0  0  0  0  0  0  0  0  0
    3.4227    2.1582   22.7714 O   0  0  0  0  0  0  0  0  0  0  0  0
    7.7708    2.0177   25.5632 S   0  0  0  0  0  0  0  0  0  0  0  0
   13.4272   -2.1411   21.1086 Cl  0  0  0  0  0  0  0  0  0  0  0  0
    3.3406    2.9746   18.3368 H   0  0  0  0  0  0  0  0  0  0  0  0
   12.5024    0.5995   24.9735 H   0  0  0  0  0  0  0  0  0  0  0  0
    2.5407    3.3506   20.6306 H   0  0  0  0  0  0  0  0  0  0  0  0
   13.9910   -0.5177   23.3793 H   0  0  0  0  0  0  0  0  0  0  0  0
    5.3162    0.4858   22.1535 H   0  0  0  0  0  0  0  0  0  0  0  0
   10.6036   -2.0162   21.2241 H   0  0  0  0  0  0  0  0  0  0  0  0
    4.9131    1.7514   16.7479 H   0  0  0  0  0  0  0  0  0  0  0  0
    7.6448   -0.9758   18.1041 H   0  0  0  0  0  0  0  0  0  0  0  0
    9.7849   -0.1194   25.8306 H   0  0  0  0  0  0  0  0  0  0  0  0
   10.4793    1.4568   25.3613 H   0  0  0  0  0  0  0  0  0  0  0  0
    2.8251   -1.3068   25.4092 H   0  0  0  0  0  0  0  0  0  0  0  0
    2.3134   -1.0522   27.0812 H   0  0  0  0  0  0  0  0  0  0  0  0
    3.2170    1.1546   27.1443 H   0  0  0  0  0  0  0  0  0  0  0  0
    4.4161    0.3359   26.1305 H   0  0  0  0  0  0  0  0  0  0  0  0
    7.6321    6.9216   25.8116 H   0  0  0  0  0  0  0  0  0  0  0  0
    9.1462    5.9865   26.1712 H   0  0  0  0  0  0  0  0  0  0  0  0
    7.8293    4.4058   27.6006 H   0  0  0  0  0  0  0  0  0  0  0  0
    6.3160    5.3418   27.2402 H   0  0  0  0  0  0  0  0  0  0  0  0
    7.5152   -2.5456   23.3338 H   0  0  0  0  0  0  0  0  0  0  0  0
    8.7649   -2.9030   22.1434 H   0  0  0  0  0  0  0  0  0  0  0  0
    7.0587   -2.7248   20.5721 H   0  0  0  0  0  0  0  0  0  0  0  0
    5.9518   -1.9952   21.7720 H   0  0  0  0  0  0  0  0  0  0  0  0
    6.8867    0.2641   23.5642 H   0  0  0  0  0  0  0  0  0  0  0  0
    7.6652   -0.8660   24.6733 H   0  0  0  0  0  0  0  0  0  0  0  0
    0.7250   -0.6025   24.7500 H   0  0  0  0  0  0  0  0  0  0  0  0
    0.3471    0.0744   26.3714 H   0  0  0  0  0  0  0  0  0  0  0  0
    3.1770    2.5745   25.2163 H   0  0  0  0  0  0  0  0  0  0  0  0
    0.9021    1.1926   23.0804 H   0  0  0  0  0  0  0  0  0  0  0  0
   -0.4306    1.7282   24.1654 H   0  0  0  0  0  0  0  0  0  0  0  0
    0.8834    2.8750   23.7198 H   0  0  0  0  0  0  0  0  0  0  0  0
    2.8894    0.2395   23.2928 H   0  0  0  0  0  0  0  0  0  0  0  0
    4.5229    0.7495   23.7926 H   0  0  0  0  0  0  0  0  0  0  0  0
    9.3774    3.7195   25.4591 H   0  0  0  0  0  0  0  0  0  0  0  0
    8.4924    3.5311   23.9269 H   0  0  0  0  0  0  0  0  0  0  0  0
    1.1317    2.0151   25.8757 H   0  0  0  0  0  0  0  0  0  0  0  0
  1 28  1  0  0  0  0
  1 33  3  0  0  0  0
  2  4  2  0  0  0  0
  2 10  1  0  0  0  0
  3  5  1  0  0  0  0
  3 12  2  0  0  0  0
  4 15  1  0  0  0  0
  5 16  2  0  0  0  0
  6 11  1  0  0  0  0
  6 15  2  0  0  0  0
  7 13  2  0  0  0  0
  7 16  1  0  0  0  0
  8 10  1  0  0  0  0
  8 34  2  0  0  0  0
  9 14  2  0  0  0  0
  9 34  1  0  0  0  0
 10 11  2  0  0  0  0
 11 14  1  0  0  0  0
 12 13  1  0  0  0  0
 12 18  1  0  0  0  0
 13 29  1  0  0  0  0
 14 35  1  0  0  0  0
 15 41  1  0  0  0  0
 16 43  1  0  0  0  0
 17 29  1  0  0  0  0
 17 35  1  0  0  0  0
 17 38  2  0  0  0  0
 18 36  1  0  0  0  0
 19 20  1  0  0  0  0
 19 26  1  0  0  0  0
 20 27  1  0  0  0  0
 21 22  1  0  0  0  0
 21 28  1  0  0  0  0
 22 28  1  0  0  0  0
 23 24  1  0  0  0  0
 23 29  1  0  0  0  0
 24 35  1  0  0  0  0
 25 29  1  0  0  0  0
 25 36  1  0  0  0  0
 26 37  1  0  0  0  0
 27 31  1  6  0  0  0
 27 37  1  0  0  0  0
 28 32  1  0  0  0  0
 30 37  1  6  0  0  0
 31 41  1  0  0  0  0
 32 42  1  0  0  0  0
 36 42  1  6  0  0  0
 39 42  2  0  0  0  0
 40 42  2  0  0  0  0
  2 44  1  0  0  0  0
  3 45  1  0  0  0  0
  4 46  1  0  0  0  0
  5 47  1  0  0  0  0
  6 48  1  0  0  0  0
  7 49  1  0  0  0  0
  8 50  1  0  0  0  0
  9 51  1  0  0  0  0
 18 52  1  0  0  0  0
 18 53  1  0  0  0  0
 19 54  1  0  0  0  0
 19 55  1  0  0  0  0
 20 56  1  0  0  0  0
 20 57  1  0  0  0  0
 21 58  1  0  0  0  0
 21 59  1  0  0  0  0
 22 60  1  0  0  0  0
 22 61  1  0  0  0  0
 23 62  1  0  0  0  0
 23 63  1  0  0  0  0
 24 64  1  0  0  0  0
 24 65  1  0  0  0  0
 25 66  1  0  0  0  0
 25 67  1  0  0  0  0
 26 68  1  0  0  0  0
 26 69  1  0  0  0  0
 27 70  1  0  0  0  0
 30 71  1  0  0  0  0
 30 72  1  0  0  0  0
 30 73  1  0  0  0  0
 31 74  1  0  0  0  0
 31 75  1  0  0  0  0
 32 76  1  0  0  0  0
 32 77  1  0  0  0  0
 37 78  1  0  0  0  0
M  CHG  1  37   1
M  END
> <compound>
MAT-POS-40ad851a-1

> <compound_smiles>
CN1CCCC1COc2ccc3cncc(c3c2)N4CCC5(C4=O)CN(Cc6c5cc(cc6)Cl)S(=O)(=O)CC7(CC7)C#N

> <enantiomer_smiles>
C[N@]1CCC[C@H]1COc2ccc3cncc(c3c2)N4CCC5(C4=O)C[N@](Cc6c5cc(cc6)Cl)S(=O)(=O)CC7(CC7)C#N

> <scaffold>
tetrahydroisoquinoline-5spiro-isoquinoline

> <clash_score>
0

> <docking_score>
-6.789604663848877

> <overlap_score>
0.9695025086402893

> <MMFF_internal_energy>
140.33888135815087

> <docked_smiles>
C[N@H+]1CCC[C@H]1COc2ccc3cncc(c3c2)N4CC[C@@]5(C4=O)C[N@](Cc6c5cc(cc6)Cl)S(=O)(=O)CC7(CC7)C#N

$$$$
EDJ-MED-468565e0-2_1
  -OEChem-12272114583D

 79 85  0     1  0  0  0  0  0999 V2000
    9.5881    5.6615   24.2579 C   0  0  0  0  0  0  0  0  0  0  0  0
    3.7865    2.4205   19.1660 C   0  0  0  0  0  0  0  0  0  0  0  0
   12.0765    0.0316   24.1541 C   0  0  0  0  0  0  0  0  0  0  0  0
    3.3432    2.6279   20.4411 C   0  0  0  0  0  0  0  0  0  0  0  0
   12.9132   -0.6032   23.2569 C   0  0  0  0  0  0  0  0  0  0  0  0
    4.8973    1.0233   21.2988 C   0  0  0  0  0  0  0  0  0  0  0  0
   10.9991   -1.4331   22.0443 C   0  0  0  0  0  0  0  0  0  0  0  0
    5.3278    1.2339   17.6066 C   0  0  0  0  0  0  0  0  0  0  0  0
    6.8438   -0.2892   18.3752 C   0  0  0  0  0  0  0  0  0  0  0  0
    4.8226    1.4906   18.9054 C   0  0  0  0  0  0  0  0  0  0  0  0
    5.3982    0.7733   19.9948 C   0  0  0  0  0  0  0  0  0  0  0  0
   10.7040   -0.0625   23.9898 C   0  0  0  0  0  0  0  0  0  0  0  0
   10.1406   -0.7765   22.9250 C   0  0  0  0  0  0  0  0  0  0  0  0
    6.4440   -0.1472   19.6979 C   0  0  0  0  0  0  0  0  0  0  0  0
    3.8960    1.9291   21.5050 C   0  0  0  0  0  0  0  0  0  0  0  0
   12.3683   -1.3298   22.2234 C   0  0  0  0  0  0  0  0  0  0  0  0
    8.2490    0.0169   21.4271 C   0  0  0  0  0  0  0  0  0  0  0  0
    9.9479    0.5589   24.9534 C   0  0  0  0  0  0  0  0  0  0  0  0
    7.2212    5.9018   25.0923 C   0  0  0  0  0  0  0  0  0  0  0  0
    7.1474    5.4411   23.6665 C   0  0  0  0  0  0  0  0  0  0  0  0
    8.0140   -2.1541   22.4331 C   0  0  0  0  0  0  0  0  0  0  0  0
    6.9866   -1.9366   21.3580 C   0  0  0  0  0  0  0  0  0  0  0  0
    7.8721   -0.1194   23.8831 C   0  0  0  0  0  0  0  0  0  0  0  0
    0.9555    2.7876   25.9858 C   0  0  0  0  0  0  0  0  0  0  0  0
    0.5535    0.7658   24.5896 C   0  0  0  0  0  0  0  0  0  0  0  0
    0.6474    1.9292   27.2012 C   0  0  0  0  0  0  0  0  0  0  0  0
    0.2666    0.0133   25.8782 C   0  0  0  0  0  0  0  0  0  0  0  0
    8.3214    5.0316   24.5273 C   0  0  0  0  0  0  0  0  0  0  0  0
    8.6238   -0.7606   22.6929 C   0  0  3  0  0  0  0  0  0  0  0  0
    8.3989    3.5932   24.9882 C   0  0  0  0  0  0  0  0  0  0  0  0
    2.9234    1.5199   25.0352 C   0  0  0  0  0  0  0  0  0  0  0  0
    3.4781    1.0738   23.6967 C   0  0  0  0  0  0  0  0  0  0  0  0
   10.6086    6.1691   24.0409 N   0  0  0  0  0  0  0  0  0  0  0  0
    6.3062    0.3769   17.3421 N   0  0  0  0  0  0  0  0  0  0  0  0
    7.2292   -0.6897   20.7790 N   0  0  0  0  0  0  0  0  0  0  0  0
    8.6609    1.0133   24.4995 N   0  0  1  0  0  0  0  0  0  0  0  0
    1.4843    1.9222   24.8669 N   0  3  0  0  0  0  0  0  0  0  0  0
    8.7572    1.0941   21.1350 O   0  0  0  0  0  0  0  0  0  0  0  0
    7.4179    2.5201   22.8172 O   0  0  0  0  0  0  0  0  0  0  0  0
    9.9251    2.7322   23.0499 O   0  0  0  0  0  0  0  0  0  0  0  0
   -0.2755    0.8934   26.8632 O   0  0  0  0  0  0  0  0  0  0  0  0
    3.4227    2.1582   22.7715 O   0  0  0  0  0  0  0  0  0  0  0  0
    8.6198    2.4832   23.6217 S   0  0  0  0  0  0  0  0  0  0  0  0
   13.4275   -2.1421   21.1097 Cl  0  0  0  0  0  0  0  0  0  0  0  0
    3.3406    2.9746   18.3368 H   0  0  0  0  0  0  0  0  0  0  0  0
   12.5015    0.5938   24.9776 H   0  0  0  0  0  0  0  0  0  0  0  0
    2.5407    3.3506   20.6306 H   0  0  0  0  0  0  0  0  0  0  0  0
   13.9911   -0.5212   23.3814 H   0  0  0  0  0  0  0  0  0  0  0  0
    5.3162    0.4858   22.1535 H   0  0  0  0  0  0  0  0  0  0  0  0
   10.6037   -2.0228   21.2288 H   0  0  0  0  0  0  0  0  0  0  0  0
    4.9131    1.7514   16.7479 H   0  0  0  0  0  0  0  0  0  0  0  0
    7.6448   -0.9758   18.1041 H   0  0  0  0  0  0  0  0  0  0  0  0
    9.7581   -0.1287   25.8173 H   0  0  0  0  0  0  0  0  0  0  0  0
   10.4931    1.4391   25.3829 H   0  0  0  0  0  0  0  0  0  0  0  0
    7.4214    6.9523   25.2708 H   0  0  0  0  0  0  0  0  0  0  0  0
    6.5254    5.4641   25.7988 H   0  0  0  0  0  0  0  0  0  0  0  0
    6.4012    4.6953   23.4178 H   0  0  0  0  0  0  0  0  0  0  0  0
    7.2972    6.1838   22.8911 H   0  0  0  0  0  0  0  0  0  0  0  0
    7.5801   -2.6060   23.3366 H   0  0  0  0  0  0  0  0  0  0  0  0
    8.7749   -2.8608   22.0657 H   0  0  0  0  0  0  0  0  0  0  0  0
    7.0227   -2.7506   20.5953 H   0  0  0  0  0  0  0  0  0  0  0  0
    5.9554   -1.9484   21.7832 H   0  0  0  0  0  0  0  0  0  0  0  0
    6.8886    0.2769   23.5666 H   0  0  0  0  0  0  0  0  0  0  0  0
    7.6579   -0.8710   24.6633 H   0  0  0  0  0  0  0  0  0  0  0  0
    0.0523    3.2929   25.6166 H   0  0  0  0  0  0  0  0  0  0  0  0
    1.7325    3.5341   26.2075 H   0  0  0  0  0  0  0  0  0  0  0  0
    1.0548    0.1227   23.8513 H   0  0  0  0  0  0  0  0  0  0  0  0
   -0.3681    1.1779   24.1558 H   0  0  0  0  0  0  0  0  0  0  0  0
    1.5656    1.4502   27.5562 H   0  0  0  0  0  0  0  0  0  0  0  0
    0.2473    2.5263   28.0298 H   0  0  0  0  0  0  0  0  0  0  0  0
   -0.4191   -0.8267   25.7143 H   0  0  0  0  0  0  0  0  0  0  0  0
    1.1985   -0.3974   26.2798 H   0  0  0  0  0  0  0  0  0  0  0  0
    7.4792    3.2960   25.4995 H   0  0  0  0  0  0  0  0  0  0  0  0
    9.2447    3.4440   25.6648 H   0  0  0  0  0  0  0  0  0  0  0  0
    3.4453    2.3981   25.4256 H   0  0  0  0  0  0  0  0  0  0  0  0
    2.9389    0.7102   25.7695 H   0  0  0  0  0  0  0  0  0  0  0  0
    4.5260    0.7786   23.8085 H   0  0  0  0  0  0  0  0  0  0  0  0
    2.9161    0.2279   23.2877 H   0  0  0  0  0  0  0  0  0  0  0  0
    1.4555    2.5273   23.9985 H   0  0  0  0  0  0  0  0  0  0  0  0
  1 28  1  0  0  0  0
  1 33  3  0  0  0  0
  2  4  1  0  0  0  0
  2 10  2  0  0  0  0
  3  5  1  0  0  0  0
  3 12  2  0  0  0  0
  4 15  2  0  0  0  0
  5 16  2  0  0  0  0
  6 11  2  0  0  0  0
  6 15  1  0  0  0  0
  7 13  2  0  0  0  0
  7 16  1  0  0  0  0
  8 10  1  0  0  0  0
  8 34  2  0  0  0  0
  9 14  2  0  0  0  0
  9 34  1  0  0  0  0
 10 11  1  0  0  0  0
 11 14  1  0  0  0  0
 12 13  1  0  0  0  0
 12 18  1  0  0  0  0
 13 29  1  0  0  0  0
 14 35  1  0  0  0  0
 15 42  1  0  0  0  0
 16 44  1  0  0  0  0
 17 29  1  0  0  0  0
 17 35  1  0  0  0  0
 17 38  2  0  0  0  0
 18 36  1  0  0  0  0
 19 20  1  0  0  0  0
 19 28  1  0  0  0  0
 20 28  1  0  0  0  0
 21 22  1  0  0  0  0
 21 29  1  0  0  0  0
 22 35  1  0  0  0  0
 23 29  1  0  0  0  0
 23 36  1  0  0  0  0
 24 26  1  0  0  0  0
 24 37  1  0  0  0  0
 25 27  1  0  0  0  0
 25 37  1  0  0  0  0
 26 41  1  0  0  0  0
 27 41  1  0  0  0  0
 28 30  1  0  0  0  0
 30 43  1  0  0  0  0
 31 32  1  0  0  0  0
 31 37  1  0  0  0  0
 32 42  1  0  0  0  0
 36 43  1  1  0  0  0
 39 43  2  0  0  0  0
 40 43  2  0  0  0  0
  2 45  1  0  0  0  0
  3 46  1  0  0  0  0
  4 47  1  0  0  0  0
  5 48  1  0  0  0  0
  6 49  1  0  0  0  0
  7 50  1  0  0  0  0
  8 51  1  0  0  0  0
  9 52  1  0  0  0  0
 18 53  1  0  0  0  0
 18 54  1  0  0  0  0
 19 55  1  0  0  0  0
 19 56  1  0  0  0  0
 20 57  1  0  0  0  0
 20 58  1  0  0  0  0
 21 59  1  0  0  0  0
 21 60  1  0  0  0  0
 22 61  1  0  0  0  0
 22 62  1  0  0  0  0
 23 63  1  0  0  0  0
 23 64  1  0  0  0  0
 24 65  1  0  0  0  0
 24 66  1  0  0  0  0
 25 67  1  0  0  0  0
 25 68  1  0  0  0  0
 26 69  1  0  0  0  0
 26 70  1  0  0  0  0
 27 71  1  0  0  0  0
 27 72  1  0  0  0  0
 30 73  1  0  0  0  0
 30 74  1  0  0  0  0
 31 75  1  0  0  0  0
 31 76  1  0  0  0  0
 32 77  1  0  0  0  0
 32 78  1  0  0  0  0
 37 79  1  0  0  0  0
M  CHG  1  37   1
M  END
> <compound>
EDJ-MED-468565e0-2

> <compound_smiles>
c1cc2cncc(c2cc1OCCN3CCOCC3)N4CCC5(C4=O)CN(Cc6c5cc(cc6)Cl)S(=O)(=O)CC7(CC7)C#N

> <enantiomer_smiles>
c1cc2cncc(c2cc1OCCN3CCOCC3)N4CCC5(C4=O)C[N@@](Cc6c5cc(cc6)Cl)S(=O)(=O)CC7(CC7)C#N

> <scaffold>
tetrahydroisoquinoline-5spiro-isoquinoline

> <clash_score>
0

> <docking_score>
-6.851525783538818

> <overlap_score>
0.9713764190673828

> <MMFF_internal_energy>
231.22910361734492

> <docked_smiles>
c1cc2cncc(c2cc1OCC[NH+]3CCOCC3)N4CC[C@@]5(C4=O)C[N@@](Cc6c5cc(cc6)Cl)S(=O)(=O)CC7(CC7)C#N

$$$$
MAT-POS-40ad851a-1_6
  -OEChem-12272114583D

 78 84  0     1  0  0  0  0  0999 V2000
    6.3155    4.9014   24.5578 C   0  0  0  0  0  0  0  0  0  0  0  0
    3.7865    2.4205   19.1660 C   0  0  0  0  0  0  0  0  0  0  0  0
   12.0765    0.0316   24.1541 C   0  0  0  0  0  0  0  0  0  0  0  0
    3.3432    2.6279   20.4411 C   0  0  0  0  0  0  0  0  0  0  0  0
   12.9132   -0.6032   23.2569 C   0  0  0  0  0  0  0  0  0  0  0  0
    4.8973    1.0233   21.2988 C   0  0  0  0  0  0  0  0  0  0  0  0
   10.9991   -1.4331   22.0443 C   0  0  0  0  0  0  0  0  0  0  0  0
    5.3278    1.2339   17.6066 C   0  0  0  0  0  0  0  0  0  0  0  0
    6.8438   -0.2892   18.3752 C   0  0  0  0  0  0  0  0  0  0  0  0
    4.8226    1.4906   18.9054 C   0  0  0  0  0  0  0  0  0  0  0  0
    5.3982    0.7733   19.9948 C   0  0  0  0  0  0  0  0  0  0  0  0
   10.7040   -0.0625   23.9898 C   0  0  0  0  0  0  0  0  0  0  0  0
   10.1406   -0.7765   22.9250 C   0  0  0  0  0  0  0  0  0  0  0  0
    6.4440   -0.1472   19.6979 C   0  0  0  0  0  0  0  0  0  0  0  0
    3.8960    1.9291   21.5050 C   0  0  0  0  0  0  0  0  0  0  0  0
   12.3683   -1.3298   22.2234 C   0  0  0  0  0  0  0  0  0  0  0  0
    8.2490    0.0169   21.4271 C   0  0  0  0  0  0  0  0  0  0  0  0
    9.9479    0.5589   24.9534 C   0  0  0  0  0  0  0  0  0  0  0  0
    0.7142   -0.1567   25.8848 C   0  0  0  0  0  0  0  0  0  0  0  0
    2.0169   -0.4092   25.1539 C   0  0  0  0  0  0  0  0  0  0  0  0
    8.0723    5.9546   26.0276 C   0  0  0  0  0  0  0  0  0  0  0  0
    7.2836    5.0077   26.8831 C   0  0  0  0  0  0  0  0  0  0  0  0
    8.0140   -2.1541   22.4331 C   0  0  0  0  0  0  0  0  0  0  0  0
    6.9866   -1.9366   21.3580 C   0  0  0  0  0  0  0  0  0  0  0  0
    7.8721   -0.1194   23.8831 C   0  0  0  0  0  0  0  0  0  0  0  0
    0.7323    1.3391   26.1356 C   0  0  0  0  0  0  0  0  0  0  0  0
    2.0774    0.7513   24.1712 C   0  0  2  0  0  0  0  0  0  0  0  0
    7.4618    4.7167   25.4097 C   0  0  0  0  0  0  0  0  0  0  0  0
    8.6238   -0.7606   22.6929 C   0  0  3  0  0  0  0  0  0  0  0  0
    0.7257    2.8895   24.1421 C   0  0  0  0  0  0  0  0  0  0  0  0
    3.4815    1.0690   23.6908 C   0  0  0  0  0  0  0  0  0  0  0  0
    8.3874    3.5882   25.0137 C   0  0  0  0  0  0  0  0  0  0  0  0
    5.3921    5.0503   23.8713 N   0  0  0  0  0  0  0  0  0  0  0  0
    6.3062    0.3769   17.3421 N   0  0  0  0  0  0  0  0  0  0  0  0
    7.2292   -0.6897   20.7790 N   0  0  0  0  0  0  0  0  0  0  0  0
    8.6609    1.0133   24.4995 N   0  0  2  0  0  0  0  0  0  0  0  0
    1.5143    1.9203   24.9690 N   0  3  1  0  0  0  0  0  0  0  0  0
    8.8299    1.0397   21.0799 O   0  0  0  0  0  0  0  0  0  0  0  0
    8.2407    1.8013   26.9144 O   0  0  0  0  0  0  0  0  0  0  0  0
    6.3653    1.9471   25.2271 O   0  0  0  0  0  0  0  0  0  0  0  0
    3.4227    2.1582   22.7714 O   0  0  0  0  0  0  0  0  0  0  0  0
    7.7708    2.0177   25.5632 S   0  0  0  0  0  0  0  0  0  0  0  0
   13.4272   -2.1411   21.1086 Cl  0  0  0  0  0  0  0  0  0  0  0  0
    3.3406    2.9746   18.3368 H   0  0  0  0  0  0  0  0  0  0  0  0
   12.5024    0.5995   24.9735 H   0  0  0  0  0  0  0  0  0  0  0  0
    2.5407    3.3506   20.6306 H   0  0  0  0  0  0  0  0  0  0  0  0
   13.9910   -0.5177   23.3793 H   0  0  0  0  0  0  0  0  0  0  0  0
    5.3162    0.4858   22.1535 H   0  0  0  0  0  0  0  0  0  0  0  0
   10.6036   -2.0162   21.2241 H   0  0  0  0  0  0  0  0  0  0  0  0
    4.9131    1.7514   16.7479 H   0  0  0  0  0  0  0  0  0  0  0  0
    7.6448   -0.9758   18.1041 H   0  0  0  0  0  0  0  0  0  0  0  0
    9.7849   -0.1194   25.8306 H   0  0  0  0  0  0  0  0  0  0  0  0
   10.4793    1.4568   25.3613 H   0  0  0  0  0  0  0  0  0  0  0  0
   -0.1377   -0.4252   25.2488 H   0  0  0  0  0  0  0  0  0  0  0  0
    0.6425   -0.7299   26.8135 H   0  0  0  0  0  0  0  0  0  0  0  0
    2.8603   -0.3864   25.8547 H   0  0  0  0  0  0  0  0  0  0  0  0
    2.0187   -1.3786   24.6466 H   0  0  0  0  0  0  0  0  0  0  0  0
    7.6321    6.9216   25.8116 H   0  0  0  0  0  0  0  0  0  0  0  0
    9.1462    5.9865   26.1712 H   0  0  0  0  0  0  0  0  0  0  0  0
    7.8293    4.4058   27.6006 H   0  0  0  0  0  0  0  0  0  0  0  0
    6.3160    5.3417   27.2402 H   0  0  0  0  0  0  0  0  0  0  0  0
    7.5152   -2.5456   23.3338 H   0  0  0  0  0  0  0  0  0  0  0  0
    8.7649   -2.9030   22.1434 H   0  0  0  0  0  0  0  0  0  0  0  0
    7.0587   -2.7248   20.5721 H   0  0  0  0  0  0  0  0  0  0  0  0
    5.9518   -1.9952   21.7720 H   0  0  0  0  0  0  0  0  0  0  0  0
    6.8867    0.2641   23.5642 H   0  0  0  0  0  0  0  0  0  0  0  0
    7.6652   -0.8660   24.6733 H   0  0  0  0  0  0  0  0  0  0  0  0
   -0.2680    1.7804   26.1748 H   0  0  0  0  0  0  0  0  0  0  0  0
    1.2916    1.5945   27.0415 H   0  0  0  0  0  0  0  0  0  0  0  0
    1.4015    0.5725   23.3262 H   0  0  0  0  0  0  0  0  0  0  0  0
   -0.1160    2.3486   23.7058 H   0  0  0  0  0  0  0  0  0  0  0  0
    0.3800    3.6877   24.8018 H   0  0  0  0  0  0  0  0  0  0  0  0
    1.3858    3.2805   23.3655 H   0  0  0  0  0  0  0  0  0  0  0  0
    3.9188    0.2034   23.1842 H   0  0  0  0  0  0  0  0  0  0  0  0
    4.1204    1.3523   24.5325 H   0  0  0  0  0  0  0  0  0  0  0  0
    9.3774    3.7195   25.4591 H   0  0  0  0  0  0  0  0  0  0  0  0
    8.4924    3.5311   23.9269 H   0  0  0  0  0  0  0  0  0  0  0  0
    2.3032    2.4433   25.3734 H   0  0  0  0  0  0  0  0  0  0  0  0
  1 28  1  0  0  0  0
  1 33  3  0  0  0  0
  2  4  2  0  0  0  0
  2 10  1  0  0  0  0
  3  5  1  0  0  0  0
  3 12  2  0  0  0  0
  4 15  1  0  0  0  0
  5 16  2  0  0  0  0
  6 11  1  0  0  0  0
  6 15  2  0  0  0  0
  7 13  2  0  0  0  0
  7 16  1  0  0  0  0
  8 10  1  0  0  0  0
  8 34  2  0  0  0  0
  9 14  2  0  0  0  0
  9 34  1  0  0  0  0
 10 11  2  0  0  0  0
 11 14  1  0  0  0  0
 12 13  1  0  0  0  0
 12 18  1  0  0  0  0
 13 29  1  0  0  0  0
 14 35  1  0  0  0  0
 15 41  1  0  0  0  0
 16 43  1  0  0  0  0
 17 29  1  0  0  0  0
 17 35  1  0  0  0  0
 17 38  2  0  0  0  0
 18 36  1  0  0  0  0
 19 20  1  0  0  0  0
 19 26  1  0  0  0  0
 20 27  1  0  0  0  0
 21 22  1  0  0  0  0
 21 28  1  0  0  0  0
 22 28  1  0  0  0  0
 23 24  1  0  0  0  0
 23 29  1  0  0  0  0
 24 35  1  0  0  0  0
 25 29  1  0  0  0  0
 25 36  1  0  0  0  0
 26 37  1  0  0  0  0
 27 31  1  1  0  0  0
 27 37  1  0  0  0  0
 28 32  1  0  0  0  0
 30 37  1  6  0  0  0
 31 41  1  0  0  0  0
 32 42  1  0  0  0  0
 36 42  1  6  0  0  0
 39 42  2  0  0  0  0
 40 42  2  0  0  0  0
  2 44  1  0  0  0  0
  3 45  1  0  0  0  0
  4 46  1  0  0  0  0
  5 47  1  0  0  0  0
  6 48  1  0  0  0  0
  7 49  1  0  0  0  0
  8 50  1  0  0  0  0
  9 51  1  0  0  0  0
 18 52  1  0  0  0  0
 18 53  1  0  0  0  0
 19 54  1  0  0  0  0
 19 55  1  0  0  0  0
 20 56  1  0  0  0  0
 20 57  1  0  0  0  0
 21 58  1  0  0  0  0
 21 59  1  0  0  0  0
 22 60  1  0  0  0  0
 22 61  1  0  0  0  0
 23 62  1  0  0  0  0
 23 63  1  0  0  0  0
 24 64  1  0  0  0  0
 24 65  1  0  0  0  0
 25 66  1  0  0  0  0
 25 67  1  0  0  0  0
 26 68  1  0  0  0  0
 26 69  1  0  0  0  0
 27 70  1  0  0  0  0
 30 71  1  0  0  0  0
 30 72  1  0  0  0  0
 30 73  1  0  0  0  0
 31 74  1  0  0  0  0
 31 75  1  0  0  0  0
 32 76  1  0  0  0  0
 32 77  1  0  0  0  0
 37 78  1  0  0  0  0
M  CHG  1  37   1
M  END
> <compound>
MAT-POS-40ad851a-1

> <compound_smiles>
CN1CCCC1COc2ccc3cncc(c3c2)N4CCC5(C4=O)CN(Cc6c5cc(cc6)Cl)S(=O)(=O)CC7(CC7)C#N

> <enantiomer_smiles>
C[N@]1CCC[C@@H]1COc2ccc3cncc(c3c2)N4CCC5(C4=O)C[N@](Cc6c5cc(cc6)Cl)S(=O)(=O)CC7(CC7)C#N

> <scaffold>
tetrahydroisoquinoline-5spiro-isoquinoline

> <clash_score>
0

> <docking_score>
-6.664010524749756

> <overlap_score>
0.9696118235588074

> <MMFF_internal_energy>
141.76637810847728

> <docked_smiles>
C[N@H+]1CCC[C@@H]1COc2ccc3cncc(c3c2)N4CC[C@@]5(C4=O)C[N@](Cc6c5cc(cc6)Cl)S(=O)(=O)CC7(CC7)C#N

$$$$
EDJ-MED-468565e0-1_1
  -OEChem-12272114583D

 78 84  0     1  0  0  0  0  0999 V2000
    7.2540    5.3272   23.6070 C   0  0  0  0  0  0  0  0  0  0  0  0
    3.7865    2.4205   19.1660 C   0  0  0  0  0  0  0  0  0  0  0  0
   12.0765    0.0316   24.1541 C   0  0  0  0  0  0  0  0  0  0  0  0
    3.3432    2.6279   20.4411 C   0  0  0  0  0  0  0  0  0  0  0  0
   12.9132   -0.6032   23.2569 C   0  0  0  0  0  0  0  0  0  0  0  0
    4.8973    1.0233   21.2988 C   0  0  0  0  0  0  0  0  0  0  0  0
   10.9991   -1.4331   22.0443 C   0  0  0  0  0  0  0  0  0  0  0  0
    5.3278    1.2339   17.6066 C   0  0  0  0  0  0  0  0  0  0  0  0
    6.8438   -0.2892   18.3752 C   0  0  0  0  0  0  0  0  0  0  0  0
    4.8226    1.4906   18.9054 C   0  0  0  0  0  0  0  0  0  0  0  0
    5.3982    0.7733   19.9948 C   0  0  0  0  0  0  0  0  0  0  0  0
   10.7040   -0.0625   23.9898 C   0  0  0  0  0  0  0  0  0  0  0  0
   10.1406   -0.7765   22.9250 C   0  0  0  0  0  0  0  0  0  0  0  0
    6.4440   -0.1472   19.6979 C   0  0  0  0  0  0  0  0  0  0  0  0
    3.8960    1.9291   21.5050 C   0  0  0  0  0  0  0  0  0  0  0  0
   12.3683   -1.3298   22.2234 C   0  0  0  0  0  0  0  0  0  0  0  0
    8.2490    0.0169   21.4271 C   0  0  0  0  0  0  0  0  0  0  0  0
    9.9479    0.5589   24.9534 C   0  0  0  0  0  0  0  0  0  0  0  0
    1.6913   -2.1164   26.1779 C   0  0  0  0  0  0  0  0  0  0  0  0
    0.6936   -1.1568   26.7944 C   0  0  0  0  0  0  0  0  0  0  0  0
    9.6156    5.7947   24.3554 C   0  0  0  0  0  0  0  0  0  0  0  0
    8.7103    6.1153   25.5079 C   0  0  0  0  0  0  0  0  0  0  0  0
    8.0140   -2.1541   22.4331 C   0  0  0  0  0  0  0  0  0  0  0  0
    6.9866   -1.9366   21.3580 C   0  0  0  0  0  0  0  0  0  0  0  0
    7.8721   -0.1194   23.8831 C   0  0  0  0  0  0  0  0  0  0  0  0
    2.3014   -1.2891   25.0669 C   0  0  0  0  0  0  0  0  0  0  0  0
    1.4276    0.1724   26.8199 C   0  0  0  0  0  0  0  0  0  0  0  0
    8.3214    5.0316   24.5273 C   0  0  0  0  0  0  0  0  0  0  0  0
    8.6238   -0.7606   22.6929 C   0  0  3  0  0  0  0  0  0  0  0  0
    8.3989    3.5932   24.9882 C   0  0  0  0  0  0  0  0  0  0  0  0
    2.3469    1.2026   24.6978 C   0  0  0  0  0  0  0  0  0  0  0  0
    3.4781    1.0738   23.6967 C   0  0  0  0  0  0  0  0  0  0  0  0
    6.3941    5.5654   22.8654 N   0  0  0  0  0  0  0  0  0  0  0  0
    6.3062    0.3769   17.3421 N   0  0  0  0  0  0  0  0  0  0  0  0
    7.2292   -0.6897   20.7790 N   0  0  0  0  0  0  0  0  0  0  0  0
    8.6609    1.0133   24.4995 N   0  0  1  0  0  0  0  0  0  0  0  0
    2.4335    0.0848   25.6867 N   0  3  0  0  0  0  0  0  0  0  0  0
    8.7572    1.0941   21.1350 O   0  0  0  0  0  0  0  0  0  0  0  0
    7.4179    2.5201   22.8172 O   0  0  0  0  0  0  0  0  0  0  0  0
    9.9251    2.7322   23.0499 O   0  0  0  0  0  0  0  0  0  0  0  0
    3.4227    2.1582   22.7714 O   0  0  0  0  0  0  0  0  0  0  0  0
    8.6198    2.4832   23.6217 S   0  0  0  0  0  0  0  0  0  0  0  0
   13.4275   -2.1421   21.1097 Cl  0  0  0  0  0  0  0  0  0  0  0  0
    3.3406    2.9746   18.3368 H   0  0  0  0  0  0  0  0  0  0  0  0
   12.5015    0.5938   24.9776 H   0  0  0  0  0  0  0  0  0  0  0  0
    2.5407    3.3506   20.6306 H   0  0  0  0  0  0  0  0  0  0  0  0
   13.9911   -0.5212   23.3814 H   0  0  0  0  0  0  0  0  0  0  0  0
    5.3162    0.4858   22.1535 H   0  0  0  0  0  0  0  0  0  0  0  0
   10.6037   -2.0228   21.2288 H   0  0  0  0  0  0  0  0  0  0  0  0
    4.9131    1.7514   16.7479 H   0  0  0  0  0  0  0  0  0  0  0  0
    7.6448   -0.9758   18.1041 H   0  0  0  0  0  0  0  0  0  0  0  0
    9.7581   -0.1287   25.8173 H   0  0  0  0  0  0  0  0  0  0  0  0
   10.4931    1.4391   25.3829 H   0  0  0  0  0  0  0  0  0  0  0  0
    2.4550   -2.4018   26.9110 H   0  0  0  0  0  0  0  0  0  0  0  0
    1.2145   -3.0265   25.8035 H   0  0  0  0  0  0  0  0  0  0  0  0
   -0.1988   -1.0820   26.1617 H   0  0  0  0  0  0  0  0  0  0  0  0
    0.3776   -1.4728   27.7928 H   0  0  0  0  0  0  0  0  0  0  0  0
    9.6926    6.5261   23.5588 H   0  0  0  0  0  0  0  0  0  0  0  0
   10.5488    5.2887   24.5746 H   0  0  0  0  0  0  0  0  0  0  0  0
    9.0377    5.8247   26.4995 H   0  0  0  0  0  0  0  0  0  0  0  0
    8.1824    7.0618   25.4826 H   0  0  0  0  0  0  0  0  0  0  0  0
    7.5801   -2.6060   23.3366 H   0  0  0  0  0  0  0  0  0  0  0  0
    8.7749   -2.8608   22.0657 H   0  0  0  0  0  0  0  0  0  0  0  0
    7.0227   -2.7506   20.5953 H   0  0  0  0  0  0  0  0  0  0  0  0
    5.9554   -1.9484   21.7832 H   0  0  0  0  0  0  0  0  0  0  0  0
    6.8886    0.2769   23.5666 H   0  0  0  0  0  0  0  0  0  0  0  0
    7.6579   -0.8710   24.6633 H   0  0  0  0  0  0  0  0  0  0  0  0
    3.2916   -1.6290   24.7551 H   0  0  0  0  0  0  0  0  0  0  0  0
    1.6273   -1.2087   24.2083 H   0  0  0  0  0  0  0  0  0  0  0  0
    0.7632    1.0258   26.6583 H   0  0  0  0  0  0  0  0  0  0  0  0
    2.0005    0.3076   27.7423 H   0  0  0  0  0  0  0  0  0  0  0  0
    7.4792    3.2960   25.4995 H   0  0  0  0  0  0  0  0  0  0  0  0
    9.2447    3.4440   25.6648 H   0  0  0  0  0  0  0  0  0  0  0  0
    1.3652    1.1190   24.2233 H   0  0  0  0  0  0  0  0  0  0  0  0
    2.4159    2.1324   25.2686 H   0  0  0  0  0  0  0  0  0  0  0  0
    4.4406    1.1215   24.2155 H   0  0  0  0  0  0  0  0  0  0  0  0
    3.4231    0.1307   23.1434 H   0  0  0  0  0  0  0  0  0  0  0  0
    3.3687    0.1293   26.1164 H   0  0  0  0  0  0  0  0  0  0  0  0
  1 28  1  0  0  0  0
  1 33  3  0  0  0  0
  2  4  1  0  0  0  0
  2 10  2  0  0  0  0
  3  5  1  0  0  0  0
  3 12  2  0  0  0  0
  4 15  2  0  0  0  0
  5 16  2  0  0  0  0
  6 11  2  0  0  0  0
  6 15  1  0  0  0  0
  7 13  2  0  0  0  0
  7 16  1  0  0  0  0
  8 10  1  0  0  0  0
  8 34  2  0  0  0  0
  9 14  2  0  0  0  0
  9 34  1  0  0  0  0
 10 11  1  0  0  0  0
 11 14  1  0  0  0  0
 12 13  1  0  0  0  0
 12 18  1  0  0  0  0
 13 29  1  0  0  0  0
 14 35  1  0  0  0  0
 15 41  1  0  0  0  0
 16 43  1  0  0  0  0
 17 29  1  0  0  0  0
 17 35  1  0  0  0  0
 17 38  2  0  0  0  0
 18 36  1  0  0  0  0
 19 20  1  0  0  0  0
 19 26  1  0  0  0  0
 20 27  1  0  0  0  0
 21 22  1  0  0  0  0
 21 28  1  0  0  0  0
 22 28  1  0  0  0  0
 23 24  1  0  0  0  0
 23 29  1  0  0  0  0
 24 35  1  0  0  0  0
 25 29  1  0  0  0  0
 25 36  1  0  0  0  0
 26 37  1  0  0  0  0
 27 37  1  0  0  0  0
 28 30  1  0  0  0  0
 30 42  1  0  0  0  0
 31 32  1  0  0  0  0
 31 37  1  0  0  0  0
 32 41  1  0  0  0  0
 36 42  1  1  0  0  0
 39 42  2  0  0  0  0
 40 42  2  0  0  0  0
  2 44  1  0  0  0  0
  3 45  1  0  0  0  0
  4 46  1  0  0  0  0
  5 47  1  0  0  0  0
  6 48  1  0  0  0  0
  7 49  1  0  0  0  0
  8 50  1  0  0  0  0
  9 51  1  0  0  0  0
 18 52  1  0  0  0  0
 18 53  1  0  0  0  0
 19 54  1  0  0  0  0
 19 55  1  0  0  0  0
 20 56  1  0  0  0  0
 20 57  1  0  0  0  0
 21 58  1  0  0  0  0
 21 59  1  0  0  0  0
 22 60  1  0  0  0  0
 22 61  1  0  0  0  0
 23 62  1  0  0  0  0
 23 63  1  0  0  0  0
 24 64  1  0  0  0  0
 24 65  1  0  0  0  0
 25 66  1  0  0  0  0
 25 67  1  0  0  0  0
 26 68  1  0  0  0  0
 26 69  1  0  0  0  0
 27 70  1  0  0  0  0
 27 71  1  0  0  0  0
 30 72  1  0  0  0  0
 30 73  1  0  0  0  0
 31 74  1  0  0  0  0
 31 75  1  0  0  0  0
 32 76  1  0  0  0  0
 32 77  1  0  0  0  0
 37 78  1  0  0  0  0
M  CHG  1  37   1
M  END
> <compound>
EDJ-MED-468565e0-1

> <compound_smiles>
c1cc2cncc(c2cc1OCCN3CCCC3)N4CCC5(C4=O)CN(Cc6c5cc(cc6)Cl)S(=O)(=O)CC7(CC7)C#N

> <enantiomer_smiles>
c1cc2cncc(c2cc1OCCN3CCCC3)N4CCC5(C4=O)C[N@@](Cc6c5cc(cc6)Cl)S(=O)(=O)CC7(CC7)C#N

> <scaffold>
tetrahydroisoquinoline-5spiro-isoquinoline

> <clash_score>
0

> <docking_score>
-6.876587390899658

> <overlap_score>
0.9730969071388245

> <MMFF_internal_energy>
165.88019969798583

> <docked_smiles>
c1cc2cncc(c2cc1OCC[NH+]3CCCC3)N4CC[C@@]5(C4=O)C[N@@](Cc6c5cc(cc6)Cl)S(=O)(=O)CC7(CC7)C#N

$$$$
MAT-POS-40ad851a-5_2
  -OEChem-12272114583D

 81 87  0     1  0  0  0  0  0999 V2000
    6.3155    4.9014   24.5578 C   0  0  0  0  0  0  0  0  0  0  0  0
    3.7865    2.4205   19.1660 C   0  0  0  0  0  0  0  0  0  0  0  0
   12.0765    0.0316   24.1541 C   0  0  0  0  0  0  0  0  0  0  0  0
    3.3432    2.6279   20.4411 C   0  0  0  0  0  0  0  0  0  0  0  0
   12.9132   -0.6032   23.2569 C   0  0  0  0  0  0  0  0  0  0  0  0
    4.8973    1.0233   21.2988 C   0  0  0  0  0  0  0  0  0  0  0  0
   10.9991   -1.4331   22.0443 C   0  0  0  0  0  0  0  0  0  0  0  0
    5.3278    1.2339   17.6066 C   0  0  0  0  0  0  0  0  0  0  0  0
    6.8438   -0.2892   18.3752 C   0  0  0  0  0  0  0  0  0  0  0  0
    4.8226    1.4906   18.9054 C   0  0  0  0  0  0  0  0  0  0  0  0
    5.3982    0.7733   19.9948 C   0  0  0  0  0  0  0  0  0  0  0  0
   10.7040   -0.0625   23.9898 C   0  0  0  0  0  0  0  0  0  0  0  0
   10.1406   -0.7765   22.9250 C   0  0  0  0  0  0  0  0  0  0  0  0
    6.4440   -0.1472   19.6979 C   0  0  0  0  0  0  0  0  0  0  0  0
    3.8960    1.9291   21.5050 C   0  0  0  0  0  0  0  0  0  0  0  0
   12.3683   -1.3298   22.2234 C   0  0  0  0  0  0  0  0  0  0  0  0
    8.2490    0.0169   21.4271 C   0  0  0  0  0  0  0  0  0  0  0  0
    9.9479    0.5589   24.9534 C   0  0  0  0  0  0  0  0  0  0  0  0
    1.0368    5.5162   23.8635 C   0  0  0  0  0  0  0  0  0  0  0  0
   -0.2860    4.8135   23.6333 C   0  0  0  0  0  0  0  0  0  0  0  0
    8.0723    5.9546   26.0276 C   0  0  0  0  0  0  0  0  0  0  0  0
    7.2836    5.0077   26.8831 C   0  0  0  0  0  0  0  0  0  0  0  0
    8.0140   -2.1541   22.4331 C   0  0  0  0  0  0  0  0  0  0  0  0
    6.9866   -1.9366   21.3580 C   0  0  0  0  0  0  0  0  0  0  0  0
    7.8721   -0.1194   23.8831 C   0  0  0  0  0  0  0  0  0  0  0  0
    1.8232    4.4895   24.6498 C   0  0  0  0  0  0  0  0  0  0  0  0
    0.1081    3.3841   23.3049 C   0  0  0  0  0  0  0  0  0  0  0  0
    7.4618    4.7167   25.4097 C   0  0  0  0  0  0  0  0  0  0  0  0
    8.6238   -0.7606   22.6929 C   0  0  3  0  0  0  0  0  0  0  0  0
    8.3874    3.5882   25.0137 C   0  0  0  0  0  0  0  0  0  0  0  0
    2.9331    1.5281   25.0342 C   0  0  0  0  0  0  0  0  0  0  0  0
    1.4961    2.0053   24.9117 C   0  0  0  0  0  0  0  0  0  0  0  0
    3.4815    1.0690   23.6908 C   0  0  0  0  0  0  0  0  0  0  0  0
    5.3920    5.0503   23.8714 N   0  0  0  0  0  0  0  0  0  0  0  0
    6.3062    0.3769   17.3421 N   0  0  0  0  0  0  0  0  0  0  0  0
    7.2292   -0.6897   20.7790 N   0  0  0  0  0  0  0  0  0  0  0  0
    8.6609    1.0133   24.4995 N   0  0  2  0  0  0  0  0  0  0  0  0
    1.4473    3.1811   23.9897 N   0  3  0  0  0  0  0  0  0  0  0  0
    8.8299    1.0397   21.0799 O   0  0  0  0  0  0  0  0  0  0  0  0
    8.2407    1.8013   26.9144 O   0  0  0  0  0  0  0  0  0  0  0  0
    6.3653    1.9471   25.2271 O   0  0  0  0  0  0  0  0  0  0  0  0
    3.4227    2.1582   22.7714 O   0  0  0  0  0  0  0  0  0  0  0  0
    7.7708    2.0177   25.5632 S   0  0  0  0  0  0  0  0  0  0  0  0
   13.4272   -2.1411   21.1086 Cl  0  0  0  0  0  0  0  0  0  0  0  0
    3.3406    2.9746   18.3368 H   0  0  0  0  0  0  0  0  0  0  0  0
   12.5024    0.5995   24.9735 H   0  0  0  0  0  0  0  0  0  0  0  0
    2.5407    3.3506   20.6306 H   0  0  0  0  0  0  0  0  0  0  0  0
   13.9910   -0.5177   23.3793 H   0  0  0  0  0  0  0  0  0  0  0  0
    5.3162    0.4858   22.1535 H   0  0  0  0  0  0  0  0  0  0  0  0
   10.6036   -2.0162   21.2241 H   0  0  0  0  0  0  0  0  0  0  0  0
    4.9131    1.7514   16.7479 H   0  0  0  0  0  0  0  0  0  0  0  0
    7.6448   -0.9758   18.1041 H   0  0  0  0  0  0  0  0  0  0  0  0
    9.7849   -0.1194   25.8306 H   0  0  0  0  0  0  0  0  0  0  0  0
   10.4793    1.4568   25.3613 H   0  0  0  0  0  0  0  0  0  0  0  0
    1.5299    5.7317   22.9082 H   0  0  0  0  0  0  0  0  0  0  0  0
    0.9177    6.4555   24.4106 H   0  0  0  0  0  0  0  0  0  0  0  0
   -0.8900    4.8368   24.5482 H   0  0  0  0  0  0  0  0  0  0  0  0
   -0.8665    5.2763   22.8300 H   0  0  0  0  0  0  0  0  0  0  0  0
    7.6321    6.9216   25.8116 H   0  0  0  0  0  0  0  0  0  0  0  0
    9.1461    5.9865   26.1712 H   0  0  0  0  0  0  0  0  0  0  0  0
    7.8293    4.4058   27.6006 H   0  0  0  0  0  0  0  0  0  0  0  0
    6.3160    5.3417   27.2402 H   0  0  0  0  0  0  0  0  0  0  0  0
    7.5152   -2.5456   23.3338 H   0  0  0  0  0  0  0  0  0  0  0  0
    8.7649   -2.9030   22.1434 H   0  0  0  0  0  0  0  0  0  0  0  0
    7.0587   -2.7248   20.5721 H   0  0  0  0  0  0  0  0  0  0  0  0
    5.9518   -1.9952   21.7720 H   0  0  0  0  0  0  0  0  0  0  0  0
    6.8867    0.2641   23.5642 H   0  0  0  0  0  0  0  0  0  0  0  0
    7.6652   -0.8660   24.6733 H   0  0  0  0  0  0  0  0  0  0  0  0
    2.9059    4.6167   24.5839 H   0  0  0  0  0  0  0  0  0  0  0  0
    1.4971    4.4462   25.6937 H   0  0  0  0  0  0  0  0  0  0  0  0
   -0.6115    2.6505   23.6788 H   0  0  0  0  0  0  0  0  0  0  0  0
    0.2742    3.2400   22.2331 H   0  0  0  0  0  0  0  0  0  0  0  0
    9.3774    3.7195   25.4591 H   0  0  0  0  0  0  0  0  0  0  0  0
    8.4924    3.5311   23.9269 H   0  0  0  0  0  0  0  0  0  0  0  0
    3.0042    0.7043   25.7560 H   0  0  0  0  0  0  0  0  0  0  0  0
    3.5710    2.3274   25.4325 H   0  0  0  0  0  0  0  0  0  0  0  0
    1.0913    2.3380   25.8721 H   0  0  0  0  0  0  0  0  0  0  0  0
    0.8446    1.2383   24.4828 H   0  0  0  0  0  0  0  0  0  0  0  0
    2.8881    0.2416   23.2890 H   0  0  0  0  0  0  0  0  0  0  0  0
    4.5239    0.7479   23.7838 H   0  0  0  0  0  0  0  0  0  0  0  0
    2.1386    3.0142   23.2443 H   0  0  0  0  0  0  0  0  0  0  0  0
  1 28  1  0  0  0  0
  1 34  3  0  0  0  0
  2  4  1  0  0  0  0
  2 10  2  0  0  0  0
  3  5  1  0  0  0  0
  3 12  2  0  0  0  0
  4 15  2  0  0  0  0
  5 16  2  0  0  0  0
  6 11  2  0  0  0  0
  6 15  1  0  0  0  0
  7 13  2  0  0  0  0
  7 16  1  0  0  0  0
  8 10  1  0  0  0  0
  8 35  2  0  0  0  0
  9 14  2  0  0  0  0
  9 35  1  0  0  0  0
 10 11  1  0  0  0  0
 11 14  1  0  0  0  0
 12 13  1  0  0  0  0
 12 18  1  0  0  0  0
 13 29  1  0  0  0  0
 14 36  1  0  0  0  0
 15 42  1  0  0  0  0
 16 44  1  0  0  0  0
 17 29  1  0  0  0  0
 17 36  1  0  0  0  0
 17 39  2  0  0  0  0
 18 37  1  0  0  0  0
 19 20  1  0  0  0  0
 19 26  1  0  0  0  0
 20 27  1  0  0  0  0
 21 22  1  0  0  0  0
 21 28  1  0  0  0  0
 22 28  1  0  0  0  0
 23 24  1  0  0  0  0
 23 29  1  0  0  0  0
 24 36  1  0  0  0  0
 25 29  1  0  0  0  0
 25 37  1  0  0  0  0
 26 38  1  0  0  0  0
 27 38  1  0  0  0  0
 28 30  1  0  0  0  0
 30 43  1  0  0  0  0
 31 32  1  0  0  0  0
 31 33  1  0  0  0  0
 32 38  1  0  0  0  0
 33 42  1  0  0  0  0
 37 43  1  6  0  0  0
 40 43  2  0  0  0  0
 41 43  2  0  0  0  0
  2 45  1  0  0  0  0
  3 46  1  0  0  0  0
  4 47  1  0  0  0  0
  5 48  1  0  0  0  0
  6 49  1  0  0  0  0
  7 50  1  0  0  0  0
  8 51  1  0  0  0  0
  9 52  1  0  0  0  0
 18 53  1  0  0  0  0
 18 54  1  0  0  0  0
 19 55  1  0  0  0  0
 19 56  1  0  0  0  0
 20 57  1  0  0  0  0
 20 58  1  0  0  0  0
 21 59  1  0  0  0  0
 21 60  1  0  0  0  0
 22 61  1  0  0  0  0
 22 62  1  0  0  0  0
 23 63  1  0  0  0  0
 23 64  1  0  0  0  0
 24 65  1  0  0  0  0
 24 66  1  0  0  0  0
 25 67  1  0  0  0  0
 25 68  1  0  0  0  0
 26 69  1  0  0  0  0
 26 70  1  0  0  0  0
 27 71  1  0  0  0  0
 27 72  1  0  0  0  0
 30 73  1  0  0  0  0
 30 74  1  0  0  0  0
 31 75  1  0  0  0  0
 31 76  1  0  0  0  0
 32 77  1  0  0  0  0
 32 78  1  0  0  0  0
 33 79  1  0  0  0  0
 33 80  1  0  0  0  0
 38 81  1  0  0  0  0
M  CHG  1  38   1
M  END
> <compound>
MAT-POS-40ad851a-5

> <compound_smiles>
c1cc2cncc(c2cc1OCCCN3CCCC3)N4CCC5(C4=O)CN(Cc6c5cc(cc6)Cl)S(=O)(=O)CC7(CC7)C#N

> <enantiomer_smiles>
c1cc2cncc(c2cc1OCCCN3CCCC3)N4CCC5(C4=O)C[N@](Cc6c5cc(cc6)Cl)S(=O)(=O)CC7(CC7)C#N

> <scaffold>
tetrahydroisoquinoline-5spiro-isoquinoline

> <clash_score>
0

> <docking_score>
-6.1397318840026855

> <overlap_score>
0.9681108593940735

> <MMFF_internal_energy>
107.86114144527987

> <docked_smiles>
c1cc2cncc(c2cc1OCCC[NH+]3CCCC3)N4CC[C@@]5(C4=O)C[N@](Cc6c5cc(cc6)Cl)S(=O)(=O)CC7(CC7)C#N

$$$$
EDJ-MED-468565e0-3_1
  -OEChem-12272114583D

 80 86  0     1  0  0  0  0  0999 V2000
    9.4878    5.5221   23.8398 C   0  0  0  0  0  0  0  0  0  0  0  0
    3.7865    2.4205   19.1660 C   0  0  0  0  0  0  0  0  0  0  0  0
   12.0765    0.0316   24.1541 C   0  0  0  0  0  0  0  0  0  0  0  0
    3.3432    2.6279   20.4411 C   0  0  0  0  0  0  0  0  0  0  0  0
   12.9132   -0.6032   23.2569 C   0  0  0  0  0  0  0  0  0  0  0  0
    4.8973    1.0233   21.2988 C   0  0  0  0  0  0  0  0  0  0  0  0
   10.9991   -1.4331   22.0443 C   0  0  0  0  0  0  0  0  0  0  0  0
    5.3278    1.2339   17.6066 C   0  0  0  0  0  0  0  0  0  0  0  0
    6.8438   -0.2892   18.3752 C   0  0  0  0  0  0  0  0  0  0  0  0
    4.8226    1.4906   18.9054 C   0  0  0  0  0  0  0  0  0  0  0  0
    5.3982    0.7733   19.9948 C   0  0  0  0  0  0  0  0  0  0  0  0
   10.7040   -0.0625   23.9898 C   0  0  0  0  0  0  0  0  0  0  0  0
   10.1406   -0.7765   22.9250 C   0  0  0  0  0  0  0  0  0  0  0  0
    6.4440   -0.1472   19.6979 C   0  0  0  0  0  0  0  0  0  0  0  0
    3.8960    1.9291   21.5050 C   0  0  0  0  0  0  0  0  0  0  0  0
   12.3683   -1.3298   22.2234 C   0  0  0  0  0  0  0  0  0  0  0  0
    8.2490    0.0169   21.4271 C   0  0  0  0  0  0  0  0  0  0  0  0
    9.9479    0.5589   24.9534 C   0  0  0  0  0  0  0  0  0  0  0  0
    7.5599    6.0147   25.3877 C   0  0  0  0  0  0  0  0  0  0  0  0
    6.9786    5.5645   24.0800 C   0  0  0  0  0  0  0  0  0  0  0  0
    8.0140   -2.1541   22.4331 C   0  0  0  0  0  0  0  0  0  0  0  0
    6.9866   -1.9366   21.3580 C   0  0  0  0  0  0  0  0  0  0  0  0
    2.5944    4.0295   24.6492 C   0  0  0  0  0  0  0  0  0  0  0  0
    3.4993    3.4959   26.8523 C   0  0  0  0  0  0  0  0  0  0  0  0
    7.8721   -0.1194   23.8831 C   0  0  0  0  0  0  0  0  0  0  0  0
    2.8871    5.5233   24.7241 C   0  0  0  0  0  0  0  0  0  0  0  0
    3.9032    4.9239   27.1992 C   0  0  0  0  0  0  0  0  0  0  0  0
    8.3214    5.0316   24.5273 C   0  0  0  0  0  0  0  0  0  0  0  0
    8.6238   -0.7606   22.6929 C   0  0  3  0  0  0  0  0  0  0  0  0
    8.3989    3.5932   24.9882 C   0  0  0  0  0  0  0  0  0  0  0  0
    3.3597    1.8049   25.1480 C   0  0  0  0  0  0  0  0  0  0  0  0
    4.0184    1.4190   23.8362 C   0  0  0  0  0  0  0  0  0  0  0  0
   10.4275    5.9174   23.2859 N   0  0  0  0  0  0  0  0  0  0  0  0
    6.3062    0.3769   17.3421 N   0  0  0  0  0  0  0  0  0  0  0  0
    7.2292   -0.6897   20.7790 N   0  0  0  0  0  0  0  0  0  0  0  0
    8.6609    1.0133   24.4995 N   0  0  1  0  0  0  0  0  0  0  0  0
    3.5750    3.2314   25.4051 N   0  0  0  0  0  0  0  0  0  0  0  0
    8.7572    1.0941   21.1350 O   0  0  0  0  0  0  0  0  0  0  0  0
    3.5186    7.3995   26.4380 O   0  0  0  0  0  0  0  0  0  0  0  0
    1.5061    5.9525   26.9134 O   0  0  0  0  0  0  0  0  0  0  0  0
    7.4179    2.5201   22.8172 O   0  0  0  0  0  0  0  0  0  0  0  0
    9.9251    2.7322   23.0499 O   0  0  0  0  0  0  0  0  0  0  0  0
    3.4227    2.1582   22.7714 O   0  0  0  0  0  0  0  0  0  0  0  0
    2.8523    6.1128   26.3999 S   0  0  0  0  0  0  0  0  0  0  0  0
    8.6198    2.4832   23.6217 S   0  0  0  0  0  0  0  0  0  0  0  0
   13.4275   -2.1421   21.1097 Cl  0  0  0  0  0  0  0  0  0  0  0  0
    3.3406    2.9746   18.3368 H   0  0  0  0  0  0  0  0  0  0  0  0
   12.5015    0.5938   24.9776 H   0  0  0  0  0  0  0  0  0  0  0  0
    2.5407    3.3506   20.6306 H   0  0  0  0  0  0  0  0  0  0  0  0
   13.9911   -0.5212   23.3814 H   0  0  0  0  0  0  0  0  0  0  0  0
    5.3162    0.4858   22.1535 H   0  0  0  0  0  0  0  0  0  0  0  0
   10.6037   -2.0228   21.2288 H   0  0  0  0  0  0  0  0  0  0  0  0
    4.9131    1.7514   16.7479 H   0  0  0  0  0  0  0  0  0  0  0  0
    7.6448   -0.9758   18.1041 H   0  0  0  0  0  0  0  0  0  0  0  0
    9.7581   -0.1287   25.8173 H   0  0  0  0  0  0  0  0  0  0  0  0
   10.4931    1.4391   25.3829 H   0  0  0  0  0  0  0  0  0  0  0  0
    7.9126    7.0377   25.4548 H   0  0  0  0  0  0  0  0  0  0  0  0
    7.0920    5.6542   26.2966 H   0  0  0  0  0  0  0  0  0  0  0  0
    6.1206    4.9030   24.1131 H   0  0  0  0  0  0  0  0  0  0  0  0
    6.9417    6.2868   23.2725 H   0  0  0  0  0  0  0  0  0  0  0  0
    7.5801   -2.6060   23.3366 H   0  0  0  0  0  0  0  0  0  0  0  0
    8.7749   -2.8608   22.0657 H   0  0  0  0  0  0  0  0  0  0  0  0
    7.0227   -2.7506   20.5953 H   0  0  0  0  0  0  0  0  0  0  0  0
    5.9554   -1.9484   21.7832 H   0  0  0  0  0  0  0  0  0  0  0  0
    1.5732    3.8255   25.0026 H   0  0  0  0  0  0  0  0  0  0  0  0
    2.6262    3.7433   23.5886 H   0  0  0  0  0  0  0  0  0  0  0  0
    4.1858    2.8239   27.3857 H   0  0  0  0  0  0  0  0  0  0  0  0
    2.4893    3.2843   27.2325 H   0  0  0  0  0  0  0  0  0  0  0  0
    6.8886    0.2769   23.5666 H   0  0  0  0  0  0  0  0  0  0  0  0
    7.6579   -0.8710   24.6633 H   0  0  0  0  0  0  0  0  0  0  0  0
    3.8772    5.7517   24.3155 H   0  0  0  0  0  0  0  0  0  0  0  0
    2.1415    6.0948   24.1633 H   0  0  0  0  0  0  0  0  0  0  0  0
    3.8297    5.0983   28.2772 H   0  0  0  0  0  0  0  0  0  0  0  0
    4.9318    5.1299   26.8845 H   0  0  0  0  0  0  0  0  0  0  0  0
    7.4792    3.2960   25.4995 H   0  0  0  0  0  0  0  0  0  0  0  0
    9.2447    3.4440   25.6648 H   0  0  0  0  0  0  0  0  0  0  0  0
    2.2811    1.6205   25.1198 H   0  0  0  0  0  0  0  0  0  0  0  0
    3.7984    1.2392   25.9754 H   0  0  0  0  0  0  0  0  0  0  0  0
    3.8618    0.3543   23.6373 H   0  0  0  0  0  0  0  0  0  0  0  0
    5.0936    1.6253   23.8497 H   0  0  0  0  0  0  0  0  0  0  0  0
  1 28  1  0  0  0  0
  1 33  3  0  0  0  0
  2  4  1  0  0  0  0
  2 10  2  0  0  0  0
  3  5  1  0  0  0  0
  3 12  2  0  0  0  0
  4 15  2  0  0  0  0
  5 16  2  0  0  0  0
  6 11  2  0  0  0  0
  6 15  1  0  0  0  0
  7 13  2  0  0  0  0
  7 16  1  0  0  0  0
  8 10  1  0  0  0  0
  8 34  2  0  0  0  0
  9 14  2  0  0  0  0
  9 34  1  0  0  0  0
 10 11  1  0  0  0  0
 11 14  1  0  0  0  0
 12 13  1  0  0  0  0
 12 18  1  0  0  0  0
 13 29  1  0  0  0  0
 14 35  1  0  0  0  0
 15 43  1  0  0  0  0
 16 46  1  0  0  0  0
 17 29  1  0  0  0  0
 17 35  1  0  0  0  0
 17 38  2  0  0  0  0
 18 36  1  0  0  0  0
 19 20  1  0  0  0  0
 19 28  1  0  0  0  0
 20 28  1  0  0  0  0
 21 22  1  0  0  0  0
 21 29  1  0  0  0  0
 22 35  1  0  0  0  0
 23 26  1  0  0  0  0
 23 37  1  0  0  0  0
 24 27  1  0  0  0  0
 24 37  1  0  0  0  0
 25 29  1  0  0  0  0
 25 36  1  0  0  0  0
 26 44  1  0  0  0  0
 27 44  1  0  0  0  0
 28 30  1  0  0  0  0
 30 45  1  0  0  0  0
 31 32  1  0  0  0  0
 31 37  1  0  0  0  0
 32 43  1  0  0  0  0
 36 45  1  1  0  0  0
 39 44  2  0  0  0  0
 40 44  2  0  0  0  0
 41 45  2  0  0  0  0
 42 45  2  0  0  0  0
  2 47  1  0  0  0  0
  3 48  1  0  0  0  0
  4 49  1  0  0  0  0
  5 50  1  0  0  0  0
  6 51  1  0  0  0  0
  7 52  1  0  0  0  0
  8 53  1  0  0  0  0
  9 54  1  0  0  0  0
 18 55  1  0  0  0  0
 18 56  1  0  0  0  0
 19 57  1  0  0  0  0
 19 58  1  0  0  0  0
 20 59  1  0  0  0  0
 20 60  1  0  0  0  0
 21 61  1  0  0  0  0
 21 62  1  0  0  0  0
 22 63  1  0  0  0  0
 22 64  1  0  0  0  0
 23 65  1  0  0  0  0
 23 66  1  0  0  0  0
 24 67  1  0  0  0  0
 24 68  1  0  0  0  0
 25 69  1  0  0  0  0
 25 70  1  0  0  0  0
 26 71  1  0  0  0  0
 26 72  1  0  0  0  0
 27 73  1  0  0  0  0
 27 74  1  0  0  0  0
 30 75  1  0  0  0  0
 30 76  1  0  0  0  0
 31 77  1  0  0  0  0
 31 78  1  0  0  0  0
 32 79  1  0  0  0  0
 32 80  1  0  0  0  0
M  END
> <compound>
EDJ-MED-468565e0-3

> <compound_smiles>
c1cc2cncc(c2cc1OCCN3CCS(=O)(=O)CC3)N4CCC5(C4=O)CN(Cc6c5cc(cc6)Cl)S(=O)(=O)CC7(CC7)C#N

> <enantiomer_smiles>
c1cc2cncc(c2cc1OCCN3CCS(=O)(=O)CC3)N4CCC5(C4=O)C[N@@](Cc6c5cc(cc6)Cl)S(=O)(=O)CC7(CC7)C#N

> <scaffold>
tetrahydroisoquinoline-5spiro-isoquinoline

> <clash_score>
0

> <docking_score>
-5.169540882110596

> <overlap_score>
0.9688185453414917

> <MMFF_internal_energy>
138.93714232917017

> <docked_smiles>
c1cc2cncc(c2cc1OCCN3CCS(=O)(=O)CC3)N4CC[C@@]5(C4=O)C[N@@](Cc6c5cc(cc6)Cl)S(=O)(=O)CC7(CC7)C#N

$$$$
EDJ-MED-468565e0-5_1
  -OEChem-12272114583D

 74 80  0     1  0  0  0  0  0999 V2000
    9.5881    5.6615   24.2579 C   0  0  0  0  0  0  0  0  0  0  0  0
    3.7865    2.4205   19.1660 C   0  0  0  0  0  0  0  0  0  0  0  0
   12.0765    0.0316   24.1541 C   0  0  0  0  0  0  0  0  0  0  0  0
    3.3432    2.6279   20.4411 C   0  0  0  0  0  0  0  0  0  0  0  0
   12.9132   -0.6032   23.2569 C   0  0  0  0  0  0  0  0  0  0  0  0
    4.8973    1.0233   21.2988 C   0  0  0  0  0  0  0  0  0  0  0  0
   10.9991   -1.4331   22.0443 C   0  0  0  0  0  0  0  0  0  0  0  0
    5.3278    1.2339   17.6066 C   0  0  0  0  0  0  0  0  0  0  0  0
    6.8438   -0.2892   18.3752 C   0  0  0  0  0  0  0  0  0  0  0  0
    4.8226    1.4906   18.9054 C   0  0  0  0  0  0  0  0  0  0  0  0
    5.3982    0.7733   19.9948 C   0  0  0  0  0  0  0  0  0  0  0  0
   10.7040   -0.0625   23.9898 C   0  0  0  0  0  0  0  0  0  0  0  0
   10.1406   -0.7765   22.9250 C   0  0  0  0  0  0  0  0  0  0  0  0
    6.4440   -0.1472   19.6979 C   0  0  0  0  0  0  0  0  0  0  0  0
    3.8960    1.9291   21.5050 C   0  0  0  0  0  0  0  0  0  0  0  0
   12.3683   -1.3298   22.2234 C   0  0  0  0  0  0  0  0  0  0  0  0
    8.2490    0.0169   21.4271 C   0  0  0  0  0  0  0  0  0  0  0  0
    9.9479    0.5589   24.9534 C   0  0  0  0  0  0  0  0  0  0  0  0
    7.2212    5.9018   25.0923 C   0  0  0  0  0  0  0  0  0  0  0  0
    7.1474    5.4411   23.6665 C   0  0  0  0  0  0  0  0  0  0  0  0
    8.0140   -2.1541   22.4331 C   0  0  0  0  0  0  0  0  0  0  0  0
    6.9866   -1.9366   21.3580 C   0  0  0  0  0  0  0  0  0  0  0  0
    7.8721   -0.1194   23.8831 C   0  0  0  0  0  0  0  0  0  0  0  0
    1.7994   -1.1412   24.9800 C   0  0  0  0  0  0  0  0  0  0  0  0
    1.2052    0.1167   26.5303 C   0  0  0  0  0  0  0  0  0  0  0  0
    8.3214    5.0316   24.5273 C   0  0  0  0  0  0  0  0  0  0  0  0
    8.6238   -0.7606   22.6929 C   0  0  3  0  0  0  0  0  0  0  0  0
    1.0215   -1.3958   26.2878 C   0  0  0  0  0  0  0  0  0  0  0  0
    8.3989    3.5932   24.9882 C   0  0  0  0  0  0  0  0  0  0  0  0
    2.3345    1.1973   24.6870 C   0  0  0  0  0  0  0  0  0  0  0  0
    3.4781    1.0738   23.6967 C   0  0  0  0  0  0  0  0  0  0  0  0
   10.6086    6.1691   24.0409 N   0  0  0  0  0  0  0  0  0  0  0  0
    6.3062    0.3769   17.3421 N   0  0  0  0  0  0  0  0  0  0  0  0
    7.2292   -0.6897   20.7790 N   0  0  0  0  0  0  0  0  0  0  0  0
    8.6609    1.0133   24.4995 N   0  0  1  0  0  0  0  0  0  0  0  0
    2.3653    0.0709   25.6128 N   0  0  0  0  0  0  0  0  0  0  0  0
    8.7572    1.0941   21.1350 O   0  0  0  0  0  0  0  0  0  0  0  0
    7.4179    2.5201   22.8172 O   0  0  0  0  0  0  0  0  0  0  0  0
    9.9251    2.7322   23.0499 O   0  0  0  0  0  0  0  0  0  0  0  0
    3.4227    2.1582   22.7715 O   0  0  0  0  0  0  0  0  0  0  0  0
   -0.2511   -1.8256   26.1488 F   0  0  0  0  0  0  0  0  0  0  0  0
    1.6235   -2.2128   27.1818 F   0  0  0  0  0  0  0  0  0  0  0  0
    8.6198    2.4832   23.6217 S   0  0  0  0  0  0  0  0  0  0  0  0
   13.4275   -2.1421   21.1097 Cl  0  0  0  0  0  0  0  0  0  0  0  0
    3.3406    2.9746   18.3368 H   0  0  0  0  0  0  0  0  0  0  0  0
   12.5015    0.5938   24.9776 H   0  0  0  0  0  0  0  0  0  0  0  0
    2.5407    3.3506   20.6306 H   0  0  0  0  0  0  0  0  0  0  0  0
   13.9911   -0.5212   23.3814 H   0  0  0  0  0  0  0  0  0  0  0  0
    5.3162    0.4858   22.1535 H   0  0  0  0  0  0  0  0  0  0  0  0
   10.6037   -2.0228   21.2288 H   0  0  0  0  0  0  0  0  0  0  0  0
    4.9131    1.7514   16.7479 H   0  0  0  0  0  0  0  0  0  0  0  0
    7.6448   -0.9758   18.1041 H   0  0  0  0  0  0  0  0  0  0  0  0
    9.7581   -0.1287   25.8173 H   0  0  0  0  0  0  0  0  0  0  0  0
   10.4931    1.4391   25.3829 H   0  0  0  0  0  0  0  0  0  0  0  0
    7.4214    6.9523   25.2708 H   0  0  0  0  0  0  0  0  0  0  0  0
    6.5254    5.4641   25.7988 H   0  0  0  0  0  0  0  0  0  0  0  0
    6.4012    4.6953   23.4178 H   0  0  0  0  0  0  0  0  0  0  0  0
    7.2972    6.1838   22.8911 H   0  0  0  0  0  0  0  0  0  0  0  0
    7.5801   -2.6060   23.3366 H   0  0  0  0  0  0  0  0  0  0  0  0
    8.7749   -2.8608   22.0657 H   0  0  0  0  0  0  0  0  0  0  0  0
    7.0227   -2.7506   20.5953 H   0  0  0  0  0  0  0  0  0  0  0  0
    5.9554   -1.9484   21.7832 H   0  0  0  0  0  0  0  0  0  0  0  0
    6.8886    0.2769   23.5666 H   0  0  0  0  0  0  0  0  0  0  0  0
    7.6579   -0.8710   24.6633 H   0  0  0  0  0  0  0  0  0  0  0  0
    2.5476   -1.9011   24.7317 H   0  0  0  0  0  0  0  0  0  0  0  0
    1.1503   -0.9900   24.1073 H   0  0  0  0  0  0  0  0  0  0  0  0
    0.3433    0.7184   26.2130 H   0  0  0  0  0  0  0  0  0  0  0  0
    1.4643    0.3921   27.5580 H   0  0  0  0  0  0  0  0  0  0  0  0
    7.4792    3.2960   25.4995 H   0  0  0  0  0  0  0  0  0  0  0  0
    9.2447    3.4440   25.6648 H   0  0  0  0  0  0  0  0  0  0  0  0
    2.4112    2.1215   25.2685 H   0  0  0  0  0  0  0  0  0  0  0  0
    1.3739    1.1823   24.1633 H   0  0  0  0  0  0  0  0  0  0  0  0
    3.3847    0.1417   23.1308 H   0  0  0  0  0  0  0  0  0  0  0  0
    4.4501    1.0899   24.2003 H   0  0  0  0  0  0  0  0  0  0  0  0
  1 26  1  0  0  0  0
  1 32  3  0  0  0  0
  2  4  1  0  0  0  0
  2 10  2  0  0  0  0
  3  5  1  0  0  0  0
  3 12  2  0  0  0  0
  4 15  2  0  0  0  0
  5 16  2  0  0  0  0
  6 11  2  0  0  0  0
  6 15  1  0  0  0  0
  7 13  2  0  0  0  0
  7 16  1  0  0  0  0
  8 10  1  0  0  0  0
  8 33  2  0  0  0  0
  9 14  2  0  0  0  0
  9 33  1  0  0  0  0
 10 11  1  0  0  0  0
 11 14  1  0  0  0  0
 12 13  1  0  0  0  0
 12 18  1  0  0  0  0
 13 27  1  0  0  0  0
 14 34  1  0  0  0  0
 15 40  1  0  0  0  0
 16 44  1  0  0  0  0
 17 27  1  0  0  0  0
 17 34  1  0  0  0  0
 17 37  2  0  0  0  0
 18 35  1  0  0  0  0
 19 20  1  0  0  0  0
 19 26  1  0  0  0  0
 20 26  1  0  0  0  0
 21 22  1  0  0  0  0
 21 27  1  0  0  0  0
 22 34  1  0  0  0  0
 23 27  1  0  0  0  0
 23 35  1  0  0  0  0
 24 28  1  0  0  0  0
 24 36  1  0  0  0  0
 25 28  1  0  0  0  0
 25 36  1  0  0  0  0
 26 29  1  0  0  0  0
 28 41  1  0  0  0  0
 28 42  1  0  0  0  0
 29 43  1  0  0  0  0
 30 31  1  0  0  0  0
 30 36  1  0  0  0  0
 31 40  1  0  0  0  0
 35 43  1  1  0  0  0
 38 43  2  0  0  0  0
 39 43  2  0  0  0  0
  2 45  1  0  0  0  0
  3 46  1  0  0  0  0
  4 47  1  0  0  0  0
  5 48  1  0  0  0  0
  6 49  1  0  0  0  0
  7 50  1  0  0  0  0
  8 51  1  0  0  0  0
  9 52  1  0  0  0  0
 18 53  1  0  0  0  0
 18 54  1  0  0  0  0
 19 55  1  0  0  0  0
 19 56  1  0  0  0  0
 20 57  1  0  0  0  0
 20 58  1  0  0  0  0
 21 59  1  0  0  0  0
 21 60  1  0  0  0  0
 22 61  1  0  0  0  0
 22 62  1  0  0  0  0
 23 63  1  0  0  0  0
 23 64  1  0  0  0  0
 24 65  1  0  0  0  0
 24 66  1  0  0  0  0
 25 67  1  0  0  0  0
 25 68  1  0  0  0  0
 29 69  1  0  0  0  0
 29 70  1  0  0  0  0
 30 71  1  0  0  0  0
 30 72  1  0  0  0  0
 31 73  1  0  0  0  0
 31 74  1  0  0  0  0
M  END
> <compound>
EDJ-MED-468565e0-5

> <compound_smiles>
c1cc2cncc(c2cc1OCCN3CC(C3)(F)F)N4CCC5(C4=O)CN(Cc6c5cc(cc6)Cl)S(=O)(=O)CC7(CC7)C#N

> <enantiomer_smiles>
c1cc2cncc(c2cc1OCCN3CC(C3)(F)F)N4CCC5(C4=O)C[N@@](Cc6c5cc(cc6)Cl)S(=O)(=O)CC7(CC7)C#N

> <scaffold>
tetrahydroisoquinoline-5spiro-isoquinoline

> <clash_score>
0

> <docking_score>
-7.035831451416016

> <overlap_score>
0.9709019660949707

> <MMFF_internal_energy>
187.59217328460966

> <docked_smiles>
c1cc2cncc(c2cc1OCCN3CC(C3)(F)F)N4CC[C@@]5(C4=O)C[N@@](Cc6c5cc(cc6)Cl)S(=O)(=O)CC7(CC7)C#N

$$$$
LUO-POS-d1147590-1_2
  -OEChem-12272114583D

 78 84  0     1  0  0  0  0  0999 V2000
    6.3913    4.6228   23.9319 C   0  0  0  0  0  0  0  0  0  0  0  0
    3.7865    2.4205   19.1660 C   0  0  0  0  0  0  0  0  0  0  0  0
   12.0765    0.0316   24.1541 C   0  0  0  0  0  0  0  0  0  0  0  0
    3.3432    2.6279   20.4411 C   0  0  0  0  0  0  0  0  0  0  0  0
   12.9132   -0.6032   23.2569 C   0  0  0  0  0  0  0  0  0  0  0  0
    4.8973    1.0233   21.2988 C   0  0  0  0  0  0  0  0  0  0  0  0
   10.9991   -1.4331   22.0443 C   0  0  0  0  0  0  0  0  0  0  0  0
    5.3278    1.2339   17.6066 C   0  0  0  0  0  0  0  0  0  0  0  0
    6.8438   -0.2892   18.3752 C   0  0  0  0  0  0  0  0  0  0  0  0
    4.8226    1.4906   18.9054 C   0  0  0  0  0  0  0  0  0  0  0  0
    5.3982    0.7733   19.9948 C   0  0  0  0  0  0  0  0  0  0  0  0
   10.7040   -0.0625   23.9898 C   0  0  0  0  0  0  0  0  0  0  0  0
   10.1406   -0.7765   22.9250 C   0  0  0  0  0  0  0  0  0  0  0  0
    6.4440   -0.1472   19.6979 C   0  0  0  0  0  0  0  0  0  0  0  0
    3.8960    1.9291   21.5050 C   0  0  0  0  0  0  0  0  0  0  0  0
   12.3683   -1.3298   22.2234 C   0  0  0  0  0  0  0  0  0  0  0  0
    8.2490    0.0169   21.4271 C   0  0  0  0  0  0  0  0  0  0  0  0
    9.9479    0.5589   24.9534 C   0  0  0  0  0  0  0  0  0  0  0  0
    7.9279    3.2446   22.4843 C   0  0  0  0  0  0  0  0  0  0  0  0
    8.5510    4.6013   22.6316 C   0  0  0  0  0  0  0  0  0  0  0  0
    8.0140   -2.1541   22.4331 C   0  0  0  0  0  0  0  0  0  0  0  0
    1.4008    1.3445   23.7702 C   0  0  0  0  0  0  0  0  0  0  0  0
    3.6523    0.7890   24.7454 C   0  0  0  0  0  0  0  0  0  0  0  0
    6.9866   -1.9366   21.3580 C   0  0  0  0  0  0  0  0  0  0  0  0
    7.8721   -0.1194   23.8831 C   0  0  0  0  0  0  0  0  0  0  0  0
    0.7679    0.2494   24.6145 C   0  0  0  0  0  0  0  0  0  0  0  0
    3.0143   -0.3047   25.5876 C   0  0  0  0  0  0  0  0  0  0  0  0
    2.8653    1.0464   23.4629 C   0  0  0  0  0  0  0  0  0  0  0  0
    7.6966    4.0430   23.7476 C   0  0  0  0  0  0  0  0  0  0  0  0
    8.6238   -0.7606   22.6929 C   0  0  3  0  0  0  0  0  0  0  0  0
    0.9300   -0.9308   26.8056 C   0  0  0  0  0  0  0  0  0  0  0  0
    8.3874    3.5882   25.0137 C   0  0  0  0  0  0  0  0  0  0  0  0
    5.3397    5.0899   24.0803 N   0  0  0  0  0  0  0  0  0  0  0  0
    6.3062    0.3769   17.3421 N   0  0  0  0  0  0  0  0  0  0  0  0
    7.2292   -0.6897   20.7790 N   0  0  0  0  0  0  0  0  0  0  0  0
    8.6609    1.0133   24.4995 N   0  0  2  0  0  0  0  0  0  0  0  0
    1.5767    0.0595   25.8765 N   0  3  0  0  0  0  0  0  0  0  0  0
    8.8299    1.0397   21.0799 O   0  0  0  0  0  0  0  0  0  0  0  0
    8.2407    1.8013   26.9144 O   0  0  0  0  0  0  0  0  0  0  0  0
    6.3653    1.9471   25.2271 O   0  0  0  0  0  0  0  0  0  0  0  0
    3.4227    2.1582   22.7714 O   0  0  0  0  0  0  0  0  0  0  0  0
    7.7708    2.0177   25.5632 S   0  0  0  0  0  0  0  0  0  0  0  0
   13.4272   -2.1411   21.1086 Cl  0  0  0  0  0  0  0  0  0  0  0  0
    3.3406    2.9746   18.3368 H   0  0  0  0  0  0  0  0  0  0  0  0
   12.5024    0.5995   24.9735 H   0  0  0  0  0  0  0  0  0  0  0  0
    2.5407    3.3506   20.6306 H   0  0  0  0  0  0  0  0  0  0  0  0
   13.9910   -0.5177   23.3793 H   0  0  0  0  0  0  0  0  0  0  0  0
    5.3162    0.4858   22.1535 H   0  0  0  0  0  0  0  0  0  0  0  0
   10.6036   -2.0162   21.2241 H   0  0  0  0  0  0  0  0  0  0  0  0
    4.9131    1.7514   16.7479 H   0  0  0  0  0  0  0  0  0  0  0  0
    7.6448   -0.9758   18.1041 H   0  0  0  0  0  0  0  0  0  0  0  0
    9.7849   -0.1194   25.8306 H   0  0  0  0  0  0  0  0  0  0  0  0
   10.4793    1.4568   25.3613 H   0  0  0  0  0  0  0  0  0  0  0  0
    7.1163    3.1393   21.7732 H   0  0  0  0  0  0  0  0  0  0  0  0
    8.5835    2.3826   22.5287 H   0  0  0  0  0  0  0  0  0  0  0  0
    9.6246    4.6480   22.7737 H   0  0  0  0  0  0  0  0  0  0  0  0
    8.1568    5.4034   22.0180 H   0  0  0  0  0  0  0  0  0  0  0  0
    7.5152   -2.5456   23.3338 H   0  0  0  0  0  0  0  0  0  0  0  0
    8.7649   -2.9030   22.1434 H   0  0  0  0  0  0  0  0  0  0  0  0
    0.8449    1.4590   22.8317 H   0  0  0  0  0  0  0  0  0  0  0  0
    1.3154    2.3126   24.2814 H   0  0  0  0  0  0  0  0  0  0  0  0
    3.7301    1.7169   25.3272 H   0  0  0  0  0  0  0  0  0  0  0  0
    4.6836    0.5122   24.4957 H   0  0  0  0  0  0  0  0  0  0  0  0
    7.0587   -2.7248   20.5721 H   0  0  0  0  0  0  0  0  0  0  0  0
    5.9518   -1.9952   21.7720 H   0  0  0  0  0  0  0  0  0  0  0  0
    6.8867    0.2641   23.5642 H   0  0  0  0  0  0  0  0  0  0  0  0
    7.6652   -0.8660   24.6733 H   0  0  0  0  0  0  0  0  0  0  0  0
   -0.2472    0.5300   24.9131 H   0  0  0  0  0  0  0  0  0  0  0  0
    0.7438   -0.7106   24.0868 H   0  0  0  0  0  0  0  0  0  0  0  0
    3.0156   -1.2710   25.0714 H   0  0  0  0  0  0  0  0  0  0  0  0
    3.5295   -0.4011   26.5488 H   0  0  0  0  0  0  0  0  0  0  0  0
    2.9297    0.1728   22.8029 H   0  0  0  0  0  0  0  0  0  0  0  0
    0.9102   -1.8985   26.3010 H   0  0  0  0  0  0  0  0  0  0  0  0
    1.5297   -0.9752   27.7167 H   0  0  0  0  0  0  0  0  0  0  0  0
   -0.0812   -0.5785   27.0181 H   0  0  0  0  0  0  0  0  0  0  0  0
    8.2236    4.3011   25.8267 H   0  0  0  0  0  0  0  0  0  0  0  0
    9.4629    3.4743   24.8535 H   0  0  0  0  0  0  0  0  0  0  0  0
    1.5838    0.9613   26.3728 H   0  0  0  0  0  0  0  0  0  0  0  0
  1 29  1  0  0  0  0
  1 33  3  0  0  0  0
  2  4  2  0  0  0  0
  2 10  1  0  0  0  0
  3  5  1  0  0  0  0
  3 12  2  0  0  0  0
  4 15  1  0  0  0  0
  5 16  2  0  0  0  0
  6 11  1  0  0  0  0
  6 15  2  0  0  0  0
  7 13  2  0  0  0  0
  7 16  1  0  0  0  0
  8 10  1  0  0  0  0
  8 34  2  0  0  0  0
  9 14  2  0  0  0  0
  9 34  1  0  0  0  0
 10 11  2  0  0  0  0
 11 14  1  0  0  0  0
 12 13  1  0  0  0  0
 12 18  1  0  0  0  0
 13 30  1  0  0  0  0
 14 35  1  0  0  0  0
 15 41  1  0  0  0  0
 16 43  1  0  0  0  0
 17 30  1  0  0  0  0
 17 35  1  0  0  0  0
 17 38  2  0  0  0  0
 18 36  1  0  0  0  0
 19 20  1  0  0  0  0
 19 29  1  0  0  0  0
 20 29  1  0  0  0  0
 21 24  1  0  0  0  0
 21 30  1  0  0  0  0
 22 26  1  0  0  0  0
 22 28  1  0  0  0  0
 23 27  1  0  0  0  0
 23 28  1  0  0  0  0
 24 35  1  0  0  0  0
 25 30  1  0  0  0  0
 25 36  1  0  0  0  0
 26 37  1  0  0  0  0
 27 37  1  0  0  0  0
 28 41  1  0  0  0  0
 29 32  1  0  0  0  0
 31 37  1  0  0  0  0
 32 42  1  0  0  0  0
 36 42  1  6  0  0  0
 39 42  2  0  0  0  0
 40 42  2  0  0  0  0
  2 44  1  0  0  0  0
  3 45  1  0  0  0  0
  4 46  1  0  0  0  0
  5 47  1  0  0  0  0
  6 48  1  0  0  0  0
  7 49  1  0  0  0  0
  8 50  1  0  0  0  0
  9 51  1  0  0  0  0
 18 52  1  0  0  0  0
 18 53  1  0  0  0  0
 19 54  1  0  0  0  0
 19 55  1  0  0  0  0
 20 56  1  0  0  0  0
 20 57  1  0  0  0  0
 21 58  1  0  0  0  0
 21 59  1  0  0  0  0
 22 60  1  0  0  0  0
 22 61  1  0  0  0  0
 23 62  1  0  0  0  0
 23 63  1  0  0  0  0
 24 64  1  0  0  0  0
 24 65  1  0  0  0  0
 25 66  1  0  0  0  0
 25 67  1  0  0  0  0
 26 68  1  0  0  0  0
 26 69  1  0  0  0  0
 27 70  1  0  0  0  0
 27 71  1  0  0  0  0
 28 72  1  0  0  0  0
 31 73  1  0  0  0  0
 31 74  1  0  0  0  0
 31 75  1  0  0  0  0
 32 76  1  0  0  0  0
 32 77  1  0  0  0  0
 37 78  1  0  0  0  0
M  CHG  1  37   1
M  END
> <compound>
LUO-POS-d1147590-1

> <compound_smiles>
CN1CCC(CC1)Oc2ccc3cncc(c3c2)N4CCC5(C4=O)CN(Cc6c5cc(cc6)Cl)S(=O)(=O)CC7(CC7)C#N

> <enantiomer_smiles>
CN1CCC(CC1)Oc2ccc3cncc(c3c2)N4CCC5(C4=O)C[N@](Cc6c5cc(cc6)Cl)S(=O)(=O)CC7(CC7)C#N

> <scaffold>
tetrahydroisoquinoline-5spiro-isoquinoline

> <clash_score>
0

> <docking_score>
-6.99182653427124

> <overlap_score>
0.9710843563079834

> <MMFF_internal_energy>
115.48094204652926

> <docked_smiles>
C[NH+]1CCC(CC1)Oc2ccc3cncc(c3c2)N4CC[C@@]5(C4=O)C[N@](Cc6c5cc(cc6)Cl)S(=O)(=O)CC7(CC7)C#N

$$$$
MAT-POS-40ad851a-1_7
  -OEChem-12272114583D

 78 84  0     1  0  0  0  0  0999 V2000
    6.3155    4.9014   24.5578 C   0  0  0  0  0  0  0  0  0  0  0  0
    3.7865    2.4205   19.1660 C   0  0  0  0  0  0  0  0  0  0  0  0
   12.0765    0.0316   24.1541 C   0  0  0  0  0  0  0  0  0  0  0  0
    3.3432    2.6279   20.4411 C   0  0  0  0  0  0  0  0  0  0  0  0
   12.9132   -0.6032   23.2569 C   0  0  0  0  0  0  0  0  0  0  0  0
    4.8973    1.0233   21.2988 C   0  0  0  0  0  0  0  0  0  0  0  0
   10.9991   -1.4331   22.0443 C   0  0  0  0  0  0  0  0  0  0  0  0
    5.3278    1.2339   17.6066 C   0  0  0  0  0  0  0  0  0  0  0  0
    6.8438   -0.2892   18.3752 C   0  0  0  0  0  0  0  0  0  0  0  0
    4.8226    1.4906   18.9054 C   0  0  0  0  0  0  0  0  0  0  0  0
    5.3982    0.7733   19.9948 C   0  0  0  0  0  0  0  0  0  0  0  0
   10.7040   -0.0625   23.9898 C   0  0  0  0  0  0  0  0  0  0  0  0
   10.1406   -0.7765   22.9250 C   0  0  0  0  0  0  0  0  0  0  0  0
    6.4440   -0.1472   19.6979 C   0  0  0  0  0  0  0  0  0  0  0  0
    3.8960    1.9291   21.5050 C   0  0  0  0  0  0  0  0  0  0  0  0
   12.3683   -1.3298   22.2234 C   0  0  0  0  0  0  0  0  0  0  0  0
    8.2490    0.0169   21.4271 C   0  0  0  0  0  0  0  0  0  0  0  0
    9.9479    0.5589   24.9534 C   0  0  0  0  0  0  0  0  0  0  0  0
    0.8233   -0.6660   24.6187 C   0  0  0  0  0  0  0  0  0  0  0  0
    1.9996   -0.1072   25.3969 C   0  0  0  0  0  0  0  0  0  0  0  0
    8.0723    5.9546   26.0276 C   0  0  0  0  0  0  0  0  0  0  0  0
    7.2836    5.0077   26.8831 C   0  0  0  0  0  0  0  0  0  0  0  0
    8.0140   -2.1541   22.4331 C   0  0  0  0  0  0  0  0  0  0  0  0
    6.9866   -1.9366   21.3580 C   0  0  0  0  0  0  0  0  0  0  0  0
    7.8721   -0.1194   23.8831 C   0  0  0  0  0  0  0  0  0  0  0  0
    0.0129    0.5722   24.3064 C   0  0  0  0  0  0  0  0  0  0  0  0
    2.3458    1.2060   24.6951 C   0  0  1  0  0  0  0  0  0  0  0  0
    7.4618    4.7167   25.4097 C   0  0  0  0  0  0  0  0  0  0  0  0
    8.6238   -0.7606   22.6929 C   0  0  3  0  0  0  0  0  0  0  0  0
    0.6381    3.0068   24.1562 C   0  0  0  0  0  0  0  0  0  0  0  0
    3.4815    1.0690   23.6908 C   0  0  0  0  0  0  0  0  0  0  0  0
    8.3874    3.5882   25.0137 C   0  0  0  0  0  0  0  0  0  0  0  0
    5.3921    5.0503   23.8713 N   0  0  0  0  0  0  0  0  0  0  0  0
    6.3062    0.3769   17.3421 N   0  0  0  0  0  0  0  0  0  0  0  0
    7.2292   -0.6897   20.7790 N   0  0  0  0  0  0  0  0  0  0  0  0
    8.6609    1.0133   24.4995 N   0  0  2  0  0  0  0  0  0  0  0  0
    1.0707    1.5902   23.9468 N   0  3  2  0  0  0  0  0  0  0  0  0
    8.8299    1.0397   21.0799 O   0  0  0  0  0  0  0  0  0  0  0  0
    8.2407    1.8013   26.9144 O   0  0  0  0  0  0  0  0  0  0  0  0
    6.3653    1.9471   25.2271 O   0  0  0  0  0  0  0  0  0  0  0  0
    3.4227    2.1582   22.7714 O   0  0  0  0  0  0  0  0  0  0  0  0
    7.7708    2.0177   25.5632 S   0  0  0  0  0  0  0  0  0  0  0  0
   13.4272   -2.1411   21.1086 Cl  0  0  0  0  0  0  0  0  0  0  0  0
    3.3406    2.9746   18.3368 H   0  0  0  0  0  0  0  0  0  0  0  0
   12.5024    0.5995   24.9735 H   0  0  0  0  0  0  0  0  0  0  0  0
    2.5407    3.3506   20.6306 H   0  0  0  0  0  0  0  0  0  0  0  0
   13.9910   -0.5177   23.3793 H   0  0  0  0  0  0  0  0  0  0  0  0
    5.3162    0.4858   22.1535 H   0  0  0  0  0  0  0  0  0  0  0  0
   10.6036   -2.0162   21.2241 H   0  0  0  0  0  0  0  0  0  0  0  0
    4.9131    1.7514   16.7479 H   0  0  0  0  0  0  0  0  0  0  0  0
    7.6448   -0.9758   18.1041 H   0  0  0  0  0  0  0  0  0  0  0  0
    9.7849   -0.1194   25.8306 H   0  0  0  0  0  0  0  0  0  0  0  0
   10.4793    1.4568   25.3613 H   0  0  0  0  0  0  0  0  0  0  0  0
    1.1382   -1.1941   23.7181 H   0  0  0  0  0  0  0  0  0  0  0  0
    0.2464   -1.3527   25.2443 H   0  0  0  0  0  0  0  0  0  0  0  0
    1.7487    0.0517   26.4585 H   0  0  0  0  0  0  0  0  0  0  0  0
    2.8494   -0.8122   25.3657 H   0  0  0  0  0  0  0  0  0  0  0  0
    7.6321    6.9216   25.8116 H   0  0  0  0  0  0  0  0  0  0  0  0
    9.1461    5.9865   26.1712 H   0  0  0  0  0  0  0  0  0  0  0  0
    7.8293    4.4058   27.6006 H   0  0  0  0  0  0  0  0  0  0  0  0
    6.3160    5.3417   27.2402 H   0  0  0  0  0  0  0  0  0  0  0  0
    7.5152   -2.5456   23.3338 H   0  0  0  0  0  0  0  0  0  0  0  0
    8.7649   -2.9030   22.1434 H   0  0  0  0  0  0  0  0  0  0  0  0
    7.0587   -2.7248   20.5721 H   0  0  0  0  0  0  0  0  0  0  0  0
    5.9518   -1.9952   21.7720 H   0  0  0  0  0  0  0  0  0  0  0  0
    6.8867    0.2641   23.5642 H   0  0  0  0  0  0  0  0  0  0  0  0
    7.6652   -0.8660   24.6733 H   0  0  0  0  0  0  0  0  0  0  0  0
   -0.6080    0.4401   23.4211 H   0  0  0  0  0  0  0  0  0  0  0  0
   -0.5793    0.9224   25.1490 H   0  0  0  0  0  0  0  0  0  0  0  0
    2.5568    1.9927   25.4202 H   0  0  0  0  0  0  0  0  0  0  0  0
    0.4406    3.1417   25.2212 H   0  0  0  0  0  0  0  0  0  0  0  0
    1.4490    3.6567   23.8219 H   0  0  0  0  0  0  0  0  0  0  0  0
   -0.2653    3.1710   23.5658 H   0  0  0  0  0  0  0  0  0  0  0  0
    3.3899    0.1320   23.1334 H   0  0  0  0  0  0  0  0  0  0  0  0
    4.4494    1.0897   24.2004 H   0  0  0  0  0  0  0  0  0  0  0  0
    9.3774    3.7195   25.4591 H   0  0  0  0  0  0  0  0  0  0  0  0
    8.4924    3.5311   23.9269 H   0  0  0  0  0  0  0  0  0  0  0  0
    1.2532    1.4801   22.9349 H   0  0  0  0  0  0  0  0  0  0  0  0
  1 28  1  0  0  0  0
  1 33  3  0  0  0  0
  2  4  2  0  0  0  0
  2 10  1  0  0  0  0
  3  5  1  0  0  0  0
  3 12  2  0  0  0  0
  4 15  1  0  0  0  0
  5 16  2  0  0  0  0
  6 11  1  0  0  0  0
  6 15  2  0  0  0  0
  7 13  2  0  0  0  0
  7 16  1  0  0  0  0
  8 10  1  0  0  0  0
  8 34  2  0  0  0  0
  9 14  2  0  0  0  0
  9 34  1  0  0  0  0
 10 11  2  0  0  0  0
 11 14  1  0  0  0  0
 12 13  1  0  0  0  0
 12 18  1  0  0  0  0
 13 29  1  0  0  0  0
 14 35  1  0  0  0  0
 15 41  1  0  0  0  0
 16 43  1  0  0  0  0
 17 29  1  0  0  0  0
 17 35  1  0  0  0  0
 17 38  2  0  0  0  0
 18 36  1  0  0  0  0
 19 20  1  0  0  0  0
 19 26  1  0  0  0  0
 20 27  1  0  0  0  0
 21 22  1  0  0  0  0
 21 28  1  0  0  0  0
 22 28  1  0  0  0  0
 23 24  1  0  0  0  0
 23 29  1  0  0  0  0
 24 35  1  0  0  0  0
 25 29  1  0  0  0  0
 25 36  1  0  0  0  0
 26 37  1  0  0  0  0
 27 31  1  6  0  0  0
 27 37  1  0  0  0  0
 28 32  1  0  0  0  0
 30 37  1  1  0  0  0
 31 41  1  0  0  0  0
 32 42  1  0  0  0  0
 36 42  1  6  0  0  0
 39 42  2  0  0  0  0
 40 42  2  0  0  0  0
  2 44  1  0  0  0  0
  3 45  1  0  0  0  0
  4 46  1  0  0  0  0
  5 47  1  0  0  0  0
  6 48  1  0  0  0  0
  7 49  1  0  0  0  0
  8 50  1  0  0  0  0
  9 51  1  0  0  0  0
 18 52  1  0  0  0  0
 18 53  1  0  0  0  0
 19 54  1  0  0  0  0
 19 55  1  0  0  0  0
 20 56  1  0  0  0  0
 20 57  1  0  0  0  0
 21 58  1  0  0  0  0
 21 59  1  0  0  0  0
 22 60  1  0  0  0  0
 22 61  1  0  0  0  0
 23 62  1  0  0  0  0
 23 63  1  0  0  0  0
 24 64  1  0  0  0  0
 24 65  1  0  0  0  0
 25 66  1  0  0  0  0
 25 67  1  0  0  0  0
 26 68  1  0  0  0  0
 26 69  1  0  0  0  0
 27 70  1  0  0  0  0
 30 71  1  0  0  0  0
 30 72  1  0  0  0  0
 30 73  1  0  0  0  0
 31 74  1  0  0  0  0
 31 75  1  0  0  0  0
 32 76  1  0  0  0  0
 32 77  1  0  0  0  0
 37 78  1  0  0  0  0
M  CHG  1  37   1
M  END
> <compound>
MAT-POS-40ad851a-1

> <compound_smiles>
CN1CCCC1COc2ccc3cncc(c3c2)N4CCC5(C4=O)CN(Cc6c5cc(cc6)Cl)S(=O)(=O)CC7(CC7)C#N

> <enantiomer_smiles>
C[N@@]1CCC[C@H]1COc2ccc3cncc(c3c2)N4CCC5(C4=O)C[N@](Cc6c5cc(cc6)Cl)S(=O)(=O)CC7(CC7)C#N

> <scaffold>
tetrahydroisoquinoline-5spiro-isoquinoline

> <clash_score>
0

> <docking_score>
-6.487660884857178

> <overlap_score>
0.9695609211921692

> <MMFF_internal_energy>
137.95850853474101

> <docked_smiles>
C[N@@H+]1CCC[C@H]1COc2ccc3cncc(c3c2)N4CC[C@@]5(C4=O)C[N@](Cc6c5cc(cc6)Cl)S(=O)(=O)CC7(CC7)C#N

$$$$
LUO-POS-d1147590-1_1
  -OEChem-12272114583D

 78 84  0     1  0  0  0  0  0999 V2000
    9.9899    5.1222   23.8236 C   0  0  0  0  0  0  0  0  0  0  0  0
    3.7865    2.4205   19.1660 C   0  0  0  0  0  0  0  0  0  0  0  0
   12.0765    0.0316   24.1541 C   0  0  0  0  0  0  0  0  0  0  0  0
    3.3432    2.6279   20.4411 C   0  0  0  0  0  0  0  0  0  0  0  0
   12.9132   -0.6032   23.2569 C   0  0  0  0  0  0  0  0  0  0  0  0
    4.8973    1.0233   21.2988 C   0  0  0  0  0  0  0  0  0  0  0  0
   10.9991   -1.4331   22.0443 C   0  0  0  0  0  0  0  0  0  0  0  0
    5.3278    1.2339   17.6066 C   0  0  0  0  0  0  0  0  0  0  0  0
    6.8438   -0.2892   18.3752 C   0  0  0  0  0  0  0  0  0  0  0  0
    4.8226    1.4906   18.9054 C   0  0  0  0  0  0  0  0  0  0  0  0
    5.3982    0.7733   19.9948 C   0  0  0  0  0  0  0  0  0  0  0  0
   10.7040   -0.0625   23.9898 C   0  0  0  0  0  0  0  0  0  0  0  0
   10.1406   -0.7765   22.9250 C   0  0  0  0  0  0  0  0  0  0  0  0
    6.4440   -0.1472   19.6979 C   0  0  0  0  0  0  0  0  0  0  0  0
    3.8960    1.9291   21.5050 C   0  0  0  0  0  0  0  0  0  0  0  0
   12.3683   -1.3298   22.2234 C   0  0  0  0  0  0  0  0  0  0  0  0
    8.2490    0.0169   21.4271 C   0  0  0  0  0  0  0  0  0  0  0  0
    9.9479    0.5589   24.9534 C   0  0  0  0  0  0  0  0  0  0  0  0
    8.5324    6.1021   25.6323 C   0  0  0  0  0  0  0  0  0  0  0  0
    7.7014    6.0179   24.3861 C   0  0  0  0  0  0  0  0  0  0  0  0
    8.0140   -2.1541   22.4331 C   0  0  0  0  0  0  0  0  0  0  0  0
    1.4003    1.3543   23.7771 C   0  0  0  0  0  0  0  0  0  0  0  0
    3.6519    0.7989   24.7523 C   0  0  0  0  0  0  0  0  0  0  0  0
    6.9866   -1.9366   21.3580 C   0  0  0  0  0  0  0  0  0  0  0  0
    7.8721   -0.1194   23.8831 C   0  0  0  0  0  0  0  0  0  0  0  0
    0.7661    0.2651   24.6279 C   0  0  0  0  0  0  0  0  0  0  0  0
    3.0125   -0.2889   25.6011 C   0  0  0  0  0  0  0  0  0  0  0  0
    2.8638    1.0513   23.4694 C   0  0  0  0  0  0  0  0  0  0  0  0
    8.7994    5.0058   24.6255 C   0  0  0  0  0  0  0  0  0  0  0  0
    8.6238   -0.7606   22.6929 C   0  0  3  0  0  0  0  0  0  0  0  0
    0.9283   -0.9039   26.8251 C   0  0  0  0  0  0  0  0  0  0  0  0
    8.3989    3.5932   24.9882 C   0  0  0  0  0  0  0  0  0  0  0  0
   10.9490    5.2161   23.1776 N   0  0  0  0  0  0  0  0  0  0  0  0
    6.3062    0.3769   17.3421 N   0  0  0  0  0  0  0  0  0  0  0  0
    7.2292   -0.6897   20.7790 N   0  0  0  0  0  0  0  0  0  0  0  0
    8.6609    1.0133   24.4995 N   0  0  1  0  0  0  0  0  0  0  0  0
    1.5760    0.0800   25.8899 N   0  3  0  0  0  0  0  0  0  0  0  0
    8.7572    1.0941   21.1350 O   0  0  0  0  0  0  0  0  0  0  0  0
    7.4179    2.5201   22.8172 O   0  0  0  0  0  0  0  0  0  0  0  0
    9.9251    2.7322   23.0499 O   0  0  0  0  0  0  0  0  0  0  0  0
    3.4227    2.1582   22.7714 O   0  0  0  0  0  0  0  0  0  0  0  0
    8.6198    2.4832   23.6217 S   0  0  0  0  0  0  0  0  0  0  0  0
   13.4275   -2.1421   21.1097 Cl  0  0  0  0  0  0  0  0  0  0  0  0
    3.3406    2.9746   18.3368 H   0  0  0  0  0  0  0  0  0  0  0  0
   12.5015    0.5938   24.9776 H   0  0  0  0  0  0  0  0  0  0  0  0
    2.5407    3.3506   20.6306 H   0  0  0  0  0  0  0  0  0  0  0  0
   13.9911   -0.5212   23.3814 H   0  0  0  0  0  0  0  0  0  0  0  0
    5.3162    0.4858   22.1535 H   0  0  0  0  0  0  0  0  0  0  0  0
   10.6037   -2.0228   21.2288 H   0  0  0  0  0  0  0  0  0  0  0  0
    4.9131    1.7514   16.7479 H   0  0  0  0  0  0  0  0  0  0  0  0
    7.6448   -0.9758   18.1041 H   0  0  0  0  0  0  0  0  0  0  0  0
    9.7581   -0.1287   25.8173 H   0  0  0  0  0  0  0  0  0  0  0  0
   10.4931    1.4391   25.3829 H   0  0  0  0  0  0  0  0  0  0  0  0
    9.2347    6.9241   25.7129 H   0  0  0  0  0  0  0  0  0  0  0  0
    8.0587    5.8395   26.5712 H   0  0  0  0  0  0  0  0  0  0  0  0
    6.6706    5.6996   24.4905 H   0  0  0  0  0  0  0  0  0  0  0  0
    7.8473    6.7843   23.6333 H   0  0  0  0  0  0  0  0  0  0  0  0
    7.5801   -2.6060   23.3366 H   0  0  0  0  0  0  0  0  0  0  0  0
    8.7749   -2.8608   22.0657 H   0  0  0  0  0  0  0  0  0  0  0  0
    0.8435    1.4651   22.8386 H   0  0  0  0  0  0  0  0  0  0  0  0
    1.3177    2.3253   24.2832 H   0  0  0  0  0  0  0  0  0  0  0  0
    3.7324    1.7297   25.3291 H   0  0  0  0  0  0  0  0  0  0  0  0
    4.6821    0.5185   24.5028 H   0  0  0  0  0  0  0  0  0  0  0  0
    7.0227   -2.7506   20.5953 H   0  0  0  0  0  0  0  0  0  0  0  0
    5.9554   -1.9484   21.7832 H   0  0  0  0  0  0  0  0  0  0  0  0
    6.8886    0.2769   23.5666 H   0  0  0  0  0  0  0  0  0  0  0  0
    7.6579   -0.8710   24.6633 H   0  0  0  0  0  0  0  0  0  0  0  0
   -0.2481    0.5494   24.9264 H   0  0  0  0  0  0  0  0  0  0  0  0
    0.7392   -0.6976   24.1054 H   0  0  0  0  0  0  0  0  0  0  0  0
    3.0110   -1.2579   25.0900 H   0  0  0  0  0  0  0  0  0  0  0  0
    3.5287   -0.3813   26.5621 H   0  0  0  0  0  0  0  0  0  0  0  0
    2.9253    0.1741   22.8141 H   0  0  0  0  0  0  0  0  0  0  0  0
    0.9058   -1.8742   26.3256 H   0  0  0  0  0  0  0  0  0  0  0  0
    1.5292   -0.9448   27.7356 H   0  0  0  0  0  0  0  0  0  0  0  0
   -0.0818   -0.5482   27.0370 H   0  0  0  0  0  0  0  0  0  0  0  0
    7.3445    3.5466   25.2742 H   0  0  0  0  0  0  0  0  0  0  0  0
    9.0072    3.2136   25.8136 H   0  0  0  0  0  0  0  0  0  0  0  0
    1.5858    0.9844   26.3814 H   0  0  0  0  0  0  0  0  0  0  0  0
  1 29  1  0  0  0  0
  1 33  3  0  0  0  0
  2  4  2  0  0  0  0
  2 10  1  0  0  0  0
  3  5  1  0  0  0  0
  3 12  2  0  0  0  0
  4 15  1  0  0  0  0
  5 16  2  0  0  0  0
  6 11  1  0  0  0  0
  6 15  2  0  0  0  0
  7 13  2  0  0  0  0
  7 16  1  0  0  0  0
  8 10  1  0  0  0  0
  8 34  2  0  0  0  0
  9 14  2  0  0  0  0
  9 34  1  0  0  0  0
 10 11  2  0  0  0  0
 11 14  1  0  0  0  0
 12 13  1  0  0  0  0
 12 18  1  0  0  0  0
 13 30  1  0  0  0  0
 14 35  1  0  0  0  0
 15 41  1  0  0  0  0
 16 43  1  0  0  0  0
 17 30  1  0  0  0  0
 17 35  1  0  0  0  0
 17 38  2  0  0  0  0
 18 36  1  0  0  0  0
 19 20  1  0  0  0  0
 19 29  1  0  0  0  0
 20 29  1  0  0  0  0
 21 24  1  0  0  0  0
 21 30  1  0  0  0  0
 22 26  1  0  0  0  0
 22 28  1  0  0  0  0
 23 27  1  0  0  0  0
 23 28  1  0  0  0  0
 24 35  1  0  0  0  0
 25 30  1  0  0  0  0
 25 36  1  0  0  0  0
 26 37  1  0  0  0  0
 27 37  1  0  0  0  0
 28 41  1  0  0  0  0
 29 32  1  0  0  0  0
 31 37  1  0  0  0  0
 32 42  1  0  0  0  0
 36 42  1  1  0  0  0
 39 42  2  0  0  0  0
 40 42  2  0  0  0  0
  2 44  1  0  0  0  0
  3 45  1  0  0  0  0
  4 46  1  0  0  0  0
  5 47  1  0  0  0  0
  6 48  1  0  0  0  0
  7 49  1  0  0  0  0
  8 50  1  0  0  0  0
  9 51  1  0  0  0  0
 18 52  1  0  0  0  0
 18 53  1  0  0  0  0
 19 54  1  0  0  0  0
 19 55  1  0  0  0  0
 20 56  1  0  0  0  0
 20 57  1  0  0  0  0
 21 58  1  0  0  0  0
 21 59  1  0  0  0  0
 22 60  1  0  0  0  0
 22 61  1  0  0  0  0
 23 62  1  0  0  0  0
 23 63  1  0  0  0  0
 24 64  1  0  0  0  0
 24 65  1  0  0  0  0
 25 66  1  0  0  0  0
 25 67  1  0  0  0  0
 26 68  1  0  0  0  0
 26 69  1  0  0  0  0
 27 70  1  0  0  0  0
 27 71  1  0  0  0  0
 28 72  1  0  0  0  0
 31 73  1  0  0  0  0
 31 74  1  0  0  0  0
 31 75  1  0  0  0  0
 32 76  1  0  0  0  0
 32 77  1  0  0  0  0
 37 78  1  0  0  0  0
M  CHG  1  37   1
M  END
> <compound>
LUO-POS-d1147590-1

> <compound_smiles>
CN1CCC(CC1)Oc2ccc3cncc(c3c2)N4CCC5(C4=O)CN(Cc6c5cc(cc6)Cl)S(=O)(=O)CC7(CC7)C#N

> <enantiomer_smiles>
CN1CCC(CC1)Oc2ccc3cncc(c3c2)N4CCC5(C4=O)C[N@@](Cc6c5cc(cc6)Cl)S(=O)(=O)CC7(CC7)C#N

> <scaffold>
tetrahydroisoquinoline-5spiro-isoquinoline

> <clash_score>
0

> <docking_score>
-7.947845935821533

> <overlap_score>
0.9729735255241394

> <MMFF_internal_energy>
142.61921747071096

> <docked_smiles>
C[NH+]1CCC(CC1)Oc2ccc3cncc(c3c2)N4CC[C@@]5(C4=O)C[N@@](Cc6c5cc(cc6)Cl)S(=O)(=O)CC7(CC7)C#N

$$$$
EDJ-MED-468565e0-1_2
  -OEChem-12272114583D

 78 84  0     1  0  0  0  0  0999 V2000
    9.7248    3.0135   22.9874 C   0  0  0  0  0  0  0  0  0  0  0  0
    3.7865    2.4205   19.1660 C   0  0  0  0  0  0  0  0  0  0  0  0
   12.0765    0.0316   24.1541 C   0  0  0  0  0  0  0  0  0  0  0  0
    3.3432    2.6279   20.4411 C   0  0  0  0  0  0  0  0  0  0  0  0
   12.9132   -0.6032   23.2569 C   0  0  0  0  0  0  0  0  0  0  0  0
    4.8973    1.0233   21.2988 C   0  0  0  0  0  0  0  0  0  0  0  0
   10.9991   -1.4331   22.0443 C   0  0  0  0  0  0  0  0  0  0  0  0
    5.3278    1.2339   17.6066 C   0  0  0  0  0  0  0  0  0  0  0  0
    6.8438   -0.2892   18.3752 C   0  0  0  0  0  0  0  0  0  0  0  0
    4.8226    1.4906   18.9054 C   0  0  0  0  0  0  0  0  0  0  0  0
    5.3982    0.7733   19.9948 C   0  0  0  0  0  0  0  0  0  0  0  0
   10.7040   -0.0625   23.9898 C   0  0  0  0  0  0  0  0  0  0  0  0
   10.1406   -0.7765   22.9250 C   0  0  0  0  0  0  0  0  0  0  0  0
    6.4440   -0.1472   19.6979 C   0  0  0  0  0  0  0  0  0  0  0  0
    3.8960    1.9291   21.5050 C   0  0  0  0  0  0  0  0  0  0  0  0
   12.3683   -1.3298   22.2234 C   0  0  0  0  0  0  0  0  0  0  0  0
    8.2490    0.0169   21.4271 C   0  0  0  0  0  0  0  0  0  0  0  0
    9.9479    0.5589   24.9534 C   0  0  0  0  0  0  0  0  0  0  0  0
    3.7809    4.4032   27.1588 C   0  0  0  0  0  0  0  0  0  0  0  0
    3.0588    4.9492   25.9435 C   0  0  0  0  0  0  0  0  0  0  0  0
    8.0042    4.8441   22.7770 C   0  0  0  0  0  0  0  0  0  0  0  0
    7.2790    3.5353   22.6693 C   0  0  0  0  0  0  0  0  0  0  0  0
    8.0140   -2.1541   22.4331 C   0  0  0  0  0  0  0  0  0  0  0  0
    6.9866   -1.9366   21.3580 C   0  0  0  0  0  0  0  0  0  0  0  0
    7.8721   -0.1194   23.8831 C   0  0  0  0  0  0  0  0  0  0  0  0
    3.5723    2.9102   27.0233 C   0  0  0  0  0  0  0  0  0  0  0  0
    3.4243    3.9815   24.8317 C   0  0  0  0  0  0  0  0  0  0  0  0
    8.5331    3.6312   23.5091 C   0  0  0  0  0  0  0  0  0  0  0  0
    8.6238   -0.7606   22.6929 C   0  0  3  0  0  0  0  0  0  0  0  0
    8.3874    3.5882   25.0137 C   0  0  0  0  0  0  0  0  0  0  0  0
    2.9283    1.5069   25.0326 C   0  0  0  0  0  0  0  0  0  0  0  0
    3.4815    1.0690   23.6908 C   0  0  0  0  0  0  0  0  0  0  0  0
   10.6850    2.5159   22.5671 N   0  0  0  0  0  0  0  0  0  0  0  0
    6.3062    0.3769   17.3421 N   0  0  0  0  0  0  0  0  0  0  0  0
    7.2292   -0.6897   20.7790 N   0  0  0  0  0  0  0  0  0  0  0  0
    8.6609    1.0133   24.4995 N   0  0  2  0  0  0  0  0  0  0  0  0
    3.7202    2.6704   25.5368 N   0  3  0  0  0  0  0  0  0  0  0  0
    8.8299    1.0397   21.0799 O   0  0  0  0  0  0  0  0  0  0  0  0
    8.2407    1.8013   26.9144 O   0  0  0  0  0  0  0  0  0  0  0  0
    6.3653    1.9471   25.2271 O   0  0  0  0  0  0  0  0  0  0  0  0
    3.4227    2.1582   22.7714 O   0  0  0  0  0  0  0  0  0  0  0  0
    7.7708    2.0177   25.5632 S   0  0  0  0  0  0  0  0  0  0  0  0
   13.4272   -2.1411   21.1086 Cl  0  0  0  0  0  0  0  0  0  0  0  0
    3.3406    2.9746   18.3368 H   0  0  0  0  0  0  0  0  0  0  0  0
   12.5024    0.5995   24.9735 H   0  0  0  0  0  0  0  0  0  0  0  0
    2.5407    3.3506   20.6306 H   0  0  0  0  0  0  0  0  0  0  0  0
   13.9910   -0.5177   23.3793 H   0  0  0  0  0  0  0  0  0  0  0  0
    5.3162    0.4858   22.1535 H   0  0  0  0  0  0  0  0  0  0  0  0
   10.6036   -2.0162   21.2241 H   0  0  0  0  0  0  0  0  0  0  0  0
    4.9131    1.7514   16.7479 H   0  0  0  0  0  0  0  0  0  0  0  0
    7.6448   -0.9758   18.1041 H   0  0  0  0  0  0  0  0  0  0  0  0
    9.7849   -0.1194   25.8306 H   0  0  0  0  0  0  0  0  0  0  0  0
   10.4793    1.4568   25.3613 H   0  0  0  0  0  0  0  0  0  0  0  0
    4.8484    4.6496   27.1155 H   0  0  0  0  0  0  0  0  0  0  0  0
    3.3733    4.7959   28.0945 H   0  0  0  0  0  0  0  0  0  0  0  0
    1.9752    4.9378   26.1115 H   0  0  0  0  0  0  0  0  0  0  0  0
    3.3566    5.9758   25.7114 H   0  0  0  0  0  0  0  0  0  0  0  0
    8.5318    5.1995   21.8990 H   0  0  0  0  0  0  0  0  0  0  0  0
    7.5346    5.6332   23.3529 H   0  0  0  0  0  0  0  0  0  0  0  0
    6.3229    3.4480   23.1725 H   0  0  0  0  0  0  0  0  0  0  0  0
    7.3207    3.0156   21.7188 H   0  0  0  0  0  0  0  0  0  0  0  0
    7.5152   -2.5456   23.3338 H   0  0  0  0  0  0  0  0  0  0  0  0
    8.7649   -2.9030   22.1434 H   0  0  0  0  0  0  0  0  0  0  0  0
    7.0587   -2.7248   20.5721 H   0  0  0  0  0  0  0  0  0  0  0  0
    5.9518   -1.9952   21.7720 H   0  0  0  0  0  0  0  0  0  0  0  0
    6.8867    0.2641   23.5642 H   0  0  0  0  0  0  0  0  0  0  0  0
    7.6652   -0.8660   24.6733 H   0  0  0  0  0  0  0  0  0  0  0  0
    4.3172    2.3100   27.5505 H   0  0  0  0  0  0  0  0  0  0  0  0
    2.5580    2.6177   27.3132 H   0  0  0  0  0  0  0  0  0  0  0  0
    2.6137    3.8384   24.1118 H   0  0  0  0  0  0  0  0  0  0  0  0
    4.3423    4.2774   24.3149 H   0  0  0  0  0  0  0  0  0  0  0  0
    7.6838    4.3500   25.3607 H   0  0  0  0  0  0  0  0  0  0  0  0
    9.3513    3.7460   25.5050 H   0  0  0  0  0  0  0  0  0  0  0  0
    3.0158    0.7230   25.7901 H   0  0  0  0  0  0  0  0  0  0  0  0
    1.8916    1.8443   24.9520 H   0  0  0  0  0  0  0  0  0  0  0  0
    4.5301    0.7750   23.7992 H   0  0  0  0  0  0  0  0  0  0  0  0
    2.9203    0.2243   23.2782 H   0  0  0  0  0  0  0  0  0  0  0  0
    4.7141    2.4599   25.3663 H   0  0  0  0  0  0  0  0  0  0  0  0
  1 28  1  0  0  0  0
  1 33  3  0  0  0  0
  2  4  1  0  0  0  0
  2 10  2  0  0  0  0
  3  5  1  0  0  0  0
  3 12  2  0  0  0  0
  4 15  2  0  0  0  0
  5 16  2  0  0  0  0
  6 11  2  0  0  0  0
  6 15  1  0  0  0  0
  7 13  2  0  0  0  0
  7 16  1  0  0  0  0
  8 10  1  0  0  0  0
  8 34  2  0  0  0  0
  9 14  2  0  0  0  0
  9 34  1  0  0  0  0
 10 11  1  0  0  0  0
 11 14  1  0  0  0  0
 12 13  1  0  0  0  0
 12 18  1  0  0  0  0
 13 29  1  0  0  0  0
 14 35  1  0  0  0  0
 15 41  1  0  0  0  0
 16 43  1  0  0  0  0
 17 29  1  0  0  0  0
 17 35  1  0  0  0  0
 17 38  2  0  0  0  0
 18 36  1  0  0  0  0
 19 20  1  0  0  0  0
 19 26  1  0  0  0  0
 20 27  1  0  0  0  0
 21 22  1  0  0  0  0
 21 28  1  0  0  0  0
 22 28  1  0  0  0  0
 23 24  1  0  0  0  0
 23 29  1  0  0  0  0
 24 35  1  0  0  0  0
 25 29  1  0  0  0  0
 25 36  1  0  0  0  0
 26 37  1  0  0  0  0
 27 37  1  0  0  0  0
 28 30  1  0  0  0  0
 30 42  1  0  0  0  0
 31 32  1  0  0  0  0
 31 37  1  0  0  0  0
 32 41  1  0  0  0  0
 36 42  1  6  0  0  0
 39 42  2  0  0  0  0
 40 42  2  0  0  0  0
  2 44  1  0  0  0  0
  3 45  1  0  0  0  0
  4 46  1  0  0  0  0
  5 47  1  0  0  0  0
  6 48  1  0  0  0  0
  7 49  1  0  0  0  0
  8 50  1  0  0  0  0
  9 51  1  0  0  0  0
 18 52  1  0  0  0  0
 18 53  1  0  0  0  0
 19 54  1  0  0  0  0
 19 55  1  0  0  0  0
 20 56  1  0  0  0  0
 20 57  1  0  0  0  0
 21 58  1  0  0  0  0
 21 59  1  0  0  0  0
 22 60  1  0  0  0  0
 22 61  1  0  0  0  0
 23 62  1  0  0  0  0
 23 63  1  0  0  0  0
 24 64  1  0  0  0  0
 24 65  1  0  0  0  0
 25 66  1  0  0  0  0
 25 67  1  0  0  0  0
 26 68  1  0  0  0  0
 26 69  1  0  0  0  0
 27 70  1  0  0  0  0
 27 71  1  0  0  0  0
 30 72  1  0  0  0  0
 30 73  1  0  0  0  0
 31 74  1  0  0  0  0
 31 75  1  0  0  0  0
 32 76  1  0  0  0  0
 32 77  1  0  0  0  0
 37 78  1  0  0  0  0
M  CHG  1  37   1
M  END
> <compound>
EDJ-MED-468565e0-1

> <compound_smiles>
c1cc2cncc(c2cc1OCCN3CCCC3)N4CCC5(C4=O)CN(Cc6c5cc(cc6)Cl)S(=O)(=O)CC7(CC7)C#N

> <enantiomer_smiles>
c1cc2cncc(c2cc1OCCN3CCCC3)N4CCC5(C4=O)C[N@](Cc6c5cc(cc6)Cl)S(=O)(=O)CC7(CC7)C#N

> <scaffold>
tetrahydroisoquinoline-5spiro-isoquinoline

> <clash_score>
0

> <docking_score>
-6.423656463623047

> <overlap_score>
0.9742323160171509

> <MMFF_internal_energy>
141.38490694099121

> <docked_smiles>
c1cc2cncc(c2cc1OCC[NH+]3CCCC3)N4CC[C@@]5(C4=O)C[N@](Cc6c5cc(cc6)Cl)S(=O)(=O)CC7(CC7)C#N

$$$$
MAT-POS-40ad851a-1_2
  -OEChem-12272114583D

 78 84  0     1  0  0  0  0  0999 V2000
    9.5881    5.6615   24.2579 C   0  0  0  0  0  0  0  0  0  0  0  0
    3.7865    2.4205   19.1660 C   0  0  0  0  0  0  0  0  0  0  0  0
   12.0765    0.0316   24.1541 C   0  0  0  0  0  0  0  0  0  0  0  0
    3.3432    2.6279   20.4411 C   0  0  0  0  0  0  0  0  0  0  0  0
   12.9132   -0.6032   23.2569 C   0  0  0  0  0  0  0  0  0  0  0  0
    4.8973    1.0233   21.2988 C   0  0  0  0  0  0  0  0  0  0  0  0
   10.9991   -1.4331   22.0443 C   0  0  0  0  0  0  0  0  0  0  0  0
    5.3278    1.2339   17.6066 C   0  0  0  0  0  0  0  0  0  0  0  0
    6.8438   -0.2892   18.3752 C   0  0  0  0  0  0  0  0  0  0  0  0
    4.8226    1.4906   18.9054 C   0  0  0  0  0  0  0  0  0  0  0  0
    5.3982    0.7733   19.9948 C   0  0  0  0  0  0  0  0  0  0  0  0
   10.7040   -0.0625   23.9898 C   0  0  0  0  0  0  0  0  0  0  0  0
   10.1406   -0.7765   22.9250 C   0  0  0  0  0  0  0  0  0  0  0  0
    6.4440   -0.1472   19.6979 C   0  0  0  0  0  0  0  0  0  0  0  0
    3.8960    1.9291   21.5050 C   0  0  0  0  0  0  0  0  0  0  0  0
   12.3683   -1.3298   22.2234 C   0  0  0  0  0  0  0  0  0  0  0  0
    8.2490    0.0169   21.4271 C   0  0  0  0  0  0  0  0  0  0  0  0
    9.9479    0.5589   24.9534 C   0  0  0  0  0  0  0  0  0  0  0  0
    0.9675    2.6828   25.9511 C   0  0  0  0  0  0  0  0  0  0  0  0
    2.4043    2.5050   25.5049 C   0  0  0  0  0  0  0  0  0  0  0  0
    7.2212    5.9018   25.0923 C   0  0  0  0  0  0  0  0  0  0  0  0
    7.1474    5.4411   23.6665 C   0  0  0  0  0  0  0  0  0  0  0  0
    8.0140   -2.1541   22.4331 C   0  0  0  0  0  0  0  0  0  0  0  0
    6.9866   -1.9366   21.3580 C   0  0  0  0  0  0  0  0  0  0  0  0
    7.8721   -0.1194   23.8831 C   0  0  0  0  0  0  0  0  0  0  0  0
    0.1658    2.3435   24.7090 C   0  0  0  0  0  0  0  0  0  0  0  0
    2.3444    1.2177   24.6953 C   0  0  2  0  0  0  0  0  0  0  0  0
    8.3214    5.0316   24.5273 C   0  0  0  0  0  0  0  0  0  0  0  0
    8.6238   -0.7606   22.6929 C   0  0  3  0  0  0  0  0  0  0  0  0
    0.3237   -0.0007   23.7830 C   0  0  0  0  0  0  0  0  0  0  0  0
    3.4781    1.0738   23.6967 C   0  0  0  0  0  0  0  0  0  0  0  0
    8.3989    3.5932   24.9882 C   0  0  0  0  0  0  0  0  0  0  0  0
   10.6086    6.1691   24.0409 N   0  0  0  0  0  0  0  0  0  0  0  0
    6.3062    0.3769   17.3421 N   0  0  0  0  0  0  0  0  0  0  0  0
    7.2292   -0.6897   20.7790 N   0  0  0  0  0  0  0  0  0  0  0  0
    8.6609    1.0133   24.4995 N   0  0  1  0  0  0  0  0  0  0  0  0
    1.0093    1.3185   23.9688 N   0  3  1  0  0  0  0  0  0  0  0  0
    8.7572    1.0941   21.1350 O   0  0  0  0  0  0  0  0  0  0  0  0
    7.4179    2.5201   22.8172 O   0  0  0  0  0  0  0  0  0  0  0  0
    9.9251    2.7322   23.0499 O   0  0  0  0  0  0  0  0  0  0  0  0
    3.4227    2.1582   22.7714 O   0  0  0  0  0  0  0  0  0  0  0  0
    8.6198    2.4832   23.6217 S   0  0  0  0  0  0  0  0  0  0  0  0
   13.4275   -2.1421   21.1097 Cl  0  0  0  0  0  0  0  0  0  0  0  0
    3.3406    2.9746   18.3368 H   0  0  0  0  0  0  0  0  0  0  0  0
   12.5015    0.5938   24.9776 H   0  0  0  0  0  0  0  0  0  0  0  0
    2.5407    3.3506   20.6306 H   0  0  0  0  0  0  0  0  0  0  0  0
   13.9911   -0.5212   23.3814 H   0  0  0  0  0  0  0  0  0  0  0  0
    5.3162    0.4858   22.1535 H   0  0  0  0  0  0  0  0  0  0  0  0
   10.6037   -2.0228   21.2288 H   0  0  0  0  0  0  0  0  0  0  0  0
    4.9131    1.7514   16.7479 H   0  0  0  0  0  0  0  0  0  0  0  0
    7.6448   -0.9758   18.1041 H   0  0  0  0  0  0  0  0  0  0  0  0
    9.7581   -0.1287   25.8173 H   0  0  0  0  0  0  0  0  0  0  0  0
   10.4931    1.4391   25.3829 H   0  0  0  0  0  0  0  0  0  0  0  0
    0.7302    1.9817   26.7600 H   0  0  0  0  0  0  0  0  0  0  0  0
    0.7670    3.6972   26.3073 H   0  0  0  0  0  0  0  0  0  0  0  0
    2.7216    3.3537   24.8870 H   0  0  0  0  0  0  0  0  0  0  0  0
    3.0885    2.4250   26.3551 H   0  0  0  0  0  0  0  0  0  0  0  0
    7.4214    6.9523   25.2708 H   0  0  0  0  0  0  0  0  0  0  0  0
    6.5254    5.4641   25.7988 H   0  0  0  0  0  0  0  0  0  0  0  0
    6.4011    4.6953   23.4178 H   0  0  0  0  0  0  0  0  0  0  0  0
    7.2972    6.1838   22.8911 H   0  0  0  0  0  0  0  0  0  0  0  0
    7.5801   -2.6060   23.3366 H   0  0  0  0  0  0  0  0  0  0  0  0
    8.7749   -2.8608   22.0657 H   0  0  0  0  0  0  0  0  0  0  0  0
    7.0227   -2.7506   20.5953 H   0  0  0  0  0  0  0  0  0  0  0  0
    5.9554   -1.9484   21.7832 H   0  0  0  0  0  0  0  0  0  0  0  0
    6.8886    0.2769   23.5666 H   0  0  0  0  0  0  0  0  0  0  0  0
    7.6579   -0.8710   24.6633 H   0  0  0  0  0  0  0  0  0  0  0  0
   -0.8202    1.9266   24.9346 H   0  0  0  0  0  0  0  0  0  0  0  0
    0.0659    3.2042   24.0398 H   0  0  0  0  0  0  0  0  0  0  0  0
    2.2923    0.3486   25.3622 H   0  0  0  0  0  0  0  0  0  0  0  0
    0.1328   -0.4201   24.7725 H   0  0  0  0  0  0  0  0  0  0  0  0
   -0.6097    0.1804   23.2467 H   0  0  0  0  0  0  0  0  0  0  0  0
    0.9895   -0.6449   23.2056 H   0  0  0  0  0  0  0  0  0  0  0  0
    3.3858    0.1340   23.1442 H   0  0  0  0  0  0  0  0  0  0  0  0
    4.4451    1.0957   24.2079 H   0  0  0  0  0  0  0  0  0  0  0  0
    7.4792    3.2960   25.4995 H   0  0  0  0  0  0  0  0  0  0  0  0
    9.2447    3.4440   25.6648 H   0  0  0  0  0  0  0  0  0  0  0  0
    1.1827    1.7015   23.0292 H   0  0  0  0  0  0  0  0  0  0  0  0
  1 28  1  0  0  0  0
  1 33  3  0  0  0  0
  2  4  2  0  0  0  0
  2 10  1  0  0  0  0
  3  5  1  0  0  0  0
  3 12  2  0  0  0  0
  4 15  1  0  0  0  0
  5 16  2  0  0  0  0
  6 11  1  0  0  0  0
  6 15  2  0  0  0  0
  7 13  2  0  0  0  0
  7 16  1  0  0  0  0
  8 10  1  0  0  0  0
  8 34  2  0  0  0  0
  9 14  2  0  0  0  0
  9 34  1  0  0  0  0
 10 11  2  0  0  0  0
 11 14  1  0  0  0  0
 12 13  1  0  0  0  0
 12 18  1  0  0  0  0
 13 29  1  0  0  0  0
 14 35  1  0  0  0  0
 15 41  1  0  0  0  0
 16 43  1  0  0  0  0
 17 29  1  0  0  0  0
 17 35  1  0  0  0  0
 17 38  2  0  0  0  0
 18 36  1  0  0  0  0
 19 20  1  0  0  0  0
 19 26  1  0  0  0  0
 20 27  1  0  0  0  0
 21 22  1  0  0  0  0
 21 28  1  0  0  0  0
 22 28  1  0  0  0  0
 23 24  1  0  0  0  0
 23 29  1  0  0  0  0
 24 35  1  0  0  0  0
 25 29  1  0  0  0  0
 25 36  1  0  0  0  0
 26 37  1  0  0  0  0
 27 31  1  1  0  0  0
 27 37  1  0  0  0  0
 28 32  1  0  0  0  0
 30 37  1  6  0  0  0
 31 41  1  0  0  0  0
 32 42  1  0  0  0  0
 36 42  1  1  0  0  0
 39 42  2  0  0  0  0
 40 42  2  0  0  0  0
  2 44  1  0  0  0  0
  3 45  1  0  0  0  0
  4 46  1  0  0  0  0
  5 47  1  0  0  0  0
  6 48  1  0  0  0  0
  7 49  1  0  0  0  0
  8 50  1  0  0  0  0
  9 51  1  0  0  0  0
 18 52  1  0  0  0  0
 18 53  1  0  0  0  0
 19 54  1  0  0  0  0
 19 55  1  0  0  0  0
 20 56  1  0  0  0  0
 20 57  1  0  0  0  0
 21 58  1  0  0  0  0
 21 59  1  0  0  0  0
 22 60  1  0  0  0  0
 22 61  1  0  0  0  0
 23 62  1  0  0  0  0
 23 63  1  0  0  0  0
 24 64  1  0  0  0  0
 24 65  1  0  0  0  0
 25 66  1  0  0  0  0
 25 67  1  0  0  0  0
 26 68  1  0  0  0  0
 26 69  1  0  0  0  0
 27 70  1  0  0  0  0
 30 71  1  0  0  0  0
 30 72  1  0  0  0  0
 30 73  1  0  0  0  0
 31 74  1  0  0  0  0
 31 75  1  0  0  0  0
 32 76  1  0  0  0  0
 32 77  1  0  0  0  0
 37 78  1  0  0  0  0
M  CHG  1  37   1
M  END
> <compound>
MAT-POS-40ad851a-1

> <compound_smiles>
CN1CCCC1COc2ccc3cncc(c3c2)N4CCC5(C4=O)CN(Cc6c5cc(cc6)Cl)S(=O)(=O)CC7(CC7)C#N

> <enantiomer_smiles>
C[N@]1CCC[C@@H]1COc2ccc3cncc(c3c2)N4CCC5(C4=O)C[N@@](Cc6c5cc(cc6)Cl)S(=O)(=O)CC7(CC7)C#N

> <scaffold>
tetrahydroisoquinoline-5spiro-isoquinoline

> <clash_score>
0

> <docking_score>
-7.204468727111816

> <overlap_score>
0.973004937171936

> <MMFF_internal_energy>
160.6133107553492

> <docked_smiles>
C[N@H+]1CCC[C@@H]1COc2ccc3cncc(c3c2)N4CC[C@@]5(C4=O)C[N@@](Cc6c5cc(cc6)Cl)S(=O)(=O)CC7(CC7)C#N

$$$$
EDJ-MED-468565e0-2_2
  -OEChem-12272114583D

 79 85  0     1  0  0  0  0  0999 V2000
    6.3155    4.9014   24.5578 C   0  0  0  0  0  0  0  0  0  0  0  0
    3.7865    2.4205   19.1660 C   0  0  0  0  0  0  0  0  0  0  0  0
   12.0765    0.0316   24.1541 C   0  0  0  0  0  0  0  0  0  0  0  0
    3.3432    2.6279   20.4411 C   0  0  0  0  0  0  0  0  0  0  0  0
   12.9132   -0.6032   23.2569 C   0  0  0  0  0  0  0  0  0  0  0  0
    4.8973    1.0233   21.2988 C   0  0  0  0  0  0  0  0  0  0  0  0
   10.9991   -1.4331   22.0443 C   0  0  0  0  0  0  0  0  0  0  0  0
    5.3278    1.2339   17.6066 C   0  0  0  0  0  0  0  0  0  0  0  0
    6.8438   -0.2892   18.3752 C   0  0  0  0  0  0  0  0  0  0  0  0
    4.8226    1.4906   18.9054 C   0  0  0  0  0  0  0  0  0  0  0  0
    5.3982    0.7733   19.9948 C   0  0  0  0  0  0  0  0  0  0  0  0
   10.7040   -0.0625   23.9898 C   0  0  0  0  0  0  0  0  0  0  0  0
   10.1406   -0.7765   22.9250 C   0  0  0  0  0  0  0  0  0  0  0  0
    6.4440   -0.1472   19.6979 C   0  0  0  0  0  0  0  0  0  0  0  0
    3.8960    1.9291   21.5050 C   0  0  0  0  0  0  0  0  0  0  0  0
   12.3683   -1.3298   22.2234 C   0  0  0  0  0  0  0  0  0  0  0  0
    8.2490    0.0169   21.4271 C   0  0  0  0  0  0  0  0  0  0  0  0
    9.9479    0.5589   24.9534 C   0  0  0  0  0  0  0  0  0  0  0  0
    8.0723    5.9546   26.0276 C   0  0  0  0  0  0  0  0  0  0  0  0
    7.2836    5.0077   26.8831 C   0  0  0  0  0  0  0  0  0  0  0  0
    8.0140   -2.1541   22.4331 C   0  0  0  0  0  0  0  0  0  0  0  0
    6.9866   -1.9366   21.3580 C   0  0  0  0  0  0  0  0  0  0  0  0
    7.8721   -0.1194   23.8831 C   0  0  0  0  0  0  0  0  0  0  0  0
    0.9600    2.7662   25.9934 C   0  0  0  0  0  0  0  0  0  0  0  0
    0.5589    0.7512   24.5870 C   0  0  0  0  0  0  0  0  0  0  0  0
    0.6554    1.9008   27.2046 C   0  0  0  0  0  0  0  0  0  0  0  0
    0.2756   -0.0086   25.8721 C   0  0  0  0  0  0  0  0  0  0  0  0
    7.4618    4.7167   25.4097 C   0  0  0  0  0  0  0  0  0  0  0  0
    8.6238   -0.7606   22.6929 C   0  0  3  0  0  0  0  0  0  0  0  0
    8.3874    3.5882   25.0137 C   0  0  0  0  0  0  0  0  0  0  0  0
    2.9283    1.5069   25.0326 C   0  0  0  0  0  0  0  0  0  0  0  0
    3.4815    1.0690   23.6908 C   0  0  0  0  0  0  0  0  0  0  0  0
    5.3921    5.0503   23.8713 N   0  0  0  0  0  0  0  0  0  0  0  0
    6.3062    0.3769   17.3421 N   0  0  0  0  0  0  0  0  0  0  0  0
    7.2292   -0.6897   20.7790 N   0  0  0  0  0  0  0  0  0  0  0  0
    8.6609    1.0133   24.4995 N   0  0  2  0  0  0  0  0  0  0  0  0
    1.4883    1.9077   24.8689 N   0  3  0  0  0  0  0  0  0  0  0  0
    8.8299    1.0397   21.0799 O   0  0  0  0  0  0  0  0  0  0  0  0
    8.2407    1.8013   26.9144 O   0  0  0  0  0  0  0  0  0  0  0  0
    6.3653    1.9471   25.2271 O   0  0  0  0  0  0  0  0  0  0  0  0
   -0.2663    0.8653   26.8627 O   0  0  0  0  0  0  0  0  0  0  0  0
    3.4227    2.1582   22.7714 O   0  0  0  0  0  0  0  0  0  0  0  0
    7.7708    2.0177   25.5632 S   0  0  0  0  0  0  0  0  0  0  0  0
   13.4272   -2.1411   21.1086 Cl  0  0  0  0  0  0  0  0  0  0  0  0
    3.3406    2.9746   18.3368 H   0  0  0  0  0  0  0  0  0  0  0  0
   12.5024    0.5995   24.9735 H   0  0  0  0  0  0  0  0  0  0  0  0
    2.5407    3.3506   20.6306 H   0  0  0  0  0  0  0  0  0  0  0  0
   13.9910   -0.5177   23.3793 H   0  0  0  0  0  0  0  0  0  0  0  0
    5.3162    0.4858   22.1535 H   0  0  0  0  0  0  0  0  0  0  0  0
   10.6036   -2.0162   21.2241 H   0  0  0  0  0  0  0  0  0  0  0  0
    4.9131    1.7514   16.7479 H   0  0  0  0  0  0  0  0  0  0  0  0
    7.6448   -0.9758   18.1041 H   0  0  0  0  0  0  0  0  0  0  0  0
    9.7849   -0.1194   25.8306 H   0  0  0  0  0  0  0  0  0  0  0  0
   10.4793    1.4568   25.3613 H   0  0  0  0  0  0  0  0  0  0  0  0
    7.6321    6.9216   25.8116 H   0  0  0  0  0  0  0  0  0  0  0  0
    9.1462    5.9865   26.1712 H   0  0  0  0  0  0  0  0  0  0  0  0
    7.8293    4.4058   27.6006 H   0  0  0  0  0  0  0  0  0  0  0  0
    6.3160    5.3417   27.2402 H   0  0  0  0  0  0  0  0  0  0  0  0
    7.5152   -2.5456   23.3338 H   0  0  0  0  0  0  0  0  0  0  0  0
    8.7649   -2.9030   22.1434 H   0  0  0  0  0  0  0  0  0  0  0  0
    7.0587   -2.7248   20.5721 H   0  0  0  0  0  0  0  0  0  0  0  0
    5.9518   -1.9952   21.7720 H   0  0  0  0  0  0  0  0  0  0  0  0
    6.8867    0.2641   23.5642 H   0  0  0  0  0  0  0  0  0  0  0  0
    7.6652   -0.8660   24.6733 H   0  0  0  0  0  0  0  0  0  0  0  0
    0.0553    3.2719   25.6284 H   0  0  0  0  0  0  0  0  0  0  0  0
    1.7361    3.5128   26.2177 H   0  0  0  0  0  0  0  0  0  0  0  0
    1.0601    0.1130   23.8444 H   0  0  0  0  0  0  0  0  0  0  0  0
   -0.3641    1.1641   24.1570 H   0  0  0  0  0  0  0  0  0  0  0  0
    1.5751    1.4215   27.5555 H   0  0  0  0  0  0  0  0  0  0  0  0
    0.2557    2.4928   28.0371 H   0  0  0  0  0  0  0  0  0  0  0  0
   -0.4090   -0.8489   25.7048 H   0  0  0  0  0  0  0  0  0  0  0  0
    1.2089   -0.4199   26.2699 H   0  0  0  0  0  0  0  0  0  0  0  0
    9.3774    3.7195   25.4591 H   0  0  0  0  0  0  0  0  0  0  0  0
    8.4924    3.5311   23.9269 H   0  0  0  0  0  0  0  0  0  0  0  0
    3.4495    2.3839   25.4268 H   0  0  0  0  0  0  0  0  0  0  0  0
    2.9465    0.6934   25.7626 H   0  0  0  0  0  0  0  0  0  0  0  0
    4.5301    0.7750   23.7992 H   0  0  0  0  0  0  0  0  0  0  0  0
    2.9203    0.2243   23.2782 H   0  0  0  0  0  0  0  0  0  0  0  0
    1.4570    2.5174   24.0038 H   0  0  0  0  0  0  0  0  0  0  0  0
  1 28  1  0  0  0  0
  1 33  3  0  0  0  0
  2  4  1  0  0  0  0
  2 10  2  0  0  0  0
  3  5  1  0  0  0  0
  3 12  2  0  0  0  0
  4 15  2  0  0  0  0
  5 16  2  0  0  0  0
  6 11  2  0  0  0  0
  6 15  1  0  0  0  0
  7 13  2  0  0  0  0
  7 16  1  0  0  0  0
  8 10  1  0  0  0  0
  8 34  2  0  0  0  0
  9 14  2  0  0  0  0
  9 34  1  0  0  0  0
 10 11  1  0  0  0  0
 11 14  1  0  0  0  0
 12 13  1  0  0  0  0
 12 18  1  0  0  0  0
 13 29  1  0  0  0  0
 14 35  1  0  0  0  0
 15 42  1  0  0  0  0
 16 44  1  0  0  0  0
 17 29  1  0  0  0  0
 17 35  1  0  0  0  0
 17 38  2  0  0  0  0
 18 36  1  0  0  0  0
 19 20  1  0  0  0  0
 19 28  1  0  0  0  0
 20 28  1  0  0  0  0
 21 22  1  0  0  0  0
 21 29  1  0  0  0  0
 22 35  1  0  0  0  0
 23 29  1  0  0  0  0
 23 36  1  0  0  0  0
 24 26  1  0  0  0  0
 24 37  1  0  0  0  0
 25 27  1  0  0  0  0
 25 37  1  0  0  0  0
 26 41  1  0  0  0  0
 27 41  1  0  0  0  0
 28 30  1  0  0  0  0
 30 43  1  0  0  0  0
 31 32  1  0  0  0  0
 31 37  1  0  0  0  0
 32 42  1  0  0  0  0
 36 43  1  6  0  0  0
 39 43  2  0  0  0  0
 40 43  2  0  0  0  0
  2 45  1  0  0  0  0
  3 46  1  0  0  0  0
  4 47  1  0  0  0  0
  5 48  1  0  0  0  0
  6 49  1  0  0  0  0
  7 50  1  0  0  0  0
  8 51  1  0  0  0  0
  9 52  1  0  0  0  0
 18 53  1  0  0  0  0
 18 54  1  0  0  0  0
 19 55  1  0  0  0  0
 19 56  1  0  0  0  0
 20 57  1  0  0  0  0
 20 58  1  0  0  0  0
 21 59  1  0  0  0  0
 21 60  1  0  0  0  0
 22 61  1  0  0  0  0
 22 62  1  0  0  0  0
 23 63  1  0  0  0  0
 23 64  1  0  0  0  0
 24 65  1  0  0  0  0
 24 66  1  0  0  0  0
 25 67  1  0  0  0  0
 25 68  1  0  0  0  0
 26 69  1  0  0  0  0
 26 70  1  0  0  0  0
 27 71  1  0  0  0  0
 27 72  1  0  0  0  0
 30 73  1  0  0  0  0
 30 74  1  0  0  0  0
 31 75  1  0  0  0  0
 31 76  1  0  0  0  0
 32 77  1  0  0  0  0
 32 78  1  0  0  0  0
 37 79  1  0  0  0  0
M  CHG  1  37   1
M  END
> <compound>
EDJ-MED-468565e0-2

> <compound_smiles>
c1cc2cncc(c2cc1OCCN3CCOCC3)N4CCC5(C4=O)CN(Cc6c5cc(cc6)Cl)S(=O)(=O)CC7(CC7)C#N

> <enantiomer_smiles>
c1cc2cncc(c2cc1OCCN3CCOCC3)N4CCC5(C4=O)C[N@](Cc6c5cc(cc6)Cl)S(=O)(=O)CC7(CC7)C#N

> <scaffold>
tetrahydroisoquinoline-5spiro-isoquinoline

> <clash_score>
0

> <docking_score>
-5.972527980804443

> <overlap_score>
0.9679126143455505

> <MMFF_internal_energy>
201.39351985665417

> <docked_smiles>
c1cc2cncc(c2cc1OCC[NH+]3CCOCC3)N4CC[C@@]5(C4=O)C[N@](Cc6c5cc(cc6)Cl)S(=O)(=O)CC7(CC7)C#N

$$$$
MAT-POS-40ad851a-5_1
  -OEChem-12272114583D

 81 87  0     1  0  0  0  0  0999 V2000
    9.4878    5.5221   23.8398 C   0  0  0  0  0  0  0  0  0  0  0  0
    3.7865    2.4205   19.1660 C   0  0  0  0  0  0  0  0  0  0  0  0
   12.0765    0.0316   24.1541 C   0  0  0  0  0  0  0  0  0  0  0  0
    3.3432    2.6279   20.4411 C   0  0  0  0  0  0  0  0  0  0  0  0
   12.9132   -0.6032   23.2569 C   0  0  0  0  0  0  0  0  0  0  0  0
    4.8973    1.0233   21.2988 C   0  0  0  0  0  0  0  0  0  0  0  0
   10.9991   -1.4331   22.0443 C   0  0  0  0  0  0  0  0  0  0  0  0
    5.3278    1.2339   17.6066 C   0  0  0  0  0  0  0  0  0  0  0  0
    6.8438   -0.2892   18.3752 C   0  0  0  0  0  0  0  0  0  0  0  0
    4.8226    1.4906   18.9054 C   0  0  0  0  0  0  0  0  0  0  0  0
    5.3982    0.7733   19.9948 C   0  0  0  0  0  0  0  0  0  0  0  0
   10.7040   -0.0625   23.9898 C   0  0  0  0  0  0  0  0  0  0  0  0
   10.1406   -0.7765   22.9250 C   0  0  0  0  0  0  0  0  0  0  0  0
    6.4440   -0.1472   19.6979 C   0  0  0  0  0  0  0  0  0  0  0  0
    3.8960    1.9291   21.5050 C   0  0  0  0  0  0  0  0  0  0  0  0
   12.3683   -1.3298   22.2234 C   0  0  0  0  0  0  0  0  0  0  0  0
    8.2490    0.0169   21.4271 C   0  0  0  0  0  0  0  0  0  0  0  0
    9.9479    0.5589   24.9534 C   0  0  0  0  0  0  0  0  0  0  0  0
    1.0406    5.5261   23.8414 C   0  0  0  0  0  0  0  0  0  0  0  0
   -0.2830    4.8243   23.6127 C   0  0  0  0  0  0  0  0  0  0  0  0
    7.5599    6.0147   25.3877 C   0  0  0  0  0  0  0  0  0  0  0  0
    6.9786    5.5645   24.0800 C   0  0  0  0  0  0  0  0  0  0  0  0
    8.0140   -2.1541   22.4331 C   0  0  0  0  0  0  0  0  0  0  0  0
    6.9866   -1.9366   21.3580 C   0  0  0  0  0  0  0  0  0  0  0  0
    7.8721   -0.1194   23.8831 C   0  0  0  0  0  0  0  0  0  0  0  0
    1.8240    4.5022   24.6345 C   0  0  0  0  0  0  0  0  0  0  0  0
    0.1092    3.3926   23.2926 C   0  0  0  0  0  0  0  0  0  0  0  0
    8.3214    5.0316   24.5273 C   0  0  0  0  0  0  0  0  0  0  0  0
    8.6238   -0.7606   22.6929 C   0  0  3  0  0  0  0  0  0  0  0  0
    8.3989    3.5932   24.9882 C   0  0  0  0  0  0  0  0  0  0  0  0
    2.9282    1.5411   25.0367 C   0  0  0  0  0  0  0  0  0  0  0  0
    1.4922    2.0200   24.9092 C   0  0  0  0  0  0  0  0  0  0  0  0
    3.4781    1.0738   23.6967 C   0  0  0  0  0  0  0  0  0  0  0  0
   10.4275    5.9174   23.2859 N   0  0  0  0  0  0  0  0  0  0  0  0
    6.3062    0.3769   17.3421 N   0  0  0  0  0  0  0  0  0  0  0  0
    7.2292   -0.6897   20.7790 N   0  0  0  0  0  0  0  0  0  0  0  0
    8.6609    1.0133   24.4995 N   0  0  1  0  0  0  0  0  0  0  0  0
    1.4469    3.1909   23.9808 N   0  3  0  0  0  0  0  0  0  0  0  0
    8.7572    1.0941   21.1350 O   0  0  0  0  0  0  0  0  0  0  0  0
    7.4179    2.5201   22.8172 O   0  0  0  0  0  0  0  0  0  0  0  0
    9.9251    2.7322   23.0499 O   0  0  0  0  0  0  0  0  0  0  0  0
    3.4227    2.1582   22.7715 O   0  0  0  0  0  0  0  0  0  0  0  0
    8.6198    2.4832   23.6217 S   0  0  0  0  0  0  0  0  0  0  0  0
   13.4275   -2.1421   21.1097 Cl  0  0  0  0  0  0  0  0  0  0  0  0
    3.3406    2.9746   18.3368 H   0  0  0  0  0  0  0  0  0  0  0  0
   12.5015    0.5938   24.9776 H   0  0  0  0  0  0  0  0  0  0  0  0
    2.5407    3.3506   20.6306 H   0  0  0  0  0  0  0  0  0  0  0  0
   13.9911   -0.5212   23.3814 H   0  0  0  0  0  0  0  0  0  0  0  0
    5.3162    0.4858   22.1535 H   0  0  0  0  0  0  0  0  0  0  0  0
   10.6037   -2.0228   21.2288 H   0  0  0  0  0  0  0  0  0  0  0  0
    4.9131    1.7514   16.7479 H   0  0  0  0  0  0  0  0  0  0  0  0
    7.6448   -0.9758   18.1041 H   0  0  0  0  0  0  0  0  0  0  0  0
    9.7581   -0.1287   25.8173 H   0  0  0  0  0  0  0  0  0  0  0  0
   10.4931    1.4391   25.3829 H   0  0  0  0  0  0  0  0  0  0  0  0
    1.5357    5.7356   22.8858 H   0  0  0  0  0  0  0  0  0  0  0  0
    0.9221    6.4685   24.3832 H   0  0  0  0  0  0  0  0  0  0  0  0
   -0.8885    4.8535   24.5264 H   0  0  0  0  0  0  0  0  0  0  0  0
   -0.8613    5.2838   22.8060 H   0  0  0  0  0  0  0  0  0  0  0  0
    7.9126    7.0377   25.4548 H   0  0  0  0  0  0  0  0  0  0  0  0
    7.0921    5.6542   26.2966 H   0  0  0  0  0  0  0  0  0  0  0  0
    6.1206    4.9030   24.1131 H   0  0  0  0  0  0  0  0  0  0  0  0
    6.9417    6.2868   23.2725 H   0  0  0  0  0  0  0  0  0  0  0  0
    7.5801   -2.6060   23.3366 H   0  0  0  0  0  0  0  0  0  0  0  0
    8.7749   -2.8608   22.0657 H   0  0  0  0  0  0  0  0  0  0  0  0
    7.0227   -2.7506   20.5953 H   0  0  0  0  0  0  0  0  0  0  0  0
    5.9554   -1.9484   21.7832 H   0  0  0  0  0  0  0  0  0  0  0  0
    6.8886    0.2769   23.5666 H   0  0  0  0  0  0  0  0  0  0  0  0
    7.6579   -0.8710   24.6633 H   0  0  0  0  0  0  0  0  0  0  0  0
    2.9070    4.6273   24.5698 H   0  0  0  0  0  0  0  0  0  0  0  0
    1.4960    4.4651   25.6781 H   0  0  0  0  0  0  0  0  0  0  0  0
   -0.6122    2.6622   23.6691 H   0  0  0  0  0  0  0  0  0  0  0  0
    0.2769    3.2424   22.2219 H   0  0  0  0  0  0  0  0  0  0  0  0
    7.4792    3.2960   25.4995 H   0  0  0  0  0  0  0  0  0  0  0  0
    9.2447    3.4440   25.6648 H   0  0  0  0  0  0  0  0  0  0  0  0
    2.9967    0.7211   25.7630 H   0  0  0  0  0  0  0  0  0  0  0  0
    3.5667    2.3414   25.4318 H   0  0  0  0  0  0  0  0  0  0  0  0
    1.0863    2.3585   25.8670 H   0  0  0  0  0  0  0  0  0  0  0  0
    0.8401    1.2518   24.4832 H   0  0  0  0  0  0  0  0  0  0  0  0
    2.8839    0.2453   23.2983 H   0  0  0  0  0  0  0  0  0  0  0  0
    4.5198    0.7515   23.7933 H   0  0  0  0  0  0  0  0  0  0  0  0
    2.1393    3.0188   23.2375 H   0  0  0  0  0  0  0  0  0  0  0  0
  1 28  1  0  0  0  0
  1 34  3  0  0  0  0
  2  4  1  0  0  0  0
  2 10  2  0  0  0  0
  3  5  1  0  0  0  0
  3 12  2  0  0  0  0
  4 15  2  0  0  0  0
  5 16  2  0  0  0  0
  6 11  2  0  0  0  0
  6 15  1  0  0  0  0
  7 13  2  0  0  0  0
  7 16  1  0  0  0  0
  8 10  1  0  0  0  0
  8 35  2  0  0  0  0
  9 14  2  0  0  0  0
  9 35  1  0  0  0  0
 10 11  1  0  0  0  0
 11 14  1  0  0  0  0
 12 13  1  0  0  0  0
 12 18  1  0  0  0  0
 13 29  1  0  0  0  0
 14 36  1  0  0  0  0
 15 42  1  0  0  0  0
 16 44  1  0  0  0  0
 17 29  1  0  0  0  0
 17 36  1  0  0  0  0
 17 39  2  0  0  0  0
 18 37  1  0  0  0  0
 19 20  1  0  0  0  0
 19 26  1  0  0  0  0
 20 27  1  0  0  0  0
 21 22  1  0  0  0  0
 21 28  1  0  0  0  0
 22 28  1  0  0  0  0
 23 24  1  0  0  0  0
 23 29  1  0  0  0  0
 24 36  1  0  0  0  0
 25 29  1  0  0  0  0
 25 37  1  0  0  0  0
 26 38  1  0  0  0  0
 27 38  1  0  0  0  0
 28 30  1  0  0  0  0
 30 43  1  0  0  0  0
 31 32  1  0  0  0  0
 31 33  1  0  0  0  0
 32 38  1  0  0  0  0
 33 42  1  0  0  0  0
 37 43  1  1  0  0  0
 40 43  2  0  0  0  0
 41 43  2  0  0  0  0
  2 45  1  0  0  0  0
  3 46  1  0  0  0  0
  4 47  1  0  0  0  0
  5 48  1  0  0  0  0
  6 49  1  0  0  0  0
  7 50  1  0  0  0  0
  8 51  1  0  0  0  0
  9 52  1  0  0  0  0
 18 53  1  0  0  0  0
 18 54  1  0  0  0  0
 19 55  1  0  0  0  0
 19 56  1  0  0  0  0
 20 57  1  0  0  0  0
 20 58  1  0  0  0  0
 21 59  1  0  0  0  0
 21 60  1  0  0  0  0
 22 61  1  0  0  0  0
 22 62  1  0  0  0  0
 23 63  1  0  0  0  0
 23 64  1  0  0  0  0
 24 65  1  0  0  0  0
 24 66  1  0  0  0  0
 25 67  1  0  0  0  0
 25 68  1  0  0  0  0
 26 69  1  0  0  0  0
 26 70  1  0  0  0  0
 27 71  1  0  0  0  0
 27 72  1  0  0  0  0
 30 73  1  0  0  0  0
 30 74  1  0  0  0  0
 31 75  1  0  0  0  0
 31 76  1  0  0  0  0
 32 77  1  0  0  0  0
 32 78  1  0  0  0  0
 33 79  1  0  0  0  0
 33 80  1  0  0  0  0
 38 81  1  0  0  0  0
M  CHG  1  38   1
M  END
> <compound>
MAT-POS-40ad851a-5

> <compound_smiles>
c1cc2cncc(c2cc1OCCCN3CCCC3)N4CCC5(C4=O)CN(Cc6c5cc(cc6)Cl)S(=O)(=O)CC7(CC7)C#N

> <enantiomer_smiles>
c1cc2cncc(c2cc1OCCCN3CCCC3)N4CCC5(C4=O)C[N@@](Cc6c5cc(cc6)Cl)S(=O)(=O)CC7(CC7)C#N

> <scaffold>
tetrahydroisoquinoline-5spiro-isoquinoline

> <clash_score>
0

> <docking_score>
-6.7963666915893555

> <overlap_score>
0.9715611934661865

> <MMFF_internal_energy>
137.01948419233773

> <docked_smiles>
c1cc2cncc(c2cc1OCCC[NH+]3CCCC3)N4CC[C@@]5(C4=O)C[N@@](Cc6c5cc(cc6)Cl)S(=O)(=O)CC7(CC7)C#N

$$$$
EDJ-MED-dfa1d800-4_1
  -OEChem-12272114583D

 80 86  0     1  0  0  0  0  0999 V2000
    3.7865    2.4205   19.1660 C   0  0  0  0  0  0  0  0  0  0  0  0
   12.0765    0.0316   24.1541 C   0  0  0  0  0  0  0  0  0  0  0  0
    3.3432    2.6279   20.4411 C   0  0  0  0  0  0  0  0  0  0  0  0
   12.9132   -0.6032   23.2569 C   0  0  0  0  0  0  0  0  0  0  0  0
    4.8973    1.0233   21.2988 C   0  0  0  0  0  0  0  0  0  0  0  0
   10.9991   -1.4331   22.0443 C   0  0  0  0  0  0  0  0  0  0  0  0
    5.3278    1.2339   17.6066 C   0  0  0  0  0  0  0  0  0  0  0  0
    6.8438   -0.2892   18.3752 C   0  0  0  0  0  0  0  0  0  0  0  0
    4.8226    1.4906   18.9054 C   0  0  0  0  0  0  0  0  0  0  0  0
    5.3982    0.7733   19.9948 C   0  0  0  0  0  0  0  0  0  0  0  0
   10.7040   -0.0625   23.9898 C   0  0  0  0  0  0  0  0  0  0  0  0
   10.1406   -0.7765   22.9250 C   0  0  0  0  0  0  0  0  0  0  0  0
    6.4440   -0.1472   19.6979 C   0  0  0  0  0  0  0  0  0  0  0  0
    3.8960    1.9291   21.5050 C   0  0  0  0  0  0  0  0  0  0  0  0
   12.3683   -1.3298   22.2234 C   0  0  0  0  0  0  0  0  0  0  0  0
    9.9479    0.5589   24.9534 C   0  0  0  0  0  0  0  0  0  0  0  0
    8.2490    0.0169   21.4271 C   0  0  0  0  0  0  0  0  0  0  0  0
    8.4330    3.2597   23.7801 C   0  0  0  0  0  0  0  0  0  0  0  0
    7.9387    2.6608   26.2131 C   0  0  0  0  0  0  0  0  0  0  0  0
    6.7298    2.2855   25.4149 C   0  0  0  0  0  0  0  0  0  0  0  0
    8.0140   -2.1541   22.4331 C   0  0  0  0  0  0  0  0  0  0  0  0
    4.8113    6.4162   25.2192 C   0  0  0  0  0  0  0  0  0  0  0  0
    5.5431    7.2516   22.9464 C   0  0  0  0  0  0  0  0  0  0  0  0
    6.9866   -1.9366   21.3580 C   0  0  0  0  0  0  0  0  0  0  0  0
    7.8721   -0.1194   23.8831 C   0  0  0  0  0  0  0  0  0  0  0  0
    3.4230    6.1370   24.6616 C   0  0  0  0  0  0  0  0  0  0  0  0
    4.1506    6.9680   22.4018 C   0  0  0  0  0  0  0  0  0  0  0  0
    8.6238   -0.7606   22.6929 C   0  0  3  0  0  0  0  0  0  0  0  0
    8.1001    2.2206   24.7728 C   0  0  0  0  0  0  0  0  0  0  0  0
    5.5164    7.5131   24.4417 C   0  0  0  0  0  0  0  0  0  0  0  0
   10.1385    4.9678   23.1833 C   0  0  0  0  0  0  0  0  0  0  0  0
    4.0147    4.4874   22.8458 C   0  0  0  0  0  0  0  0  0  0  0  0
    2.9166    3.4625   23.0504 C   0  0  0  0  0  0  0  0  0  0  0  0
    6.3062    0.3769   17.3421 N   0  0  0  0  0  0  0  0  0  0  0  0
    7.2292   -0.6897   20.7790 N   0  0  0  0  0  0  0  0  0  0  0  0
    8.6609    1.0133   24.4995 N   0  0  0  0  0  0  0  0  0  0  0  0
    9.6227    3.9165   24.0305 N   0  0  0  0  0  0  0  0  0  0  0  0
    3.4849    5.8563   23.1785 N   0  3  0  0  0  0  0  0  0  0  0  0
   10.3189    0.7351   26.1117 O   0  0  0  0  0  0  0  0  0  0  0  0
    8.7583    1.0935   21.1353 O   0  0  0  0  0  0  0  0  0  0  0  0
    7.6723    3.4643   22.8414 O   0  0  0  0  0  0  0  0  0  0  0  0
    3.4227    2.1582   22.7714 O   0  0  0  0  0  0  0  0  0  0  0  0
    6.7844    7.6526   24.9012 F   0  0  0  0  0  0  0  0  0  0  0  0
    4.8901    8.6964   24.6750 F   0  0  0  0  0  0  0  0  0  0  0  0
   13.4277   -2.1397   21.1088 Cl  0  0  0  0  0  0  0  0  0  0  0  0
    3.3406    2.9746   18.3368 H   0  0  0  0  0  0  0  0  0  0  0  0
   12.5170    0.5914   24.9756 H   0  0  0  0  0  0  0  0  0  0  0  0
    2.5407    3.3506   20.6306 H   0  0  0  0  0  0  0  0  0  0  0  0
   13.9904   -0.5162   23.3783 H   0  0  0  0  0  0  0  0  0  0  0  0
    5.3162    0.4858   22.1535 H   0  0  0  0  0  0  0  0  0  0  0  0
   10.6131   -2.0184   21.2223 H   0  0  0  0  0  0  0  0  0  0  0  0
    4.9131    1.7514   16.7479 H   0  0  0  0  0  0  0  0  0  0  0  0
    7.6448   -0.9758   18.1041 H   0  0  0  0  0  0  0  0  0  0  0  0
    8.0776    3.7082   26.4542 H   0  0  0  0  0  0  0  0  0  0  0  0
    8.2534    1.9826   26.9978 H   0  0  0  0  0  0  0  0  0  0  0  0
    6.2323    1.3552   25.6629 H   0  0  0  0  0  0  0  0  0  0  0  0
    6.0552    3.0805   25.1192 H   0  0  0  0  0  0  0  0  0  0  0  0
    7.5778   -2.6152   23.3309 H   0  0  0  0  0  0  0  0  0  0  0  0
    8.7844   -2.8455   22.0573 H   0  0  0  0  0  0  0  0  0  0  0  0
    4.7438    6.6972   26.2773 H   0  0  0  0  0  0  0  0  0  0  0  0
    5.4082    5.4982   25.1773 H   0  0  0  0  0  0  0  0  0  0  0  0
    6.1939    6.3947   22.7376 H   0  0  0  0  0  0  0  0  0  0  0  0
    5.9832    8.1119   22.4277 H   0  0  0  0  0  0  0  0  0  0  0  0
    7.0224   -2.7504   20.5947 H   0  0  0  0  0  0  0  0  0  0  0  0
    5.9553   -1.9483   21.7835 H   0  0  0  0  0  0  0  0  0  0  0  0
    6.8937    0.2571   23.5799 H   0  0  0  0  0  0  0  0  0  0  0  0
    7.7158   -0.8401   24.6911 H   0  0  0  0  0  0  0  0  0  0  0  0
    2.9600    5.2633   25.1431 H   0  0  0  0  0  0  0  0  0  0  0  0
    2.7702    7.0099   24.8015 H   0  0  0  0  0  0  0  0  0  0  0  0
    3.5130    7.8582   22.4947 H   0  0  0  0  0  0  0  0  0  0  0  0
    4.1822    6.6594   21.3468 H   0  0  0  0  0  0  0  0  0  0  0  0
   10.7777    4.5299   22.4026 H   0  0  0  0  0  0  0  0  0  0  0  0
    9.3008    5.5039   22.7132 H   0  0  0  0  0  0  0  0  0  0  0  0
   10.7293    5.6703   23.7895 H   0  0  0  0  0  0  0  0  0  0  0  0
    4.3492    4.5309   21.8054 H   0  0  0  0  0  0  0  0  0  0  0  0
    4.8634    4.3092   23.5113 H   0  0  0  0  0  0  0  0  0  0  0  0
    2.5823    3.4791   24.0924 H   0  0  0  0  0  0  0  0  0  0  0  0
    2.0562    3.6566   22.4018 H   0  0  0  0  0  0  0  0  0  0  0  0
   10.1604    3.6476   24.8490 H   0  0  0  0  0  0  0  0  0  0  0  0
    2.4741    5.8549   22.8526 H   0  0  0  0  0  0  0  0  0  0  0  0
  1  3  2  0  0  0  0
  1  9  1  0  0  0  0
  2  4  2  0  0  0  0
  2 11  1  0  0  0  0
  3 14  1  0  0  0  0
  4 15  1  0  0  0  0
  5 10  1  0  0  0  0
  5 14  2  0  0  0  0
  6 12  1  0  0  0  0
  6 15  2  0  0  0  0
  7  9  2  0  0  0  0
  7 34  1  0  0  0  0
  8 13  1  0  0  0  0
  8 34  2  0  0  0  0
  9 10  1  0  0  0  0
 10 13  2  0  0  0  0
 11 12  2  0  0  0  0
 11 16  1  0  0  0  0
 12 28  1  0  0  0  0
 13 35  1  0  0  0  0
 14 42  1  0  0  0  0
 15 45  1  0  0  0  0
 16 36  1  0  0  0  0
 16 39  2  0  0  0  0
 17 28  1  0  0  0  0
 17 35  1  0  0  0  0
 17 40  2  0  0  0  0
 18 29  1  0  0  0  0
 18 37  1  0  0  0  0
 18 41  2  0  0  0  0
 19 20  1  0  0  0  0
 19 29  1  0  0  0  0
 20 29  1  0  0  0  0
 21 24  1  0  0  0  0
 21 28  1  0  0  0  0
 22 26  1  0  0  0  0
 22 30  1  0  0  0  0
 23 27  1  0  0  0  0
 23 30  1  0  0  0  0
 24 35  1  0  0  0  0
 25 28  1  0  0  0  0
 25 36  1  0  0  0  0
 26 38  1  0  0  0  0
 27 38  1  0  0  0  0
 29 36  1  0  0  0  0
 30 43  1  0  0  0  0
 30 44  1  0  0  0  0
 31 37  1  0  0  0  0
 32 33  1  0  0  0  0
 32 38  1  0  0  0  0
 33 42  1  0  0  0  0
  1 46  1  0  0  0  0
  2 47  1  0  0  0  0
  3 48  1  0  0  0  0
  4 49  1  0  0  0  0
  5 50  1  0  0  0  0
  6 51  1  0  0  0  0
  7 52  1  0  0  0  0
  8 53  1  0  0  0  0
 19 54  1  0  0  0  0
 19 55  1  0  0  0  0
 20 56  1  0  0  0  0
 20 57  1  0  0  0  0
 21 58  1  0  0  0  0
 21 59  1  0  0  0  0
 22 60  1  0  0  0  0
 22 61  1  0  0  0  0
 23 62  1  0  0  0  0
 23 63  1  0  0  0  0
 24 64  1  0  0  0  0
 24 65  1  0  0  0  0
 25 66  1  0  0  0  0
 25 67  1  0  0  0  0
 26 68  1  0  0  0  0
 26 69  1  0  0  0  0
 27 70  1  0  0  0  0
 27 71  1  0  0  0  0
 31 72  1  0  0  0  0
 31 73  1  0  0  0  0
 31 74  1  0  0  0  0
 32 75  1  0  0  0  0
 32 76  1  0  0  0  0
 33 77  1  0  0  0  0
 33 78  1  0  0  0  0
 37 79  1  0  0  0  0
 38 80  1  0  0  0  0
M  CHG  1  38   1
M  END
> <compound>
EDJ-MED-dfa1d800-4

> <compound_smiles>
CNC(=O)C1(CC1)N2CC3(CCN(C3=O)c4cncc5c4cc(cc5)OCCN6CCC(CC6)(F)F)c7cc(ccc7C2=O)Cl

> <enantiomer_smiles>
CNC(=O)C1(CC1)N2CC3(CCN(C3=O)c4cncc5c4cc(cc5)OCCN6CCC(CC6)(F)F)c7cc(ccc7C2=O)Cl

> <scaffold>
tetrahydroisoquinoline-5spiro-isoquinoline

> <clash_score>
0

> <docking_score>
-7.18509578704834

> <overlap_score>
0.9834110736846924

> <MMFF_internal_energy>
153.4147358608895

> <docked_smiles>
CNC(=O)C1(CC1)N2C[C@]3(CCN(C3=O)c4cncc5c4cc(cc5)OCC[NH+]6CCC(CC6)(F)F)c7cc(ccc7C2=O)Cl

$$$$
EDJ-MED-468565e0-3_2
  -OEChem-12272114583D

 80 86  0     1  0  0  0  0  0999 V2000
    6.3365    4.8398   25.6864 C   0  0  0  0  0  0  0  0  0  0  0  0
    3.7865    2.4205   19.1660 C   0  0  0  0  0  0  0  0  0  0  0  0
   12.0765    0.0316   24.1541 C   0  0  0  0  0  0  0  0  0  0  0  0
    3.3432    2.6279   20.4411 C   0  0  0  0  0  0  0  0  0  0  0  0
   12.9132   -0.6032   23.2569 C   0  0  0  0  0  0  0  0  0  0  0  0
    4.8973    1.0233   21.2988 C   0  0  0  0  0  0  0  0  0  0  0  0
   10.9991   -1.4331   22.0443 C   0  0  0  0  0  0  0  0  0  0  0  0
    5.3278    1.2339   17.6066 C   0  0  0  0  0  0  0  0  0  0  0  0
    6.8438   -0.2892   18.3752 C   0  0  0  0  0  0  0  0  0  0  0  0
    4.8226    1.4906   18.9054 C   0  0  0  0  0  0  0  0  0  0  0  0
    5.3982    0.7733   19.9948 C   0  0  0  0  0  0  0  0  0  0  0  0
   10.7040   -0.0625   23.9898 C   0  0  0  0  0  0  0  0  0  0  0  0
   10.1406   -0.7765   22.9250 C   0  0  0  0  0  0  0  0  0  0  0  0
    6.4440   -0.1472   19.6979 C   0  0  0  0  0  0  0  0  0  0  0  0
    3.8960    1.9291   21.5050 C   0  0  0  0  0  0  0  0  0  0  0  0
   12.3683   -1.3298   22.2234 C   0  0  0  0  0  0  0  0  0  0  0  0
    8.2490    0.0169   21.4271 C   0  0  0  0  0  0  0  0  0  0  0  0
    9.9479    0.5589   24.9534 C   0  0  0  0  0  0  0  0  0  0  0  0
    8.5554    6.0146   25.9144 C   0  0  0  0  0  0  0  0  0  0  0  0
    8.3999    5.1188   27.1077 C   0  0  0  0  0  0  0  0  0  0  0  0
    8.0140   -2.1541   22.4331 C   0  0  0  0  0  0  0  0  0  0  0  0
    6.9866   -1.9366   21.3580 C   0  0  0  0  0  0  0  0  0  0  0  0
    0.8894   -0.4750   25.8687 C   0  0  0  0  0  0  0  0  0  0  0  0
    2.3599   -1.6536   24.3174 C   0  0  0  0  0  0  0  0  0  0  0  0
    7.8721   -0.1194   23.8831 C   0  0  0  0  0  0  0  0  0  0  0  0
    0.9620   -1.5245   26.9714 C   0  0  0  0  0  0  0  0  0  0  0  0
    2.6133   -2.8487   25.2287 C   0  0  0  0  0  0  0  0  0  0  0  0
    7.7686    4.7292   25.7898 C   0  0  0  0  0  0  0  0  0  0  0  0
    8.6238   -0.7606   22.6929 C   0  0  3  0  0  0  0  0  0  0  0  0
    8.3874    3.5882   25.0137 C   0  0  0  0  0  0  0  0  0  0  0  0
    2.0787    0.7296   24.1606 C   0  0  0  0  0  0  0  0  0  0  0  0
    3.4815    1.0690   23.6908 C   0  0  0  0  0  0  0  0  0  0  0  0
    5.1827    4.9289   25.6031 N   0  0  0  0  0  0  0  0  0  0  0  0
    6.3062    0.3769   17.3421 N   0  0  0  0  0  0  0  0  0  0  0  0
    7.2292   -0.6897   20.7790 N   0  0  0  0  0  0  0  0  0  0  0  0
    8.6609    1.0133   24.4995 N   0  0  2  0  0  0  0  0  0  0  0  0
    2.1302   -0.4126   25.0771 N   0  0  0  0  0  0  0  0  0  0  0  0
    8.8299    1.0397   21.0799 O   0  0  0  0  0  0  0  0  0  0  0  0
    1.6894   -4.0051   27.3885 O   0  0  0  0  0  0  0  0  0  0  0  0
    0.0894   -3.5136   25.4995 O   0  0  0  0  0  0  0  0  0  0  0  0
    8.2407    1.8013   26.9144 O   0  0  0  0  0  0  0  0  0  0  0  0
    6.3653    1.9471   25.2271 O   0  0  0  0  0  0  0  0  0  0  0  0
    3.4227    2.1582   22.7714 O   0  0  0  0  0  0  0  0  0  0  0  0
    1.2357   -3.1504   26.3093 S   0  0  0  0  0  0  0  0  0  0  0  0
    7.7708    2.0177   25.5632 S   0  0  0  0  0  0  0  0  0  0  0  0
   13.4272   -2.1411   21.1086 Cl  0  0  0  0  0  0  0  0  0  0  0  0
    3.3406    2.9746   18.3368 H   0  0  0  0  0  0  0  0  0  0  0  0
   12.5024    0.5995   24.9735 H   0  0  0  0  0  0  0  0  0  0  0  0
    2.5407    3.3506   20.6306 H   0  0  0  0  0  0  0  0  0  0  0  0
   13.9910   -0.5177   23.3793 H   0  0  0  0  0  0  0  0  0  0  0  0
    5.3162    0.4858   22.1535 H   0  0  0  0  0  0  0  0  0  0  0  0
   10.6036   -2.0162   21.2241 H   0  0  0  0  0  0  0  0  0  0  0  0
    4.9131    1.7514   16.7479 H   0  0  0  0  0  0  0  0  0  0  0  0
    7.6448   -0.9758   18.1041 H   0  0  0  0  0  0  0  0  0  0  0  0
    9.7849   -0.1194   25.8306 H   0  0  0  0  0  0  0  0  0  0  0  0
   10.4793    1.4568   25.3613 H   0  0  0  0  0  0  0  0  0  0  0  0
    8.0222    6.9586   25.9223 H   0  0  0  0  0  0  0  0  0  0  0  0
    9.5340    6.0703   25.4517 H   0  0  0  0  0  0  0  0  0  0  0  0
    9.2748    4.5751   27.4449 H   0  0  0  0  0  0  0  0  0  0  0  0
    7.7632    5.4641   27.9144 H   0  0  0  0  0  0  0  0  0  0  0  0
    7.5152   -2.5456   23.3338 H   0  0  0  0  0  0  0  0  0  0  0  0
    8.7649   -2.9030   22.1434 H   0  0  0  0  0  0  0  0  0  0  0  0
    7.0587   -2.7248   20.5721 H   0  0  0  0  0  0  0  0  0  0  0  0
    5.9518   -1.9952   21.7720 H   0  0  0  0  0  0  0  0  0  0  0  0
    0.0238   -0.6681   25.2184 H   0  0  0  0  0  0  0  0  0  0  0  0
    0.7124    0.4956   26.3527 H   0  0  0  0  0  0  0  0  0  0  0  0
    3.2466   -1.5359   23.6794 H   0  0  0  0  0  0  0  0  0  0  0  0
    1.5124   -1.8602   23.6477 H   0  0  0  0  0  0  0  0  0  0  0  0
    6.8867    0.2641   23.5642 H   0  0  0  0  0  0  0  0  0  0  0  0
    7.6652   -0.8660   24.6733 H   0  0  0  0  0  0  0  0  0  0  0  0
    1.7810   -1.3100   27.6661 H   0  0  0  0  0  0  0  0  0  0  0  0
    0.0272   -1.5582   27.5390 H   0  0  0  0  0  0  0  0  0  0  0  0
    2.7714   -3.7590   24.6420 H   0  0  0  0  0  0  0  0  0  0  0  0
    3.4949   -2.6846   25.8575 H   0  0  0  0  0  0  0  0  0  0  0  0
    9.4732    3.5710   25.1421 H   0  0  0  0  0  0  0  0  0  0  0  0
    8.1577    3.6698   23.9479 H   0  0  0  0  0  0  0  0  0  0  0  0
    1.6222    1.5728   24.6886 H   0  0  0  0  0  0  0  0  0  0  0  0
    1.4478    0.4559   23.3095 H   0  0  0  0  0  0  0  0  0  0  0  0
    3.9203    0.2116   23.1711 H   0  0  0  0  0  0  0  0  0  0  0  0
    4.1295    1.3491   24.5277 H   0  0  0  0  0  0  0  0  0  0  0  0
  1 28  1  0  0  0  0
  1 33  3  0  0  0  0
  2  4  1  0  0  0  0
  2 10  2  0  0  0  0
  3  5  1  0  0  0  0
  3 12  2  0  0  0  0
  4 15  2  0  0  0  0
  5 16  2  0  0  0  0
  6 11  2  0  0  0  0
  6 15  1  0  0  0  0
  7 13  2  0  0  0  0
  7 16  1  0  0  0  0
  8 10  1  0  0  0  0
  8 34  2  0  0  0  0
  9 14  2  0  0  0  0
  9 34  1  0  0  0  0
 10 11  1  0  0  0  0
 11 14  1  0  0  0  0
 12 13  1  0  0  0  0
 12 18  1  0  0  0  0
 13 29  1  0  0  0  0
 14 35  1  0  0  0  0
 15 43  1  0  0  0  0
 16 46  1  0  0  0  0
 17 29  1  0  0  0  0
 17 35  1  0  0  0  0
 17 38  2  0  0  0  0
 18 36  1  0  0  0  0
 19 20  1  0  0  0  0
 19 28  1  0  0  0  0
 20 28  1  0  0  0  0
 21 22  1  0  0  0  0
 21 29  1  0  0  0  0
 22 35  1  0  0  0  0
 23 26  1  0  0  0  0
 23 37  1  0  0  0  0
 24 27  1  0  0  0  0
 24 37  1  0  0  0  0
 25 29  1  0  0  0  0
 25 36  1  0  0  0  0
 26 44  1  0  0  0  0
 27 44  1  0  0  0  0
 28 30  1  0  0  0  0
 30 45  1  0  0  0  0
 31 32  1  0  0  0  0
 31 37  1  0  0  0  0
 32 43  1  0  0  0  0
 36 45  1  6  0  0  0
 39 44  2  0  0  0  0
 40 44  2  0  0  0  0
 41 45  2  0  0  0  0
 42 45  2  0  0  0  0
  2 47  1  0  0  0  0
  3 48  1  0  0  0  0
  4 49  1  0  0  0  0
  5 50  1  0  0  0  0
  6 51  1  0  0  0  0
  7 52  1  0  0  0  0
  8 53  1  0  0  0  0
  9 54  1  0  0  0  0
 18 55  1  0  0  0  0
 18 56  1  0  0  0  0
 19 57  1  0  0  0  0
 19 58  1  0  0  0  0
 20 59  1  0  0  0  0
 20 60  1  0  0  0  0
 21 61  1  0  0  0  0
 21 62  1  0  0  0  0
 22 63  1  0  0  0  0
 22 64  1  0  0  0  0
 23 65  1  0  0  0  0
 23 66  1  0  0  0  0
 24 67  1  0  0  0  0
 24 68  1  0  0  0  0
 25 69  1  0  0  0  0
 25 70  1  0  0  0  0
 26 71  1  0  0  0  0
 26 72  1  0  0  0  0
 27 73  1  0  0  0  0
 27 74  1  0  0  0  0
 30 75  1  0  0  0  0
 30 76  1  0  0  0  0
 31 77  1  0  0  0  0
 31 78  1  0  0  0  0
 32 79  1  0  0  0  0
 32 80  1  0  0  0  0
M  END
> <compound>
EDJ-MED-468565e0-3

> <compound_smiles>
c1cc2cncc(c2cc1OCCN3CCS(=O)(=O)CC3)N4CCC5(C4=O)CN(Cc6c5cc(cc6)Cl)S(=O)(=O)CC7(CC7)C#N

> <enantiomer_smiles>
c1cc2cncc(c2cc1OCCN3CCS(=O)(=O)CC3)N4CCC5(C4=O)C[N@](Cc6c5cc(cc6)Cl)S(=O)(=O)CC7(CC7)C#N

> <scaffold>
tetrahydroisoquinoline-5spiro-isoquinoline

> <clash_score>
1.9179919791569615

> <docking_score>
-4.675009727478027

> <overlap_score>
0.9654166102409363

> <MMFF_internal_energy>
124.13034885521213

> <docked_smiles>
c1cc2cncc(c2cc1OCCN3CCS(=O)(=O)CC3)N4CC[C@@]5(C4=O)C[N@](Cc6c5cc(cc6)Cl)S(=O)(=O)CC7(CC7)C#N

$$$$
EDJ-MED-dfa1d800-3_1
  -OEChem-12272114583D

 79 85  0     1  0  0  0  0  0999 V2000
    3.7865    2.4205   19.1660 C   0  0  0  0  0  0  0  0  0  0  0  0
   12.0765    0.0316   24.1541 C   0  0  0  0  0  0  0  0  0  0  0  0
    3.3432    2.6279   20.4411 C   0  0  0  0  0  0  0  0  0  0  0  0
   12.9132   -0.6032   23.2569 C   0  0  0  0  0  0  0  0  0  0  0  0
    4.8973    1.0233   21.2988 C   0  0  0  0  0  0  0  0  0  0  0  0
   10.9991   -1.4331   22.0443 C   0  0  0  0  0  0  0  0  0  0  0  0
    5.3278    1.2339   17.6066 C   0  0  0  0  0  0  0  0  0  0  0  0
    6.8438   -0.2892   18.3752 C   0  0  0  0  0  0  0  0  0  0  0  0
    4.8226    1.4906   18.9054 C   0  0  0  0  0  0  0  0  0  0  0  0
    5.3982    0.7733   19.9948 C   0  0  0  0  0  0  0  0  0  0  0  0
   10.7040   -0.0625   23.9898 C   0  0  0  0  0  0  0  0  0  0  0  0
   10.1406   -0.7765   22.9250 C   0  0  0  0  0  0  0  0  0  0  0  0
    6.4440   -0.1472   19.6979 C   0  0  0  0  0  0  0  0  0  0  0  0
    3.8960    1.9291   21.5050 C   0  0  0  0  0  0  0  0  0  0  0  0
   12.3683   -1.3298   22.2234 C   0  0  0  0  0  0  0  0  0  0  0  0
    9.9479    0.5589   24.9534 C   0  0  0  0  0  0  0  0  0  0  0  0
    8.2490    0.0169   21.4271 C   0  0  0  0  0  0  0  0  0  0  0  0
    8.4330    3.2597   23.7801 C   0  0  0  0  0  0  0  0  0  0  0  0
    7.9387    2.6608   26.2131 C   0  0  0  0  0  0  0  0  0  0  0  0
    6.7298    2.2855   25.4149 C   0  0  0  0  0  0  0  0  0  0  0  0
    8.0140   -2.1541   22.4331 C   0  0  0  0  0  0  0  0  0  0  0  0
    6.9866   -1.9366   21.3580 C   0  0  0  0  0  0  0  0  0  0  0  0
    2.4353    5.3707   26.2301 C   0  0  0  0  0  0  0  0  0  0  0  0
    3.4853    6.1769   24.1762 C   0  0  0  0  0  0  0  0  0  0  0  0
    7.8721   -0.1194   23.8831 C   0  0  0  0  0  0  0  0  0  0  0  0
    3.6966    5.4310   27.0860 C   0  0  0  0  0  0  0  0  0  0  0  0
    4.8820    6.3410   24.7672 C   0  0  0  0  0  0  0  0  0  0  0  0
    8.6238   -0.7606   22.6929 C   0  0  3  0  0  0  0  0  0  0  0  0
    8.1001    2.2206   24.7728 C   0  0  0  0  0  0  0  0  0  0  0  0
   10.1385    4.9678   23.1833 C   0  0  0  0  0  0  0  0  0  0  0  0
    3.1411    3.7875   24.5159 C   0  0  0  0  0  0  0  0  0  0  0  0
    2.9166    3.4625   23.0504 C   0  0  0  0  0  0  0  0  0  0  0  0
    6.3062    0.3769   17.3421 N   0  0  0  0  0  0  0  0  0  0  0  0
    7.2292   -0.6897   20.7790 N   0  0  0  0  0  0  0  0  0  0  0  0
    8.6609    1.0133   24.4995 N   0  0  0  0  0  0  0  0  0  0  0  0
    2.6579    5.1354   24.7980 N   0  0  0  0  0  0  0  0  0  0  0  0
    9.6227    3.9165   24.0305 N   0  0  0  0  0  0  0  0  0  0  0  0
   10.3189    0.7351   26.1117 O   0  0  0  0  0  0  0  0  0  0  0  0
    8.7583    1.0935   21.1353 O   0  0  0  0  0  0  0  0  0  0  0  0
    7.6723    3.4643   22.8414 O   0  0  0  0  0  0  0  0  0  0  0  0
    4.1818    7.9787   26.6931 O   0  0  0  0  0  0  0  0  0  0  0  0
    6.1247    6.4140   27.0721 O   0  0  0  0  0  0  0  0  0  0  0  0
    3.4227    2.1582   22.7714 O   0  0  0  0  0  0  0  0  0  0  0  0
    4.8164    6.6878   26.5107 S   0  0  0  0  0  0  0  0  0  0  0  0
   13.4277   -2.1397   21.1088 Cl  0  0  0  0  0  0  0  0  0  0  0  0
    3.3406    2.9746   18.3368 H   0  0  0  0  0  0  0  0  0  0  0  0
   12.5170    0.5914   24.9756 H   0  0  0  0  0  0  0  0  0  0  0  0
    2.5407    3.3506   20.6306 H   0  0  0  0  0  0  0  0  0  0  0  0
   13.9904   -0.5162   23.3783 H   0  0  0  0  0  0  0  0  0  0  0  0
    5.3162    0.4858   22.1535 H   0  0  0  0  0  0  0  0  0  0  0  0
   10.6131   -2.0184   21.2223 H   0  0  0  0  0  0  0  0  0  0  0  0
    4.9131    1.7514   16.7479 H   0  0  0  0  0  0  0  0  0  0  0  0
    7.6448   -0.9758   18.1041 H   0  0  0  0  0  0  0  0  0  0  0  0
    8.0776    3.7082   26.4542 H   0  0  0  0  0  0  0  0  0  0  0  0
    8.2534    1.9826   26.9978 H   0  0  0  0  0  0  0  0  0  0  0  0
    6.2323    1.3552   25.6629 H   0  0  0  0  0  0  0  0  0  0  0  0
    6.0552    3.0805   25.1192 H   0  0  0  0  0  0  0  0  0  0  0  0
    7.5778   -2.6152   23.3309 H   0  0  0  0  0  0  0  0  0  0  0  0
    8.7844   -2.8455   22.0573 H   0  0  0  0  0  0  0  0  0  0  0  0
    7.0224   -2.7504   20.5947 H   0  0  0  0  0  0  0  0  0  0  0  0
    5.9553   -1.9483   21.7835 H   0  0  0  0  0  0  0  0  0  0  0  0
    1.7391    4.6048   26.6439 H   0  0  0  0  0  0  0  0  0  0  0  0
    1.9061    6.3398   26.3663 H   0  0  0  0  0  0  0  0  0  0  0  0
    2.9755    7.1605   24.2752 H   0  0  0  0  0  0  0  0  0  0  0  0
    3.5614    6.0047   23.0776 H   0  0  0  0  0  0  0  0  0  0  0  0
    6.8937    0.2571   23.5799 H   0  0  0  0  0  0  0  0  0  0  0  0
    7.7158   -0.8401   24.6911 H   0  0  0  0  0  0  0  0  0  0  0  0
    3.4544    5.6593   28.1288 H   0  0  0  0  0  0  0  0  0  0  0  0
    4.2341    4.4792   27.0549 H   0  0  0  0  0  0  0  0  0  0  0  0
    5.4682    5.4263   24.6405 H   0  0  0  0  0  0  0  0  0  0  0  0
    5.4179    7.1665   24.2882 H   0  0  0  0  0  0  0  0  0  0  0  0
   10.7778    4.5299   22.4026 H   0  0  0  0  0  0  0  0  0  0  0  0
    9.3008    5.5039   22.7132 H   0  0  0  0  0  0  0  0  0  0  0  0
   10.7293    5.6703   23.7895 H   0  0  0  0  0  0  0  0  0  0  0  0
    2.6041    3.0879   25.1643 H   0  0  0  0  0  0  0  0  0  0  0  0
    4.2082    3.7505   24.7551 H   0  0  0  0  0  0  0  0  0  0  0  0
    3.4573    4.1763   22.4212 H   0  0  0  0  0  0  0  0  0  0  0  0
    1.8536    3.4908   22.7900 H   0  0  0  0  0  0  0  0  0  0  0  0
   10.1604    3.6476   24.8490 H   0  0  0  0  0  0  0  0  0  0  0  0
  1  3  2  0  0  0  0
  1  9  1  0  0  0  0
  2  4  2  0  0  0  0
  2 11  1  0  0  0  0
  3 14  1  0  0  0  0
  4 15  1  0  0  0  0
  5 10  1  0  0  0  0
  5 14  2  0  0  0  0
  6 12  1  0  0  0  0
  6 15  2  0  0  0  0
  7  9  2  0  0  0  0
  7 33  1  0  0  0  0
  8 13  1  0  0  0  0
  8 33  2  0  0  0  0
  9 10  1  0  0  0  0
 10 13  2  0  0  0  0
 11 12  2  0  0  0  0
 11 16  1  0  0  0  0
 12 28  1  0  0  0  0
 13 34  1  0  0  0  0
 14 43  1  0  0  0  0
 15 45  1  0  0  0  0
 16 35  1  0  0  0  0
 16 38  2  0  0  0  0
 17 28  1  0  0  0  0
 17 34  1  0  0  0  0
 17 39  2  0  0  0  0
 18 29  1  0  0  0  0
 18 37  1  0  0  0  0
 18 40  2  0  0  0  0
 19 20  1  0  0  0  0
 19 29  1  0  0  0  0
 20 29  1  0  0  0  0
 21 22  1  0  0  0  0
 21 28  1  0  0  0  0
 22 34  1  0  0  0  0
 23 26  1  0  0  0  0
 23 36  1  0  0  0  0
 24 27  1  0  0  0  0
 24 36  1  0  0  0  0
 25 28  1  0  0  0  0
 25 35  1  0  0  0  0
 26 44  1  0  0  0  0
 27 44  1  0  0  0  0
 29 35  1  0  0  0  0
 30 37  1  0  0  0  0
 31 32  1  0  0  0  0
 31 36  1  0  0  0  0
 32 43  1  0  0  0  0
 41 44  2  0  0  0  0
 42 44  2  0  0  0  0
  1 46  1  0  0  0  0
  2 47  1  0  0  0  0
  3 48  1  0  0  0  0
  4 49  1  0  0  0  0
  5 50  1  0  0  0  0
  6 51  1  0  0  0  0
  7 52  1  0  0  0  0
  8 53  1  0  0  0  0
 19 54  1  0  0  0  0
 19 55  1  0  0  0  0
 20 56  1  0  0  0  0
 20 57  1  0  0  0  0
 21 58  1  0  0  0  0
 21 59  1  0  0  0  0
 22 60  1  0  0  0  0
 22 61  1  0  0  0  0
 23 62  1  0  0  0  0
 23 63  1  0  0  0  0
 24 64  1  0  0  0  0
 24 65  1  0  0  0  0
 25 66  1  0  0  0  0
 25 67  1  0  0  0  0
 26 68  1  0  0  0  0
 26 69  1  0  0  0  0
 27 70  1  0  0  0  0
 27 71  1  0  0  0  0
 30 72  1  0  0  0  0
 30 73  1  0  0  0  0
 30 74  1  0  0  0  0
 31 75  1  0  0  0  0
 31 76  1  0  0  0  0
 32 77  1  0  0  0  0
 32 78  1  0  0  0  0
 37 79  1  0  0  0  0
M  END
> <compound>
EDJ-MED-dfa1d800-3

> <compound_smiles>
CNC(=O)C1(CC1)N2CC3(CCN(C3=O)c4cncc5c4cc(cc5)OCCN6CCS(=O)(=O)CC6)c7cc(ccc7C2=O)Cl

> <enantiomer_smiles>
CNC(=O)C1(CC1)N2CC3(CCN(C3=O)c4cncc5c4cc(cc5)OCCN6CCS(=O)(=O)CC6)c7cc(ccc7C2=O)Cl

> <scaffold>
tetrahydroisoquinoline-5spiro-isoquinoline

> <clash_score>
0

> <docking_score>
-5.925575256347656

> <overlap_score>
0.9836137890815735

> <MMFF_internal_energy>
165.0002239254715

> <docked_smiles>
CNC(=O)C1(CC1)N2C[C@]3(CCN(C3=O)c4cncc5c4cc(cc5)OCCN6CCS(=O)(=O)CC6)c7cc(ccc7C2=O)Cl

$$$$
EDJ-MED-468565e0-4_1
  -OEChem-12272114583D

 81 87  0     1  0  0  0  0  0999 V2000
    8.2325    5.6948   24.2528 C   0  0  0  0  0  0  0  0  0  0  0  0
    3.7865    2.4205   19.1660 C   0  0  0  0  0  0  0  0  0  0  0  0
   12.0765    0.0316   24.1541 C   0  0  0  0  0  0  0  0  0  0  0  0
    3.3432    2.6279   20.4411 C   0  0  0  0  0  0  0  0  0  0  0  0
   12.9132   -0.6032   23.2569 C   0  0  0  0  0  0  0  0  0  0  0  0
    4.8973    1.0233   21.2988 C   0  0  0  0  0  0  0  0  0  0  0  0
   10.9991   -1.4331   22.0443 C   0  0  0  0  0  0  0  0  0  0  0  0
    5.3278    1.2339   17.6066 C   0  0  0  0  0  0  0  0  0  0  0  0
    6.8438   -0.2892   18.3752 C   0  0  0  0  0  0  0  0  0  0  0  0
    4.8226    1.4906   18.9054 C   0  0  0  0  0  0  0  0  0  0  0  0
    5.3982    0.7733   19.9948 C   0  0  0  0  0  0  0  0  0  0  0  0
   10.7040   -0.0625   23.9898 C   0  0  0  0  0  0  0  0  0  0  0  0
   10.1406   -0.7765   22.9250 C   0  0  0  0  0  0  0  0  0  0  0  0
    6.4440   -0.1472   19.6979 C   0  0  0  0  0  0  0  0  0  0  0  0
    3.8960    1.9291   21.5050 C   0  0  0  0  0  0  0  0  0  0  0  0
   12.3683   -1.3298   22.2234 C   0  0  0  0  0  0  0  0  0  0  0  0
    8.2490    0.0169   21.4271 C   0  0  0  0  0  0  0  0  0  0  0  0
    9.9479    0.5589   24.9534 C   0  0  0  0  0  0  0  0  0  0  0  0
    6.5636    5.3594   26.1124 C   0  0  0  0  0  0  0  0  0  0  0  0
    5.9626    4.7841   24.8641 C   0  0  0  0  0  0  0  0  0  0  0  0
    8.0140   -2.1541   22.4331 C   0  0  0  0  0  0  0  0  0  0  0  0
    2.1444    0.4051   27.3844 C   0  0  0  0  0  0  0  0  0  0  0  0
    1.4056   -0.9361   25.3800 C   0  0  0  0  0  0  0  0  0  0  0  0
    6.9866   -1.9366   21.3580 C   0  0  0  0  0  0  0  0  0  0  0  0
    7.8721   -0.1194   23.8831 C   0  0  0  0  0  0  0  0  0  0  0  0
    2.1715    1.7105   26.5917 C   0  0  0  0  0  0  0  0  0  0  0  0
    0.9458    0.4113   24.8279 C   0  0  0  0  0  0  0  0  0  0  0  0
    7.4636    4.7728   25.0482 C   0  0  0  0  0  0  0  0  0  0  0  0
    8.6238   -0.7606   22.6929 C   0  0  3  0  0  0  0  0  0  0  0  0
    2.4080   -0.8101   26.5178 C   0  0  0  0  0  0  0  0  0  0  0  0
    8.1358    3.4487   25.3348 C   0  0  0  0  0  0  0  0  0  0  0  0
    1.7179    2.7405   24.3639 C   0  0  0  0  0  0  0  0  0  0  0  0
    2.0551    2.5435   22.8991 C   0  0  0  0  0  0  0  0  0  0  0  0
    8.8519    6.4377   23.6120 N   0  0  0  0  0  0  0  0  0  0  0  0
    6.3062    0.3769   17.3421 N   0  0  0  0  0  0  0  0  0  0  0  0
    7.2292   -0.6897   20.7790 N   0  0  0  0  0  0  0  0  0  0  0  0
    8.6609    1.0133   24.4995 N   0  0  1  0  0  0  0  0  0  0  0  0
    1.9844    1.4634   25.1105 N   0  3  0  0  0  0  0  0  0  0  0  0
    8.7645    1.0869   21.1203 O   0  0  0  0  0  0  0  0  0  0  0  0
    7.3141    2.5934   23.0066 O   0  0  0  0  0  0  0  0  0  0  0  0
    9.7811    3.0185   23.3511 O   0  0  0  0  0  0  0  0  0  0  0  0
    3.4227    2.1582   22.7715 O   0  0  0  0  0  0  0  0  0  0  0  0
    2.3846   -1.9352   27.2725 F   0  0  0  0  0  0  0  0  0  0  0  0
    3.6632   -0.7203   26.0032 F   0  0  0  0  0  0  0  0  0  0  0  0
    8.4970    2.5650   23.8392 S   0  0  0  0  0  0  0  0  0  0  0  0
   13.4275   -2.1421   21.1097 Cl  0  0  0  0  0  0  0  0  0  0  0  0
    3.3406    2.9746   18.3368 H   0  0  0  0  0  0  0  0  0  0  0  0
   12.5015    0.5938   24.9776 H   0  0  0  0  0  0  0  0  0  0  0  0
    2.5407    3.3506   20.6306 H   0  0  0  0  0  0  0  0  0  0  0  0
   13.9911   -0.5212   23.3814 H   0  0  0  0  0  0  0  0  0  0  0  0
    5.3162    0.4858   22.1535 H   0  0  0  0  0  0  0  0  0  0  0  0
   10.6037   -2.0228   21.2288 H   0  0  0  0  0  0  0  0  0  0  0  0
    4.9131    1.7514   16.7479 H   0  0  0  0  0  0  0  0  0  0  0  0
    7.6448   -0.9758   18.1041 H   0  0  0  0  0  0  0  0  0  0  0  0
    9.7582   -0.1287   25.8172 H   0  0  0  0  0  0  0  0  0  0  0  0
   10.4932    1.4390   25.3828 H   0  0  0  0  0  0  0  0  0  0  0  0
    6.5289    6.4359   26.2365 H   0  0  0  0  0  0  0  0  0  0  0  0
    6.4265    4.8093   27.0362 H   0  0  0  0  0  0  0  0  0  0  0  0
    5.4219    3.8488   24.9520 H   0  0  0  0  0  0  0  0  0  0  0  0
    5.5248    5.4759   24.1534 H   0  0  0  0  0  0  0  0  0  0  0  0
    7.5801   -2.6060   23.3366 H   0  0  0  0  0  0  0  0  0  0  0  0
    8.7749   -2.8608   22.0657 H   0  0  0  0  0  0  0  0  0  0  0  0
    2.8831    0.4477   28.1998 H   0  0  0  0  0  0  0  0  0  0  0  0
    1.1629    0.3028   27.8703 H   0  0  0  0  0  0  0  0  0  0  0  0
    0.5252   -1.4986   25.7321 H   0  0  0  0  0  0  0  0  0  0  0  0
    1.8425   -1.5437   24.5692 H   0  0  0  0  0  0  0  0  0  0  0  0
    7.0227   -2.7506   20.5953 H   0  0  0  0  0  0  0  0  0  0  0  0
    5.9554   -1.9484   21.7832 H   0  0  0  0  0  0  0  0  0  0  0  0
    6.8886    0.2770   23.5668 H   0  0  0  0  0  0  0  0  0  0  0  0
    7.6579   -0.8709   24.6635 H   0  0  0  0  0  0  0  0  0  0  0  0
    1.3721    2.3960   26.9145 H   0  0  0  0  0  0  0  0  0  0  0  0
    3.1417    2.2143   26.7182 H   0  0  0  0  0  0  0  0  0  0  0  0
    0.8196    0.3545   23.7417 H   0  0  0  0  0  0  0  0  0  0  0  0
    0.0070    0.7364   25.2898 H   0  0  0  0  0  0  0  0  0  0  0  0
    7.4917    2.8060   25.9414 H   0  0  0  0  0  0  0  0  0  0  0  0
    9.0838    3.5964   25.8591 H   0  0  0  0  0  0  0  0  0  0  0  0
    0.6597    2.9712   24.5157 H   0  0  0  0  0  0  0  0  0  0  0  0
    2.3448    3.5092   24.8234 H   0  0  0  0  0  0  0  0  0  0  0  0
    1.4382    1.7423   22.4802 H   0  0  0  0  0  0  0  0  0  0  0  0
    1.8870    3.4567   22.3190 H   0  0  0  0  0  0  0  0  0  0  0  0
    2.8877    1.0982   24.7565 H   0  0  0  0  0  0  0  0  0  0  0  0
  1 28  1  0  0  0  0
  1 34  3  0  0  0  0
  2  4  1  0  0  0  0
  2 10  2  0  0  0  0
  3  5  1  0  0  0  0
  3 12  2  0  0  0  0
  4 15  2  0  0  0  0
  5 16  2  0  0  0  0
  6 11  2  0  0  0  0
  6 15  1  0  0  0  0
  7 13  2  0  0  0  0
  7 16  1  0  0  0  0
  8 10  1  0  0  0  0
  8 35  2  0  0  0  0
  9 14  2  0  0  0  0
  9 35  1  0  0  0  0
 10 11  1  0  0  0  0
 11 14  1  0  0  0  0
 12 13  1  0  0  0  0
 12 18  1  0  0  0  0
 13 29  1  0  0  0  0
 14 36  1  0  0  0  0
 15 42  1  0  0  0  0
 16 46  1  0  0  0  0
 17 29  1  0  0  0  0
 17 36  1  0  0  0  0
 17 39  2  0  0  0  0
 18 37  1  0  0  0  0
 19 20  1  0  0  0  0
 19 28  1  0  0  0  0
 20 28  1  0  0  0  0
 21 24  1  0  0  0  0
 21 29  1  0  0  0  0
 22 26  1  0  0  0  0
 22 30  1  0  0  0  0
 23 27  1  0  0  0  0
 23 30  1  0  0  0  0
 24 36  1  0  0  0  0
 25 29  1  0  0  0  0
 25 37  1  0  0  0  0
 26 38  1  0  0  0  0
 27 38  1  0  0  0  0
 28 31  1  0  0  0  0
 30 43  1  0  0  0  0
 30 44  1  0  0  0  0
 31 45  1  0  0  0  0
 32 33  1  0  0  0  0
 32 38  1  0  0  0  0
 33 42  1  0  0  0  0
 37 45  1  1  0  0  0
 40 45  2  0  0  0  0
 41 45  2  0  0  0  0
  2 47  1  0  0  0  0
  3 48  1  0  0  0  0
  4 49  1  0  0  0  0
  5 50  1  0  0  0  0
  6 51  1  0  0  0  0
  7 52  1  0  0  0  0
  8 53  1  0  0  0  0
  9 54  1  0  0  0  0
 18 55  1  0  0  0  0
 18 56  1  0  0  0  0
 19 57  1  0  0  0  0
 19 58  1  0  0  0  0
 20 59  1  0  0  0  0
 20 60  1  0  0  0  0
 21 61  1  0  0  0  0
 21 62  1  0  0  0  0
 22 63  1  0  0  0  0
 22 64  1  0  0  0  0
 23 65  1  0  0  0  0
 23 66  1  0  0  0  0
 24 67  1  0  0  0  0
 24 68  1  0  0  0  0
 25 69  1  0  0  0  0
 25 70  1  0  0  0  0
 26 71  1  0  0  0  0
 26 72  1  0  0  0  0
 27 73  1  0  0  0  0
 27 74  1  0  0  0  0
 31 75  1  0  0  0  0
 31 76  1  0  0  0  0
 32 77  1  0  0  0  0
 32 78  1  0  0  0  0
 33 79  1  0  0  0  0
 33 80  1  0  0  0  0
 38 81  1  0  0  0  0
M  CHG  1  38   1
M  END
> <compound>
EDJ-MED-468565e0-4

> <compound_smiles>
c1cc2cncc(c2cc1OCCN3CCC(CC3)(F)F)N4CCC5(C4=O)CN(Cc6c5cc(cc6)Cl)S(=O)(=O)CC7(CC7)C#N

> <enantiomer_smiles>
c1cc2cncc(c2cc1OCCN3CCC(CC3)(F)F)N4CCC5(C4=O)C[N@@](Cc6c5cc(cc6)Cl)S(=O)(=O)CC7(CC7)C#N

> <scaffold>
tetrahydroisoquinoline-5spiro-isoquinoline

> <clash_score>
0

> <docking_score>
-5.077287673950195

> <overlap_score>
0.9664190411567688

> <MMFF_internal_energy>
129.46030596518418

> <docked_smiles>
c1cc2cncc(c2cc1OCC[NH+]3CCC(CC3)(F)F)N4CC[C@@]5(C4=O)C[N@@](Cc6c5cc(cc6)Cl)S(=O)(=O)CC7(CC7)C#N

$$$$
EDJ-MED-468565e0-4_2
  -OEChem-12272114583D

 81 87  0     1  0  0  0  0  0999 V2000
    6.2681    4.1965   23.8460 C   0  0  0  0  0  0  0  0  0  0  0  0
    3.7865    2.4205   19.1660 C   0  0  0  0  0  0  0  0  0  0  0  0
   12.0765    0.0316   24.1541 C   0  0  0  0  0  0  0  0  0  0  0  0
    3.3432    2.6279   20.4411 C   0  0  0  0  0  0  0  0  0  0  0  0
   12.9132   -0.6032   23.2569 C   0  0  0  0  0  0  0  0  0  0  0  0
    4.8973    1.0233   21.2988 C   0  0  0  0  0  0  0  0  0  0  0  0
   10.9991   -1.4331   22.0443 C   0  0  0  0  0  0  0  0  0  0  0  0
    5.3278    1.2339   17.6066 C   0  0  0  0  0  0  0  0  0  0  0  0
    6.8438   -0.2892   18.3752 C   0  0  0  0  0  0  0  0  0  0  0  0
    4.8226    1.4906   18.9054 C   0  0  0  0  0  0  0  0  0  0  0  0
    5.3982    0.7733   19.9948 C   0  0  0  0  0  0  0  0  0  0  0  0
   10.7040   -0.0625   23.9898 C   0  0  0  0  0  0  0  0  0  0  0  0
   10.1406   -0.7765   22.9250 C   0  0  0  0  0  0  0  0  0  0  0  0
    6.4440   -0.1472   19.6979 C   0  0  0  0  0  0  0  0  0  0  0  0
    3.8960    1.9291   21.5050 C   0  0  0  0  0  0  0  0  0  0  0  0
   12.3683   -1.3298   22.2234 C   0  0  0  0  0  0  0  0  0  0  0  0
    8.2490    0.0169   21.4271 C   0  0  0  0  0  0  0  0  0  0  0  0
    9.9479    0.5589   24.9534 C   0  0  0  0  0  0  0  0  0  0  0  0
    8.2529    3.5692   22.4236 C   0  0  0  0  0  0  0  0  0  0  0  0
    8.4348    4.9995   22.8380 C   0  0  0  0  0  0  0  0  0  0  0  0
    8.0140   -2.1541   22.4331 C   0  0  0  0  0  0  0  0  0  0  0  0
    2.9936    6.2813   25.0220 C   0  0  0  0  0  0  0  0  0  0  0  0
    3.7036    4.7660   26.9122 C   0  0  0  0  0  0  0  0  0  0  0  0
    6.9866   -1.9366   21.3580 C   0  0  0  0  0  0  0  0  0  0  0  0
    7.8721   -0.1194   23.8831 C   0  0  0  0  0  0  0  0  0  0  0  0
    2.0324    5.2089   24.5307 C   0  0  0  0  0  0  0  0  0  0  0  0
    2.7394    3.7001   26.4123 C   0  0  0  0  0  0  0  0  0  0  0  0
    7.6966    4.0430   23.7476 C   0  0  0  0  0  0  0  0  0  0  0  0
    8.6238   -0.7606   22.6929 C   0  0  3  0  0  0  0  0  0  0  0  0
    3.2531    6.1593   26.5125 C   0  0  0  0  0  0  0  0  0  0  0  0
    8.3874    3.5882   25.0137 C   0  0  0  0  0  0  0  0  0  0  0  0
    1.7086    2.7422   24.3533 C   0  0  0  0  0  0  0  0  0  0  0  0
    2.0542    2.5431   22.8907 C   0  0  0  0  0  0  0  0  0  0  0  0
    5.1172    4.3201   23.9252 N   0  0  0  0  0  0  0  0  0  0  0  0
    6.3062    0.3769   17.3421 N   0  0  0  0  0  0  0  0  0  0  0  0
    7.2292   -0.6897   20.7790 N   0  0  0  0  0  0  0  0  0  0  0  0
    8.6609    1.0133   24.4995 N   0  0  2  0  0  0  0  0  0  0  0  0
    2.5594    3.8463   24.9187 N   0  3  0  0  0  0  0  0  0  0  0  0
    8.8299    1.0397   21.0799 O   0  0  0  0  0  0  0  0  0  0  0  0
    8.2407    1.8013   26.9144 O   0  0  0  0  0  0  0  0  0  0  0  0
    6.3653    1.9471   25.2271 O   0  0  0  0  0  0  0  0  0  0  0  0
    3.4227    2.1582   22.7714 O   0  0  0  0  0  0  0  0  0  0  0  0
    2.1195    6.4747   27.1912 F   0  0  0  0  0  0  0  0  0  0  0  0
    4.1902    7.0648   26.8863 F   0  0  0  0  0  0  0  0  0  0  0  0
    7.7708    2.0177   25.5632 S   0  0  0  0  0  0  0  0  0  0  0  0
   13.4272   -2.1411   21.1086 Cl  0  0  0  0  0  0  0  0  0  0  0  0
    3.3406    2.9746   18.3368 H   0  0  0  0  0  0  0  0  0  0  0  0
   12.5024    0.5995   24.9735 H   0  0  0  0  0  0  0  0  0  0  0  0
    2.5407    3.3506   20.6306 H   0  0  0  0  0  0  0  0  0  0  0  0
   13.9910   -0.5177   23.3793 H   0  0  0  0  0  0  0  0  0  0  0  0
    5.3162    0.4858   22.1535 H   0  0  0  0  0  0  0  0  0  0  0  0
   10.6036   -2.0162   21.2241 H   0  0  0  0  0  0  0  0  0  0  0  0
    4.9131    1.7514   16.7479 H   0  0  0  0  0  0  0  0  0  0  0  0
    7.6448   -0.9758   18.1041 H   0  0  0  0  0  0  0  0  0  0  0  0
    9.7849   -0.1194   25.8306 H   0  0  0  0  0  0  0  0  0  0  0  0
   10.4793    1.4568   25.3613 H   0  0  0  0  0  0  0  0  0  0  0  0
    7.5678    3.3660   21.6082 H   0  0  0  0  0  0  0  0  0  0  0  0
    9.1277    2.9292   22.4282 H   0  0  0  0  0  0  0  0  0  0  0  0
    9.4320    5.3179   23.1193 H   0  0  0  0  0  0  0  0  0  0  0  0
    7.8721    5.7532   22.2991 H   0  0  0  0  0  0  0  0  0  0  0  0
    7.5152   -2.5456   23.3338 H   0  0  0  0  0  0  0  0  0  0  0  0
    8.7649   -2.9030   22.1434 H   0  0  0  0  0  0  0  0  0  0  0  0
    3.9419    6.2179   24.4745 H   0  0  0  0  0  0  0  0  0  0  0  0
    2.5731    7.2696   24.8048 H   0  0  0  0  0  0  0  0  0  0  0  0
    3.7747    4.7050   28.0043 H   0  0  0  0  0  0  0  0  0  0  0  0
    4.7110    4.5763   26.5223 H   0  0  0  0  0  0  0  0  0  0  0  0
    7.0587   -2.7248   20.5721 H   0  0  0  0  0  0  0  0  0  0  0  0
    5.9518   -1.9952   21.7720 H   0  0  0  0  0  0  0  0  0  0  0  0
    6.8867    0.2641   23.5642 H   0  0  0  0  0  0  0  0  0  0  0  0
    7.6652   -0.8660   24.6733 H   0  0  0  0  0  0  0  0  0  0  0  0
    1.0395    5.3176   24.9757 H   0  0  0  0  0  0  0  0  0  0  0  0
    1.9558    5.2311   23.4408 H   0  0  0  0  0  0  0  0  0  0  0  0
    3.1415    2.7008   26.5966 H   0  0  0  0  0  0  0  0  0  0  0  0
    1.7530    3.7952   26.8744 H   0  0  0  0  0  0  0  0  0  0  0  0
    8.2236    4.3011   25.8267 H   0  0  0  0  0  0  0  0  0  0  0  0
    9.4629    3.4743   24.8535 H   0  0  0  0  0  0  0  0  0  0  0  0
    1.9212    1.8519   24.9519 H   0  0  0  0  0  0  0  0  0  0  0  0
    0.6678    3.0495   24.4847 H   0  0  0  0  0  0  0  0  0  0  0  0
    1.4400    1.7410   22.4697 H   0  0  0  0  0  0  0  0  0  0  0  0
    1.8890    3.4553   22.3083 H   0  0  0  0  0  0  0  0  0  0  0  0
    3.4926    3.7510   24.4916 H   0  0  0  0  0  0  0  0  0  0  0  0
  1 28  1  0  0  0  0
  1 34  3  0  0  0  0
  2  4  1  0  0  0  0
  2 10  2  0  0  0  0
  3  5  1  0  0  0  0
  3 12  2  0  0  0  0
  4 15  2  0  0  0  0
  5 16  2  0  0  0  0
  6 11  2  0  0  0  0
  6 15  1  0  0  0  0
  7 13  2  0  0  0  0
  7 16  1  0  0  0  0
  8 10  1  0  0  0  0
  8 35  2  0  0  0  0
  9 14  2  0  0  0  0
  9 35  1  0  0  0  0
 10 11  1  0  0  0  0
 11 14  1  0  0  0  0
 12 13  1  0  0  0  0
 12 18  1  0  0  0  0
 13 29  1  0  0  0  0
 14 36  1  0  0  0  0
 15 42  1  0  0  0  0
 16 46  1  0  0  0  0
 17 29  1  0  0  0  0
 17 36  1  0  0  0  0
 17 39  2  0  0  0  0
 18 37  1  0  0  0  0
 19 20  1  0  0  0  0
 19 28  1  0  0  0  0
 20 28  1  0  0  0  0
 21 24  1  0  0  0  0
 21 29  1  0  0  0  0
 22 26  1  0  0  0  0
 22 30  1  0  0  0  0
 23 27  1  0  0  0  0
 23 30  1  0  0  0  0
 24 36  1  0  0  0  0
 25 29  1  0  0  0  0
 25 37  1  0  0  0  0
 26 38  1  0  0  0  0
 27 38  1  0  0  0  0
 28 31  1  0  0  0  0
 30 43  1  0  0  0  0
 30 44  1  0  0  0  0
 31 45  1  0  0  0  0
 32 33  1  0  0  0  0
 32 38  1  0  0  0  0
 33 42  1  0  0  0  0
 37 45  1  6  0  0  0
 40 45  2  0  0  0  0
 41 45  2  0  0  0  0
  2 47  1  0  0  0  0
  3 48  1  0  0  0  0
  4 49  1  0  0  0  0
  5 50  1  0  0  0  0
  6 51  1  0  0  0  0
  7 52  1  0  0  0  0
  8 53  1  0  0  0  0
  9 54  1  0  0  0  0
 18 55  1  0  0  0  0
 18 56  1  0  0  0  0
 19 57  1  0  0  0  0
 19 58  1  0  0  0  0
 20 59  1  0  0  0  0
 20 60  1  0  0  0  0
 21 61  1  0  0  0  0
 21 62  1  0  0  0  0
 22 63  1  0  0  0  0
 22 64  1  0  0  0  0
 23 65  1  0  0  0  0
 23 66  1  0  0  0  0
 24 67  1  0  0  0  0
 24 68  1  0  0  0  0
 25 69  1  0  0  0  0
 25 70  1  0  0  0  0
 26 71  1  0  0  0  0
 26 72  1  0  0  0  0
 27 73  1  0  0  0  0
 27 74  1  0  0  0  0
 31 75  1  0  0  0  0
 31 76  1  0  0  0  0
 32 77  1  0  0  0  0
 32 78  1  0  0  0  0
 33 79  1  0  0  0  0
 33 80  1  0  0  0  0
 38 81  1  0  0  0  0
M  CHG  1  38   1
M  END
> <compound>
EDJ-MED-468565e0-4

> <compound_smiles>
c1cc2cncc(c2cc1OCCN3CCC(CC3)(F)F)N4CCC5(C4=O)CN(Cc6c5cc(cc6)Cl)S(=O)(=O)CC7(CC7)C#N

> <enantiomer_smiles>
c1cc2cncc(c2cc1OCCN3CCC(CC3)(F)F)N4CCC5(C4=O)C[N@](Cc6c5cc(cc6)Cl)S(=O)(=O)CC7(CC7)C#N

> <scaffold>
tetrahydroisoquinoline-5spiro-isoquinoline

> <clash_score>
0

> <docking_score>
-4.307912349700928

> <overlap_score>
0.9652401804924011

> <MMFF_internal_energy>
87.3955580494191

> <docked_smiles>
c1cc2cncc(c2cc1OCC[NH+]3CCC(CC3)(F)F)N4CC[C@@]5(C4=O)C[N@](Cc6c5cc(cc6)Cl)S(=O)(=O)CC7(CC7)C#N

$$$$
