KIM-UNI-60f-7
 OpenBabel03242009303D

 41 43  0  0  1  0  0  0  0  0999 V2000
   12.3977   -0.7894   22.2296 C   0  0  0  0  0  0  0  0  0  0  0  0
   13.2004   -0.1406   23.1539 C   0  0  0  0  0  0  0  0  0  0  0  0
   11.6965   -0.5082   24.8514 C   0  0  0  0  0  0  0  0  0  0  0  0
   11.1880   -1.3132   22.6721 C   0  0  0  0  0  0  0  0  0  0  0  0
   10.8232   -1.1741   24.0066 C   0  0  0  0  0  0  0  0  0  0  0  0
    7.0964   -2.6503   25.3315 C   0  0  0  0  0  0  0  0  0  0  0  0
    7.1688   -1.3970   24.8837 C   0  0  0  0  0  0  0  0  0  0  0  0
    8.2614   -3.5098   25.4379 C   0  0  0  0  0  0  0  0  0  0  0  0
    9.4591   -3.0073   25.0382 C   0  0  0  0  0  0  0  0  0  0  0  0
    8.4628   -0.8399   24.4293 C   0  0  0  0  0  0  0  0  0  0  0  0
    6.8343   -4.7711   27.9882 C   0  0  0  0  0  0  0  0  0  0  0  0
   10.7147   -3.8355   25.2581 C   0  0  0  0  0  0  0  0  0  0  0  0
   10.5353   -4.9168   26.3216 C   0  0  0  0  0  0  0  0  0  0  0  0
    9.2652   -5.7128   26.0705 C   0  0  0  0  0  0  0  0  0  0  0  0
   10.3027   -2.0171   21.6967 C   0  0  0  0  0  0  0  0  0  0  0  0
    6.8825   -5.3040   26.5759 C   0  0  0  0  0  0  0  0  0  0  0  0
   12.8798    0.0141   24.4581 N   0  0  0  0  0  0  0  0  0  0  0  0
    5.8459   -3.9953   28.3129 N   0  0  0  0  0  0  0  0  0  0  0  0
    9.5803   -1.6995   24.5145 N   0  0  0  0  0  0  0  0  0  0  0  0
    8.1155   -4.8079   25.9655 N   0  0  0  0  0  0  0  0  0  0  0  0
    7.8326   -5.1531   28.8456 N   0  0  0  0  0  0  0  0  0  0  0  0
    8.4577    0.3048   23.9739 O   0  0  0  0  0  0  0  0  0  0  0  0
   12.7114   -0.8807   21.1953 H   0  0  0  0  0  0  0  0  0  0  0  0
   14.1537    0.2857   22.8593 H   0  0  0  0  0  0  0  0  0  0  0  0
   11.4680   -0.3680   25.9039 H   0  0  0  0  0  0  0  0  0  0  0  0
    6.1260   -3.0195   25.6443 H   0  0  0  0  0  0  0  0  0  0  0  0
    6.2899   -0.7656   24.8235 H   0  0  0  0  0  0  0  0  0  0  0  0
   11.0039   -4.2936   24.3040 H   0  0  0  0  0  0  0  0  0  0  0  0
   11.5478   -3.2007   25.5814 H   0  0  0  0  0  0  0  0  0  0  0  0
   11.4030   -5.5863   26.3187 H   0  0  0  0  0  0  0  0  0  0  0  0
   10.4925   -4.4568   27.3175 H   0  0  0  0  0  0  0  0  0  0  0  0
    9.3527   -6.2896   25.1419 H   0  0  0  0  0  0  0  0  0  0  0  0
    9.1301   -6.4253   26.8927 H   0  0  0  0  0  0  0  0  0  0  0  0
   10.5433   -3.0861   21.6683 H   0  0  0  0  0  0  0  0  0  0  0  0
    9.2458   -1.9036   21.9673 H   0  0  0  0  0  0  0  0  0  0  0  0
   10.4197   -1.6054   20.6866 H   0  0  0  0  0  0  0  0  0  0  0  0
    6.0318   -4.9421   25.9927 H   0  0  0  0  0  0  0  0  0  0  0  0
    6.9047   -6.3966   26.5676 H   0  0  0  0  0  0  0  0  0  0  0  0
    5.2369   -3.8780   27.4956 H   0  0  0  0  0  0  0  0  0  0  0  0
    8.5779   -5.7704   28.5415 H   0  0  0  0  0  0  0  0  0  0  0  0
    7.8638   -4.8320   29.8074 H   0  0  0  0  0  0  0  0  0  0  0  0
  1  2  2  0  0  0  0
  1  4  1  0  0  0  0
  1 23  1  0  0  0  0
  2 17  1  0  0  0  0
  2 24  1  0  0  0  0
  3  5  1  0  0  0  0
  3 17  2  0  0  0  0
  3 25  1  0  0  0  0
  4  5  2  0  0  0  0
  4 15  1  0  0  0  0
  5 19  1  0  0  0  0
  6  7  2  0  0  0  0
  6  8  1  0  0  0  0
  6 26  1  0  0  0  0
  7 10  1  0  0  0  0
  7 27  1  0  0  0  0
  8  9  2  0  0  0  0
  8 20  1  0  0  0  0
  9 12  1  0  0  0  0
  9 19  1  0  0  0  0
 10 19  1  0  0  0  0
 10 22  2  0  0  0  0
 11 16  1  0  0  0  0
 11 18  2  0  0  0  0
 11 21  1  0  0  0  0
 12 13  1  0  0  0  0
 12 28  1  0  0  0  0
 12 29  1  0  0  0  0
 13 14  1  0  0  0  0
 13 30  1  0  0  0  0
 13 31  1  0  0  0  0
 14 20  1  0  0  0  0
 14 32  1  0  0  0  0
 14 33  1  0  0  0  0
 15 34  1  0  0  0  0
 15 35  1  0  0  0  0
 15 36  1  0  0  0  0
 16 20  1  0  0  0  0
 16 37  1  0  0  0  0
 16 38  1  0  0  0  0
 18 39  1  0  0  0  0
 21 40  1  0  0  0  0
 21 41  1  0  0  0  0
M  END
>  <Chemgauss4 Score>
-5.49595975875854

>  <Number of Confs>
13

$$$$
