DAR-DIA-842-10
 OpenBabel03242009303D

 25 26  0  0  0  0  0  0  0  0999 V2000
    9.0434   -4.5357   28.1143 C   0  0  0  0  0  0  0  0  0  0  0  0
    9.1811   -3.5884   27.1058 C   0  0  0  0  0  0  0  0  0  0  0  0
   11.4908   -2.2521   22.2802 C   0  0  0  0  0  0  0  0  0  0  0  0
    8.5624   -5.7877   27.7666 C   0  0  0  0  0  0  0  0  0  0  0  0
    8.3668   -5.1972   25.5550 C   0  0  0  0  0  0  0  0  0  0  0  0
   12.6975   -1.6114   22.4560 C   0  0  0  0  0  0  0  0  0  0  0  0
   10.8000   -0.2198   23.1717 C   0  0  0  0  0  0  0  0  0  0  0  0
   10.3915   -1.4459   22.6947 C   0  0  0  0  0  0  0  0  0  0  0  0
    8.8385   -3.9174   25.7990 C   0  0  0  0  0  0  0  0  0  0  0  0
    8.6668   -3.1564   23.4040 C   0  0  0  0  0  0  0  0  0  0  0  0
    8.9526   -1.8851   22.6200 C   0  0  0  0  0  0  0  0  0  0  0  0
    8.2193   -6.1441   26.5085 N   0  0  0  0  0  0  0  0  0  0  0  0
    8.9654   -2.9896   24.7682 N   0  0  0  0  0  0  0  0  0  0  0  0
    8.2337   -4.1725   22.8700 O   0  0  0  0  0  0  0  0  0  0  0  0
   12.5025   -0.0444   23.1184 S   0  0  0  0  0  0  0  0  0  0  0  0
    9.3044   -4.3012   29.1400 H   0  0  0  0  0  0  0  0  0  0  0  0
    9.5560   -2.5977   27.3491 H   0  0  0  0  0  0  0  0  0  0  0  0
   11.4054   -3.2519   21.8736 H   0  0  0  0  0  0  0  0  0  0  0  0
    8.4359   -6.5614   28.5167 H   0  0  0  0  0  0  0  0  0  0  0  0
    8.0834   -5.5133   24.5555 H   0  0  0  0  0  0  0  0  0  0  0  0
   13.6844   -1.9888   22.2279 H   0  0  0  0  0  0  0  0  0  0  0  0
   10.1837    0.5836   23.5509 H   0  0  0  0  0  0  0  0  0  0  0  0
    8.3033   -1.0854   22.9985 H   0  0  0  0  0  0  0  0  0  0  0  0
    8.6721   -2.0465   21.5714 H   0  0  0  0  0  0  0  0  0  0  0  0
    9.3230   -2.0649   25.0389 H   0  0  0  0  0  0  0  0  0  0  0  0
  1  2  2  0  0  0  0
  1  4  1  0  0  0  0
  1 16  1  0  0  0  0
  2  9  1  0  0  0  0
  2 17  1  0  0  0  0
  3  6  2  0  0  0  0
  3  8  1  0  0  0  0
  3 18  1  0  0  0  0
  4 12  2  0  0  0  0
  4 19  1  0  0  0  0
  5  9  2  0  0  0  0
  5 12  1  0  0  0  0
  5 20  1  0  0  0  0
  6 15  1  0  0  0  0
  6 21  1  0  0  0  0
  7  8  2  0  0  0  0
  7 15  1  0  0  0  0
  7 22  1  0  0  0  0
  8 11  1  0  0  0  0
  9 13  1  0  0  0  0
 10 11  1  0  0  0  0
 10 13  1  0  0  0  0
 10 14  2  0  0  0  0
 11 23  1  0  0  0  0
 11 24  1  0  0  0  0
 13 25  1  0  0  0  0
M  END
>  <Chemgauss4 Score>
-5.10952377319336

>  <Number of Confs>
26

$$$$
