GIA-UNK-995-3
 OpenBabel03242009303D

 32 33  0  0  0  0  0  0  0  0999 V2000
   10.2463   -1.6741   22.6586 C   0  0  0  0  0  0  0  0  0  0  0  0
    8.4102   -4.8652   26.1949 C   0  0  0  0  0  0  0  0  0  0  0  0
   12.3300   -0.2194   22.2294 C   0  0  0  0  0  0  0  0  0  0  0  0
   12.3350   -0.5709   23.6867 C   0  0  0  0  0  0  0  0  0  0  0  0
   10.1626   -3.1222   25.9079 C   0  0  0  0  0  0  0  0  0  0  0  0
    7.7879   -2.7014   25.1037 C   0  0  0  0  0  0  0  0  0  0  0  0
   10.5704   -3.3463   24.4529 C   0  0  0  0  0  0  0  0  0  0  0  0
    8.2741   -2.9203   23.6704 C   0  0  0  0  0  0  0  0  0  0  0  0
   11.7451   -1.5113   22.6908 C   0  0  0  0  0  0  0  0  0  0  0  0
    8.6732   -3.3881   26.1487 C   0  0  0  0  0  0  0  0  0  0  0  0
    8.0411   -5.5718   28.8190 C   0  0  0  0  0  0  0  0  0  0  0  0
    9.6988   -2.5970   23.5489 N   0  0  0  0  0  0  0  0  0  0  0  0
    9.5840   -1.0017   21.8640 O   0  0  0  0  0  0  0  0  0  0  0  0
    9.0426   -5.6777   25.5310 O   0  0  0  0  0  0  0  0  0  0  0  0
    8.6893   -4.4234   29.1509 F   0  0  0  0  0  0  0  0  0  0  0  0
    7.1090   -5.3194   27.2948 S   0  0  0  0  0  0  0  0  0  0  0  0
   11.6734    0.5792   21.9062 H   0  0  0  0  0  0  0  0  0  0  0  0
   13.2708   -0.2694   21.6949 H   0  0  0  0  0  0  0  0  0  0  0  0
   13.2794   -0.8570   24.1334 H   0  0  0  0  0  0  0  0  0  0  0  0
   11.6830   -0.0063   24.3421 H   0  0  0  0  0  0  0  0  0  0  0  0
   10.7749   -3.7611   26.5559 H   0  0  0  0  0  0  0  0  0  0  0  0
   10.3875   -2.0835   26.1817 H   0  0  0  0  0  0  0  0  0  0  0  0
    7.7723   -1.6229   25.3069 H   0  0  0  0  0  0  0  0  0  0  0  0
    6.7535   -3.0553   25.1897 H   0  0  0  0  0  0  0  0  0  0  0  0
   11.6162   -3.0533   24.3156 H   0  0  0  0  0  0  0  0  0  0  0  0
   10.4922   -4.4062   24.1839 H   0  0  0  0  0  0  0  0  0  0  0  0
    8.1526   -3.9683   23.3741 H   0  0  0  0  0  0  0  0  0  0  0  0
    7.6633   -2.3254   22.9885 H   0  0  0  0  0  0  0  0  0  0  0  0
   12.2741   -2.4194   22.4709 H   0  0  0  0  0  0  0  0  0  0  0  0
    8.4061   -3.0091   27.1428 H   0  0  0  0  0  0  0  0  0  0  0  0
    8.7912   -6.3563   28.6904 H   0  0  0  0  0  0  0  0  0  0  0  0
    7.3730   -5.8313   29.6444 H   0  0  0  0  0  0  0  0  0  0  0  0
  1  9  1  0  0  0  0
  1 12  1  0  0  0  0
  1 13  2  0  0  0  0
  2 10  1  0  0  0  0
  2 14  2  0  0  0  0
  2 16  1  0  0  0  0
  3  4  1  0  0  0  0
  3  9  1  0  0  0  0
  3 17  1  0  0  0  0
  3 18  1  0  0  0  0
  4  9  1  0  0  0  0
  4 19  1  0  0  0  0
  4 20  1  0  0  0  0
  5  7  1  0  0  0  0
  5 10  1  0  0  0  0
  5 21  1  0  0  0  0
  5 22  1  0  0  0  0
  6  8  1  0  0  0  0
  6 10  1  0  0  0  0
  6 23  1  0  0  0  0
  6 24  1  0  0  0  0
  7 12  1  0  0  0  0
  7 25  1  0  0  0  0
  7 26  1  0  0  0  0
  8 12  1  0  0  0  0
  8 27  1  0  0  0  0
  8 28  1  0  0  0  0
  9 29  1  0  0  0  0
 10 30  1  0  0  0  0
 11 15  1  0  0  0  0
 11 16  1  0  0  0  0
 11 31  1  0  0  0  0
 11 32  1  0  0  0  0
M  END
>  <Chemgauss4 Score>
-4.68108415603638

>  <Number of Confs>
200

$$$$
