DAR-DIA-842-9
 OpenBabel03242009303D

 25 26  0  0  0  0  0  0  0  0999 V2000
    9.2011   -6.0775   25.6373 C   0  0  0  0  0  0  0  0  0  0  0  0
   11.9804    0.1758   22.9300 C   0  0  0  0  0  0  0  0  0  0  0  0
    8.2694   -5.2556   27.8617 C   0  0  0  0  0  0  0  0  0  0  0  0
   11.3154   -0.1501   24.1068 C   0  0  0  0  0  0  0  0  0  0  0  0
    8.2741   -3.9623   28.4368 C   0  0  0  0  0  0  0  0  0  0  0  0
   12.2105   -0.8372   22.0132 C   0  0  0  0  0  0  0  0  0  0  0  0
   11.1845   -2.4003   23.3481 C   0  0  0  0  0  0  0  0  0  0  0  0
    8.9064   -5.1364   26.6485 C   0  0  0  0  0  0  0  0  0  0  0  0
   10.9065   -1.4606   24.3276 C   0  0  0  0  0  0  0  0  0  0  0  0
    8.9139   -3.1452   27.5341 C   0  0  0  0  0  0  0  0  0  0  0  0
    9.8742   -0.9971   26.5944 C   0  0  0  0  0  0  0  0  0  0  0  0
    9.4431   -6.8507   24.8064 N   0  0  0  0  0  0  0  0  0  0  0  0
   11.8283   -2.1215   22.1925 N   0  0  0  0  0  0  0  0  0  0  0  0
   10.2387   -1.8170   25.4966 N   0  0  0  0  0  0  0  0  0  0  0  0
    9.2117   -1.7623   27.5676 N   0  0  0  0  0  0  0  0  0  0  0  0
   10.1073    0.2047   26.6745 O   0  0  0  0  0  0  0  0  0  0  0  0
    9.3026   -3.8532   26.4413 O   0  0  0  0  0  0  0  0  0  0  0  0
   12.3083    1.1908   22.7368 H   0  0  0  0  0  0  0  0  0  0  0  0
    7.8511   -6.1584   28.2841 H   0  0  0  0  0  0  0  0  0  0  0  0
   11.1211    0.6241   24.8443 H   0  0  0  0  0  0  0  0  0  0  0  0
    7.8607   -3.6671   29.3908 H   0  0  0  0  0  0  0  0  0  0  0  0
   12.7261   -0.6347   21.0802 H   0  0  0  0  0  0  0  0  0  0  0  0
   10.8902   -3.4394   23.4629 H   0  0  0  0  0  0  0  0  0  0  0  0
    9.9749   -2.8062   25.5739 H   0  0  0  0  0  0  0  0  0  0  0  0
    8.9048   -1.2677   28.4014 H   0  0  0  0  0  0  0  0  0  0  0  0
  1  8  1  0  0  0  0
  1 12  3  0  0  0  0
  2  4  2  0  0  0  0
  2  6  1  0  0  0  0
  2 18  1  0  0  0  0
  3  5  1  0  0  0  0
  3  8  2  0  0  0  0
  3 19  1  0  0  0  0
  4  9  1  0  0  0  0
  4 20  1  0  0  0  0
  5 10  2  0  0  0  0
  5 21  1  0  0  0  0
  6 13  2  0  0  0  0
  6 22  1  0  0  0  0
  7  9  2  0  0  0  0
  7 13  1  0  0  0  0
  7 23  1  0  0  0  0
  8 17  1  0  0  0  0
  9 14  1  0  0  0  0
 10 15  1  0  0  0  0
 10 17  1  0  0  0  0
 11 14  1  0  0  0  0
 11 15  1  0  0  0  0
 11 16  2  0  0  0  0
 14 24  1  0  0  0  0
 15 25  1  0  0  0  0
M  END
>  <Chemgauss4 Score>
-4.77020263671875

>  <Number of Confs>
6

$$$$
