ANN-UNI-263-5
 OpenBabel03242009303D

 29 30  0  0  0  0  0  0  0  0999 V2000
   12.5118   -0.9374   22.8236 C   0  0  0  0  0  0  0  0  0  0  0  0
    8.9210   -0.4788   23.6906 C   0  0  0  0  0  0  0  0  0  0  0  0
    5.2860   -4.8068   28.0710 C   0  0  0  0  0  0  0  0  0  0  0  0
   10.2531   -0.1930   23.3916 C   0  0  0  0  0  0  0  0  0  0  0  0
    8.4830   -1.8026   23.7276 C   0  0  0  0  0  0  0  0  0  0  0  0
    6.0350   -4.7265   26.9023 C   0  0  0  0  0  0  0  0  0  0  0  0
   10.7092   -2.5549   23.1662 C   0  0  0  0  0  0  0  0  0  0  0  0
    5.8909   -4.4219   29.2567 C   0  0  0  0  0  0  0  0  0  0  0  0
    7.8599   -3.9091   28.1898 C   0  0  0  0  0  0  0  0  0  0  0  0
   11.1472   -1.2310   23.1293 C   0  0  0  0  0  0  0  0  0  0  0  0
    9.3771   -2.8406   23.4653 C   0  0  0  0  0  0  0  0  0  0  0  0
    7.3474   -4.2702   26.9542 C   0  0  0  0  0  0  0  0  0  0  0  0
    7.7601   -4.5016   24.4801 C   0  0  0  0  0  0  0  0  0  0  0  0
    8.9085   -4.2560   23.5047 C   0  0  0  0  0  0  0  0  0  0  0  0
   13.6201   -0.6989   22.5753 N   0  0  0  0  0  0  0  0  0  0  0  0
    7.1631   -3.9735   29.3465 N   0  0  0  0  0  0  0  0  0  0  0  0
    8.1346   -4.1777   25.7817 N   0  0  0  0  0  0  0  0  0  0  0  0
    6.6739   -4.9310   24.1046 O   0  0  0  0  0  0  0  0  0  0  0  0
    8.2243    0.3292   23.8938 H   0  0  0  0  0  0  0  0  0  0  0  0
    4.2612   -5.1596   28.0542 H   0  0  0  0  0  0  0  0  0  0  0  0
   10.5798    0.8439   23.3670 H   0  0  0  0  0  0  0  0  0  0  0  0
    7.4433   -2.0152   23.9621 H   0  0  0  0  0  0  0  0  0  0  0  0
    5.5866   -5.0218   25.9574 H   0  0  0  0  0  0  0  0  0  0  0  0
   11.4017   -3.3688   22.9615 H   0  0  0  0  0  0  0  0  0  0  0  0
    5.3495   -4.4667   30.1959 H   0  0  0  0  0  0  0  0  0  0  0  0
    8.8778   -3.5452   28.2943 H   0  0  0  0  0  0  0  0  0  0  0  0
    8.5795   -4.5786   22.5031 H   0  0  0  0  0  0  0  0  0  0  0  0
    9.7398   -4.9259   23.7796 H   0  0  0  0  0  0  0  0  0  0  0  0
    9.0850   -3.8344   25.9040 H   0  0  0  0  0  0  0  0  0  0  0  0
  1 10  1  0  0  0  0
  1 15  3  0  0  0  0
  2  4  2  0  0  0  0
  2  5  1  0  0  0  0
  2 19  1  0  0  0  0
  3  6  2  0  0  0  0
  3  8  1  0  0  0  0
  3 20  1  0  0  0  0
  4 10  1  0  0  0  0
  4 21  1  0  0  0  0
  5 11  2  0  0  0  0
  5 22  1  0  0  0  0
  6 12  1  0  0  0  0
  6 23  1  0  0  0  0
  7 10  2  0  0  0  0
  7 11  1  0  0  0  0
  7 24  1  0  0  0  0
  8 16  2  0  0  0  0
  8 25  1  0  0  0  0
  9 12  2  0  0  0  0
  9 16  1  0  0  0  0
  9 26  1  0  0  0  0
 11 14  1  0  0  0  0
 12 17  1  0  0  0  0
 13 14  1  0  0  0  0
 13 17  1  0  0  0  0
 13 18  2  0  0  0  0
 14 27  1  0  0  0  0
 14 28  1  0  0  0  0
 17 29  1  0  0  0  0
M  END
>  <Chemgauss4 Score>
-4.88376092910767

>  <Number of Confs>
40

$$$$
