CHR-SOS-597-2
 OpenBabel03242009303D

 43 45  0  0  0  0  0  0  0  0999 V2000
    9.6477   -3.4358   27.3570 C   0  0  0  0  0  0  0  0  0  0  0  0
   12.4697   -0.5306   23.0896 C   0  0  0  0  0  0  0  0  0  0  0  0
    9.5665   -3.9283   26.0592 C   0  0  0  0  0  0  0  0  0  0  0  0
   11.3658   -1.3744   23.1411 C   0  0  0  0  0  0  0  0  0  0  0  0
    9.0443   -4.1674   28.3672 C   0  0  0  0  0  0  0  0  0  0  0  0
   12.4092    0.6603   23.7952 C   0  0  0  0  0  0  0  0  0  0  0  0
    8.3244   -5.7767   26.8941 C   0  0  0  0  0  0  0  0  0  0  0  0
   10.2898    0.2054   24.5563 C   0  0  0  0  0  0  0  0  0  0  0  0
    8.8938   -5.1205   25.8148 C   0  0  0  0  0  0  0  0  0  0  0  0
   10.2509   -1.0067   23.8862 C   0  0  0  0  0  0  0  0  0  0  0  0
    8.9285   -3.0803   23.3440 C   0  0  0  0  0  0  0  0  0  0  0  0
    5.9488   -5.6377   21.9298 C   0  0  0  0  0  0  0  0  0  0  0  0
    5.1937   -5.6141   23.2586 C   0  0  0  0  0  0  0  0  0  0  0  0
    7.4310   -5.7347   22.2838 C   0  0  0  0  0  0  0  0  0  0  0  0
    6.2552   -5.6997   24.3528 C   0  0  0  0  0  0  0  0  0  0  0  0
    7.5400   -5.1653   23.7050 C   0  0  0  0  0  0  0  0  0  0  0  0
    8.7891   -5.6792   24.4236 C   0  0  0  0  0  0  0  0  0  0  0  0
    7.5602   -3.6281   23.6904 C   0  0  0  0  0  0  0  0  0  0  0  0
    8.3824   -5.3292   28.1685 N   0  0  0  0  0  0  0  0  0  0  0  0
   11.3439    1.0515   24.5298 N   0  0  0  0  0  0  0  0  0  0  0  0
    9.1124   -1.8444   23.9575 N   0  0  0  0  0  0  0  0  0  0  0  0
    9.7196   -3.6802   22.6237 O   0  0  0  0  0  0  0  0  0  0  0  0
   10.1671   -2.5088   27.5710 H   0  0  0  0  0  0  0  0  0  0  0  0
   13.3496   -0.7968   22.5152 H   0  0  0  0  0  0  0  0  0  0  0  0
   10.0299   -3.3772   25.2454 H   0  0  0  0  0  0  0  0  0  0  0  0
   11.3849   -2.3153   22.5975 H   0  0  0  0  0  0  0  0  0  0  0  0
    9.0792   -3.8255   29.3964 H   0  0  0  0  0  0  0  0  0  0  0  0
   13.2439    1.3535   23.7865 H   0  0  0  0  0  0  0  0  0  0  0  0
    7.7870   -6.7111   26.7648 H   0  0  0  0  0  0  0  0  0  0  0  0
    9.4501    0.5470   25.1544 H   0  0  0  0  0  0  0  0  0  0  0  0
    5.6361   -6.4779   21.3012 H   0  0  0  0  0  0  0  0  0  0  0  0
    5.7467   -4.7181   21.3687 H   0  0  0  0  0  0  0  0  0  0  0  0
    4.6234   -4.6824   23.3480 H   0  0  0  0  0  0  0  0  0  0  0  0
    4.4790   -6.4401   23.3336 H   0  0  0  0  0  0  0  0  0  0  0  0
    7.7331   -6.7897   22.2664 H   0  0  0  0  0  0  0  0  0  0  0  0
    8.0575   -5.2031   21.5599 H   0  0  0  0  0  0  0  0  0  0  0  0
    5.9626   -5.1414   25.2482 H   0  0  0  0  0  0  0  0  0  0  0  0
    6.3795   -6.7499   24.6466 H   0  0  0  0  0  0  0  0  0  0  0  0
    9.6762   -5.4104   23.8431 H   0  0  0  0  0  0  0  0  0  0  0  0
    8.7618   -6.7721   24.4588 H   0  0  0  0  0  0  0  0  0  0  0  0
    7.2664   -3.2687   24.6765 H   0  0  0  0  0  0  0  0  0  0  0  0
    6.8348   -3.2790   22.9558 H   0  0  0  0  0  0  0  0  0  0  0  0
    8.3468   -1.4900   24.5270 H   0  0  0  0  0  0  0  0  0  0  0  0
  1  3  2  0  0  0  0
  1  5  1  0  0  0  0
  1 23  1  0  0  0  0
  2  4  2  0  0  0  0
  2  6  1  0  0  0  0
  2 24  1  0  0  0  0
  3  9  1  0  0  0  0
  3 25  1  0  0  0  0
  4 10  1  0  0  0  0
  4 26  1  0  0  0  0
  5 19  2  0  0  0  0
  5 27  1  0  0  0  0
  6 20  2  0  0  0  0
  6 28  1  0  0  0  0
  7  9  2  0  0  0  0
  7 19  1  0  0  0  0
  7 29  1  0  0  0  0
  8 10  2  0  0  0  0
  8 20  1  0  0  0  0
  8 30  1  0  0  0  0
  9 17  1  0  0  0  0
 10 21  1  0  0  0  0
 11 18  1  0  0  0  0
 11 21  1  0  0  0  0
 11 22  2  0  0  0  0
 12 13  1  0  0  0  0
 12 14  1  0  0  0  0
 12 31  1  0  0  0  0
 12 32  1  0  0  0  0
 13 15  1  0  0  0  0
 13 33  1  0  0  0  0
 13 34  1  0  0  0  0
 14 16  1  0  0  0  0
 14 35  1  0  0  0  0
 14 36  1  0  0  0  0
 15 16  1  0  0  0  0
 15 37  1  0  0  0  0
 15 38  1  0  0  0  0
 16 17  1  0  0  0  0
 16 18  1  0  0  0  0
 17 39  1  0  0  0  0
 17 40  1  0  0  0  0
 18 41  1  0  0  0  0
 18 42  1  0  0  0  0
 21 43  1  0  0  0  0
M  END
>  <Chemgauss4 Score>
-5.8476767539978

>  <Number of Confs>
194

$$$$
