CHR-SOS-f73-6
 OpenBabel03242009303D

 40 42  0  0  0  0  0  0  0  0999 V2000
    7.6154   -4.5368   29.0023 C   0  0  0  0  0  0  0  0  0  0  0  0
    8.3654   -3.6191   28.2753 C   0  0  0  0  0  0  0  0  0  0  0  0
    7.3835   -5.7794   28.4348 C   0  0  0  0  0  0  0  0  0  0  0  0
    8.5666   -5.2352   26.5421 C   0  0  0  0  0  0  0  0  0  0  0  0
    7.9883   -1.0551   24.2616 C   0  0  0  0  0  0  0  0  0  0  0  0
    8.8537   -3.9670   27.0208 C   0  0  0  0  0  0  0  0  0  0  0  0
    8.9386   -1.8760   23.6915 C   0  0  0  0  0  0  0  0  0  0  0  0
    6.7029   -2.7676   23.7873 C   0  0  0  0  0  0  0  0  0  0  0  0
   10.6208   -3.3494   25.3362 C   0  0  0  0  0  0  0  0  0  0  0  0
   12.2848   -1.6396   21.8642 C   0  0  0  0  0  0  0  0  0  0  0  0
   12.1438   -0.2290   22.4242 C   0  0  0  0  0  0  0  0  0  0  0  0
   10.9974   -2.3719   22.2326 C   0  0  0  0  0  0  0  0  0  0  0  0
   10.7769   -0.1775   23.1010 C   0  0  0  0  0  0  0  0  0  0  0  0
   10.4317   -1.6380   23.4691 C   0  0  0  0  0  0  0  0  0  0  0  0
    5.5051   -3.6280   23.6701 C   0  0  0  0  0  0  0  0  0  0  0  0
   11.1797   -2.0688   24.7474 C   0  0  0  0  0  0  0  0  0  0  0  0
    7.8415   -6.1536   27.2191 N   0  0  0  0  0  0  0  0  0  0  0  0
    6.7056   -1.5645   24.3170 N   0  0  0  0  0  0  0  0  0  0  0  0
    9.6197   -3.0543   26.2573 N   0  0  0  0  0  0  0  0  0  0  0  0
   11.0304   -4.4586   25.0099 O   0  0  0  0  0  0  0  0  0  0  0  0
    8.2082   -3.3489   23.2032 S   0  0  0  0  0  0  0  0  0  0  0  0
    7.2247   -4.2873   29.9822 H   0  0  0  0  0  0  0  0  0  0  0  0
    8.5632   -2.6364   28.6954 H   0  0  0  0  0  0  0  0  0  0  0  0
    6.8035   -6.5303   28.9611 H   0  0  0  0  0  0  0  0  0  0  0  0
    8.9203   -5.5650   25.5698 H   0  0  0  0  0  0  0  0  0  0  0  0
    8.1767   -0.0655   24.6566 H   0  0  0  0  0  0  0  0  0  0  0  0
   12.4412   -1.6338   20.7806 H   0  0  0  0  0  0  0  0  0  0  0  0
   13.1510   -2.1373   22.3152 H   0  0  0  0  0  0  0  0  0  0  0  0
   12.9398   -0.0350   23.1520 H   0  0  0  0  0  0  0  0  0  0  0  0
   12.2269    0.5309   21.6406 H   0  0  0  0  0  0  0  0  0  0  0  0
   10.2968   -2.3077   21.3888 H   0  0  0  0  0  0  0  0  0  0  0  0
   11.1763   -3.4368   22.4186 H   0  0  0  0  0  0  0  0  0  0  0  0
   10.7800    0.4890   23.9708 H   0  0  0  0  0  0  0  0  0  0  0  0
   10.0421    0.2262   22.3910 H   0  0  0  0  0  0  0  0  0  0  0  0
    4.9844   -3.4505   22.7162 H   0  0  0  0  0  0  0  0  0  0  0  0
    5.7622   -4.6986   23.7206 H   0  0  0  0  0  0  0  0  0  0  0  0
    4.7872   -3.4454   24.4863 H   0  0  0  0  0  0  0  0  0  0  0  0
   11.0997   -1.2706   25.4877 H   0  0  0  0  0  0  0  0  0  0  0  0
   12.2338   -2.2172   24.5053 H   0  0  0  0  0  0  0  0  0  0  0  0
    9.4030   -2.0714   26.4087 H   0  0  0  0  0  0  0  0  0  0  0  0
  1  2  2  0  0  0  0
  1  3  1  0  0  0  0
  1 22  1  0  0  0  0
  2  6  1  0  0  0  0
  2 23  1  0  0  0  0
  3 17  2  0  0  0  0
  3 24  1  0  0  0  0
  4  6  2  0  0  0  0
  4 17  1  0  0  0  0
  4 25  1  0  0  0  0
  5  7  2  0  0  0  0
  5 18  1  0  0  0  0
  5 26  1  0  0  0  0
  6 19  1  0  0  0  0
  7 14  1  0  0  0  0
  7 21  1  0  0  0  0
  8 15  1  0  0  0  0
  8 18  2  0  0  0  0
  8 21  1  0  0  0  0
  9 16  1  0  0  0  0
  9 19  1  0  0  0  0
  9 20  2  0  0  0  0
 10 11  1  0  0  0  0
 10 12  1  0  0  0  0
 10 27  1  0  0  0  0
 10 28  1  0  0  0  0
 11 13  1  0  0  0  0
 11 29  1  0  0  0  0
 11 30  1  0  0  0  0
 12 14  1  0  0  0  0
 12 31  1  0  0  0  0
 12 32  1  0  0  0  0
 13 14  1  0  0  0  0
 13 33  1  0  0  0  0
 13 34  1  0  0  0  0
 14 16  1  0  0  0  0
 15 35  1  0  0  0  0
 15 36  1  0  0  0  0
 15 37  1  0  0  0  0
 16 38  1  0  0  0  0
 16 39  1  0  0  0  0
 19 40  1  0  0  0  0
M  END
>  <Chemgauss4 Score>
-6.19667053222656

>  <Number of Confs>
200

$$$$
