JOH-MSK-a63-3
 OpenBabel03242009303D

 54 56  0  0  1  0  0  0  0  0999 V2000
    7.5738   -3.2036   28.5287 C   0  0  0  0  0  0  0  0  0  0  0  0
    8.3899   -2.5784   27.5790 C   0  0  0  0  0  0  0  0  0  0  0  0
    7.1575   -5.4968   29.7001 C   0  0  0  0  0  0  0  0  0  0  0  0
    9.6163   -4.6409   27.1967 C   0  0  0  0  0  0  0  0  0  0  0  0
    7.7950   -6.7066   29.5487 C   0  0  0  0  0  0  0  0  0  0  0  0
    7.7783   -4.5670   28.8197 C   0  0  0  0  0  0  0  0  0  0  0  0
    8.7928   -5.2529   28.1483 C   0  0  0  0  0  0  0  0  0  0  0  0
    9.3948   -3.2879   26.9244 C   0  0  0  0  0  0  0  0  0  0  0  0
   12.1066   -1.2204   22.4421 C   0  0  0  0  0  0  0  0  0  0  0  0
    5.9926   -5.1334   25.2561 C   0  0  0  0  0  0  0  0  0  0  0  0
    9.5644   -4.1267   24.1349 C   0  0  1  0  0  0  0  0  0  0  0  0
    9.8953   -2.3695   22.3692 C   0  0  1  0  0  0  0  0  0  0  0  0
   10.6897   -3.4492   24.9359 C   0  0  1  0  0  0  0  0  0  0  0  0
   10.9707   -1.7407   23.2674 C   0  0  1  0  0  0  0  0  0  0  0  0
    8.8429   -3.1408   23.1926 C   0  0  1  0  0  0  0  0  0  0  0  0
    5.1769   -4.3891   26.2606 C   0  0  0  0  0  0  0  0  0  0  0  0
   11.5468   -0.0719   24.8173 C   0  0  0  0  0  0  0  0  0  0  0  0
    7.8364   -3.8566   22.2832 C   0  0  0  0  0  0  0  0  0  0  0  0
    7.0595   -4.9354   23.0189 C   0  0  0  0  0  0  0  0  0  0  0  0
    8.7800   -6.5494   28.6108 N   0  0  0  0  0  0  0  0  0  0  0  0
    6.2862   -4.4104   24.1100 N   0  0  0  0  0  0  0  0  0  0  0  0
   13.2676   -1.5907   22.5333 O   0  0  0  0  0  0  0  0  0  0  0  0
    6.3396   -6.2846   25.4931 O   0  0  0  0  0  0  0  0  0  0  0  0
   11.5921   -2.7229   24.0943 O   0  0  0  0  0  0  0  0  0  0  0  0
   11.6733   -0.2738   21.5741 O   0  0  0  0  0  0  0  0  0  0  0  0
   10.1345   -5.1858   23.3659 O   0  0  0  0  0  0  0  0  0  0  0  0
    9.2768   -1.3780   21.5537 O   0  0  0  0  0  0  0  0  0  0  0  0
    8.1029   -2.2269   24.0089 O   0  0  0  0  0  0  0  0  0  0  0  0
   10.1787   -2.6513   25.9997 O   0  0  0  0  0  0  0  0  0  0  0  0
   10.5194   -0.6083   23.9940 O   0  0  0  0  0  0  0  0  0  0  0  0
    6.7941   -2.6386   29.0316 H   0  0  0  0  0  0  0  0  0  0  0  0
    8.2315   -1.5262   27.3550 H   0  0  0  0  0  0  0  0  0  0  0  0
    6.3329   -5.3029   30.3723 H   0  0  0  0  0  0  0  0  0  0  0  0
   10.3978   -5.1973   26.6892 H   0  0  0  0  0  0  0  0  0  0  0  0
    7.6357   -7.6640   30.0244 H   0  0  0  0  0  0  0  0  0  0  0  0
    8.8409   -4.5617   24.8366 H   0  0  0  0  0  0  0  0  0  0  0  0
   10.3927   -3.0897   21.6852 H   0  0  0  0  0  0  0  0  0  0  0  0
   11.3072   -4.2455   25.4027 H   0  0  0  0  0  0  0  0  0  0  0  0
    4.0943   -4.5251   26.1071 H   0  0  0  0  0  0  0  0  0  0  0  0
    5.3693   -4.7265   27.2917 H   0  0  0  0  0  0  0  0  0  0  0  0
    5.3322   -3.2985   26.2790 H   0  0  0  0  0  0  0  0  0  0  0  0
   11.1640    0.7960   25.3598 H   0  0  0  0  0  0  0  0  0  0  0  0
   12.3977    0.2194   24.1963 H   0  0  0  0  0  0  0  0  0  0  0  0
   11.8641   -0.8348   25.5321 H   0  0  0  0  0  0  0  0  0  0  0  0
    8.3891   -4.3084   21.4563 H   0  0  0  0  0  0  0  0  0  0  0  0
    7.1565   -3.1121   21.8622 H   0  0  0  0  0  0  0  0  0  0  0  0
    6.3568   -5.4157   22.3308 H   0  0  0  0  0  0  0  0  0  0  0  0
    7.7246   -5.7067   23.4200 H   0  0  0  0  0  0  0  0  0  0  0  0
    9.4073   -7.2792   28.3020 H   0  0  0  0  0  0  0  0  0  0  0  0
    5.9348   -3.4560   24.0377 H   0  0  0  0  0  0  0  0  0  0  0  0
   12.4042    0.0815   21.0247 H   0  0  0  0  0  0  0  0  0  0  0  0
   10.5374   -5.7985   23.9996 H   0  0  0  0  0  0  0  0  0  0  0  0
    9.9811   -0.9872   21.0142 H   0  0  0  0  0  0  0  0  0  0  0  0
    7.4789   -2.7646   24.5170 H   0  0  0  0  0  0  0  0  0  0  0  0
  1  2  2  0  0  0  0
  1  6  1  0  0  0  0
  1 31  1  0  0  0  0
  2  8  1  0  0  0  0
  2 32  1  0  0  0  0
  3  5  2  0  0  0  0
  3  6  1  0  0  0  0
  3 33  1  0  0  0  0
  4  7  1  0  0  0  0
  4  8  2  0  0  0  0
  4 34  1  0  0  0  0
  5 20  1  0  0  0  0
  5 35  1  0  0  0  0
  6  7  2  0  0  0  0
  7 20  1  0  0  0  0
  8 29  1  0  0  0  0
  9 22  2  0  0  0  0
  9 25  1  0  0  0  0
 10 16  1  0  0  0  0
 10 21  1  0  0  0  0
 10 23  2  0  0  0  0
 11 13  1  0  0  0  0
 11 15  1  0  0  0  0
 11 26  1  0  0  0  0
 11 36  1  1  0  0  0
 12 14  1  0  0  0  0
 12 15  1  0  0  0  0
 12 27  1  0  0  0  0
 12 37  1  6  0  0  0
 13 24  1  0  0  0  0
 13 29  1  0  0  0  0
 13 38  1  1  0  0  0
 14  9  1  6  0  0  0
 14 24  1  0  0  0  0
 14 30  1  0  0  0  0
 15 18  1  0  0  0  0
 15 28  1  1  0  0  0
 16 39  1  0  0  0  0
 16 40  1  0  0  0  0
 16 41  1  0  0  0  0
 17 30  1  0  0  0  0
 17 42  1  0  0  0  0
 17 43  1  0  0  0  0
 17 44  1  0  0  0  0
 18 19  1  0  0  0  0
 18 45  1  0  0  0  0
 18 46  1  0  0  0  0
 19 21  1  0  0  0  0
 19 47  1  0  0  0  0
 19 48  1  0  0  0  0
 20 49  1  0  0  0  0
 21 50  1  0  0  0  0
 25 51  1  0  0  0  0
 26 52  1  0  0  0  0
 27 53  1  0  0  0  0
 28 54  1  0  0  0  0
M  END
>  <Chemgauss4 Score>
-5.24312162399292

>  <Number of Confs>
152

$$$$
