PAU-WEI-b9b-3
 OpenBabel03242009303D

 53 55  0  0  1  0  0  0  0  0999 V2000
   10.5949    0.3728   23.8452 C   0  0  0  0  0  0  0  0  0  0  0  0
    9.6080   -0.6107   23.7799 C   0  0  0  0  0  0  0  0  0  0  0  0
   10.0283   -4.5284   27.8895 C   0  0  0  0  0  0  0  0  0  0  0  0
    7.8769   -5.1521   26.9842 C   0  0  0  0  0  0  0  0  0  0  0  0
   10.5581   -4.4838   26.6000 C   0  0  0  0  0  0  0  0  0  0  0  0
    8.4067   -5.1074   25.6946 C   0  0  0  0  0  0  0  0  0  0  0  0
   11.8465    0.1440   23.2733 C   0  0  0  0  0  0  0  0  0  0  0  0
   11.1241   -2.0519   22.5709 C   0  0  0  0  0  0  0  0  0  0  0  0
    8.6877   -4.8626   28.0816 C   0  0  0  0  0  0  0  0  0  0  0  0
    9.7472   -4.7732   25.5025 C   0  0  0  0  0  0  0  0  0  0  0  0
    9.8726   -1.8231   23.1428 C   0  0  0  0  0  0  0  0  0  0  0  0
   12.1111   -1.0684   22.6362 C   0  0  0  0  0  0  0  0  0  0  0  0
    6.4451   -0.0245   18.9584 C   0  0  0  0  0  0  0  0  0  0  0  0
    5.9947   -1.3397   21.0852 C   0  0  0  0  0  0  0  0  0  0  0  0
    7.8002   -2.0063   19.5490 C   0  0  0  0  0  0  0  0  0  0  0  0
    6.9384   -1.5938   22.2621 C   0  0  0  0  0  0  0  0  0  0  0  0
    8.7105   -2.2415   20.7538 C   0  0  0  0  0  0  0  0  0  0  0  0
    8.1205   -4.9105   29.4600 C   0  0  0  0  0  0  0  0  0  0  0  0
   10.3201   -4.7231   24.1089 C   0  0  0  0  0  0  0  0  0  0  0  0
    5.2517    0.8370   19.2861 C   0  0  0  0  0  0  0  0  0  0  0  0
    9.3268   -4.3402   22.9993 C   0  0  0  0  0  0  0  0  0  0  0  0
    8.8015   -2.8903   23.0734 C   0  0  2  0  0  0  0  0  0  0  0  0
    6.7448   -1.0438   19.8611 N   0  0  0  0  0  0  0  0  0  0  0  0
    7.9238   -2.6339   21.9322 N   0  0  0  0  0  0  0  0  0  0  0  0
    7.0925    0.2049   17.9336 O   0  0  0  0  0  0  0  0  0  0  0  0
   13.6557   -1.3505   21.9319 Cl  0  0  0  0  0  0  0  0  0  0  0  0
    5.8442    2.1593   20.2852 Cl  0  0  0  0  0  0  0  0  0  0  0  0
   10.3885    1.3166   24.3415 H   0  0  0  0  0  0  0  0  0  0  0  0
    8.6357   -0.4239   24.2283 H   0  0  0  0  0  0  0  0  0  0  0  0
   10.6676   -4.3020   28.7388 H   0  0  0  0  0  0  0  0  0  0  0  0
    6.8310   -5.4122   27.1248 H   0  0  0  0  0  0  0  0  0  0  0  0
   11.6031   -4.2209   26.4596 H   0  0  0  0  0  0  0  0  0  0  0  0
    7.7680   -5.3345   24.8450 H   0  0  0  0  0  0  0  0  0  0  0  0
   12.6062    0.9195   23.3321 H   0  0  0  0  0  0  0  0  0  0  0  0
   11.3253   -2.9986   22.0749 H   0  0  0  0  0  0  0  0  0  0  0  0
    5.3883   -2.2309   20.8810 H   0  0  0  0  0  0  0  0  0  0  0  0
    5.3064   -0.5329   21.3444 H   0  0  0  0  0  0  0  0  0  0  0  0
    8.3963   -1.6648   18.6964 H   0  0  0  0  0  0  0  0  0  0  0  0
    7.3081   -2.9400   19.2497 H   0  0  0  0  0  0  0  0  0  0  0  0
    7.4354   -0.6559   22.5438 H   0  0  0  0  0  0  0  0  0  0  0  0
    6.3361   -1.9148   23.1206 H   0  0  0  0  0  0  0  0  0  0  0  0
    9.4171   -3.0403   20.4983 H   0  0  0  0  0  0  0  0  0  0  0  0
    9.2987   -1.3362   20.9552 H   0  0  0  0  0  0  0  0  0  0  0  0
    7.7175   -3.9300   29.7416 H   0  0  0  0  0  0  0  0  0  0  0  0
    7.3145   -5.6522   29.5338 H   0  0  0  0  0  0  0  0  0  0  0  0
    8.8838   -5.1971   30.1953 H   0  0  0  0  0  0  0  0  0  0  0  0
   10.7251   -5.7195   23.8875 H   0  0  0  0  0  0  0  0  0  0  0  0
   11.1795   -4.0416   24.0749 H   0  0  0  0  0  0  0  0  0  0  0  0
    4.5325    0.2449   19.8404 H   0  0  0  0  0  0  0  0  0  0  0  0
    4.8347    1.2249   18.3638 H   0  0  0  0  0  0  0  0  0  0  0  0
    8.4986   -5.0574   22.9516 H   0  0  0  0  0  0  0  0  0  0  0  0
    9.8637   -4.4514   22.0463 H   0  0  0  0  0  0  0  0  0  0  0  0
    8.1503   -2.8105   23.9530 H   0  0  0  0  0  0  0  0  0  0  0  0
  1  2  2  0  0  0  0
  1  7  1  0  0  0  0
  1 28  1  0  0  0  0
  2 11  1  0  0  0  0
  2 29  1  0  0  0  0
  3  5  2  0  0  0  0
  3  9  1  0  0  0  0
  3 30  1  0  0  0  0
  4  6  1  0  0  0  0
  4  9  2  0  0  0  0
  4 31  1  0  0  0  0
  5 10  1  0  0  0  0
  5 32  1  0  0  0  0
  6 10  2  0  0  0  0
  6 33  1  0  0  0  0
  7 12  2  0  0  0  0
  7 34  1  0  0  0  0
  8 11  2  0  0  0  0
  8 12  1  0  0  0  0
  8 35  1  0  0  0  0
  9 18  1  0  0  0  0
 10 19  1  0  0  0  0
 11 22  1  0  0  0  0
 12 26  1  0  0  0  0
 13 20  1  0  0  0  0
 13 23  1  0  0  0  0
 13 25  2  0  0  0  0
 14 16  1  0  0  0  0
 14 23  1  0  0  0  0
 14 36  1  0  0  0  0
 14 37  1  0  0  0  0
 15 17  1  0  0  0  0
 15 23  1  0  0  0  0
 15 38  1  0  0  0  0
 15 39  1  0  0  0  0
 16 24  1  0  0  0  0
 16 40  1  0  0  0  0
 16 41  1  0  0  0  0
 17 24  1  0  0  0  0
 17 42  1  0  0  0  0
 17 43  1  0  0  0  0
 18 44  1  0  0  0  0
 18 45  1  0  0  0  0
 18 46  1  0  0  0  0
 19 21  1  0  0  0  0
 19 47  1  0  0  0  0
 19 48  1  0  0  0  0
 20 27  1  0  0  0  0
 20 49  1  0  0  0  0
 20 50  1  0  0  0  0
 21 22  1  0  0  0  0
 21 51  1  0  0  0  0
 21 52  1  0  0  0  0
 22 24  1  0  0  0  0
 22 53  1  1  0  0  0
M  END
>  <Chemgauss4 Score>
-5.48661756515503

>  <Number of Confs>
200

$$$$
