DAR-DIA-43a-3
 OpenBabel03242009303D

 39 41  0  0  1  0  0  0  0  0999 V2000
    5.3729   -5.6455   26.4890 C   0  0  0  0  0  0  0  0  0  0  0  0
   13.0285   -1.3371   21.7343 C   0  0  0  0  0  0  0  0  0  0  0  0
    6.4471   -4.8067   26.7856 C   0  0  0  0  0  0  0  0  0  0  0  0
   11.6838   -1.5007   22.0479 C   0  0  0  0  0  0  0  0  0  0  0  0
    5.1905   -6.1113   25.1869 C   0  0  0  0  0  0  0  0  0  0  0  0
    7.1565   -4.8992   24.4779 C   0  0  0  0  0  0  0  0  0  0  0  0
   13.7864   -0.5054   22.5428 C   0  0  0  0  0  0  0  0  0  0  0  0
   11.9880   -0.0279   23.8903 C   0  0  0  0  0  0  0  0  0  0  0  0
    7.3389   -4.4334   25.7801 C   0  0  0  0  0  0  0  0  0  0  0  0
   11.1457   -0.8370   23.1449 C   0  0  0  0  0  0  0  0  0  0  0  0
    6.0823   -5.7381   24.1814 C   0  0  0  0  0  0  0  0  0  0  0  0
    8.4589   -2.2219   25.3456 C   0  0  0  0  0  0  0  0  0  0  0  0
    9.4495   -2.1195   24.4505 C   0  0  0  0  0  0  0  0  0  0  0  0
   10.0467   -5.5284   25.6560 C   0  0  0  0  0  0  0  0  0  0  0  0
   10.3322   -3.3284   24.4568 C   0  0  0  0  0  0  0  0  0  0  0  0
    8.5055   -3.5213   26.1034 C   0  0  2  0  0  0  0  0  0  0  0  0
    9.9210   -4.0387   25.7522 C   0  0  1  0  0  0  0  0  0  0  0  0
    9.6911   -0.9943   23.5115 C   0  0  0  0  0  0  0  0  0  0  0  0
   13.2991    0.1558   23.6165 N   0  0  0  0  0  0  0  0  0  0  0  0
    9.6929   -6.1903   26.8080 N   0  0  0  0  0  0  0  0  0  0  0  0
   10.4176   -6.0871   24.6266 O   0  0  0  0  0  0  0  0  0  0  0  0
    5.8114   -6.4338   22.2423 I   0  0  0  0  0  0  0  0  0  0  0  0
    4.6789   -5.9363   27.2723 H   0  0  0  0  0  0  0  0  0  0  0  0
   13.4694   -1.8448   20.8841 H   0  0  0  0  0  0  0  0  0  0  0  0
    6.5810   -4.4484   27.8028 H   0  0  0  0  0  0  0  0  0  0  0  0
   11.0634   -2.1468   21.4327 H   0  0  0  0  0  0  0  0  0  0  0  0
    4.3469   -6.7643   24.9779 H   0  0  0  0  0  0  0  0  0  0  0  0
    7.8583   -4.6014   23.7017 H   0  0  0  0  0  0  0  0  0  0  0  0
   14.8402   -0.3445   22.3400 H   0  0  0  0  0  0  0  0  0  0  0  0
   11.6247    0.5150   24.7574 H   0  0  0  0  0  0  0  0  0  0  0  0
    7.7314   -1.4405   25.5380 H   0  0  0  0  0  0  0  0  0  0  0  0
   10.1735   -3.9489   23.5692 H   0  0  0  0  0  0  0  0  0  0  0  0
   11.3827   -3.0207   24.4920 H   0  0  0  0  0  0  0  0  0  0  0  0
    8.4464   -3.2855   27.1773 H   0  0  0  0  0  0  0  0  0  0  0  0
   10.6315   -3.7375   26.5853 H   0  0  0  0  0  0  0  0  0  0  0  0
    9.3279   -0.0572   23.9556 H   0  0  0  0  0  0  0  0  0  0  0  0
    9.0928   -1.1406   22.6021 H   0  0  0  0  0  0  0  0  0  0  0  0
    9.3850   -5.6462   27.6072 H   0  0  0  0  0  0  0  0  0  0  0  0
    9.7274   -7.2011   26.8910 H   0  0  0  0  0  0  0  0  0  0  0  0
  1  3  2  0  0  0  0
  1  5  1  0  0  0  0
  1 23  1  0  0  0  0
  2  4  2  0  0  0  0
  2  7  1  0  0  0  0
  2 24  1  0  0  0  0
  3  9  1  0  0  0  0
  3 25  1  0  0  0  0
  4 10  1  0  0  0  0
  4 26  1  0  0  0  0
  5 11  2  0  0  0  0
  5 27  1  0  0  0  0
  6  9  2  0  0  0  0
  6 11  1  0  0  0  0
  6 28  1  0  0  0  0
  7 19  2  0  0  0  0
  7 29  1  0  0  0  0
  8 10  2  0  0  0  0
  8 19  1  0  0  0  0
  8 30  1  0  0  0  0
  9 16  1  0  0  0  0
 10 18  1  0  0  0  0
 11 22  1  0  0  0  0
 12 13  2  0  0  0  0
 12 16  1  0  0  0  0
 12 31  1  0  0  0  0
 13 15  1  0  0  0  0
 13 18  1  0  0  0  0
 14 17  1  0  0  0  0
 14 20  1  0  0  0  0
 14 21  2  0  0  0  0
 15 17  1  0  0  0  0
 15 32  1  0  0  0  0
 15 33  1  0  0  0  0
 16 17  1  0  0  0  0
 16 34  1  1  0  0  0
 17 35  1  1  0  0  0
 18 36  1  0  0  0  0
 18 37  1  0  0  0  0
 20 38  1  0  0  0  0
 20 39  1  0  0  0  0
M  END
>  <Chemgauss4 Score>
-6.33060741424561

>  <Number of Confs>
200

$$$$
