TRY-UNI-714-3
 OpenBabel03242009303D

 33 34  0  0  0  0  0  0  0  0999 V2000
   11.9276   -1.8485   23.2737 C   0  0  0  0  0  0  0  0  0  0  0  0
   10.6632   -2.4342   23.2102 C   0  0  0  0  0  0  0  0  0  0  0  0
   12.0621   -0.4651   23.1568 C   0  0  0  0  0  0  0  0  0  0  0  0
    9.6679   -0.2529   22.9127 C   0  0  0  0  0  0  0  0  0  0  0  0
    8.2191   -6.1516   28.1389 C   0  0  0  0  0  0  0  0  0  0  0  0
    7.9856   -5.5816   25.9256 C   0  0  0  0  0  0  0  0  0  0  0  0
    9.5334   -1.6364   23.0296 C   0  0  0  0  0  0  0  0  0  0  0  0
    8.5666   -3.8893   27.4925 C   0  0  0  0  0  0  0  0  0  0  0  0
    8.5333   -4.8504   28.4967 C   0  0  0  0  0  0  0  0  0  0  0  0
    8.2886   -4.2536   26.1797 C   0  0  0  0  0  0  0  0  0  0  0  0
   10.9323    0.3327   22.9763 C   0  0  0  0  0  0  0  0  0  0  0  0
    8.0533   -3.5496   23.7727 C   0  0  0  0  0  0  0  0  0  0  0  0
    8.8997   -2.4682   27.8228 C   0  0  0  0  0  0  0  0  0  0  0  0
    8.1819   -2.2634   22.9606 C   0  0  0  0  0  0  0  0  0  0  0  0
    7.9435   -6.5434   26.8748 N   0  0  0  0  0  0  0  0  0  0  0  0
    8.8071   -4.5312   29.8388 N   0  0  0  0  0  0  0  0  0  0  0  0
    8.3100   -3.3146   25.1211 N   0  0  0  0  0  0  0  0  0  0  0  0
    7.7609   -4.6191   23.2475 O   0  0  0  0  0  0  0  0  0  0  0  0
   11.0990    2.0394   22.8309 Cl  0  0  0  0  0  0  0  0  0  0  0  0
   12.8072   -2.4701   23.4142 H   0  0  0  0  0  0  0  0  0  0  0  0
   10.5678   -3.5129   23.3021 H   0  0  0  0  0  0  0  0  0  0  0  0
   13.0538   -0.0224   23.2079 H   0  0  0  0  0  0  0  0  0  0  0  0
    8.7838    0.3648   22.7726 H   0  0  0  0  0  0  0  0  0  0  0  0
    8.1774   -6.9462   28.8782 H   0  0  0  0  0  0  0  0  0  0  0  0
    7.7603   -5.9275   24.9212 H   0  0  0  0  0  0  0  0  0  0  0  0
    9.9806   -2.3079   27.7501 H   0  0  0  0  0  0  0  0  0  0  0  0
    8.3943   -1.7767   27.1393 H   0  0  0  0  0  0  0  0  0  0  0  0
    8.5734   -2.2135   28.8376 H   0  0  0  0  0  0  0  0  0  0  0  0
    7.4134   -1.5575   23.3167 H   0  0  0  0  0  0  0  0  0  0  0  0
    7.9201   -2.4919   21.9143 H   0  0  0  0  0  0  0  0  0  0  0  0
    8.7268   -5.2425   30.5398 H   0  0  0  0  0  0  0  0  0  0  0  0
    8.9865   -3.5782   30.0906 H   0  0  0  0  0  0  0  0  0  0  0  0
    8.5397   -2.3560   25.3748 H   0  0  0  0  0  0  0  0  0  0  0  0
  1  2  2  0  0  0  0
  1  3  1  0  0  0  0
  1 20  1  0  0  0  0
  2  7  1  0  0  0  0
  2 21  1  0  0  0  0
  3 11  2  0  0  0  0
  3 22  1  0  0  0  0
  4  7  2  0  0  0  0
  4 11  1  0  0  0  0
  4 23  1  0  0  0  0
  5  9  2  0  0  0  0
  5 15  1  0  0  0  0
  5 24  1  0  0  0  0
  6 10  1  0  0  0  0
  6 15  2  0  0  0  0
  6 25  1  0  0  0  0
  7 14  1  0  0  0  0
  8  9  1  0  0  0  0
  8 10  2  0  0  0  0
  8 13  1  0  0  0  0
  9 16  1  0  0  0  0
 10 17  1  0  0  0  0
 11 19  1  0  0  0  0
 12 14  1  0  0  0  0
 12 17  1  0  0  0  0
 12 18  2  0  0  0  0
 13 26  1  0  0  0  0
 13 27  1  0  0  0  0
 13 28  1  0  0  0  0
 14 29  1  0  0  0  0
 14 30  1  0  0  0  0
 16 31  1  0  0  0  0
 16 32  1  0  0  0  0
 17 33  1  0  0  0  0
M  END
>  <Chemgauss4 Score>
-4.73039722442627

>  <Number of Confs>
20

$$$$
