PAT-UNK-b2d-5
 OpenBabel03242009303D

 52 54  0  0  0  0  0  0  0  0999 V2000
   10.3450   -0.7164   27.8554 C   0  0  0  0  0  0  0  0  0  0  0  0
   11.1502   -0.5421   25.5543 C   0  0  0  0  0  0  0  0  0  0  0  0
   10.0992   -2.5948   26.3150 C   0  0  0  0  0  0  0  0  0  0  0  0
   11.7955   -1.6803   22.1413 C   0  0  0  0  0  0  0  0  0  0  0  0
   10.5325   -1.2934   26.5607 C   0  0  0  0  0  0  0  0  0  0  0  0
   11.3317   -1.1170   24.2807 C   0  0  0  0  0  0  0  0  0  0  0  0
   10.2684   -3.1860   25.0597 C   0  0  0  0  0  0  0  0  0  0  0  0
   11.9021   -0.6611   23.0593 C   0  0  0  0  0  0  0  0  0  0  0  0
   10.8876   -2.4231   24.0633 C   0  0  0  0  0  0  0  0  0  0  0  0
    4.6140   -6.4125   24.0516 C   0  0  0  0  0  0  0  0  0  0  0  0
    9.0850    1.6948   22.7130 C   0  0  0  0  0  0  0  0  0  0  0  0
    6.0869   -4.3438   24.1395 C   0  0  0  0  0  0  0  0  0  0  0  0
    6.5043   -6.2536   25.6372 C   0  0  0  0  0  0  0  0  0  0  0  0
    7.5935   -4.2401   23.8955 C   0  0  0  0  0  0  0  0  0  0  0  0
    8.0010   -6.1174   25.3599 C   0  0  0  0  0  0  0  0  0  0  0  0
    3.7623   -5.7132   23.0223 C   0  0  0  0  0  0  0  0  0  0  0  0
    8.0253    1.6308   21.6636 C   0  0  0  0  0  0  0  0  0  0  0  0
   12.5035    0.6647   22.8106 C   0  0  0  0  0  0  0  0  0  0  0  0
    9.7881   -4.5896   24.8290 C   0  0  0  0  0  0  0  0  0  0  0  0
   11.5439    1.8442   23.0512 C   0  0  0  0  0  0  0  0  0  0  0  0
   10.1928   -0.2480   28.9062 N   0  0  0  0  0  0  0  0  0  0  0  0
   11.1820   -2.7387   22.7560 N   0  0  0  0  0  0  0  0  0  0  0  0
    5.7091   -5.7021   24.5412 N   0  0  0  0  0  0  0  0  0  0  0  0
    8.3503   -4.7210   25.0607 N   0  0  0  0  0  0  0  0  0  0  0  0
   10.3758    1.7720   22.2149 N   0  0  0  0  0  0  0  0  0  0  0  0
    4.3164   -7.5561   24.4057 O   0  0  0  0  0  0  0  0  0  0  0  0
    8.7657    1.6776   23.8960 O   0  0  0  0  0  0  0  0  0  0  0  0
   11.4882    0.4734   25.7457 H   0  0  0  0  0  0  0  0  0  0  0  0
    9.6200   -3.1664   27.1088 H   0  0  0  0  0  0  0  0  0  0  0  0
   12.1012   -1.7494   21.1065 H   0  0  0  0  0  0  0  0  0  0  0  0
    5.7835   -3.6738   24.9535 H   0  0  0  0  0  0  0  0  0  0  0  0
    5.5547   -4.0234   23.2418 H   0  0  0  0  0  0  0  0  0  0  0  0
    6.2539   -7.3060   25.8062 H   0  0  0  0  0  0  0  0  0  0  0  0
    6.2290   -5.7030   26.5453 H   0  0  0  0  0  0  0  0  0  0  0  0
    7.8594   -4.8060   22.9926 H   0  0  0  0  0  0  0  0  0  0  0  0
    7.8377   -3.1880   23.7051 H   0  0  0  0  0  0  0  0  0  0  0  0
    8.5460   -6.4520   26.2508 H   0  0  0  0  0  0  0  0  0  0  0  0
    8.2859   -6.7817   24.5331 H   0  0  0  0  0  0  0  0  0  0  0  0
    4.1472   -5.9359   22.0326 H   0  0  0  0  0  0  0  0  0  0  0  0
    3.7954   -4.6433   23.2010 H   0  0  0  0  0  0  0  0  0  0  0  0
    2.7392   -6.0644   23.1101 H   0  0  0  0  0  0  0  0  0  0  0  0
    7.7878    0.5962   21.3684 H   0  0  0  0  0  0  0  0  0  0  0  0
    7.0705    2.0631   22.0034 H   0  0  0  0  0  0  0  0  0  0  0  0
    8.2614    2.1536   20.7229 H   0  0  0  0  0  0  0  0  0  0  0  0
   12.8639    0.7284   21.7648 H   0  0  0  0  0  0  0  0  0  0  0  0
   13.4126    0.8170   23.4268 H   0  0  0  0  0  0  0  0  0  0  0  0
    9.9941   -4.9040   23.8000 H   0  0  0  0  0  0  0  0  0  0  0  0
   10.2999   -5.2942   25.4930 H   0  0  0  0  0  0  0  0  0  0  0  0
   11.1902    1.8575   24.0870 H   0  0  0  0  0  0  0  0  0  0  0  0
   12.0378    2.7998   22.8468 H   0  0  0  0  0  0  0  0  0  0  0  0
   10.9747   -3.6235   22.3137 H   0  0  0  0  0  0  0  0  0  0  0  0
   10.5040    1.7780   21.2043 H   0  0  0  0  0  0  0  0  0  0  0  0
  1  5  1  0  0  0  0
  1 21  3  0  0  0  0
  2  5  2  0  0  0  0
  2  6  1  0  0  0  0
  2 28  1  0  0  0  0
  3  5  1  0  0  0  0
  3  7  2  0  0  0  0
  3 29  1  0  0  0  0
  4  8  2  0  0  0  0
  4 22  1  0  0  0  0
  4 30  1  0  0  0  0
  6  8  1  0  0  0  0
  6  9  2  0  0  0  0
  7  9  1  0  0  0  0
  7 19  1  0  0  0  0
  8 18  1  0  0  0  0
  9 22  1  0  0  0  0
 10 16  1  0  0  0  0
 10 23  1  0  0  0  0
 10 26  2  0  0  0  0
 11 17  1  0  0  0  0
 11 25  1  0  0  0  0
 11 27  2  0  0  0  0
 12 14  1  0  0  0  0
 12 23  1  0  0  0  0
 12 31  1  0  0  0  0
 12 32  1  0  0  0  0
 13 15  1  0  0  0  0
 13 23  1  0  0  0  0
 13 33  1  0  0  0  0
 13 34  1  0  0  0  0
 14 24  1  0  0  0  0
 14 35  1  0  0  0  0
 14 36  1  0  0  0  0
 15 24  1  0  0  0  0
 15 37  1  0  0  0  0
 15 38  1  0  0  0  0
 16 39  1  0  0  0  0
 16 40  1  0  0  0  0
 16 41  1  0  0  0  0
 17 42  1  0  0  0  0
 17 43  1  0  0  0  0
 17 44  1  0  0  0  0
 18 20  1  0  0  0  0
 18 45  1  0  0  0  0
 18 46  1  0  0  0  0
 19 24  1  0  0  0  0
 19 47  1  0  0  0  0
 19 48  1  0  0  0  0
 20 25  1  0  0  0  0
 20 49  1  0  0  0  0
 20 50  1  0  0  0  0
 22 51  1  0  0  0  0
 25 52  1  0  0  0  0
M  END
>  <Chemgauss4 Score>
-5.41993522644043

>  <Number of Confs>
200

$$$$
