LIG(A-1101)
  -OEChem-02212115453D

 39 42  0     1  0  0  0  0  0999 V2000
    9.1610    0.9150   21.0790 O   0  0  0  0  0  0  0  0  0  0  0  0
    8.6820   -0.1750   21.3740 C   0  0  0  0  0  0  0  0  0  0  0  0
    9.1680   -0.9790   22.5820 C   0  0  2  0  0  0  0  0  0  0  0  0
    8.3650   -0.5560   23.8220 C   0  0  0  0  0  0  0  0  0  0  0  0
    8.8810    0.7610   24.3440 C   0  0  0  0  0  0  0  0  0  0  0  0
   10.2810    0.6860   24.6980 O   0  0  0  0  0  0  0  0  0  0  0  0
   10.6520   -0.7270   22.7510 C   0  0  0  0  0  0  0  0  0  0  0  0
   11.1110    0.1270   23.7580 C   0  0  0  0  0  0  0  0  0  0  0  0
   12.4580    0.4310   23.8910 C   0  0  0  0  0  0  0  0  0  0  0  0
   13.3750   -0.1330   23.0230 C   0  0  0  0  0  0  0  0  0  0  0  0
   11.5930   -1.3060   21.9030 C   0  0  0  0  0  0  0  0  0  0  0  0
   12.9320   -1.0060   22.0540 C   0  0  0  0  0  0  0  0  0  0  0  0
   14.0930   -1.7740   21.0090 Cl  0  0  0  0  0  0  0  0  0  0  0  0
    7.7100   -0.7700   20.6630 N   0  0  0  0  0  0  0  0  0  0  0  0
    6.7880   -0.2290   19.7580 C   0  0  0  0  0  0  0  0  0  0  0  0
    5.6690    0.5270   20.2310 C   0  0  0  0  0  0  0  0  0  0  0  0
    5.2530    0.5610   21.5900 C   0  0  0  0  0  0  0  0  0  0  0  0
    4.1440    1.2630   21.9690 C   0  0  0  0  0  0  0  0  0  0  0  0
    3.3960    1.9640   21.0340 C   0  0  0  0  0  0  0  0  0  0  0  0
    3.7580    1.9710   19.7180 C   0  0  0  0  0  0  0  0  0  0  0  0
    4.9030    1.2580   19.2810 C   0  0  0  0  0  0  0  0  0  0  0  0
    5.3230    1.2240   17.9290 C   0  0  0  0  0  0  0  0  0  0  0  0
    6.3850    0.5540   17.4970 N   0  0  0  0  0  0  0  0  0  0  0  0
    7.0750   -0.1600   18.3950 C   0  0  0  0  0  0  0  0  0  0  0  0
    8.9997   -2.0496   22.3936 H   0  0  0  0  0  0  0  0  0  0  0  0
    7.3042   -0.4502   23.5508 H   0  0  0  0  0  0  0  0  0  0  0  0
    8.4690   -1.3236   24.6030 H   0  0  0  0  0  0  0  0  0  0  0  0
    8.7508    1.5280   23.5664 H   0  0  0  0  0  0  0  0  0  0  0  0
    8.3025    1.0417   25.2365 H   0  0  0  0  0  0  0  0  0  0  0  0
   12.7886    1.1043   24.6680 H   0  0  0  0  0  0  0  0  0  0  0  0
   14.4247    0.1079   23.1038 H   0  0  0  0  0  0  0  0  0  0  0  0
   11.2756   -1.9886   21.1285 H   0  0  0  0  0  0  0  0  0  0  0  0
    7.6322   -1.7572   20.8021 H   0  0  0  0  0  0  0  0  0  0  0  0
    5.8223    0.0237   22.3341 H   0  0  0  0  0  0  0  0  0  0  0  0
    3.8464    1.2724   23.0072 H   0  0  0  0  0  0  0  0  0  0  0  0
    2.5191    2.5092   21.3505 H   0  0  0  0  0  0  0  0  0  0  0  0
    3.1671    2.5245   19.0033 H   0  0  0  0  0  0  0  0  0  0  0  0
    4.7438    1.7772   17.2045 H   0  0  0  0  0  0  0  0  0  0  0  0
    7.9207   -0.7274   18.0355 H   0  0  0  0  0  0  0  0  0  0  0  0
  1  2  2  0  0  0  0
  2  3  1  0  0  0  0
  2 14  1  0  0  0  0
  3  4  1  0  0  0  0
  3  7  1  0  0  0  0
  4  5  1  0  0  0  0
  5  6  1  0  0  0  0
  6  8  1  0  0  0  0
  7  8  2  0  0  0  0
  7 11  1  0  0  0  0
  8  9  1  0  0  0  0
  9 10  2  0  0  0  0
 10 12  1  0  0  0  0
 11 12  2  0  0  0  0
 12 13  1  0  0  0  0
 14 15  1  0  0  0  0
 15 16  2  0  0  0  0
 15 24  1  0  0  0  0
 16 17  1  0  0  0  0
 16 21  1  0  0  0  0
 17 18  2  0  0  0  0
 18 19  1  0  0  0  0
 19 20  2  0  0  0  0
 20 21  1  0  0  0  0
 21 22  2  0  0  0  0
 22 23  1  0  0  0  0
 23 24  2  0  0  0  0
  3 25  1  0  0  0  0
  4 26  1  0  0  0  0
  4 27  1  0  0  0  0
  5 28  1  0  0  0  0
  5 29  1  0  0  0  0
  9 30  1  0  0  0  0
 10 31  1  0  0  0  0
 11 32  1  0  0  0  0
 14 33  1  0  0  0  0
 17 34  1  0  0  0  0
 18 35  1  0  0  0  0
 19 36  1  0  0  0  0
 20 37  1  0  0  0  0
 22 38  1  0  0  0  0
 24 39  1  0  0  0  0
M  END
$$$$
