@<TRIPOS>MOLECULE
LIG(A-1101)
   39    42     0     0     0
SMALL
USER_CHARGES

@<TRIPOS>ATOM
      1 O1          9.1610    0.9150   21.0790 O.2       1 LIG1101    -0.5573
      2 C1          8.6820   -0.1750   21.3740 C.2       1 LIG1101     0.6602
      3 C2          9.1680   -0.9790   22.5820 C.3       1 LIG1101    -0.0842
      4 C3          8.3650   -0.5560   23.8220 C.3       1 LIG1101    -0.1092
      5 C4          8.8810    0.7610   24.3440 C.3       1 LIG1101     0.1215
      6 O2         10.2810    0.6860   24.6980 O.3       1 LIG1101    -0.3209
      7 C5         10.6520   -0.7270   22.7510 C.ar      1 LIG1101    -0.1330
      8 C6         11.1110    0.1270   23.7580 C.ar      1 LIG1101     0.1458
      9 C7         12.4580    0.4310   23.8910 C.ar      1 LIG1101    -0.1434
     10 C8         13.3750   -0.1330   23.0230 C.ar      1 LIG1101    -0.0887
     11 C9         11.5930   -1.3060   21.9030 C.ar      1 LIG1101    -0.0798
     12 C10        12.9320   -1.0060   22.0540 C.ar      1 LIG1101    -0.0122
     13 Cl1        14.0930   -1.7740   21.0090 Cl        1 LIG1101    -0.0953
     14 N1          7.7100   -0.7700   20.6630 N.am      1 LIG1101    -0.4877
     15 C11         6.7880   -0.2290   19.7580 C.ar      1 LIG1101    -0.0735
     16 C12         5.6690    0.5270   20.2310 C.ar      1 LIG1101    -0.0157
     17 C13         5.2530    0.5610   21.5900 C.ar      1 LIG1101    -0.1330
     18 C14         4.1440    1.2630   21.9690 C.ar      1 LIG1101    -0.1047
     19 C15         3.3960    1.9640   21.0340 C.ar      1 LIG1101    -0.1320
     20 C16         3.7580    1.9710   19.7180 C.ar      1 LIG1101    -0.0943
     21 C17         4.9030    1.2580   19.2810 C.ar      1 LIG1101    -0.1567
     22 C18         5.3230    1.2240   17.9290 C.ar      1 LIG1101     0.4298
     23 N2          6.3850    0.5540   17.4970 N.ar      1 LIG1101    -0.6593
     24 C19         7.0750   -0.1600   18.3950 C.ar      1 LIG1101     0.4136
     25 H1          8.9997   -2.0496   22.3936 H         1 LIG1101     0.0734
     26 H2          7.3042   -0.4502   23.5508 H         1 LIG1101     0.0616
     27 H3          8.4690   -1.3236   24.6030 H         1 LIG1101     0.0616
     28 H4          8.7508    1.5280   23.5664 H         1 LIG1101     0.0717
     29 H5          8.3025    1.0417   25.2365 H         1 LIG1101     0.0717
     30 H6         12.7886    1.1043   24.6680 H         1 LIG1101     0.1551
     31 H7         14.4247    0.1079   23.1038 H         1 LIG1101     0.1500
     32 H8         11.2756   -1.9886   21.1285 H         1 LIG1101     0.1464
     33 H9          7.6322   -1.7572   20.8021 H         1 LIG1101     0.3149
     34 H10         5.8223    0.0237   22.3341 H         1 LIG1101     0.1279
     35 H11         3.8464    1.2724   23.0072 H         1 LIG1101     0.1359
     36 H12         2.5191    2.5092   21.3505 H         1 LIG1101     0.1384
     37 H13         3.1671    2.5245   19.0033 H         1 LIG1101     0.1396
     38 H14         4.7438    1.7772   17.2045 H         1 LIG1101     0.0256
     39 H15         7.9207   -0.7274   18.0355 H         1 LIG1101     0.0362
@<TRIPOS>BOND
     1    1    2 2
     2    2    3 1
     3    2   14 am
     4    3    4 1
     5    3    7 1
     6    4    5 1
     7    5    6 1
     8    6    8 1
     9    7    8 ar
    10    7   11 ar
    11    8    9 ar
    12    9   10 ar
    13   10   12 ar
    14   11   12 ar
    15   12   13 1
    16   14   15 1
    17   15   16 ar
    18   15   24 ar
    19   16   17 ar
    20   16   21 ar
    21   17   18 ar
    22   18   19 ar
    23   19   20 ar
    24   20   21 ar
    25   21   22 ar
    26   22   23 ar
    27   23   24 ar
    28    3   25 1
    29    4   26 1
    30    4   27 1
    31    5   28 1
    32    5   29 1
    33    9   30 1
    34   10   31 1
    35   11   32 1
    36   14   33 1
    37   17   34 1
    38   18   35 1
    39   19   36 1
    40   20   37 1
    41   22   38 1
    42   24   39 1
