JOR-UNI-2fc-10
 OpenBabel03242009303D

 48 50  0  0  0  0  0  0  0  0999 V2000
   10.4422    0.2894   23.7432 C   0  0  0  0  0  0  0  0  0  0  0  0
    3.9315   -4.7437   22.1695 C   0  0  0  0  0  0  0  0  0  0  0  0
    9.6384   -0.8496   23.7894 C   0  0  0  0  0  0  0  0  0  0  0  0
    5.1706   -4.1960   22.4823 C   0  0  0  0  0  0  0  0  0  0  0  0
   11.7325    0.2117   23.2190 C   0  0  0  0  0  0  0  0  0  0  0  0
   11.4152   -2.1442   22.7873 C   0  0  0  0  0  0  0  0  0  0  0  0
    3.4739   -5.7974   22.9442 C   0  0  0  0  0  0  0  0  0  0  0  0
    5.3580   -5.7664   24.2586 C   0  0  0  0  0  0  0  0  0  0  0  0
   10.1248   -2.0664   23.3115 C   0  0  0  0  0  0  0  0  0  0  0  0
    5.9039   -4.7114   23.5453 C   0  0  0  0  0  0  0  0  0  0  0  0
   12.2190   -1.0051   22.7410 C   0  0  0  0  0  0  0  0  0  0  0  0
    7.8455   -3.1179   23.2659 C   0  0  0  0  0  0  0  0  0  0  0  0
    9.1146   -5.8826   26.0926 C   0  0  0  0  0  0  0  0  0  0  0  0
   10.6953   -4.3316   27.0757 C   0  0  0  0  0  0  0  0  0  0  0  0
    8.2089   -5.7825   27.3143 C   0  0  0  0  0  0  0  0  0  0  0  0
    9.8302   -4.1921   28.3226 C   0  0  0  0  0  0  0  0  0  0  0  0
   10.7130   -4.7358   24.6991 C   0  0  0  0  0  0  0  0  0  0  0  0
    9.9112   -4.5534   23.4214 C   0  0  0  0  0  0  0  0  0  0  0  0
    4.1577   -6.3247   23.9844 N   0  0  0  0  0  0  0  0  0  0  0  0
    9.8757   -4.6400   25.8943 N   0  0  0  0  0  0  0  0  0  0  0  0
    7.1688   -4.1747   23.8877 N   0  0  0  0  0  0  0  0  0  0  0  0
    9.2792   -3.2633   23.3616 N   0  0  0  0  0  0  0  0  0  0  0  0
    9.0385   -5.4434   28.5073 N   0  3  0  0  0  0  0  0  0  0  0  0
    7.2803   -2.1778   22.7051 O   0  0  0  0  0  0  0  0  0  0  0  0
   13.8109   -1.1012   22.0941 Cl  0  0  0  0  0  0  0  0  0  0  0  0
   10.0633    1.2369   24.1155 H   0  0  0  0  0  0  0  0  0  0  0  0
    3.3425   -4.3580   21.3452 H   0  0  0  0  0  0  0  0  0  0  0  0
    8.6344   -0.7769   24.2004 H   0  0  0  0  0  0  0  0  0  0  0  0
    5.5549   -3.3685   21.8918 H   0  0  0  0  0  0  0  0  0  0  0  0
   12.3470    1.1076   23.1893 H   0  0  0  0  0  0  0  0  0  0  0  0
   11.7912   -3.0947   22.4151 H   0  0  0  0  0  0  0  0  0  0  0  0
    2.5139   -6.2601   22.7404 H   0  0  0  0  0  0  0  0  0  0  0  0
    5.8827   -6.2111   25.0989 H   0  0  0  0  0  0  0  0  0  0  0  0
    9.8074   -6.7181   26.2504 H   0  0  0  0  0  0  0  0  0  0  0  0
    8.5153   -6.1218   25.2040 H   0  0  0  0  0  0  0  0  0  0  0  0
   11.2764   -3.4123   26.9214 H   0  0  0  0  0  0  0  0  0  0  0  0
   11.4127   -5.1429   27.2486 H   0  0  0  0  0  0  0  0  0  0  0  0
    7.4692   -4.9843   27.2021 H   0  0  0  0  0  0  0  0  0  0  0  0
    7.6953   -6.7256   27.5297 H   0  0  0  0  0  0  0  0  0  0  0  0
   10.4274   -4.0456   29.2291 H   0  0  0  0  0  0  0  0  0  0  0  0
    9.1131   -3.3718   28.2248 H   0  0  0  0  0  0  0  0  0  0  0  0
   11.4989   -3.9792   24.7889 H   0  0  0  0  0  0  0  0  0  0  0  0
   11.1792   -5.7259   24.7122 H   0  0  0  0  0  0  0  0  0  0  0  0
   10.5667   -4.6307   22.5485 H   0  0  0  0  0  0  0  0  0  0  0  0
    9.1246   -5.3096   23.3328 H   0  0  0  0  0  0  0  0  0  0  0  0
    7.6407   -4.6070   24.6770 H   0  0  0  0  0  0  0  0  0  0  0  0
    8.4310   -5.3478   29.3332 H   0  0  0  0  0  0  0  0  0  0  0  0
    9.6747   -6.2248   28.7168 H   0  0  0  0  0  0  0  0  0  0  0  0
  1  3  2  0  0  0  0
  1  5  1  0  0  0  0
  1 26  1  0  0  0  0
  2  4  2  0  0  0  0
  2  7  1  0  0  0  0
  2 27  1  0  0  0  0
  3  9  1  0  0  0  0
  3 28  1  0  0  0  0
  4 10  1  0  0  0  0
  4 29  1  0  0  0  0
  5 11  2  0  0  0  0
  5 30  1  0  0  0  0
  6  9  2  0  0  0  0
  6 11  1  0  0  0  0
  6 31  1  0  0  0  0
  7 19  2  0  0  0  0
  7 32  1  0  0  0  0
  8 10  2  0  0  0  0
  8 19  1  0  0  0  0
  8 33  1  0  0  0  0
  9 22  1  0  0  0  0
 10 21  1  0  0  0  0
 11 25  1  0  0  0  0
 12 21  1  0  0  0  0
 12 22  1  0  0  0  0
 12 24  2  0  0  0  0
 13 15  1  0  0  0  0
 13 20  1  0  0  0  0
 13 34  1  0  0  0  0
 13 35  1  0  0  0  0
 14 16  1  0  0  0  0
 14 20  1  0  0  0  0
 14 36  1  0  0  0  0
 14 37  1  0  0  0  0
 15 23  1  0  0  0  0
 15 38  1  0  0  0  0
 15 39  1  0  0  0  0
 16 23  1  0  0  0  0
 16 40  1  0  0  0  0
 16 41  1  0  0  0  0
 17 18  1  0  0  0  0
 17 20  1  0  0  0  0
 17 42  1  0  0  0  0
 17 43  1  0  0  0  0
 18 22  1  0  0  0  0
 18 44  1  0  0  0  0
 18 45  1  0  0  0  0
 21 46  1  0  0  0  0
 23 47  1  0  0  0  0
 23 48  1  0  0  0  0
M  CHG  1  23   1
M  END
>  <Chemgauss4 Score>
-4.82406616210938

>  <Number of Confs>
200

$$$$
