CHR-SOS-6c4-16
 OpenBabel03242009303D

 39 41  0  0  0  0  0  0  0  0999 V2000
    9.9446   -1.7653   25.4668 C   0  0  0  0  0  0  0  0  0  0  0  0
    9.1500   -2.1304   26.2902 C   0  0  0  0  0  0  0  0  0  0  0  0
    6.3307   -4.0544   21.5851 C   0  0  0  0  0  0  0  0  0  0  0  0
    6.1356   -5.4199   21.4545 C   0  0  0  0  0  0  0  0  0  0  0  0
    6.7426   -5.8058   23.6364 C   0  0  0  0  0  0  0  0  0  0  0  0
   11.3963   -2.0438   23.4271 C   0  0  0  0  0  0  0  0  0  0  0  0
   12.2306   -0.0052   23.4945 C   0  0  0  0  0  0  0  0  0  0  0  0
   10.8905   -1.3282   24.4867 C   0  0  0  0  0  0  0  0  0  0  0  0
    6.7541   -3.5725   22.8188 C   0  0  0  0  0  0  0  0  0  0  0  0
    6.9664   -4.4584   23.8692 C   0  0  0  0  0  0  0  0  0  0  0  0
    7.6475   -4.7914   26.2787 C   0  0  0  0  0  0  0  0  0  0  0  0
    6.9879   -1.6874   27.5064 C   0  0  0  0  0  0  0  0  0  0  0  0
    8.0753   -1.7345   28.5348 C   0  0  0  0  0  0  0  0  0  0  0  0
    8.1985   -2.5665   27.2763 C   0  0  0  0  0  0  0  0  0  0  0  0
    6.9730   -2.1047   22.9874 C   0  0  0  0  0  0  0  0  0  0  0  0
   13.0376   -1.4643   21.6234 C   0  0  0  0  0  0  0  0  0  0  0  0
    6.3313   -6.3112   22.4519 N   0  0  0  0  0  0  0  0  0  0  0  0
   11.4136   -0.0598   24.5228 N   0  0  0  0  0  0  0  0  0  0  0  0
   12.2529   -1.1830   22.8006 N   0  0  0  0  0  0  0  0  0  0  0  0
    7.3966   -4.0173   25.1424 N   0  0  0  0  0  0  0  0  0  0  0  0
    8.0611   -3.9836   27.3565 N   0  0  0  0  0  0  0  0  0  0  0  0
    7.5370   -6.0115   26.3730 O   0  0  0  0  0  0  0  0  0  0  0  0
    6.1564   -3.3900   20.7456 H   0  0  0  0  0  0  0  0  0  0  0  0
    5.8059   -5.8462   20.5128 H   0  0  0  0  0  0  0  0  0  0  0  0
    6.8905   -6.5463   24.4169 H   0  0  0  0  0  0  0  0  0  0  0  0
   11.2296   -3.0528   23.0748 H   0  0  0  0  0  0  0  0  0  0  0  0
   12.8250    0.8506   23.2050 H   0  0  0  0  0  0  0  0  0  0  0  0
    6.0449   -2.1629   27.7511 H   0  0  0  0  0  0  0  0  0  0  0  0
    6.8817   -0.7763   26.9287 H   0  0  0  0  0  0  0  0  0  0  0  0
    8.6990   -0.8550   28.6474 H   0  0  0  0  0  0  0  0  0  0  0  0
    7.8609   -2.2414   29.4688 H   0  0  0  0  0  0  0  0  0  0  0  0
    6.0492   -1.6191   23.3226 H   0  0  0  0  0  0  0  0  0  0  0  0
    7.7608   -1.9035   23.7238 H   0  0  0  0  0  0  0  0  0  0  0  0
    7.2903   -1.6406   22.0454 H   0  0  0  0  0  0  0  0  0  0  0  0
   12.4422   -1.1917   20.7481 H   0  0  0  0  0  0  0  0  0  0  0  0
   13.9619   -0.8806   21.6539 H   0  0  0  0  0  0  0  0  0  0  0  0
   13.2870   -2.5289   21.6012 H   0  0  0  0  0  0  0  0  0  0  0  0
    7.5397   -3.0150   25.2374 H   0  0  0  0  0  0  0  0  0  0  0  0
    8.2752   -4.4400   28.2479 H   0  0  0  0  0  0  0  0  0  0  0  0
  1  2  3  0  0  0  0
  1  8  1  0  0  0  0
  2 14  1  0  0  0  0
  3  4  2  0  0  0  0
  3  9  1  0  0  0  0
  3 23  1  0  0  0  0
  4 17  1  0  0  0  0
  4 24  1  0  0  0  0
  5 10  1  0  0  0  0
  5 17  2  0  0  0  0
  5 25  1  0  0  0  0
  6  8  2  0  0  0  0
  6 19  1  0  0  0  0
  6 26  1  0  0  0  0
  7 18  2  0  0  0  0
  7 19  1  0  0  0  0
  7 27  1  0  0  0  0
  8 18  1  0  0  0  0
  9 10  2  0  0  0  0
  9 15  1  0  0  0  0
 10 20  1  0  0  0  0
 11 20  1  0  0  0  0
 11 21  1  0  0  0  0
 11 22  2  0  0  0  0
 12 13  1  0  0  0  0
 12 14  1  0  0  0  0
 12 28  1  0  0  0  0
 12 29  1  0  0  0  0
 13 14  1  0  0  0  0
 13 30  1  0  0  0  0
 13 31  1  0  0  0  0
 14 21  1  0  0  0  0
 15 32  1  0  0  0  0
 15 33  1  0  0  0  0
 15 34  1  0  0  0  0
 16 19  1  0  0  0  0
 16 35  1  0  0  0  0
 16 36  1  0  0  0  0
 16 37  1  0  0  0  0
 20 38  1  0  0  0  0
 21 39  1  0  0  0  0
M  END
>  <Chemgauss4 Score>
-5.63337993621826

>  <Number of Confs>
5

$$$$
