JOR-UNI-2fc-9
 OpenBabel03242009303D

 49 51  0  0  1  0  0  0  0  0999 V2000
   10.8429    0.2550   24.6465 C   0  0  0  0  0  0  0  0  0  0  0  0
    6.5038   -0.5208   19.5220 C   0  0  0  0  0  0  0  0  0  0  0  0
   10.1055   -0.9229   24.5270 C   0  0  0  0  0  0  0  0  0  0  0  0
    7.5764   -0.8169   20.3556 C   0  0  0  0  0  0  0  0  0  0  0  0
   12.1300    0.3292   24.1140 C   0  0  0  0  0  0  0  0  0  0  0  0
   11.9424   -1.9526   23.3426 C   0  0  0  0  0  0  0  0  0  0  0  0
    5.3697   -1.3110   19.6187 C   0  0  0  0  0  0  0  0  0  0  0  0
    6.3057   -2.6085   21.2675 C   0  0  0  0  0  0  0  0  0  0  0  0
   10.6552   -2.0268   23.8751 C   0  0  0  0  0  0  0  0  0  0  0  0
    7.4836   -1.8792   21.2479 C   0  0  0  0  0  0  0  0  0  0  0  0
   12.6797   -0.7746   23.4621 C   0  0  0  0  0  0  0  0  0  0  0  0
    8.6149   -3.2375   23.0540 C   0  0  0  0  0  0  0  0  0  0  0  0
    7.1547   -5.3051   26.8829 C   0  0  0  0  0  0  0  0  0  0  0  0
    8.6267   -5.5156   26.5248 C   0  0  0  0  0  0  0  0  0  0  0  0
    9.6482   -3.6832   27.8097 C   0  0  0  0  0  0  0  0  0  0  0  0
    6.8572   -5.1850   28.3755 C   0  0  0  0  0  0  0  0  0  0  0  0
    8.3911   -3.3713   28.6164 C   0  0  0  0  0  0  0  0  0  0  0  0
   10.6409   -4.4419   25.7630 C   0  0  0  0  0  0  0  0  0  0  0  0
   10.4434   -4.4868   24.2571 C   0  0  0  0  0  0  0  0  0  0  0  0
    5.2426   -2.3510   20.4730 N   0  0  0  0  0  0  0  0  0  0  0  0
    9.3767   -4.2509   26.4814 N   0  0  0  0  0  0  0  0  0  0  0  0
    8.5592   -2.2052   22.1093 N   0  0  0  0  0  0  0  0  0  0  0  0
    9.8794   -3.2648   23.7511 N   0  0  0  0  0  0  0  0  0  0  0  0
    7.6918   -4.0265   23.2621 O   0  0  0  0  0  0  0  0  0  0  0  0
    7.8694   -4.5744   29.1607 O   0  0  0  0  0  0  0  0  0  0  0  0
   14.2678   -0.6833   22.8050 Cl  0  0  0  0  0  0  0  0  0  0  0  0
   10.4147    1.1146   25.1542 H   0  0  0  0  0  0  0  0  0  0  0  0
    6.5539    0.3026   18.8187 H   0  0  0  0  0  0  0  0  0  0  0  0
    9.1033   -0.9690   24.9461 H   0  0  0  0  0  0  0  0  0  0  0  0
    8.4791   -0.2140   20.3018 H   0  0  0  0  0  0  0  0  0  0  0  0
   12.6923    1.2538   24.2146 H   0  0  0  0  0  0  0  0  0  0  0  0
   12.3679   -2.8153   22.8345 H   0  0  0  0  0  0  0  0  0  0  0  0
    4.5062   -1.1216   18.9897 H   0  0  0  0  0  0  0  0  0  0  0  0
    6.1732   -3.4490   21.9424 H   0  0  0  0  0  0  0  0  0  0  0  0
    6.7832   -4.4093   26.3673 H   0  0  0  0  0  0  0  0  0  0  0  0
    6.5584   -6.1343   26.4819 H   0  0  0  0  0  0  0  0  0  0  0  0
    9.0974   -6.2473   27.1936 H   0  0  0  0  0  0  0  0  0  0  0  0
    8.6344   -5.9585   25.5201 H   0  0  0  0  0  0  0  0  0  0  0  0
   10.1905   -2.7387   27.6772 H   0  0  0  0  0  0  0  0  0  0  0  0
   10.2939   -4.3595   28.3856 H   0  0  0  0  0  0  0  0  0  0  0  0
    5.9152   -4.6447   28.5266 H   0  0  0  0  0  0  0  0  0  0  0  0
    6.7087   -6.1879   28.7910 H   0  0  0  0  0  0  0  0  0  0  0  0
    8.6766   -2.7435   29.4679 H   0  0  0  0  0  0  0  0  0  0  0  0
    7.6403   -2.8111   28.0462 H   0  0  0  0  0  0  0  0  0  0  0  0
   11.3091   -3.6252   26.0540 H   0  0  0  0  0  0  0  0  0  0  0  0
   11.0704   -5.3853   26.1141 H   0  0  0  0  0  0  0  0  0  0  0  0
   11.4042   -4.6301   23.7531 H   0  0  0  0  0  0  0  0  0  0  0  0
    9.7741   -5.3031   23.9668 H   0  0  0  0  0  0  0  0  0  0  0  0
    9.3877   -1.6218   22.0329 H   0  0  0  0  0  0  0  0  0  0  0  0
  1  3  2  0  0  0  0
  1  5  1  0  0  0  0
  1 27  1  0  0  0  0
  2  4  2  0  0  0  0
  2  7  1  0  0  0  0
  2 28  1  0  0  0  0
  3  9  1  0  0  0  0
  3 29  1  0  0  0  0
  4 10  1  0  0  0  0
  4 30  1  0  0  0  0
  5 11  2  0  0  0  0
  5 31  1  0  0  0  0
  6  9  2  0  0  0  0
  6 11  1  0  0  0  0
  6 32  1  0  0  0  0
  7 20  2  0  0  0  0
  7 33  1  0  0  0  0
  8 10  2  0  0  0  0
  8 20  1  0  0  0  0
  8 34  1  0  0  0  0
  9 23  1  0  0  0  0
 10 22  1  0  0  0  0
 11 26  1  0  0  0  0
 12 22  1  0  0  0  0
 12 23  1  0  0  0  0
 12 24  2  0  0  0  0
 13 14  1  0  0  0  0
 13 16  1  0  0  0  0
 13 35  1  0  0  0  0
 13 36  1  0  0  0  0
 14 21  1  0  0  0  0
 14 37  1  0  0  0  0
 14 38  1  0  0  0  0
 15 17  1  0  0  0  0
 15 21  1  0  0  0  0
 15 39  1  0  0  0  0
 15 40  1  0  0  0  0
 16 25  1  0  0  0  0
 16 41  1  0  0  0  0
 16 42  1  0  0  0  0
 17 25  1  0  0  0  0
 17 43  1  0  0  0  0
 17 44  1  0  0  0  0
 18 19  1  0  0  0  0
 18 21  1  0  0  0  0
 18 45  1  0  0  0  0
 18 46  1  0  0  0  0
 19 23  1  0  0  0  0
 19 47  1  0  0  0  0
 19 48  1  0  0  0  0
 22 49  1  0  0  0  0
M  END
>  <Chemgauss4 Score>
-4.57128095626831

>  <Number of Confs>
200

$$$$
