HEI-REL-0c9-2
 OpenBabel03242009303D

 48 50  0  0  1  0  0  0  0  0999 V2000
   10.7190   -2.5277   26.0883 C   0  0  0  0  0  0  0  0  0  0  0  0
    9.9695   -3.7021   26.0917 C   0  0  0  0  0  0  0  0  0  0  0  0
    9.5764   -3.4504   23.7229 C   0  0  0  0  0  0  0  0  0  0  0  0
   10.9097   -1.8111   24.8980 C   0  0  0  0  0  0  0  0  0  0  0  0
   10.3164   -2.2588   23.7010 C   0  0  0  0  0  0  0  0  0  0  0  0
    9.4019   -4.1656   24.9088 C   0  0  0  0  0  0  0  0  0  0  0  0
    5.9871    1.1255   18.8811 C   0  0  0  0  0  0  0  0  0  0  0  0
   11.7138   -0.5353   24.9184 C   0  0  0  0  0  0  0  0  0  0  0  0
   12.2322   -0.1858   23.5238 C   0  0  0  0  0  0  0  0  0  0  0  0
    6.5252    1.0671   21.3637 C   0  0  0  0  0  0  0  0  0  0  0  0
    7.8574   -0.2358   19.7537 C   0  0  0  0  0  0  0  0  0  0  0  0
    7.8219    1.4777   22.0639 C   0  0  0  0  0  0  0  0  0  0  0  0
    9.1279    0.2043   20.4803 C   0  0  0  0  0  0  0  0  0  0  0  0
   11.1299   -0.2689   22.4632 C   0  0  2  0  0  0  0  0  0  0  0  0
    4.7989    1.9974   19.2000 C   0  0  0  0  0  0  0  0  0  0  0  0
   10.0812    0.8331   22.6029 C   0  0  0  0  0  0  0  0  0  0  0  0
   10.4821   -1.5715   22.5051 N   0  0  0  0  0  0  0  0  0  0  0  0
    6.7698    0.7191   19.9609 N   0  0  0  0  0  0  0  0  0  0  0  0
    8.8562    0.4449   21.9050 N   0  0  0  0  0  0  0  0  0  0  0  0
    9.6927   -6.7949   24.5816 N   0  0  0  0  0  0  0  0  0  0  0  0
    6.2138    0.8190   17.7078 O   0  0  0  0  0  0  0  0  0  0  0  0
    7.9629   -5.8674   26.2529 O   0  0  0  0  0  0  0  0  0  0  0  0
    7.5504   -5.6091   23.7809 O   0  0  0  0  0  0  0  0  0  0  0  0
    8.4727   -5.6438   24.9073 S   0  0  0  0  0  0  0  0  0  0  0  0
   11.1504   -2.1688   27.0196 H   0  0  0  0  0  0  0  0  0  0  0  0
    9.8329   -4.2452   27.0227 H   0  0  0  0  0  0  0  0  0  0  0  0
    9.1364   -3.8268   22.8008 H   0  0  0  0  0  0  0  0  0  0  0  0
   11.0993    0.2945   25.2873 H   0  0  0  0  0  0  0  0  0  0  0  0
   12.5560   -0.6635   25.6094 H   0  0  0  0  0  0  0  0  0  0  0  0
   12.6688    0.8308   23.5331 H   0  0  0  0  0  0  0  0  0  0  0  0
   13.0628   -0.8655   23.2643 H   0  0  0  0  0  0  0  0  0  0  0  0
    6.0954    0.1788   21.8431 H   0  0  0  0  0  0  0  0  0  0  0  0
    5.7943    1.8723   21.4605 H   0  0  0  0  0  0  0  0  0  0  0  0
    8.0663   -0.3596   18.6861 H   0  0  0  0  0  0  0  0  0  0  0  0
    7.5128   -1.2057   20.1332 H   0  0  0  0  0  0  0  0  0  0  0  0
    8.1650    2.4361   21.6637 H   0  0  0  0  0  0  0  0  0  0  0  0
    7.6051    1.6150   23.1260 H   0  0  0  0  0  0  0  0  0  0  0  0
    9.8691   -0.5923   20.3804 H   0  0  0  0  0  0  0  0  0  0  0  0
    9.5316    1.1019   20.0032 H   0  0  0  0  0  0  0  0  0  0  0  0
   11.5997   -0.1628   21.4549 H   0  0  0  0  0  0  0  0  0  0  0  0
    5.1033    3.0383   19.1662 H   0  0  0  0  0  0  0  0  0  0  0  0
    4.4324    1.7501   20.1912 H   0  0  0  0  0  0  0  0  0  0  0  0
    4.0183    1.8152   18.4684 H   0  0  0  0  0  0  0  0  0  0  0  0
    9.8892    0.9659   23.6669 H   0  0  0  0  0  0  0  0  0  0  0  0
   10.5004    1.7380   22.1646 H   0  0  0  0  0  0  0  0  0  0  0  0
   10.3867   -2.0978   21.6352 H   0  0  0  0  0  0  0  0  0  0  0  0
    9.9826   -7.4188   25.3446 H   0  0  0  0  0  0  0  0  0  0  0  0
    9.7007   -7.2399   23.6558 H   0  0  0  0  0  0  0  0  0  0  0  0
  1  2  2  0  0  0  0
  1  4  1  0  0  0  0
  1 25  1  0  0  0  0
  2  6  1  0  0  0  0
  2 26  1  0  0  0  0
  3  5  1  0  0  0  0
  3  6  2  0  0  0  0
  3 27  1  0  0  0  0
  4  5  2  0  0  0  0
  4  8  1  0  0  0  0
  5 17  1  0  0  0  0
  6 24  1  0  0  0  0
  7 15  1  0  0  0  0
  7 18  1  0  0  0  0
  7 21  2  0  0  0  0
  8  9  1  0  0  0  0
  8 28  1  0  0  0  0
  8 29  1  0  0  0  0
  9 14  1  0  0  0  0
  9 30  1  0  0  0  0
  9 31  1  0  0  0  0
 10 12  1  0  0  0  0
 10 18  1  0  0  0  0
 10 32  1  0  0  0  0
 10 33  1  0  0  0  0
 11 13  1  0  0  0  0
 11 18  1  0  0  0  0
 11 34  1  0  0  0  0
 11 35  1  0  0  0  0
 12 19  1  0  0  0  0
 12 36  1  0  0  0  0
 12 37  1  0  0  0  0
 13 19  1  0  0  0  0
 13 38  1  0  0  0  0
 13 39  1  0  0  0  0
 14 16  1  0  0  0  0
 14 17  1  0  0  0  0
 14 40  1  6  0  0  0
 15 41  1  0  0  0  0
 15 42  1  0  0  0  0
 15 43  1  0  0  0  0
 16 19  1  0  0  0  0
 16 44  1  0  0  0  0
 16 45  1  0  0  0  0
 17 46  1  0  0  0  0
 20 24  1  0  0  0  0
 20 47  1  0  0  0  0
 20 48  1  0  0  0  0
 22 24  2  0  0  0  0
 23 24  2  0  0  0  0
M  END
>  <Chemgauss4 Score>
-6.78141307830811

>  <Number of Confs>
52

$$$$
