@<TRIPOS>MOLECULE
LIG(B-501)
   42    46     0     0     0
SMALL
USER_CHARGES

@<TRIPOS>ATOM
      1 O1          8.7487    1.0611   21.0507 O.2       1 LIG501     -0.5487
      2 C1          8.2504    0.0168   21.4265 C.2       1 LIG501      0.6985
      3 C2          8.6253   -0.7606   22.6923 C.3       1 LIG501     -0.0588
      4 C3          7.8737   -0.1194   23.8825 C.3       1 LIG501     -0.1069
      5 C4          8.6625    1.0133   24.4989 C.3       1 LIG501      0.1228
      6 O2          9.9496    0.5589   24.9527 O.3       1 LIG501     -0.3196
      7 C5         10.1421   -0.7766   22.9242 C.ar      1 LIG501     -0.1312
      8 C6         10.7056   -0.0626   23.9890 C.ar      1 LIG501      0.1429
      9 C7         12.0781    0.0316   24.1532 C.ar      1 LIG501     -0.1421
     10 C8         12.9147   -0.6032   23.2559 C.ar      1 LIG501     -0.0850
     11 C9         11.0005   -1.4332   22.0435 C.ar      1 LIG501     -0.0841
     12 C10        12.3697   -1.3298   22.2224 C.ar      1 LIG501     -0.0103
     13 Cl1        13.4333   -2.1251   21.0931 Cl        1 LIG501     -0.0877
     14 N1          7.2305   -0.6898   20.7785 N.am      1 LIG501     -0.4373
     15 C11         6.9880   -1.9367   21.3575 C.2       1 LIG501      0.7058
     16 O3          6.0624   -2.6705   21.0473 O.2       1 LIG501     -0.5630
     17 C12         8.0155   -2.1541   22.4325 C.3       1 LIG501     -0.1563
     18 C13         6.4452   -0.1472   19.6975 C.ar      1 LIG501     -0.0587
     19 C14         5.3995    0.7732   19.9944 C.ar      1 LIG501      0.0026
     20 C15         4.8986    1.0232   21.2985 C.ar      1 LIG501     -0.1263
     21 C16         3.8974    1.9290   21.5048 C.ar      1 LIG501     -0.1045
     22 C17         3.3444    2.6278   20.4409 C.ar      1 LIG501     -0.1314
     23 C18         3.7877    2.4205   19.1658 C.ar      1 LIG501     -0.0953
     24 C19         4.8238    1.4906   18.9051 C.ar      1 LIG501     -0.1581
     25 C20         5.3288    1.2339   17.6062 C.ar      1 LIG501      0.4347
     26 N2          6.3072    0.3768   17.3417 N.ar      1 LIG501     -0.6579
     27 C21         6.8449   -0.2893   18.3747 C.ar      1 LIG501      0.4162
     28 H1          6.9091    0.2710   23.5260 H         1 LIG501      0.0667
     29 H2          7.6973   -0.8888   24.6486 H         1 LIG501      0.0667
     30 H3          8.8048    1.8033   23.7468 H         1 LIG501      0.0734
     31 H4          8.1019    1.4181   25.3544 H         1 LIG501      0.0734
     32 H5         12.4905    0.5967   24.9760 H         1 LIG501      0.1590
     33 H6         13.9868   -0.5299   23.3645 H         1 LIG501      0.1537
     34 H7         10.6008   -2.0178   21.2281 H         1 LIG501      0.1471
     35 H8          8.7895   -2.8570   22.0907 H         1 LIG501      0.0974
     36 H9          7.5426   -2.5451   23.3455 H         1 LIG501      0.0974
     37 H10         5.3152    0.4895   22.1399 H         1 LIG501      0.1304
     38 H11         3.5323    2.1032   22.5061 H         1 LIG501      0.1360
     39 H12         2.5557    3.3427   20.6232 H         1 LIG501      0.1389
     40 H13         3.3442    2.9705   18.3490 H         1 LIG501      0.1391
     41 H14         4.8894    1.7702   16.7782 H         1 LIG501      0.0269
     42 H15         7.6441   -0.9842   18.1632 H         1 LIG501      0.0339
@<TRIPOS>BOND
     1    1    2 2
     2    2    3 1
     3    2   14 am
     4    3    4 1
     5    3    7 1
     6    3   17 1
     7    4    5 1
     8    5    6 1
     9    6    8 1
    10    7    8 ar
    11    7   11 ar
    12    8    9 ar
    13    9   10 ar
    14   10   12 ar
    15   11   12 ar
    16   12   13 1
    17   14   15 am
    18   14   18 1
    19   15   16 2
    20   15   17 1
    21   18   19 ar
    22   18   27 ar
    23   19   20 ar
    24   19   24 ar
    25   20   21 ar
    26   21   22 ar
    27   22   23 ar
    28   23   24 ar
    29   24   25 ar
    30   25   26 ar
    31   26   27 ar
    32    4   28 1
    33    4   29 1
    34    5   30 1
    35    5   31 1
    36    9   32 1
    37   10   33 1
    38   11   34 1
    39   17   35 1
    40   17   36 1
    41   20   37 1
    42   21   38 1
    43   22   39 1
    44   23   40 1
    45   25   41 1
    46   27   42 1
