LIG(B-501)
  -OEChem-01022203443D

 42 46  0     1  0  0  0  0  0999 V2000
    8.7487    1.0611   21.0507 O   0  0  0  0  0  0  0  0  0  0  0  0
    8.2504    0.0168   21.4265 C   0  0  0  0  0  0  0  0  0  0  0  0
    8.6253   -0.7606   22.6923 C   0  0  2  0  0  0  0  0  0  0  0  0
    7.8737   -0.1194   23.8825 C   0  0  0  0  0  0  0  0  0  0  0  0
    8.6625    1.0133   24.4989 C   0  0  0  0  0  0  0  0  0  0  0  0
    9.9496    0.5589   24.9527 O   0  0  0  0  0  0  0  0  0  0  0  0
   10.1421   -0.7766   22.9242 C   0  0  0  0  0  0  0  0  0  0  0  0
   10.7056   -0.0626   23.9890 C   0  0  0  0  0  0  0  0  0  0  0  0
   12.0781    0.0316   24.1532 C   0  0  0  0  0  0  0  0  0  0  0  0
   12.9147   -0.6032   23.2559 C   0  0  0  0  0  0  0  0  0  0  0  0
   11.0005   -1.4332   22.0435 C   0  0  0  0  0  0  0  0  0  0  0  0
   12.3697   -1.3298   22.2224 C   0  0  0  0  0  0  0  0  0  0  0  0
   13.4333   -2.1251   21.0931 Cl  0  0  0  0  0  0  0  0  0  0  0  0
    7.2305   -0.6898   20.7785 N   0  0  0  0  0  0  0  0  0  0  0  0
    6.9880   -1.9367   21.3575 C   0  0  0  0  0  0  0  0  0  0  0  0
    6.0624   -2.6705   21.0473 O   0  0  0  0  0  0  0  0  0  0  0  0
    8.0155   -2.1541   22.4325 C   0  0  0  0  0  0  0  0  0  0  0  0
    6.4452   -0.1472   19.6975 C   0  0  0  0  0  0  0  0  0  0  0  0
    5.3995    0.7732   19.9944 C   0  0  0  0  0  0  0  0  0  0  0  0
    4.8986    1.0232   21.2985 C   0  0  0  0  0  0  0  0  0  0  0  0
    3.8974    1.9290   21.5048 C   0  0  0  0  0  0  0  0  0  0  0  0
    3.3444    2.6278   20.4409 C   0  0  0  0  0  0  0  0  0  0  0  0
    3.7877    2.4205   19.1658 C   0  0  0  0  0  0  0  0  0  0  0  0
    4.8238    1.4906   18.9051 C   0  0  0  0  0  0  0  0  0  0  0  0
    5.3288    1.2339   17.6062 C   0  0  0  0  0  0  0  0  0  0  0  0
    6.3072    0.3768   17.3417 N   0  0  0  0  0  0  0  0  0  0  0  0
    6.8449   -0.2893   18.3747 C   0  0  0  0  0  0  0  0  0  0  0  0
    6.9091    0.2710   23.5260 H   0  0  0  0  0  0  0  0  0  0  0  0
    7.6973   -0.8888   24.6486 H   0  0  0  0  0  0  0  0  0  0  0  0
    8.8048    1.8033   23.7468 H   0  0  0  0  0  0  0  0  0  0  0  0
    8.1019    1.4181   25.3544 H   0  0  0  0  0  0  0  0  0  0  0  0
   12.4905    0.5967   24.9760 H   0  0  0  0  0  0  0  0  0  0  0  0
   13.9868   -0.5299   23.3645 H   0  0  0  0  0  0  0  0  0  0  0  0
   10.6008   -2.0178   21.2281 H   0  0  0  0  0  0  0  0  0  0  0  0
    8.7895   -2.8570   22.0907 H   0  0  0  0  0  0  0  0  0  0  0  0
    7.5426   -2.5451   23.3455 H   0  0  0  0  0  0  0  0  0  0  0  0
    5.3152    0.4895   22.1399 H   0  0  0  0  0  0  0  0  0  0  0  0
    3.5323    2.1032   22.5061 H   0  0  0  0  0  0  0  0  0  0  0  0
    2.5557    3.3427   20.6232 H   0  0  0  0  0  0  0  0  0  0  0  0
    3.3442    2.9705   18.3490 H   0  0  0  0  0  0  0  0  0  0  0  0
    4.8894    1.7702   16.7782 H   0  0  0  0  0  0  0  0  0  0  0  0
    7.6441   -0.9842   18.1632 H   0  0  0  0  0  0  0  0  0  0  0  0
  1  2  2  0  0  0  0
  2  3  1  0  0  0  0
  2 14  1  0  0  0  0
  3  4  1  0  0  0  0
  3  7  1  0  0  0  0
  3 17  1  0  0  0  0
  4  5  1  0  0  0  0
  5  6  1  0  0  0  0
  6  8  1  0  0  0  0
  7  8  2  0  0  0  0
  7 11  1  0  0  0  0
  8  9  1  0  0  0  0
  9 10  2  0  0  0  0
 10 12  1  0  0  0  0
 11 12  2  0  0  0  0
 12 13  1  0  0  0  0
 14 15  1  0  0  0  0
 14 18  1  0  0  0  0
 15 16  2  0  0  0  0
 15 17  1  0  0  0  0
 18 19  2  0  0  0  0
 18 27  1  0  0  0  0
 19 20  1  0  0  0  0
 19 24  1  0  0  0  0
 20 21  2  0  0  0  0
 21 22  1  0  0  0  0
 22 23  2  0  0  0  0
 23 24  1  0  0  0  0
 24 25  2  0  0  0  0
 25 26  1  0  0  0  0
 26 27  2  0  0  0  0
  4 28  1  0  0  0  0
  4 29  1  0  0  0  0
  5 30  1  0  0  0  0
  5 31  1  0  0  0  0
  9 32  1  0  0  0  0
 10 33  1  0  0  0  0
 11 34  1  0  0  0  0
 17 35  1  0  0  0  0
 17 36  1  0  0  0  0
 20 37  1  0  0  0  0
 21 38  1  0  0  0  0
 22 39  1  0  0  0  0
 23 40  1  0  0  0  0
 25 41  1  0  0  0  0
 27 42  1  0  0  0  0
M  END
$$$$
