CHR-SOS-363-8
 OpenBabel03242009303D

 46 48  0  0  0  0  0  0  0  0999 V2000
    7.5119   -4.8245   27.7527 C   0  0  0  0  0  0  0  0  0  0  0  0
    9.8393   -3.2312   24.8819 C   0  0  0  0  0  0  0  0  0  0  0  0
    9.1424   -0.9186   24.9370 C   0  0  0  0  0  0  0  0  0  0  0  0
   10.9665   -2.8739   24.1421 C   0  0  0  0  0  0  0  0  0  0  0  0
   10.2697   -0.5612   24.1972 C   0  0  0  0  0  0  0  0  0  0  0  0
    6.3436    0.9385   18.6221 C   0  0  0  0  0  0  0  0  0  0  0  0
    5.5898    0.1143   17.8022 C   0  0  0  0  0  0  0  0  0  0  0  0
    6.2275   -5.8877   25.9726 C   0  0  0  0  0  0  0  0  0  0  0  0
    5.4868   -1.5321   19.4012 C   0  0  0  0  0  0  0  0  0  0  0  0
    5.8410   -4.8738   23.9476 C   0  0  0  0  0  0  0  0  0  0  0  0
    6.9532   -4.8031   26.4382 C   0  0  0  0  0  0  0  0  0  0  0  0
    6.6686    0.4728   19.8913 C   0  0  0  0  0  0  0  0  0  0  0  0
    6.2360   -0.7851   20.2960 C   0  0  0  0  0  0  0  0  0  0  0  0
    6.5484   -3.7416   24.3183 C   0  0  0  0  0  0  0  0  0  0  0  0
    8.9272   -2.2535   25.2793 C   0  0  0  0  0  0  0  0  0  0  0  0
    7.1121   -3.7136   25.5891 C   0  0  0  0  0  0  0  0  0  0  0  0
   11.1817   -1.5390   23.7998 C   0  0  0  0  0  0  0  0  0  0  0  0
    6.1726   -2.5463   22.1163 C   0  0  0  0  0  0  0  0  0  0  0  0
    7.4808    1.3404   20.7959 C   0  0  0  0  0  0  0  0  0  0  0  0
    7.9658   -4.8418   28.8207 N   0  0  0  0  0  0  0  0  0  0  0  0
    5.1515   -1.1134   18.1603 N   0  0  0  0  0  0  0  0  0  0  0  0
    5.6653   -5.9514   24.7449 N   0  0  0  0  0  0  0  0  0  0  0  0
   11.9929   -1.2337   21.2791 N   0  0  0  0  0  0  0  0  0  0  0  0
    6.5404   -1.3032   21.5770 N   0  0  0  0  0  0  0  0  0  0  0  0
    6.6816   -2.6729   23.4323 N   0  0  0  0  0  0  0  0  0  0  0  0
    5.5087   -3.4015   21.5392 O   0  0  0  0  0  0  0  0  0  0  0  0
   12.8920    0.3082   23.1392 O   0  0  0  0  0  0  0  0  0  0  0  0
   13.6198   -2.1031   23.0775 O   0  0  0  0  0  0  0  0  0  0  0  0
    7.8274   -2.6020   26.0017 O   0  0  0  0  0  0  0  0  0  0  0  0
   12.5924   -1.0917   22.8728 S   0  0  0  0  0  0  0  0  0  0  0  0
    9.6773   -4.2727   25.1462 H   0  0  0  0  0  0  0  0  0  0  0  0
    8.4355   -0.1525   25.2437 H   0  0  0  0  0  0  0  0  0  0  0  0
   11.6704   -3.6437   23.8376 H   0  0  0  0  0  0  0  0  0  0  0  0
   10.4276    0.4816   23.9356 H   0  0  0  0  0  0  0  0  0  0  0  0
    6.6657    1.9147   18.2759 H   0  0  0  0  0  0  0  0  0  0  0  0
    5.3098    0.4310   16.8029 H   0  0  0  0  0  0  0  0  0  0  0  0
    6.0667   -6.7699   26.5859 H   0  0  0  0  0  0  0  0  0  0  0  0
    5.1199   -2.5212   19.6591 H   0  0  0  0  0  0  0  0  0  0  0  0
    5.3782   -4.9555   22.9686 H   0  0  0  0  0  0  0  0  0  0  0  0
    6.8252    1.9782   21.3998 H   0  0  0  0  0  0  0  0  0  0  0  0
    8.1012    0.7380   21.4709 H   0  0  0  0  0  0  0  0  0  0  0  0
    8.1621    1.9818   20.2232 H   0  0  0  0  0  0  0  0  0  0  0  0
   11.8310   -0.3703   20.7465 H   0  0  0  0  0  0  0  0  0  0  0  0
   12.3273   -2.0182   20.7065 H   0  0  0  0  0  0  0  0  0  0  0  0
    7.0937   -0.7011   22.1815 H   0  0  0  0  0  0  0  0  0  0  0  0
    7.2168   -1.8640   23.7661 H   0  0  0  0  0  0  0  0  0  0  0  0
  1 11  1  0  0  0  0
  1 20  3  0  0  0  0
  2  4  2  0  0  0  0
  2 15  1  0  0  0  0
  2 31  1  0  0  0  0
  3  5  1  0  0  0  0
  3 15  2  0  0  0  0
  3 32  1  0  0  0  0
  4 17  1  0  0  0  0
  4 33  1  0  0  0  0
  5 17  2  0  0  0  0
  5 34  1  0  0  0  0
  6  7  2  0  0  0  0
  6 12  1  0  0  0  0
  6 35  1  0  0  0  0
  7 21  1  0  0  0  0
  7 36  1  0  0  0  0
  8 11  2  0  0  0  0
  8 22  1  0  0  0  0
  8 37  1  0  0  0  0
  9 13  1  0  0  0  0
  9 21  2  0  0  0  0
  9 38  1  0  0  0  0
 10 14  1  0  0  0  0
 10 22  2  0  0  0  0
 10 39  1  0  0  0  0
 11 16  1  0  0  0  0
 12 13  2  0  0  0  0
 12 19  1  0  0  0  0
 13 24  1  0  0  0  0
 14 16  2  0  0  0  0
 14 25  1  0  0  0  0
 15 29  1  0  0  0  0
 16 29  1  0  0  0  0
 17 30  1  0  0  0  0
 18 24  1  0  0  0  0
 18 25  1  0  0  0  0
 18 26  2  0  0  0  0
 19 40  1  0  0  0  0
 19 41  1  0  0  0  0
 19 42  1  0  0  0  0
 23 30  1  0  0  0  0
 23 43  1  0  0  0  0
 23 44  1  0  0  0  0
 24 45  1  0  0  0  0
 25 46  1  0  0  0  0
 27 30  2  0  0  0  0
 28 30  2  0  0  0  0
M  END
>  <Chemgauss4 Score>
-4.88131523132324

>  <Number of Confs>
124

$$$$
