PAU-WEI-c6d-1
 OpenBabel03242009303D

 55 57  0  0  1  0  0  0  0  0999 V2000
    6.2094    0.2523   18.8661 C   0  0  0  0  0  0  0  0  0  0  0  0
    5.6182   -0.9491   19.2565 C   0  0  0  0  0  0  0  0  0  0  0  0
    7.3342    0.7276   19.5404 C   0  0  0  0  0  0  0  0  0  0  0  0
    6.1516   -1.6753   20.3213 C   0  0  0  0  0  0  0  0  0  0  0  0
    7.8676    0.0015   20.6052 C   0  0  0  0  0  0  0  0  0  0  0  0
    7.2763   -1.2000   20.9957 C   0  0  0  0  0  0  0  0  0  0  0  0
    9.9804   -1.1402   24.7194 C   0  0  0  0  0  0  0  0  0  0  0  0
    6.9268   -5.1752   26.6864 C   0  0  0  0  0  0  0  0  0  0  0  0
   12.9524   -0.0718   21.9362 C   0  0  0  0  0  0  0  0  0  0  0  0
   12.1924    0.9297   22.8043 C   0  0  0  0  0  0  0  0  0  0  0  0
   12.2094   -1.4050   21.8627 C   0  0  0  0  0  0  0  0  0  0  0  0
    9.8953   -3.4199   25.6202 C   0  0  0  0  0  0  0  0  0  0  0  0
   11.8841    0.3455   24.1801 C   0  0  0  0  0  0  0  0  0  0  0  0
   11.8994   -1.9456   23.2569 C   0  0  0  0  0  0  0  0  0  0  0  0
    9.1948   -4.7741   25.6134 C   0  0  0  0  0  0  0  0  0  0  0  0
    7.1529   -3.7646   24.6672 C   0  0  0  0  0  0  0  0  0  0  0  0
    9.3339   -2.4825   24.5444 C   0  0  1  0  0  0  0  0  0  0  0  0
    7.7992   -2.3707   24.6374 C   0  0  1  0  0  0  0  0  0  0  0  0
    7.8533   -1.9844   22.1470 C   0  0  0  0  0  0  0  0  0  0  0  0
    7.6095   -6.0383   27.7175 C   0  0  0  0  0  0  0  0  0  0  0  0
    7.2224   -1.5625   23.4709 C   0  0  0  0  0  0  0  0  0  0  0  0
   11.1927   -0.9399   24.0602 N   0  0  0  0  0  0  0  0  0  0  0  0
    7.7430   -4.6016   25.7118 N   0  0  0  0  0  0  0  0  0  0  0  0
    9.4246   -0.2905   25.4202 O   0  0  0  0  0  0  0  0  0  0  0  0
    5.7051   -5.0151   26.7486 O   0  0  0  0  0  0  0  0  0  0  0  0
    8.0935   -4.9687   29.0288 Cl  0  0  0  0  0  0  0  0  0  0  0  0
    5.7948    0.8170   18.0361 H   0  0  0  0  0  0  0  0  0  0  0  0
    4.7430   -1.3199   18.7309 H   0  0  0  0  0  0  0  0  0  0  0  0
    7.7955    1.6625   19.2360 H   0  0  0  0  0  0  0  0  0  0  0  0
    5.6841   -2.6103   20.6187 H   0  0  0  0  0  0  0  0  0  0  0  0
    8.7441    0.3796   21.1248 H   0  0  0  0  0  0  0  0  0  0  0  0
   13.0871    0.3360   20.9282 H   0  0  0  0  0  0  0  0  0  0  0  0
   13.9533   -0.2333   22.3549 H   0  0  0  0  0  0  0  0  0  0  0  0
   12.7858    1.8441   22.9157 H   0  0  0  0  0  0  0  0  0  0  0  0
   11.2560    1.2123   22.3076 H   0  0  0  0  0  0  0  0  0  0  0  0
   11.2741   -1.2758   21.3038 H   0  0  0  0  0  0  0  0  0  0  0  0
   12.8153   -2.1324   21.3110 H   0  0  0  0  0  0  0  0  0  0  0  0
    9.7898   -2.9628   26.6133 H   0  0  0  0  0  0  0  0  0  0  0  0
   10.9714   -3.5641   25.4621 H   0  0  0  0  0  0  0  0  0  0  0  0
   12.8115    0.1668   24.7372 H   0  0  0  0  0  0  0  0  0  0  0  0
   11.2875    1.0578   24.7587 H   0  0  0  0  0  0  0  0  0  0  0  0
   11.3303   -2.8724   23.1667 H   0  0  0  0  0  0  0  0  0  0  0  0
   12.8283   -2.1868   23.7873 H   0  0  0  0  0  0  0  0  0  0  0  0
    9.3954   -5.3018   24.6734 H   0  0  0  0  0  0  0  0  0  0  0  0
    9.5922   -5.3927   26.4198 H   0  0  0  0  0  0  0  0  0  0  0  0
    6.0714   -3.6719   24.8130 H   0  0  0  0  0  0  0  0  0  0  0  0
    7.3065   -4.2844   23.7132 H   0  0  0  0  0  0  0  0  0  0  0  0
    9.6201   -2.8637   23.5553 H   0  0  0  0  0  0  0  0  0  0  0  0
    7.5317   -1.8478   25.5664 H   0  0  0  0  0  0  0  0  0  0  0  0
    7.6949   -3.0578   21.9805 H   0  0  0  0  0  0  0  0  0  0  0  0
    8.9408   -1.8397   22.1864 H   0  0  0  0  0  0  0  0  0  0  0  0
    8.4835   -6.4966   27.2691 H   0  0  0  0  0  0  0  0  0  0  0  0
    6.9038   -6.7767   28.0803 H   0  0  0  0  0  0  0  0  0  0  0  0
    7.4005   -0.5010   23.6618 H   0  0  0  0  0  0  0  0  0  0  0  0
    6.1397   -1.7113   23.4469 H   0  0  0  0  0  0  0  0  0  0  0  0
  1  2  1  0  0  0  0
  1  3  2  0  0  0  0
  1 27  1  0  0  0  0
  2  4  2  0  0  0  0
  2 28  1  0  0  0  0
  3  5  1  0  0  0  0
  3 29  1  0  0  0  0
  4  6  1  0  0  0  0
  4 30  1  0  0  0  0
  5  6  2  0  0  0  0
  5 31  1  0  0  0  0
  6 19  1  0  0  0  0
  7 17  1  0  0  0  0
  7 22  1  0  0  0  0
  7 24  2  0  0  0  0
  8 20  1  0  0  0  0
  8 23  1  0  0  0  0
  8 25  2  0  0  0  0
  9 10  1  0  0  0  0
  9 11  1  0  0  0  0
  9 32  1  0  0  0  0
  9 33  1  0  0  0  0
 10 13  1  0  0  0  0
 10 34  1  0  0  0  0
 10 35  1  0  0  0  0
 11 14  1  0  0  0  0
 11 36  1  0  0  0  0
 11 37  1  0  0  0  0
 12 15  1  0  0  0  0
 12 17  1  0  0  0  0
 12 38  1  0  0  0  0
 12 39  1  0  0  0  0
 13 22  1  0  0  0  0
 13 40  1  0  0  0  0
 13 41  1  0  0  0  0
 14 22  1  0  0  0  0
 14 42  1  0  0  0  0
 14 43  1  0  0  0  0
 15 23  1  0  0  0  0
 15 44  1  0  0  0  0
 15 45  1  0  0  0  0
 16 18  1  0  0  0  0
 16 23  1  0  0  0  0
 16 46  1  0  0  0  0
 16 47  1  0  0  0  0
 17 18  1  0  0  0  0
 17 48  1  6  0  0  0
 18 21  1  0  0  0  0
 18 49  1  1  0  0  0
 19 21  1  0  0  0  0
 19 50  1  0  0  0  0
 19 51  1  0  0  0  0
 20 26  1  0  0  0  0
 20 52  1  0  0  0  0
 20 53  1  0  0  0  0
 21 54  1  0  0  0  0
 21 55  1  0  0  0  0
M  END
>  <Chemgauss4 Score>
-4.7473030090332

>  <Number of Confs>
141

$$$$
